MODEL 1
REMARK VINA RESULT:    -6.344      0.000      0.000
REMARK INTER + INTRA:          -7.745
REMARK INTER:                  -7.456
REMARK INTRA:                  -0.289
REMARK UNBOUND:                -0.289
REMARK SMILES O=c1c(O)c(-c2ccc(O)c(O)c2)oc2cc(O)ccc12
REMARK SMILES IDX 5 1 3 2 2 3 1 4 21 5 15 6 14 7 16 8 17 9 19 10 20 11 6 12
REMARK SMILES IDX 7 13 8 14 9 15 13 16 11 17 10 18 12 20 4 22 18 24
REMARK H PARENT 10 19 12 21 4 23 18 25
REMARK Flexibility Score: inf
ROOT
ATOM      1  C   UNL     1      -6.718  12.125  18.459  1.00  0.00     0.180 A 
ATOM      2  C   UNL     1      -6.885  12.624  19.768  1.00  0.00     0.208 A 
ATOM      3  C   UNL     1      -6.976  14.012  19.956  1.00  0.00     0.235 A 
ATOM      4  O   UNL     1      -7.135  14.483  21.115  1.00  0.00    -0.285 OA
ATOM      5  C   UNL     1      -6.877  14.867  18.846  1.00  0.00     0.069 A 
ATOM      6  C   UNL     1      -6.687  14.289  17.572  1.00  0.00     0.142 A 
ATOM      7  O   UNL     1      -6.615  12.970  17.436  1.00  0.00    -0.452 OA
ATOM      8  C   UNL     1      -6.575  15.108  16.443  1.00  0.00     0.094 A 
ATOM      9  C   UNL     1      -6.652  16.499  16.569  1.00  0.00     0.119 A 
ATOM     10  C   UNL     1      -6.844  17.076  17.832  1.00  0.00     0.047 A 
ATOM     11  C   UNL     1      -6.955  16.266  18.967  1.00  0.00     0.020 A 
ENDROOT
BRANCH   1  12
ATOM     12  C   UNL     1      -6.632  10.674  18.177  1.00  0.00     0.025 A 
ATOM     13  C   UNL     1      -5.393  10.033  18.008  1.00  0.00     0.016 A 
ATOM     14  C   UNL     1      -5.335   8.658  17.766  1.00  0.00     0.051 A 
ATOM     15  C   UNL     1      -6.513   7.902  17.702  1.00  0.00     0.157 A 
ATOM     16  C   UNL     1      -7.809   9.907  18.133  1.00  0.00     0.062 A 
ATOM     17  C   UNL     1      -7.752   8.527  17.890  1.00  0.00     0.158 A 
BRANCH  15  18
ATOM     18  O   UNL     1      -6.460   6.531  17.459  1.00  0.00    -0.504 OA
ATOM     19  H   UNL     1      -6.621   5.855  18.197  1.00  0.00     0.293 HD
ENDBRANCH  15  18
BRANCH  17  20
ATOM     20  O   UNL     1      -8.921   7.773  17.833  1.00  0.00    -0.504 OA
ATOM     21  H   UNL     1      -9.785   8.159  17.472  1.00  0.00     0.293 HD
ENDBRANCH  17  20
ENDBRANCH   1  12
BRANCH   2  22
ATOM     22  O   UNL     1      -6.930  11.752  20.858  1.00  0.00    -0.502 OA
ATOM     23  H   UNL     1      -7.798  11.499  21.315  1.00  0.00     0.293 HD
ENDBRANCH   2  22
BRANCH   9  24
ATOM     24  O   UNL     1      -6.540  17.299  15.434  1.00  0.00    -0.508 OA
ATOM     25  H   UNL     1      -5.636  17.534  15.040  1.00  0.00     0.293 HD
ENDBRANCH   9  24
TORSDOF 5
ENDMDL
MODEL 2
REMARK VINA RESULT:    -6.313      1.886      7.180
REMARK INTER + INTRA:          -7.709
REMARK INTER:                  -7.426
REMARK INTRA:                  -0.284
REMARK UNBOUND:                -0.289
REMARK SMILES O=c1c(O)c(-c2ccc(O)c(O)c2)oc2cc(O)ccc12
REMARK SMILES IDX 5 1 3 2 2 3 1 4 21 5 15 6 14 7 16 8 17 9 19 10 20 11 6 12
REMARK SMILES IDX 7 13 8 14 9 15 13 16 11 17 10 18 12 20 4 22 18 24
REMARK H PARENT 10 19 12 21 4 23 18 25
REMARK Flexibility Score: inf
ROOT
ATOM      1  C   UNL     1      -5.744  14.413  17.620  1.00  0.00     0.180 A 
ATOM      2  C   UNL     1      -4.423  13.976  17.849  1.00  0.00     0.208 A 
ATOM      3  C   UNL     1      -4.163  12.598  17.889  1.00  0.00     0.235 A 
ATOM      4  O   UNL     1      -2.988  12.182  18.083  1.00  0.00    -0.285 OA
ATOM      5  C   UNL     1      -5.222  11.690  17.722  1.00  0.00     0.069 A 
ATOM      6  C   UNL     1      -6.520  12.207  17.520  1.00  0.00     0.142 A 
ATOM      7  O   UNL     1      -6.722  13.520  17.480  1.00  0.00    -0.452 OA
ATOM      8  C   UNL     1      -7.603  11.336  17.358  1.00  0.00     0.094 A 
ATOM      9  C   UNL     1      -7.406   9.951  17.394  1.00  0.00     0.119 A 
ATOM     10  C   UNL     1      -6.118   9.435  17.592  1.00  0.00     0.047 A 
ATOM     11  C   UNL     1      -5.030  10.297  17.756  1.00  0.00     0.020 A 
ENDROOT
BRANCH   1  12
ATOM     12  C   UNL     1      -6.096  15.849  17.545  1.00  0.00     0.025 A 
ATOM     13  C   UNL     1      -6.643  16.526  18.648  1.00  0.00     0.016 A 
ATOM     14  C   UNL     1      -6.945  17.888  18.563  1.00  0.00     0.051 A 
ATOM     15  C   UNL     1      -6.692  18.594  17.380  1.00  0.00     0.157 A 
ATOM     16  C   UNL     1      -5.825  16.567  16.369  1.00  0.00     0.062 A 
ATOM     17  C   UNL     1      -6.128  17.934  16.282  1.00  0.00     0.158 A 
BRANCH  15  18
ATOM     18  O   UNL     1      -6.994  19.953  17.289  1.00  0.00    -0.504 OA
ATOM     19  H   UNL     1      -7.477  20.439  18.036  1.00  0.00     0.293 HD
ENDBRANCH  15  18
BRANCH  17  20
ATOM     20  O   UNL     1      -5.871  18.639  15.109  1.00  0.00    -0.504 OA
ATOM     21  H   UNL     1      -5.819  18.174  14.210  1.00  0.00     0.293 HD
ENDBRANCH  17  20
ENDBRANCH   1  12
BRANCH   2  22
ATOM     22  O   UNL     1      -3.398  14.902  18.062  1.00  0.00    -0.502 OA
ATOM     23  H   UNL     1      -2.646  14.736  18.719  1.00  0.00     0.293 HD
ENDBRANCH   2  22
BRANCH   9  24
ATOM     24  O   UNL     1      -8.495   9.098  17.230  1.00  0.00    -0.508 OA
ATOM     25  H   UNL     1      -8.375   8.094  17.159  1.00  0.00     0.293 HD
ENDBRANCH   9  24
TORSDOF 5
ENDMDL
MODEL 3
REMARK VINA RESULT:    -6.107      1.940      2.906
REMARK INTER + INTRA:          -7.467
REMARK INTER:                  -7.186
REMARK INTRA:                  -0.281
REMARK UNBOUND:                -0.289
REMARK SMILES O=c1c(O)c(-c2ccc(O)c(O)c2)oc2cc(O)ccc12
REMARK SMILES IDX 5 1 3 2 2 3 1 4 21 5 15 6 14 7 16 8 17 9 19 10 20 11 6 12
REMARK SMILES IDX 7 13 8 14 9 15 13 16 11 17 10 18 12 20 4 22 18 24
REMARK H PARENT 10 19 12 21 4 23 18 25
REMARK Flexibility Score: inf
ROOT
ATOM      1  C   UNL     1      -6.842  11.090  18.123  1.00  0.00     0.180 A 
ATOM      2  C   UNL     1      -7.406  11.227  16.837  1.00  0.00     0.208 A 
ATOM      3  C   UNL     1      -7.583  12.515  16.310  1.00  0.00     0.235 A 
ATOM      4  O   UNL     1      -8.076  12.664  15.158  1.00  0.00    -0.285 OA
ATOM      5  C   UNL     1      -7.218  13.632  17.079  1.00  0.00     0.069 A 
ATOM      6  C   UNL     1      -6.683  13.411  18.366  1.00  0.00     0.142 A 
ATOM      7  O   UNL     1      -6.522  12.175  18.824  1.00  0.00    -0.452 OA
ATOM      8  C   UNL     1      -6.315  14.499  19.167  1.00  0.00     0.094 A 
ATOM      9  C   UNL     1      -6.474  15.807  18.697  1.00  0.00     0.119 A 
ATOM     10  C   UNL     1      -7.003  16.029  17.418  1.00  0.00     0.047 A 
ATOM     11  C   UNL     1      -7.375  14.949  16.612  1.00  0.00     0.020 A 
ENDROOT
BRANCH   1  12
ATOM     12  C   UNL     1      -6.606   9.765  18.740  1.00  0.00     0.025 A 
ATOM     13  C   UNL     1      -5.320   9.200  18.791  1.00  0.00     0.016 A 
ATOM     14  C   UNL     1      -5.116   7.960  19.401  1.00  0.00     0.051 A 
ATOM     15  C   UNL     1      -6.191   7.272  19.979  1.00  0.00     0.157 A 
ATOM     16  C   UNL     1      -7.676   9.081  19.341  1.00  0.00     0.062 A 
ATOM     17  C   UNL     1      -7.473   7.836  19.952  1.00  0.00     0.158 A 
BRANCH  15  18
ATOM     18  O   UNL     1      -5.993   6.033  20.587  1.00  0.00    -0.504 OA
ATOM     19  H   UNL     1      -6.684   5.633  21.212  1.00  0.00     0.293 HD
ENDBRANCH  15  18
BRANCH  17  20
ATOM     20  O   UNL     1      -8.539   7.154  20.534  1.00  0.00    -0.504 OA
ATOM     21  H   UNL     1      -9.211   7.626  21.127  1.00  0.00     0.293 HD
ENDBRANCH  17  20
ENDBRANCH   1  12
BRANCH   2  22
ATOM     22  O   UNL     1      -7.805  10.099  16.115  1.00  0.00    -0.502 OA
ATOM     23  H   UNL     1      -7.152   9.534  15.587  1.00  0.00     0.293 HD
ENDBRANCH   2  22
BRANCH   9  24
ATOM     24  O   UNL     1      -6.102  16.877  19.507  1.00  0.00    -0.508 OA
ATOM     25  H   UNL     1      -6.590  17.081  20.371  1.00  0.00     0.293 HD
ENDBRANCH   9  24
TORSDOF 5
ENDMDL
MODEL 4
REMARK VINA RESULT:    -6.106      2.367      7.813
REMARK INTER + INTRA:          -7.466
REMARK INTER:                  -7.150
REMARK INTRA:                  -0.316
REMARK UNBOUND:                -0.289
REMARK SMILES O=c1c(O)c(-c2ccc(O)c(O)c2)oc2cc(O)ccc12
REMARK SMILES IDX 5 1 3 2 2 3 1 4 21 5 15 6 14 7 16 8 17 9 19 10 20 11 6 12
REMARK SMILES IDX 7 13 8 14 9 15 13 16 11 17 10 18 12 20 4 22 18 24
REMARK H PARENT 10 19 12 21 4 23 18 25
REMARK Flexibility Score: inf
ROOT
ATOM      1  C   UNL     1      -6.829  15.960  18.167  1.00  0.00     0.180 A 
ATOM      2  C   UNL     1      -6.798  15.512  16.830  1.00  0.00     0.208 A 
ATOM      3  C   UNL     1      -6.999  14.149  16.568  1.00  0.00     0.235 A 
ATOM      4  O   UNL     1      -6.986  13.725  15.380  1.00  0.00    -0.285 OA
ATOM      5  C   UNL     1      -7.205  13.263  17.639  1.00  0.00     0.069 A 
ATOM      6  C   UNL     1      -7.198  13.786  18.950  1.00  0.00     0.142 A 
ATOM      7  O   UNL     1      -7.013  15.085  19.154  1.00  0.00    -0.452 OA
ATOM      8  C   UNL     1      -7.390  12.934  20.043  1.00  0.00     0.094 A 
ATOM      9  C   UNL     1      -7.590  11.564  19.844  1.00  0.00     0.119 A 
ATOM     10  C   UNL     1      -7.600  11.042  18.544  1.00  0.00     0.047 A 
ATOM     11  C   UNL     1      -7.408  11.885  17.445  1.00  0.00     0.020 A 
ENDROOT
BRANCH   1  12
ATOM     12  C   UNL     1      -6.643  17.385  18.524  1.00  0.00     0.025 A 
ATOM     13  C   UNL     1      -5.363  17.928  18.725  1.00  0.00     0.016 A 
ATOM     14  C   UNL     1      -5.211  19.282  19.037  1.00  0.00     0.051 A 
ATOM     15  C   UNL     1      -6.333  20.113  19.140  1.00  0.00     0.157 A 
ATOM     16  C   UNL     1      -7.764  18.228  18.608  1.00  0.00     0.062 A 
ATOM     17  C   UNL     1      -7.612  19.586  18.921  1.00  0.00     0.158 A 
BRANCH  15  18
ATOM     18  O   UNL     1      -6.186  21.464  19.453  1.00  0.00    -0.504 OA
ATOM     19  H   UNL     1      -6.696  22.183  18.952  1.00  0.00     0.293 HD
ENDBRANCH  15  18
BRANCH  17  20
ATOM     20  O   UNL     1      -8.727  20.417  19.017  1.00  0.00    -0.504 OA
ATOM     21  H   UNL     1      -9.305  20.624  18.212  1.00  0.00     0.293 HD
ENDBRANCH  17  20
ENDBRANCH   1  12
BRANCH   2  22
ATOM     22  O   UNL     1      -6.542  16.409  15.789  1.00  0.00    -0.502 OA
ATOM     23  H   UNL     1      -5.624  16.509  15.374  1.00  0.00     0.293 HD
ENDBRANCH   2  22
BRANCH   9  24
ATOM     24  O   UNL     1      -7.781  10.731  20.945  1.00  0.00    -0.508 OA
ATOM     25  H   UNL     1      -7.100  10.024  21.197  1.00  0.00     0.293 HD
ENDBRANCH   9  24
TORSDOF 5
ENDMDL
MODEL 5
REMARK VINA RESULT:    -5.978      3.008      4.602
REMARK INTER + INTRA:          -7.315
REMARK INTER:                  -7.015
REMARK INTRA:                  -0.301
REMARK UNBOUND:                -0.289
REMARK SMILES O=c1c(O)c(-c2ccc(O)c(O)c2)oc2cc(O)ccc12
REMARK SMILES IDX 5 1 3 2 2 3 1 4 21 5 15 6 14 7 16 8 17 9 19 10 20 11 6 12
REMARK SMILES IDX 7 13 8 14 9 15 13 16 11 17 10 18 12 20 4 22 18 24
REMARK H PARENT 10 19 12 21 4 23 18 25
REMARK Flexibility Score: inf
ROOT
ATOM      1  C   UNL     1      -5.648  15.823  17.064  1.00  0.00     0.180 A 
ATOM      2  C   UNL     1      -6.064  16.647  18.131  1.00  0.00     0.208 A 
ATOM      3  C   UNL     1      -5.511  17.931  18.249  1.00  0.00     0.235 A 
ATOM      4  O   UNL     1      -5.874  18.691  19.189  1.00  0.00    -0.285 OA
ATOM      5  C   UNL     1      -4.546  18.356  17.321  1.00  0.00     0.069 A 
ATOM      6  C   UNL     1      -4.166  17.463  16.296  1.00  0.00     0.142 A 
ATOM      7  O   UNL     1      -4.721  16.259  16.214  1.00  0.00    -0.452 OA
ATOM      8  C   UNL     1      -3.202  17.846  15.357  1.00  0.00     0.094 A 
ATOM      9  C   UNL     1      -2.611  19.112  15.428  1.00  0.00     0.119 A 
ATOM     10  C   UNL     1      -2.988  20.002  16.443  1.00  0.00     0.047 A 
ATOM     11  C   UNL     1      -3.950  19.628  17.387  1.00  0.00     0.020 A 
ENDROOT
BRANCH   1  12
ATOM     12  C   UNL     1      -6.197  14.464  16.860  1.00  0.00     0.025 A 
ATOM     13  C   UNL     1      -7.452  14.264  16.259  1.00  0.00     0.016 A 
ATOM     14  C   UNL     1      -7.940  12.971  16.054  1.00  0.00     0.051 A 
ATOM     15  C   UNL     1      -7.177  11.860  16.435  1.00  0.00     0.157 A 
ATOM     16  C   UNL     1      -5.427  13.346  17.221  1.00  0.00     0.062 A 
ATOM     17  C   UNL     1      -5.916  12.047  17.016  1.00  0.00     0.158 A 
BRANCH  15  18
ATOM     18  O   UNL     1      -7.661  10.568  16.235  1.00  0.00    -0.504 OA
ATOM     19  H   UNL     1      -8.264  10.117  16.914  1.00  0.00     0.293 HD
ENDBRANCH  15  18
BRANCH  17  20
ATOM     20  O   UNL     1      -5.156  10.941  17.388  1.00  0.00    -0.504 OA
ATOM     21  H   UNL     1      -5.578  10.131  17.827  1.00  0.00     0.293 HD
ENDBRANCH  17  20
ENDBRANCH   1  12
BRANCH   2  22
ATOM     22  O   UNL     1      -6.989  16.179  19.068  1.00  0.00    -0.502 OA
ATOM     23  H   UNL     1      -6.840  16.266  20.066  1.00  0.00     0.293 HD
ENDBRANCH   2  22
BRANCH   9  24
ATOM     24  O   UNL     1      -1.653  19.477  14.485  1.00  0.00    -0.508 OA
ATOM     25  H   UNL     1      -1.915  19.883  13.594  1.00  0.00     0.293 HD
ENDBRANCH   9  24
TORSDOF 5
ENDMDL
MODEL 6
REMARK VINA RESULT:    -5.917      2.114      3.231
REMARK INTER + INTRA:          -7.243
REMARK INTER:                  -7.211
REMARK INTRA:                  -0.032
REMARK UNBOUND:                -0.289
REMARK SMILES O=c1c(O)c(-c2ccc(O)c(O)c2)oc2cc(O)ccc12
REMARK SMILES IDX 5 1 3 2 2 3 1 4 21 5 15 6 14 7 16 8 17 9 19 10 20 11 6 12
REMARK SMILES IDX 7 13 8 14 9 15 13 16 11 17 10 18 12 20 4 22 18 24
REMARK H PARENT 10 19 12 21 4 23 18 25
REMARK Flexibility Score: inf
ROOT
ATOM      1  C   UNL     1      -5.505  12.687  16.954  1.00  0.00     0.180 A 
ATOM      2  C   UNL     1      -4.266  12.970  16.342  1.00  0.00     0.208 A 
ATOM      3  C   UNL     1      -3.886  14.310  16.170  1.00  0.00     0.235 A 
ATOM      4  O   UNL     1      -2.778  14.589  15.635  1.00  0.00    -0.285 OA
ATOM      5  C   UNL     1      -4.752  15.332  16.590  1.00  0.00     0.069 A 
ATOM      6  C   UNL     1      -5.985  14.967  17.173  1.00  0.00     0.142 A 
ATOM      7  O   UNL     1      -6.303  13.686  17.325  1.00  0.00    -0.452 OA
ATOM      8  C   UNL     1      -6.879  15.957  17.596  1.00  0.00     0.094 A 
ATOM      9  C   UNL     1      -6.557  17.310  17.446  1.00  0.00     0.119 A 
ATOM     10  C   UNL     1      -5.333  17.676  16.871  1.00  0.00     0.047 A 
ATOM     11  C   UNL     1      -4.434  16.694  16.443  1.00  0.00     0.020 A 
ENDROOT
BRANCH   1  12
ATOM     12  C   UNL     1      -5.969  11.301  17.186  1.00  0.00     0.025 A 
ATOM     13  C   UNL     1      -7.193  10.842  16.671  1.00  0.00     0.016 A 
ATOM     14  C   UNL     1      -7.600   9.522  16.883  1.00  0.00     0.051 A 
ATOM     15  C   UNL     1      -6.783   8.639  17.600  1.00  0.00     0.157 A 
ATOM     16  C   UNL     1      -5.144  10.404  17.887  1.00  0.00     0.062 A 
ATOM     17  C   UNL     1      -5.551   9.079  18.100  1.00  0.00     0.158 A 
BRANCH  15  18
ATOM     18  O   UNL     1      -7.185   7.321  17.816  1.00  0.00    -0.504 OA
ATOM     19  H   UNL     1      -6.546   6.544  17.689  1.00  0.00     0.293 HD
ENDBRANCH  15  18
BRANCH  17  20
ATOM     20  O   UNL     1      -4.738   8.197  18.808  1.00  0.00    -0.504 OA
ATOM     21  H   UNL     1      -4.557   7.258  18.473  1.00  0.00     0.293 HD
ENDBRANCH  17  20
ENDBRANCH   1  12
BRANCH   2  22
ATOM     22  O   UNL     1      -3.447  11.932  15.889  1.00  0.00    -0.502 OA
ATOM     23  H   UNL     1      -2.704  12.082  15.217  1.00  0.00     0.293 HD
ENDBRANCH   2  22
BRANCH   9  24
ATOM     24  O   UNL     1      -7.459  18.281  17.873  1.00  0.00    -0.508 OA
ATOM     25  H   UNL     1      -8.346  18.031  18.295  1.00  0.00     0.293 HD
ENDBRANCH   9  24
TORSDOF 5
ENDMDL
MODEL 7
REMARK VINA RESULT:    -5.895      2.640      6.946
REMARK INTER + INTRA:          -7.218
REMARK INTER:                  -6.929
REMARK INTRA:                  -0.289
REMARK UNBOUND:                -0.289
REMARK SMILES O=c1c(O)c(-c2ccc(O)c(O)c2)oc2cc(O)ccc12
REMARK SMILES IDX 5 1 3 2 2 3 1 4 21 5 15 6 14 7 16 8 17 9 19 10 20 11 6 12
REMARK SMILES IDX 7 13 8 14 9 15 13 16 11 17 10 18 12 20 4 22 18 24
REMARK H PARENT 10 19 12 21 4 23 18 25
REMARK Flexibility Score: inf
ROOT
ATOM      1  C   UNL     1      -7.816  12.566  20.578  1.00  0.00     0.180 A 
ATOM      2  C   UNL     1      -7.395  13.176  19.378  1.00  0.00     0.208 A 
ATOM      3  C   UNL     1      -6.990  12.362  18.311  1.00  0.00     0.235 A 
ATOM      4  O   UNL     1      -6.618  12.883  17.224  1.00  0.00    -0.285 OA
ATOM      5  C   UNL     1      -6.992  10.966  18.467  1.00  0.00     0.069 A 
ATOM      6  C   UNL     1      -7.405  10.433  19.707  1.00  0.00     0.142 A 
ATOM      7  O   UNL     1      -7.791  11.240  20.690  1.00  0.00    -0.452 OA
ATOM      8  C   UNL     1      -7.413   9.048  19.906  1.00  0.00     0.094 A 
ATOM      9  C   UNL     1      -7.014   8.186  18.879  1.00  0.00     0.119 A 
ATOM     10  C   UNL     1      -6.606   8.711  17.646  1.00  0.00     0.047 A 
ATOM     11  C   UNL     1      -6.593  10.094  17.439  1.00  0.00     0.020 A 
ENDROOT
BRANCH   1  12
ATOM     12  C   UNL     1      -8.276  13.356  21.743  1.00  0.00     0.025 A 
ATOM     13  C   UNL     1      -7.363  13.962  22.622  1.00  0.00     0.016 A 
ATOM     14  C   UNL     1      -7.820  14.723  23.702  1.00  0.00     0.051 A 
ATOM     15  C   UNL     1      -9.194  14.900  23.909  1.00  0.00     0.157 A 
ATOM     16  C   UNL     1      -9.652  13.554  21.944  1.00  0.00     0.062 A 
ATOM     17  C   UNL     1     -10.112  14.317  23.027  1.00  0.00     0.158 A 
BRANCH  15  18
ATOM     18  O   UNL     1      -9.654  15.657  24.986  1.00  0.00    -0.504 OA
ATOM     19  H   UNL     1     -10.337  16.396  24.861  1.00  0.00     0.293 HD
ENDBRANCH  15  18
BRANCH  17  20
ATOM     20  O   UNL     1     -11.478  14.500  23.232  1.00  0.00    -0.504 OA
ATOM     21  H   UNL     1     -11.932  15.381  23.026  1.00  0.00     0.293 HD
ENDBRANCH  17  20
ENDBRANCH   1  12
BRANCH   2  22
ATOM     22  O   UNL     1      -7.356  14.569  19.268  1.00  0.00    -0.502 OA
ATOM     23  H   UNL     1      -6.554  15.113  19.562  1.00  0.00     0.293 HD
ENDBRANCH   2  22
BRANCH   9  24
ATOM     24  O   UNL     1      -7.029   6.809  19.094  1.00  0.00    -0.508 OA
ATOM     25  H   UNL     1      -7.386   6.412  19.955  1.00  0.00     0.293 HD
ENDBRANCH   9  24
TORSDOF 5
ENDMDL
MODEL 8
REMARK VINA RESULT:    -5.818      2.354      7.368
REMARK INTER + INTRA:          -7.127
REMARK INTER:                  -7.081
REMARK INTRA:                  -0.046
REMARK UNBOUND:                -0.289
REMARK SMILES O=c1c(O)c(-c2ccc(O)c(O)c2)oc2cc(O)ccc12
REMARK SMILES IDX 5 1 3 2 2 3 1 4 21 5 15 6 14 7 16 8 17 9 19 10 20 11 6 12
REMARK SMILES IDX 7 13 8 14 9 15 13 16 11 17 10 18 12 20 4 22 18 24
REMARK H PARENT 10 19 12 21 4 23 18 25
REMARK Flexibility Score: inf
ROOT
ATOM      1  C   UNL     1      -6.204  14.957  17.878  1.00  0.00     0.180 A 
ATOM      2  C   UNL     1      -7.107  14.626  16.847  1.00  0.00     0.208 A 
ATOM      3  C   UNL     1      -7.286  13.276  16.511  1.00  0.00     0.235 A 
ATOM      4  O   UNL     1      -8.096  12.953  15.600  1.00  0.00    -0.285 OA
ATOM      5  C   UNL     1      -6.549  12.292  17.191  1.00  0.00     0.069 A 
ATOM      6  C   UNL     1      -5.647  12.707  18.195  1.00  0.00     0.142 A 
ATOM      7  O   UNL     1      -5.515  13.996  18.488  1.00  0.00    -0.452 OA
ATOM      8  C   UNL     1      -4.888  11.758  18.888  1.00  0.00     0.094 A 
ATOM      9  C   UNL     1      -5.019  10.397  18.593  1.00  0.00     0.119 A 
ATOM     10  C   UNL     1      -5.915   9.981  17.600  1.00  0.00     0.047 A 
ATOM     11  C   UNL     1      -6.677  10.922  16.900  1.00  0.00     0.020 A 
ENDROOT
BRANCH   1  12
ATOM     12  C   UNL     1      -5.974  16.357  18.303  1.00  0.00     0.025 A 
ATOM     13  C   UNL     1      -4.692  16.932  18.267  1.00  0.00     0.016 A 
ATOM     14  C   UNL     1      -4.503  18.262  18.650  1.00  0.00     0.051 A 
ATOM     15  C   UNL     1      -5.593  19.040  19.060  1.00  0.00     0.157 A 
ATOM     16  C   UNL     1      -7.066  17.149  18.694  1.00  0.00     0.062 A 
ATOM     17  C   UNL     1      -6.878  18.484  19.079  1.00  0.00     0.158 A 
BRANCH  15  18
ATOM     18  O   UNL     1      -5.408  20.368  19.445  1.00  0.00    -0.504 OA
ATOM     19  H   UNL     1      -4.748  20.971  18.968  1.00  0.00     0.293 HD
ENDBRANCH  15  18
BRANCH  17  20
ATOM     20  O   UNL     1      -7.961  19.262  19.481  1.00  0.00    -0.504 OA
ATOM     21  H   UNL     1      -8.875  18.856  19.644  1.00  0.00     0.293 HD
ENDBRANCH  17  20
ENDBRANCH   1  12
BRANCH   2  22
ATOM     22  O   UNL     1      -7.790  15.630  16.154  1.00  0.00    -0.502 OA
ATOM     23  H   UNL     1      -8.155  16.454  16.616  1.00  0.00     0.293 HD
ENDBRANCH   2  22
BRANCH   9  24
ATOM     24  O   UNL     1      -4.256   9.466  19.295  1.00  0.00    -0.508 OA
ATOM     25  H   UNL     1      -4.488   9.199  20.244  1.00  0.00     0.293 HD
ENDBRANCH   9  24
TORSDOF 5
ENDMDL
MODEL 9
REMARK VINA RESULT:    -5.791      2.490      4.193
REMARK INTER + INTRA:          -7.095
REMARK INTER:                  -6.848
REMARK INTRA:                  -0.247
REMARK UNBOUND:                -0.289
REMARK SMILES O=c1c(O)c(-c2ccc(O)c(O)c2)oc2cc(O)ccc12
REMARK SMILES IDX 5 1 3 2 2 3 1 4 21 5 15 6 14 7 16 8 17 9 19 10 20 11 6 12
REMARK SMILES IDX 7 13 8 14 9 15 13 16 11 17 10 18 12 20 4 22 18 24
REMARK H PARENT 10 19 12 21 4 23 18 25
REMARK Flexibility Score: inf
ROOT
ATOM      1  C   UNL     1      -6.154  15.396  17.670  1.00  0.00     0.180 A 
ATOM      2  C   UNL     1      -4.806  15.691  17.380  1.00  0.00     0.208 A 
ATOM      3  C   UNL     1      -4.361  17.016  17.505  1.00  0.00     0.235 A 
ATOM      4  O   UNL     1      -3.157  17.303  17.261  1.00  0.00    -0.285 OA
ATOM      5  C   UNL     1      -5.268  18.016  17.892  1.00  0.00     0.069 A 
ATOM      6  C   UNL     1      -6.606  17.643  18.141  1.00  0.00     0.142 A 
ATOM      7  O   UNL     1      -6.985  16.376  18.021  1.00  0.00    -0.452 OA
ATOM      8  C   UNL     1      -7.543  18.612  18.520  1.00  0.00     0.094 A 
ATOM      9  C   UNL     1      -7.158  19.950  18.655  1.00  0.00     0.119 A 
ATOM     10  C   UNL     1      -5.830  20.323  18.411  1.00  0.00     0.047 A 
ATOM     11  C   UNL     1      -4.888  19.363  18.030  1.00  0.00     0.020 A 
ENDROOT
BRANCH   1  12
ATOM     12  C   UNL     1      -6.696  14.021  17.581  1.00  0.00     0.025 A 
ATOM     13  C   UNL     1      -6.933  13.407  16.339  1.00  0.00     0.016 A 
ATOM     14  C   UNL     1      -7.421  12.100  16.279  1.00  0.00     0.051 A 
ATOM     15  C   UNL     1      -7.667  11.383  17.457  1.00  0.00     0.157 A 
ATOM     16  C   UNL     1      -6.923  13.290  18.759  1.00  0.00     0.062 A 
ATOM     17  C   UNL     1      -7.414  11.978  18.699  1.00  0.00     0.158 A 
BRANCH  15  18
ATOM     18  O   UNL     1      -8.156  10.078  17.402  1.00  0.00    -0.504 OA
ATOM     19  H   UNL     1      -7.550   9.294  17.189  1.00  0.00     0.293 HD
ENDBRANCH  15  18
BRANCH  17  20
ATOM     20  O   UNL     1      -7.652  11.260  19.870  1.00  0.00    -0.504 OA
ATOM     21  H   UNL     1      -7.544  10.254  19.906  1.00  0.00     0.293 HD
ENDBRANCH  17  20
ENDBRANCH   1  12
BRANCH   2  22
ATOM     22  O   UNL     1      -3.938  14.684  16.950  1.00  0.00    -0.502 OA
ATOM     23  H   UNL     1      -4.122  14.127  16.124  1.00  0.00     0.293 HD
ENDBRANCH   2  22
BRANCH   9  24
ATOM     24  O   UNL     1      -8.104  20.901  19.034  1.00  0.00    -0.508 OA
ATOM     25  H   UNL     1      -9.098  20.719  18.956  1.00  0.00     0.293 HD
ENDBRANCH   9  24
TORSDOF 5
ENDMDL
