MODEL 1
REMARK VINA RESULT:    -4.538      0.000      0.000
REMARK INTER + INTRA:          -8.243
REMARK INTER:                  -7.191
REMARK INTRA:                  -1.052
REMARK UNBOUND:                -1.052
REMARK SMILES CCCCCCCCCCCC(=O)[O-]
REMARK SMILES IDX 7 1 8 2 9 3 10 4 11 5 12 6 13 7 14 8 6 9 5 10 4 11 3 12 2 13
REMARK SMILES IDX 1 14
REMARK H PARENT
REMARK Flexibility Score: inf
ROOT
ATOM      1  C   UNL     1     -18.555  -0.393  28.121  1.00  0.00     0.000 C 
ENDROOT
BRANCH   1   2
ATOM      2  C   UNL     1     -19.311  -0.466  29.453  1.00  0.00     0.000 C 
BRANCH   2   3
ATOM      3  C   UNL     1     -19.204  -1.864  30.071  1.00  0.00     0.000 C 
BRANCH   3   4
ATOM      4  C   UNL     1     -17.818  -2.475  29.814  1.00  0.00     0.006 C 
BRANCH   4   5
ATOM      5  C   UNL     1     -17.024  -2.680  31.111  1.00  0.00     0.053 C 
BRANCH   5   6
ATOM      6  C   UNL     1     -16.618  -1.377  31.727  1.00  0.00     0.041 C 
ATOM      7  O   UNL     1     -17.203  -0.954  32.759  1.00  0.00    -0.550 OA
ATOM      8  O   UNL     1     -15.569  -0.645  31.183  1.00  0.00    -0.550 OA
ENDBRANCH   5   6
ENDBRANCH   4   5
ENDBRANCH   3   4
ENDBRANCH   2   3
ENDBRANCH   1   2
BRANCH   1   9
ATOM      9  C   UNL     1     -18.569   1.035  27.556  1.00  0.00     0.000 C 
BRANCH   9  10
ATOM     10  C   UNL     1     -19.887   1.387  26.842  1.00  0.00    -0.000 C 
BRANCH  10  11
ATOM     11  C   UNL     1     -20.529   0.230  26.056  1.00  0.00    -0.000 C 
BRANCH  11  12
ATOM     12  C   UNL     1     -22.056   0.176  26.208  1.00  0.00    -0.000 C 
BRANCH  12  13
ATOM     13  C   UNL     1     -22.471   0.405  27.666  1.00  0.00    -0.003 C 
ATOM     14  C   UNL     1     -22.884  -0.904  28.334  1.00  0.00     0.004 C 
ENDBRANCH  12  13
ENDBRANCH  11  12
ENDBRANCH  10  11
ENDBRANCH   9  10
ENDBRANCH   1   9
TORSDOF 10
ENDMDL
MODEL 2
REMARK VINA RESULT:    -4.503      1.552      2.293
REMARK INTER + INTRA:          -8.187
REMARK INTER:                  -7.643
REMARK INTRA:                  -0.544
REMARK UNBOUND:                -1.052
REMARK SMILES CCCCCCCCCCCC(=O)[O-]
REMARK SMILES IDX 7 1 8 2 9 3 10 4 11 5 12 6 13 7 14 8 6 9 5 10 4 11 3 12 2 13
REMARK SMILES IDX 1 14
REMARK H PARENT
REMARK Flexibility Score: inf
ROOT
ATOM      1  C   UNL     1     -18.226  -0.491  29.177  1.00  0.00     0.000 C 
ENDROOT
BRANCH   1   2
ATOM      2  C   UNL     1     -18.632  -1.911  29.590  1.00  0.00     0.000 C 
BRANCH   2   3
ATOM      3  C   UNL     1     -17.499  -2.608  30.352  1.00  0.00     0.000 C 
BRANCH   3   4
ATOM      4  C   UNL     1     -16.682  -1.596  31.169  1.00  0.00     0.006 C 
BRANCH   4   5
ATOM      5  C   UNL     1     -17.262  -1.378  32.573  1.00  0.00     0.053 C 
BRANCH   5   6
ATOM      6  C   UNL     1     -17.394  -2.666  33.327  1.00  0.00     0.041 C 
ATOM      7  O   UNL     1     -16.365  -3.289  33.701  1.00  0.00    -0.550 OA
ATOM      8  O   UNL     1     -18.652  -3.161  33.647  1.00  0.00    -0.550 OA
ENDBRANCH   5   6
ENDBRANCH   4   5
ENDBRANCH   3   4
ENDBRANCH   2   3
ENDBRANCH   1   2
BRANCH   1   9
ATOM      9  C   UNL     1     -18.482  -0.258  27.681  1.00  0.00     0.000 C 
BRANCH   9  10
ATOM     10  C   UNL     1     -18.939   1.177  27.365  1.00  0.00    -0.000 C 
BRANCH  10  11
ATOM     11  C   UNL     1     -20.277   1.589  28.003  1.00  0.00    -0.000 C 
BRANCH  11  12
ATOM     12  C   UNL     1     -21.450   0.703  27.561  1.00  0.00    -0.000 C 
BRANCH  12  13
ATOM     13  C   UNL     1     -21.394   0.428  26.054  1.00  0.00    -0.003 C 
ATOM     14  C   UNL     1     -22.795   0.353  25.454  1.00  0.00     0.004 C 
ENDBRANCH  12  13
ENDBRANCH  11  12
ENDBRANCH  10  11
ENDBRANCH   9  10
ENDBRANCH   1   9
TORSDOF 10
ENDMDL
MODEL 3
REMARK VINA RESULT:    -4.478      1.107      1.577
REMARK INTER + INTRA:          -8.148
REMARK INTER:                  -7.345
REMARK INTRA:                  -0.803
REMARK UNBOUND:                -1.052
REMARK SMILES CCCCCCCCCCCC(=O)[O-]
REMARK SMILES IDX 7 1 8 2 9 3 10 4 11 5 12 6 13 7 14 8 6 9 5 10 4 11 3 12 2 13
REMARK SMILES IDX 1 14
REMARK H PARENT
REMARK Flexibility Score: inf
ROOT
ATOM      1  C   UNL     1     -18.344  -0.014  28.648  1.00  0.00     0.000 C 
ENDROOT
BRANCH   1   2
ATOM      2  C   UNL     1     -18.183  -1.509  28.951  1.00  0.00     0.000 C 
BRANCH   2   3
ATOM      3  C   UNL     1     -19.341  -2.024  29.814  1.00  0.00     0.000 C 
BRANCH   3   4
ATOM      4  C   UNL     1     -18.844  -3.040  30.853  1.00  0.00     0.006 C 
BRANCH   4   5
ATOM      5  C   UNL     1     -17.344  -2.890  31.141  1.00  0.00     0.053 C 
BRANCH   5   6
ATOM      6  C   UNL     1     -17.094  -2.272  32.483  1.00  0.00     0.041 C 
ATOM      7  O   UNL     1     -16.839  -3.001  33.478  1.00  0.00    -0.550 OA
ATOM      8  O   UNL     1     -17.110  -0.891  32.628  1.00  0.00    -0.550 OA
ENDBRANCH   5   6
ENDBRANCH   4   5
ENDBRANCH   3   4
ENDBRANCH   2   3
ENDBRANCH   1   2
BRANCH   1   9
ATOM      9  C   UNL     1     -18.517   0.227  27.141  1.00  0.00     0.000 C 
BRANCH   9  10
ATOM     10  C   UNL     1     -19.722   1.126  26.811  1.00  0.00    -0.000 C 
BRANCH  10  11
ATOM     11  C   UNL     1     -20.712   1.338  27.970  1.00  0.00    -0.000 C 
BRANCH  11  12
ATOM     12  C   UNL     1     -22.069   0.662  27.732  1.00  0.00    -0.000 C 
BRANCH  12  13
ATOM     13  C   UNL     1     -22.202   0.193  26.278  1.00  0.00    -0.003 C 
ATOM     14  C   UNL     1     -23.667   0.068  25.870  1.00  0.00     0.004 C 
ENDBRANCH  12  13
ENDBRANCH  11  12
ENDBRANCH  10  11
ENDBRANCH   9  10
ENDBRANCH   1   9
TORSDOF 10
ENDMDL
MODEL 4
REMARK VINA RESULT:    -4.473      1.504      1.823
REMARK INTER + INTRA:          -8.139
REMARK INTER:                  -7.208
REMARK INTRA:                  -0.931
REMARK UNBOUND:                -1.052
REMARK SMILES CCCCCCCCCCCC(=O)[O-]
REMARK SMILES IDX 7 1 8 2 9 3 10 4 11 5 12 6 13 7 14 8 6 9 5 10 4 11 3 12 2 13
REMARK SMILES IDX 1 14
REMARK H PARENT
REMARK Flexibility Score: inf
ROOT
ATOM      1  C   UNL     1     -18.458   0.429  28.299  1.00  0.00     0.000 C 
ENDROOT
BRANCH   1   2
ATOM      2  C   UNL     1     -18.570  -0.987  28.879  1.00  0.00     0.000 C 
BRANCH   2   3
ATOM      3  C   UNL     1     -18.471  -0.965  30.408  1.00  0.00     0.000 C 
BRANCH   3   4
ATOM      4  C   UNL     1     -17.155  -1.600  30.883  1.00  0.00     0.006 C 
BRANCH   4   5
ATOM      5  C   UNL     1     -16.924  -1.401  32.387  1.00  0.00     0.053 C 
BRANCH   5   6
ATOM      6  C   UNL     1     -17.292  -2.622  33.173  1.00  0.00     0.041 C 
ATOM      7  O   UNL     1     -16.413  -3.243  33.828  1.00  0.00    -0.550 OA
ATOM      8  O   UNL     1     -18.612  -3.055  33.212  1.00  0.00    -0.550 OA
ENDBRANCH   5   6
ENDBRANCH   4   5
ENDBRANCH   3   4
ENDBRANCH   2   3
ENDBRANCH   1   2
BRANCH   1   9
ATOM      9  C   UNL     1     -18.815   0.443  26.806  1.00  0.00     0.000 C 
BRANCH   9  10
ATOM     10  C   UNL     1     -20.164   1.127  26.516  1.00  0.00    -0.000 C 
BRANCH  10  11
ATOM     11  C   UNL     1     -21.297   0.176  26.093  1.00  0.00    -0.000 C 
BRANCH  11  12
ATOM     12  C   UNL     1     -22.488   0.192  27.063  1.00  0.00    -0.000 C 
BRANCH  12  13
ATOM     13  C   UNL     1     -22.265  -0.787  28.221  1.00  0.00    -0.003 C 
ATOM     14  C   UNL     1     -22.107  -0.047  29.547  1.00  0.00     0.004 C 
ENDBRANCH  12  13
ENDBRANCH  11  12
ENDBRANCH  10  11
ENDBRANCH   9  10
ENDBRANCH   1   9
TORSDOF 10
ENDMDL
MODEL 5
REMARK VINA RESULT:    -4.472      3.194      6.271
REMARK INTER + INTRA:          -8.138
REMARK INTER:                  -7.230
REMARK INTRA:                  -0.908
REMARK UNBOUND:                -1.052
REMARK SMILES CCCCCCCCCCCC(=O)[O-]
REMARK SMILES IDX 7 1 8 2 9 3 10 4 11 5 12 6 13 7 14 8 6 9 5 10 4 11 3 12 2 13
REMARK SMILES IDX 1 14
REMARK H PARENT
REMARK Flexibility Score: inf
ROOT
ATOM      1  C   UNL     1     -19.552  -0.515  29.249  1.00  0.00     0.000 C 
ENDROOT
BRANCH   1   2
ATOM      2  C   UNL     1     -18.308   0.004  28.518  1.00  0.00     0.000 C 
BRANCH   2   3
ATOM      3  C   UNL     1     -18.668   0.536  27.127  1.00  0.00     0.000 C 
BRANCH   3   4
ATOM      4  C   UNL     1     -20.038   1.232  27.142  1.00  0.00     0.006 C 
BRANCH   4   5
ATOM      5  C   UNL     1     -20.977   0.690  26.056  1.00  0.00     0.053 C 
BRANCH   5   6
ATOM      6  C   UNL     1     -22.230   0.113  26.641  1.00  0.00     0.041 C 
ATOM      7  O   UNL     1     -22.853  -0.796  26.032  1.00  0.00    -0.550 OA
ATOM      8  O   UNL     1     -22.690   0.554  27.876  1.00  0.00    -0.550 OA
ENDBRANCH   5   6
ENDBRANCH   4   5
ENDBRANCH   3   4
ENDBRANCH   2   3
ENDBRANCH   1   2
BRANCH   1   9
ATOM      9  C   UNL     1     -19.339  -1.952  29.749  1.00  0.00     0.000 C 
BRANCH   9  10
ATOM     10  C   UNL     1     -17.936  -2.499  29.427  1.00  0.00    -0.000 C 
BRANCH  10  11
ATOM     11  C   UNL     1     -17.053  -2.785  30.654  1.00  0.00    -0.000 C 
BRANCH  11  12
ATOM     12  C   UNL     1     -16.626  -1.511  31.397  1.00  0.00    -0.000 C 
BRANCH  12  13
ATOM     13  C   UNL     1     -17.369  -1.378  32.732  1.00  0.00    -0.003 C 
ATOM     14  C   UNL     1     -17.587  -2.742  33.381  1.00  0.00     0.004 C 
ENDBRANCH  12  13
ENDBRANCH  11  12
ENDBRANCH  10  11
ENDBRANCH   9  10
ENDBRANCH   1   9
TORSDOF 10
ENDMDL
MODEL 6
REMARK VINA RESULT:    -4.368      0.600      1.604
REMARK INTER + INTRA:          -7.973
REMARK INTER:                  -6.830
REMARK INTRA:                  -1.143
REMARK UNBOUND:                -1.052
REMARK SMILES CCCCCCCCCCCC(=O)[O-]
REMARK SMILES IDX 7 1 8 2 9 3 10 4 11 5 12 6 13 7 14 8 6 9 5 10 4 11 3 12 2 13
REMARK SMILES IDX 1 14
REMARK H PARENT
REMARK Flexibility Score: inf
ROOT
ATOM      1  C   UNL     1     -18.539   1.038  27.499  1.00  0.00     0.000 C 
ENDROOT
BRANCH   1   2
ATOM      2  C   UNL     1     -18.546  -0.387  28.066  1.00  0.00     0.000 C 
BRANCH   2   3
ATOM      3  C   UNL     1     -18.818  -0.379  29.574  1.00  0.00     0.000 C 
BRANCH   3   4
ATOM      4  C   UNL     1     -18.850  -1.809  30.135  1.00  0.00     0.006 C 
BRANCH   4   5
ATOM      5  C   UNL     1     -17.452  -2.314  30.517  1.00  0.00     0.053 C 
BRANCH   5   6
ATOM      6  C   UNL     1     -16.799  -1.431  31.535  1.00  0.00     0.041 C 
ATOM      7  O   UNL     1     -15.773  -0.767  31.232  1.00  0.00    -0.550 OA
ATOM      8  O   UNL     1     -17.344  -1.313  32.808  1.00  0.00    -0.550 OA
ENDBRANCH   5   6
ENDBRANCH   4   5
ENDBRANCH   3   4
ENDBRANCH   2   3
ENDBRANCH   1   2
BRANCH   1   9
ATOM      9  C   UNL     1     -19.960   1.493  27.133  1.00  0.00     0.000 C 
BRANCH   9  10
ATOM     10  C   UNL     1     -20.638   0.574  26.101  1.00  0.00    -0.000 C 
BRANCH  10  11
ATOM     11  C   UNL     1     -22.109   0.233  26.402  1.00  0.00    -0.000 C 
BRANCH  11  12
ATOM     12  C   UNL     1     -22.478   0.422  27.880  1.00  0.00    -0.000 C 
BRANCH  12  13
ATOM     13  C   UNL     1     -22.399  -0.907  28.640  1.00  0.00    -0.003 C 
ATOM     14  C   UNL     1     -22.905  -0.755  30.072  1.00  0.00     0.004 C 
ENDBRANCH  12  13
ENDBRANCH  11  12
ENDBRANCH  10  11
ENDBRANCH   9  10
ENDBRANCH   1   9
TORSDOF 10
ENDMDL
MODEL 7
REMARK VINA RESULT:    -4.366      2.652      5.778
REMARK INTER + INTRA:          -7.970
REMARK INTER:                  -7.176
REMARK INTRA:                  -0.795
REMARK UNBOUND:                -1.052
REMARK SMILES CCCCCCCCCCCC(=O)[O-]
REMARK SMILES IDX 7 1 8 2 9 3 10 4 11 5 12 6 13 7 14 8 6 9 5 10 4 11 3 12 2 13
REMARK SMILES IDX 1 14
REMARK H PARENT
REMARK Flexibility Score: inf
ROOT
ATOM      1  C   UNL     1     -18.736   0.477  26.799  1.00  0.00     0.000 C 
ENDROOT
BRANCH   1   2
ATOM      2  C   UNL     1     -20.093   1.102  26.451  1.00  0.00     0.000 C 
BRANCH   2   3
ATOM      3  C   UNL     1     -21.030   0.068  25.819  1.00  0.00     0.000 C 
BRANCH   3   4
ATOM      4  C   UNL     1     -22.416   0.105  26.480  1.00  0.00     0.006 C 
BRANCH   4   5
ATOM      5  C   UNL     1     -22.345   0.520  27.956  1.00  0.00     0.053 C 
BRANCH   5   6
ATOM      6  C   UNL     1     -22.598  -0.637  28.873  1.00  0.00     0.041 C 
ATOM      7  O   UNL     1     -22.698  -1.803  28.409  1.00  0.00    -0.550 OA
ATOM      8  O   UNL     1     -22.689  -0.432  30.244  1.00  0.00    -0.550 OA
ENDBRANCH   5   6
ENDBRANCH   4   5
ENDBRANCH   3   4
ENDBRANCH   2   3
ENDBRANCH   1   2
BRANCH   1   9
ATOM      9  C   UNL     1     -18.521   0.440  28.319  1.00  0.00     0.000 C 
BRANCH   9  10
ATOM     10  C   UNL     1     -18.820  -0.939  28.935  1.00  0.00    -0.000 C 
BRANCH  10  11
ATOM     11  C   UNL     1     -18.633  -1.024  30.460  1.00  0.00    -0.000 C 
BRANCH  11  12
ATOM     12  C   UNL     1     -17.192  -1.359  30.870  1.00  0.00    -0.000 C 
BRANCH  12  13
ATOM     13  C   UNL     1     -17.009  -1.236  32.388  1.00  0.00    -0.003 C 
ATOM     14  C   UNL     1     -17.409  -2.526  33.098  1.00  0.00     0.004 C 
ENDBRANCH  12  13
ENDBRANCH  11  12
ENDBRANCH  10  11
ENDBRANCH   9  10
ENDBRANCH   1   9
TORSDOF 10
ENDMDL
MODEL 8
REMARK VINA RESULT:    -4.299      0.993      2.761
REMARK INTER + INTRA:          -7.865
REMARK INTER:                  -6.697
REMARK INTRA:                  -1.168
REMARK UNBOUND:                -1.052
REMARK SMILES CCCCCCCCCCCC(=O)[O-]
REMARK SMILES IDX 7 1 8 2 9 3 10 4 11 5 12 6 13 7 14 8 6 9 5 10 4 11 3 12 2 13
REMARK SMILES IDX 1 14
REMARK H PARENT
REMARK Flexibility Score: inf
ROOT
ATOM      1  C   UNL     1     -22.092  -1.257  28.735  1.00  0.00     0.000 C 
ENDROOT
BRANCH   1   2
ATOM      2  C   UNL     1     -20.973  -1.113  29.774  1.00  0.00     0.000 C 
BRANCH   2   3
ATOM      3  C   UNL     1     -20.147  -2.400  29.876  1.00  0.00     0.000 C 
BRANCH   3   4
ATOM      4  C   UNL     1     -18.643  -2.093  29.831  1.00  0.00     0.006 C 
BRANCH   4   5
ATOM      5  C   UNL     1     -18.268  -0.895  30.713  1.00  0.00     0.053 C 
BRANCH   5   6
ATOM      6  C   UNL     1     -17.201  -1.245  31.705  1.00  0.00     0.041 C 
ATOM      7  O   UNL     1     -15.994  -0.989  31.453  1.00  0.00    -0.550 OA
ATOM      8  O   UNL     1     -17.542  -1.823  32.921  1.00  0.00    -0.550 OA
ENDBRANCH   5   6
ENDBRANCH   4   5
ENDBRANCH   3   4
ENDBRANCH   2   3
ENDBRANCH   1   2
BRANCH   1   9
ATOM      9  C   UNL     1     -22.629   0.117  28.309  1.00  0.00     0.000 C 
BRANCH   9  10
ATOM     10  C   UNL     1     -22.739   0.273  26.782  1.00  0.00    -0.000 C 
BRANCH  10  11
ATOM     11  C   UNL     1     -21.434   0.019  26.007  1.00  0.00    -0.000 C 
BRANCH  11  12
ATOM     12  C   UNL     1     -20.316   1.005  26.376  1.00  0.00    -0.000 C 
BRANCH  12  13
ATOM     13  C   UNL     1     -19.072   0.261  26.879  1.00  0.00    -0.003 C 
ATOM     14  C   UNL     1     -18.169   1.184  27.691  1.00  0.00     0.004 C 
ENDBRANCH  12  13
ENDBRANCH  11  12
ENDBRANCH  10  11
ENDBRANCH   9  10
ENDBRANCH   1   9
TORSDOF 10
ENDMDL
MODEL 9
REMARK VINA RESULT:    -4.159     14.896     16.591
REMARK INTER + INTRA:          -7.642
REMARK INTER:                  -6.584
REMARK INTRA:                  -1.057
REMARK UNBOUND:                -1.052
REMARK SMILES CCCCCCCCCCCC(=O)[O-]
REMARK SMILES IDX 7 1 8 2 9 3 10 4 11 5 12 6 13 7 14 8 6 9 5 10 4 11 3 12 2 13
REMARK SMILES IDX 1 14
REMARK H PARENT
REMARK Flexibility Score: inf
ROOT
ATOM      1  C   UNL     1      -6.065   7.352  25.794  1.00  0.00     0.000 C 
ENDROOT
BRANCH   1   2
ATOM      2  C   UNL     1      -5.005   8.399  26.159  1.00  0.00     0.000 C 
BRANCH   2   3
ATOM      3  C   UNL     1      -3.991   7.830  27.157  1.00  0.00     0.000 C 
BRANCH   3   4
ATOM      4  C   UNL     1      -4.346   8.236  28.595  1.00  0.00     0.006 C 
BRANCH   4   5
ATOM      5  C   UNL     1      -4.919   7.065  29.405  1.00  0.00     0.053 C 
BRANCH   5   6
ATOM      6  C   UNL     1      -6.329   7.325  29.837  1.00  0.00     0.041 C 
ATOM      7  O   UNL     1      -6.561   8.055  30.837  1.00  0.00    -0.550 OA
ATOM      8  O   UNL     1      -7.389   6.790  29.116  1.00  0.00    -0.550 OA
ENDBRANCH   5   6
ENDBRANCH   4   5
ENDBRANCH   3   4
ENDBRANCH   2   3
ENDBRANCH   1   2
BRANCH   1   9
ATOM      9  C   UNL     1      -7.427   8.014  25.535  1.00  0.00     0.000 C 
BRANCH   9  10
ATOM     10  C   UNL     1      -7.304   9.435  24.955  1.00  0.00    -0.000 C 
BRANCH  10  11
ATOM     11  C   UNL     1      -7.466   9.530  23.428  1.00  0.00    -0.000 C 
BRANCH  11  12
ATOM     12  C   UNL     1      -6.398  10.413  22.765  1.00  0.00    -0.000 C 
BRANCH  12  13
ATOM     13  C   UNL     1      -5.135   9.604  22.449  1.00  0.00    -0.003 C 
ATOM     14  C   UNL     1      -3.909  10.206  23.129  1.00  0.00     0.004 C 
ENDBRANCH  12  13
ENDBRANCH  11  12
ENDBRANCH  10  11
ENDBRANCH   9  10
ENDBRANCH   1   9
TORSDOF 10
ENDMDL
