MODEL 1
REMARK VINA RESULT:    -4.791      0.000      0.000
REMARK INTER + INTRA:         -10.354
REMARK INTER:                  -8.712
REMARK INTRA:                  -1.641
REMARK UNBOUND:                -1.641
REMARK SMILES CCCCCCCCCCCCCCCC(=O)[O-]
REMARK SMILES IDX 9 1 10 2 11 3 12 4 13 5 14 6 15 7 16 8 17 9 18 10 8 11 7 12
REMARK SMILES IDX 6 13 5 14 4 15 3 16 2 17 1 18
REMARK H PARENT
REMARK Flexibility Score: inf
ROOT
ATOM      1  C   UNL     1     -12.837 -12.159  13.919  1.00  0.00     0.000 C 
ENDROOT
BRANCH   1   2
ATOM      2  C   UNL     1     -12.664 -13.647  14.260  1.00  0.00     0.000 C 
BRANCH   2   3
ATOM      3  C   UNL     1     -11.342 -13.937  14.988  1.00  0.00     0.000 C 
BRANCH   3   4
ATOM      4  C   UNL     1     -10.946 -12.821  15.968  1.00  0.00     0.000 C 
BRANCH   4   5
ATOM      5  C   UNL     1      -9.526 -12.314  15.680  1.00  0.00     0.000 C 
BRANCH   5   6
ATOM      6  C   UNL     1      -9.002 -12.740  14.296  1.00  0.00     0.006 C 
BRANCH   6   7
ATOM      7  C   UNL     1      -8.188 -11.652  13.575  1.00  0.00     0.053 C 
BRANCH   7   8
ATOM      8  C   UNL     1      -6.822 -11.469  14.166  1.00  0.00     0.041 C 
ATOM      9  O   UNL     1      -5.797 -11.752  13.493  1.00  0.00    -0.550 OA
ATOM     10  O   UNL     1      -6.681 -11.024  15.475  1.00  0.00    -0.550 OA
ENDBRANCH   7   8
ENDBRANCH   6   7
ENDBRANCH   5   6
ENDBRANCH   4   5
ENDBRANCH   3   4
ENDBRANCH   2   3
ENDBRANCH   1   2
BRANCH   1  11
ATOM     11  C   UNL     1     -14.196 -11.905  13.251  1.00  0.00     0.000 C 
BRANCH  11  12
ATOM     12  C   UNL     1     -14.840 -13.188  12.697  1.00  0.00    -0.000 C 
BRANCH  12  13
ATOM     13  C   UNL     1     -16.374 -13.267  12.841  1.00  0.00    -0.000 C 
BRANCH  13  14
ATOM     14  C   UNL     1     -16.913 -12.972  14.253  1.00  0.00    -0.000 C 
BRANCH  14  15
ATOM     15  C   UNL     1     -16.626 -14.104  15.250  1.00  0.00    -0.000 C 
BRANCH  15  16
ATOM     16  C   UNL     1     -16.409 -13.546  16.664  1.00  0.00    -0.000 C 
BRANCH  16  17
ATOM     17  C   UNL     1     -15.216 -12.579  16.740  1.00  0.00    -0.003 C 
ATOM     18  C   UNL     1     -14.156 -13.026  17.747  1.00  0.00     0.004 C 
ENDBRANCH  16  17
ENDBRANCH  15  16
ENDBRANCH  14  15
ENDBRANCH  13  14
ENDBRANCH  12  13
ENDBRANCH  11  12
ENDBRANCH   1  11
TORSDOF 14
ENDMDL
MODEL 2
REMARK VINA RESULT:    -4.626      1.097      1.316
REMARK INTER + INTRA:         -10.054
REMARK INTER:                  -8.823
REMARK INTRA:                  -1.231
REMARK UNBOUND:                -1.641
REMARK SMILES CCCCCCCCCCCCCCCC(=O)[O-]
REMARK SMILES IDX 9 1 10 2 11 3 12 4 13 5 14 6 15 7 16 8 17 9 18 10 8 11 7 12
REMARK SMILES IDX 6 13 5 14 4 15 3 16 2 17 1 18
REMARK H PARENT
REMARK Flexibility Score: inf
ROOT
ATOM      1  C   UNL     1     -12.852 -11.970  14.104  1.00  0.00     0.000 C 
ENDROOT
BRANCH   1   2
ATOM      2  C   UNL     1     -12.487 -13.080  15.101  1.00  0.00     0.000 C 
BRANCH   2   3
ATOM      3  C   UNL     1     -11.193 -12.779  15.874  1.00  0.00     0.000 C 
BRANCH   3   4
ATOM      4  C   UNL     1      -9.973 -13.512  15.297  1.00  0.00     0.000 C 
BRANCH   4   5
ATOM      5  C   UNL     1      -9.368 -12.732  14.121  1.00  0.00     0.000 C 
BRANCH   5   6
ATOM      6  C   UNL     1      -9.018 -11.276  14.479  1.00  0.00     0.006 C 
BRANCH   6   7
ATOM      7  C   UNL     1      -7.639 -11.109  15.140  1.00  0.00     0.053 C 
BRANCH   7   8
ATOM      8  C   UNL     1      -6.531 -10.991  14.137  1.00  0.00     0.041 C 
ATOM      9  O   UNL     1      -5.946 -12.023  13.716  1.00  0.00    -0.550 OA
ATOM     10  O   UNL     1      -6.117  -9.740  13.697  1.00  0.00    -0.550 OA
ENDBRANCH   7   8
ENDBRANCH   6   7
ENDBRANCH   5   6
ENDBRANCH   4   5
ENDBRANCH   3   4
ENDBRANCH   2   3
ENDBRANCH   1   2
BRANCH   1  11
ATOM     11  C   UNL     1     -14.255 -12.195  13.523  1.00  0.00     0.000 C 
BRANCH  11  12
ATOM     12  C   UNL     1     -14.596 -13.685  13.340  1.00  0.00    -0.000 C 
BRANCH  12  13
ATOM     13  C   UNL     1     -16.067 -14.060  13.612  1.00  0.00    -0.000 C 
BRANCH  13  14
ATOM     14  C   UNL     1     -16.642 -13.527  14.937  1.00  0.00    -0.000 C 
BRANCH  14  15
ATOM     15  C   UNL     1     -15.891 -14.052  16.169  1.00  0.00    -0.000 C 
BRANCH  15  16
ATOM     16  C   UNL     1     -16.243 -13.230  17.417  1.00  0.00    -0.000 C 
BRANCH  16  17
ATOM     17  C   UNL     1     -14.998 -12.702  18.146  1.00  0.00    -0.003 C 
ATOM     18  C   UNL     1     -15.339 -11.972  19.445  1.00  0.00     0.004 C 
ENDBRANCH  16  17
ENDBRANCH  15  16
ENDBRANCH  14  15
ENDBRANCH  13  14
ENDBRANCH  12  13
ENDBRANCH  11  12
ENDBRANCH   1  11
TORSDOF 14
ENDMDL
MODEL 3
REMARK VINA RESULT:    -4.617      3.276      7.716
REMARK INTER + INTRA:         -10.037
REMARK INTER:                  -8.822
REMARK INTRA:                  -1.214
REMARK UNBOUND:                -1.641
REMARK SMILES CCCCCCCCCCCCCCCC(=O)[O-]
REMARK SMILES IDX 9 1 10 2 11 3 12 4 13 5 14 6 15 7 16 8 17 9 18 10 8 11 7 12
REMARK SMILES IDX 6 13 5 14 4 15 3 16 2 17 1 18
REMARK H PARENT
REMARK Flexibility Score: inf
ROOT
ATOM      1  C   UNL     1     -12.911 -14.006  14.211  1.00  0.00     0.000 C 
ENDROOT
BRANCH   1   2
ATOM      2  C   UNL     1     -13.212 -12.601  13.666  1.00  0.00     0.000 C 
BRANCH   2   3
ATOM      3  C   UNL     1     -14.608 -12.498  13.032  1.00  0.00     0.000 C 
BRANCH   3   4
ATOM      4  C   UNL     1     -15.282 -13.868  12.856  1.00  0.00     0.000 C 
BRANCH   4   5
ATOM      5  C   UNL     1     -16.790 -13.778  13.131  1.00  0.00     0.000 C 
BRANCH   5   6
ATOM      6  C   UNL     1     -17.116 -13.273  14.548  1.00  0.00     0.006 C 
BRANCH   6   7
ATOM      7  C   UNL     1     -16.489 -14.117  15.672  1.00  0.00     0.053 C 
BRANCH   7   8
ATOM      8  C   UNL     1     -16.025 -13.282  16.828  1.00  0.00     0.041 C 
ATOM      9  O   UNL     1     -16.657 -13.300  17.916  1.00  0.00    -0.550 OA
ATOM     10  O   UNL     1     -14.918 -12.454  16.691  1.00  0.00    -0.550 OA
ENDBRANCH   7   8
ENDBRANCH   6   7
ENDBRANCH   5   6
ENDBRANCH   4   5
ENDBRANCH   3   4
ENDBRANCH   2   3
ENDBRANCH   1   2
BRANCH   1  11
ATOM     11  C   UNL     1     -11.591 -14.019  14.994  1.00  0.00     0.000 C 
BRANCH  11  12
ATOM     12  C   UNL     1     -10.912 -12.638  15.046  1.00  0.00    -0.000 C 
BRANCH  12  13
ATOM     13  C   UNL     1      -9.857 -12.467  16.160  1.00  0.00    -0.000 C 
BRANCH  13  14
ATOM     14  C   UNL     1      -8.398 -12.408  15.673  1.00  0.00    -0.000 C 
BRANCH  14  15
ATOM     15  C   UNL     1      -8.279 -12.048  14.185  1.00  0.00    -0.000 C 
BRANCH  15  16
ATOM     16  C   UNL     1      -8.043 -10.542  14.003  1.00  0.00    -0.000 C 
BRANCH  16  17
ATOM     17  C   UNL     1      -6.551 -10.172  14.017  1.00  0.00    -0.003 C 
ATOM     18  C   UNL     1      -5.656 -11.308  13.522  1.00  0.00     0.004 C 
ENDBRANCH  16  17
ENDBRANCH  15  16
ENDBRANCH  14  15
ENDBRANCH  13  14
ENDBRANCH  12  13
ENDBRANCH  11  12
ENDBRANCH   1  11
TORSDOF 14
ENDMDL
MODEL 4
REMARK VINA RESULT:    -4.505      3.754      7.397
REMARK INTER + INTRA:          -9.834
REMARK INTER:                  -8.626
REMARK INTRA:                  -1.208
REMARK UNBOUND:                -1.641
REMARK SMILES CCCCCCCCCCCCCCCC(=O)[O-]
REMARK SMILES IDX 9 1 10 2 11 3 12 4 13 5 14 6 15 7 16 8 17 9 18 10 8 11 7 12
REMARK SMILES IDX 6 13 5 14 4 15 3 16 2 17 1 18
REMARK H PARENT
REMARK Flexibility Score: inf
ROOT
ATOM      1  C   UNL     1     -13.975 -11.855  12.850  1.00  0.00     0.000 C 
ENDROOT
BRANCH   1   2
ATOM      2  C   UNL     1     -15.157 -12.826  12.991  1.00  0.00     0.000 C 
BRANCH   2   3
ATOM      3  C   UNL     1     -16.150 -12.394  14.082  1.00  0.00     0.000 C 
BRANCH   3   4
ATOM      4  C   UNL     1     -16.597 -13.562  14.975  1.00  0.00     0.000 C 
BRANCH   4   5
ATOM      5  C   UNL     1     -15.594 -13.800  16.113  1.00  0.00     0.000 C 
BRANCH   5   6
ATOM      6  C   UNL     1     -16.159 -13.436  17.499  1.00  0.00     0.006 C 
BRANCH   6   7
ATOM      7  C   UNL     1     -15.453 -12.244  18.168  1.00  0.00     0.053 C 
BRANCH   7   8
ATOM      8  C   UNL     1     -16.097 -11.847  19.463  1.00  0.00     0.041 C 
ATOM      9  O   UNL     1     -17.282 -12.190  19.712  1.00  0.00    -0.550 OA
ATOM     10  O   UNL     1     -15.403 -11.064  20.378  1.00  0.00    -0.550 OA
ENDBRANCH   7   8
ENDBRANCH   6   7
ENDBRANCH   5   6
ENDBRANCH   4   5
ENDBRANCH   3   4
ENDBRANCH   2   3
ENDBRANCH   1   2
BRANCH   1  11
ATOM     11  C   UNL     1     -13.127 -11.834  14.129  1.00  0.00     0.000 C 
BRANCH  11  12
ATOM     12  C   UNL     1     -12.195 -13.053  14.249  1.00  0.00    -0.000 C 
BRANCH  12  13
ATOM     13  C   UNL     1     -11.500 -13.216  15.618  1.00  0.00    -0.000 C 
BRANCH  13  14
ATOM     14  C   UNL     1     -10.098 -12.589  15.717  1.00  0.00    -0.000 C 
BRANCH  14  15
ATOM     15  C   UNL     1      -9.465 -12.320  14.344  1.00  0.00    -0.000 C 
BRANCH  15  16
ATOM     16  C   UNL     1      -9.097 -10.838  14.191  1.00  0.00    -0.000 C 
BRANCH  16  17
ATOM     17  C   UNL     1      -7.644 -10.634  13.733  1.00  0.00    -0.003 C 
ATOM     18  C   UNL     1      -6.713 -11.750  14.208  1.00  0.00     0.004 C 
ENDBRANCH  16  17
ENDBRANCH  15  16
ENDBRANCH  14  15
ENDBRANCH  13  14
ENDBRANCH  12  13
ENDBRANCH  11  12
ENDBRANCH   1  11
TORSDOF 14
ENDMDL
MODEL 5
REMARK VINA RESULT:    -4.453      1.188      2.635
REMARK INTER + INTRA:          -9.739
REMARK INTER:                  -8.439
REMARK INTRA:                  -1.300
REMARK UNBOUND:                -1.641
REMARK SMILES CCCCCCCCCCCCCCCC(=O)[O-]
REMARK SMILES IDX 9 1 10 2 11 3 12 4 13 5 14 6 15 7 16 8 17 9 18 10 8 11 7 12
REMARK SMILES IDX 6 13 5 14 4 15 3 16 2 17 1 18
REMARK H PARENT
REMARK Flexibility Score: inf
ROOT
ATOM      1  C   UNL     1     -13.069 -14.362  14.242  1.00  0.00     0.000 C 
ENDROOT
BRANCH   1   2
ATOM      2  C   UNL     1     -11.721 -14.606  14.937  1.00  0.00     0.000 C 
BRANCH   2   3
ATOM      3  C   UNL     1     -10.551 -13.916  14.216  1.00  0.00     0.000 C 
BRANCH   3   4
ATOM      4  C   UNL     1      -9.484 -13.388  15.187  1.00  0.00     0.000 C 
BRANCH   4   5
ATOM      5  C   UNL     1      -9.666 -11.885  15.441  1.00  0.00     0.000 C 
BRANCH   5   6
ATOM      6  C   UNL     1      -9.087 -11.008  14.315  1.00  0.00     0.006 C 
BRANCH   6   7
ATOM      7  C   UNL     1      -7.591 -10.688  14.477  1.00  0.00     0.053 C 
BRANCH   7   8
ATOM      8  C   UNL     1      -6.722 -11.548  13.610  1.00  0.00     0.041 C 
ATOM      9  O   UNL     1      -7.241 -12.374  12.814  1.00  0.00    -0.550 OA
ATOM     10  O   UNL     1      -5.338 -11.466  13.706  1.00  0.00    -0.550 OA
ENDBRANCH   7   8
ENDBRANCH   6   7
ENDBRANCH   5   6
ENDBRANCH   4   5
ENDBRANCH   3   4
ENDBRANCH   2   3
ENDBRANCH   1   2
BRANCH   1  11
ATOM     11  C   UNL     1     -13.469 -12.882  14.326  1.00  0.00     0.000 C 
BRANCH  11  12
ATOM     12  C   UNL     1     -13.943 -12.468  15.730  1.00  0.00    -0.000 C 
BRANCH  12  13
ATOM     13  C   UNL     1     -14.601 -13.592  16.558  1.00  0.00    -0.000 C 
BRANCH  13  14
ATOM     14  C   UNL     1     -16.141 -13.606  16.532  1.00  0.00    -0.000 C 
BRANCH  14  15
ATOM     15  C   UNL     1     -16.717 -13.300  15.143  1.00  0.00    -0.000 C 
BRANCH  15  16
ATOM     16  C   UNL     1     -17.292 -14.569  14.497  1.00  0.00    -0.000 C 
BRANCH  16  17
ATOM     17  C   UNL     1     -17.073 -14.609  12.976  1.00  0.00    -0.003 C 
ATOM     18  C   UNL     1     -16.562 -13.281  12.418  1.00  0.00     0.004 C 
ENDBRANCH  16  17
ENDBRANCH  15  16
ENDBRANCH  14  15
ENDBRANCH  13  14
ENDBRANCH  12  13
ENDBRANCH  11  12
ENDBRANCH   1  11
TORSDOF 14
ENDMDL
MODEL 6
REMARK VINA RESULT:    -4.451      5.307      8.327
REMARK INTER + INTRA:          -9.735
REMARK INTER:                  -8.641
REMARK INTRA:                  -1.095
REMARK UNBOUND:                -1.641
REMARK SMILES CCCCCCCCCCCCCCCC(=O)[O-]
REMARK SMILES IDX 9 1 10 2 11 3 12 4 13 5 14 6 15 7 16 8 17 9 18 10 8 11 7 12
REMARK SMILES IDX 6 13 5 14 4 15 3 16 2 17 1 18
REMARK H PARENT
REMARK Flexibility Score: inf
ROOT
ATOM      1  C   UNL     1     -16.574 -13.712  15.205  1.00  0.00     0.000 C 
ENDROOT
BRANCH   1   2
ATOM      2  C   UNL     1     -16.096 -13.837  16.660  1.00  0.00     0.000 C 
BRANCH   2   3
ATOM      3  C   UNL     1     -15.204 -12.663  17.093  1.00  0.00     0.000 C 
BRANCH   3   4
ATOM      4  C   UNL     1     -15.376 -12.302  18.576  1.00  0.00     0.000 C 
BRANCH   4   5
ATOM      5  C   UNL     1     -16.809 -12.585  19.050  1.00  0.00     0.000 C 
BRANCH   5   6
ATOM      6  C   UNL     1     -17.024 -12.273  20.542  1.00  0.00     0.006 C 
BRANCH   6   7
ATOM      7  C   UNL     1     -17.547 -10.852  20.815  1.00  0.00     0.053 C 
BRANCH   7   8
ATOM      8  C   UNL     1     -18.914 -10.851  21.430  1.00  0.00     0.041 C 
ATOM      9  O   UNL     1     -19.046 -10.944  22.679  1.00  0.00    -0.550 OA
ATOM     10  O   UNL     1     -20.044 -10.788  20.624  1.00  0.00    -0.550 OA
ENDBRANCH   7   8
ENDBRANCH   6   7
ENDBRANCH   5   6
ENDBRANCH   4   5
ENDBRANCH   3   4
ENDBRANCH   2   3
ENDBRANCH   1   2
BRANCH   1  11
ATOM     11  C   UNL     1     -15.495 -13.060  14.329  1.00  0.00     0.000 C 
BRANCH  11  12
ATOM     12  C   UNL     1     -14.558 -14.088  13.670  1.00  0.00    -0.000 C 
BRANCH  12  13
ATOM     13  C   UNL     1     -13.169 -14.225  14.327  1.00  0.00    -0.000 C 
BRANCH  13  14
ATOM     14  C   UNL     1     -12.378 -12.911  14.461  1.00  0.00    -0.000 C 
BRANCH  14  15
ATOM     15  C   UNL     1     -11.559 -12.836  15.758  1.00  0.00    -0.000 C 
BRANCH  15  16
ATOM     16  C   UNL     1     -10.054 -12.872  15.459  1.00  0.00    -0.000 C 
BRANCH  16  17
ATOM     17  C   UNL     1      -9.670 -11.994  14.256  1.00  0.00    -0.003 C 
ATOM     18  C   UNL     1      -8.734 -10.847  14.636  1.00  0.00     0.004 C 
ENDBRANCH  16  17
ENDBRANCH  15  16
ENDBRANCH  14  15
ENDBRANCH  13  14
ENDBRANCH  12  13
ENDBRANCH  11  12
ENDBRANCH   1  11
TORSDOF 14
ENDMDL
MODEL 7
REMARK VINA RESULT:    -4.371      3.610      7.575
REMARK INTER + INTRA:          -9.589
REMARK INTER:                  -8.303
REMARK INTRA:                  -1.286
REMARK UNBOUND:                -1.641
REMARK SMILES CCCCCCCCCCCCCCCC(=O)[O-]
REMARK SMILES IDX 9 1 10 2 11 3 12 4 13 5 14 6 15 7 16 8 17 9 18 10 8 11 7 12
REMARK SMILES IDX 6 13 5 14 4 15 3 16 2 17 1 18
REMARK H PARENT
REMARK Flexibility Score: inf
ROOT
ATOM      1  C   UNL     1     -13.125 -13.300  14.997  1.00  0.00     0.000 C 
ENDROOT
BRANCH   1   2
ATOM      2  C   UNL     1     -12.762 -13.017  16.463  1.00  0.00     0.000 C 
BRANCH   2   3
ATOM      3  C   UNL     1     -13.980 -13.082  17.397  1.00  0.00     0.000 C 
BRANCH   3   4
ATOM      4  C   UNL     1     -15.256 -12.521  16.750  1.00  0.00     0.000 C 
BRANCH   4   5
ATOM      5  C   UNL     1     -16.377 -13.569  16.745  1.00  0.00     0.000 C 
BRANCH   5   6
ATOM      6  C   UNL     1     -16.819 -13.974  15.326  1.00  0.00     0.006 C 
BRANCH   6   7
ATOM      7  C   UNL     1     -16.794 -12.818  14.310  1.00  0.00     0.053 C 
BRANCH   7   8
ATOM      8  C   UNL     1     -16.458 -13.278  12.924  1.00  0.00     0.041 C 
ATOM      9  O   UNL     1     -15.508 -12.746  12.293  1.00  0.00    -0.550 OA
ATOM     10  O   UNL     1     -17.219 -14.268  12.312  1.00  0.00    -0.550 OA
ENDBRANCH   7   8
ENDBRANCH   6   7
ENDBRANCH   5   6
ENDBRANCH   4   5
ENDBRANCH   3   4
ENDBRANCH   2   3
ENDBRANCH   1   2
BRANCH   1  11
ATOM     11  C   UNL     1     -11.888 -13.182  14.094  1.00  0.00     0.000 C 
BRANCH  11  12
ATOM     12  C   UNL     1     -10.711 -14.050  14.575  1.00  0.00    -0.000 C 
BRANCH  12  13
ATOM     13  C   UNL     1      -9.455 -13.268  15.012  1.00  0.00    -0.000 C 
BRANCH  13  14
ATOM     14  C   UNL     1      -9.619 -11.737  15.048  1.00  0.00    -0.000 C 
BRANCH  14  15
ATOM     15  C   UNL     1      -8.767 -11.020  13.992  1.00  0.00    -0.000 C 
BRANCH  15  16
ATOM     16  C   UNL     1      -7.821 -12.005  13.290  1.00  0.00    -0.000 C 
BRANCH  16  17
ATOM     17  C   UNL     1      -6.361 -11.846  13.743  1.00  0.00    -0.003 C 
ATOM     18  C   UNL     1      -5.880 -10.396  13.692  1.00  0.00     0.004 C 
ENDBRANCH  16  17
ENDBRANCH  15  16
ENDBRANCH  14  15
ENDBRANCH  13  14
ENDBRANCH  12  13
ENDBRANCH  11  12
ENDBRANCH   1  11
TORSDOF 14
ENDMDL
MODEL 8
REMARK VINA RESULT:    -4.370      2.022      2.922
REMARK INTER + INTRA:          -9.588
REMARK INTER:                  -8.509
REMARK INTRA:                  -1.080
REMARK UNBOUND:                -1.641
REMARK SMILES CCCCCCCCCCCCCCCC(=O)[O-]
REMARK SMILES IDX 9 1 10 2 11 3 12 4 13 5 14 6 15 7 16 8 17 9 18 10 8 11 7 12
REMARK SMILES IDX 6 13 5 14 4 15 3 16 2 17 1 18
REMARK H PARENT
REMARK Flexibility Score: inf
ROOT
ATOM      1  C   UNL     1     -14.518 -13.829  13.399  1.00  0.00     0.000 C 
ENDROOT
BRANCH   1   2
ATOM      2  C   UNL     1     -14.021 -12.379  13.293  1.00  0.00     0.000 C 
BRANCH   2   3
ATOM      3  C   UNL     1     -12.690 -12.155  14.028  1.00  0.00     0.000 C 
BRANCH   3   4
ATOM      4  C   UNL     1     -12.447 -13.182  15.145  1.00  0.00     0.000 C 
BRANCH   4   5
ATOM      5  C   UNL     1     -11.168 -12.853  15.927  1.00  0.00     0.000 C 
BRANCH   5   6
ATOM      6  C   UNL     1      -9.903 -13.469  15.300  1.00  0.00     0.006 C 
BRANCH   6   7
ATOM      7  C   UNL     1      -8.608 -12.707  15.630  1.00  0.00     0.053 C 
BRANCH   7   8
ATOM      8  C   UNL     1      -7.817 -12.359  14.405  1.00  0.00     0.041 C 
ATOM      9  O   UNL     1      -8.210 -12.736  13.270  1.00  0.00    -0.550 OA
ATOM     10  O   UNL     1      -6.626 -11.653  14.518  1.00  0.00    -0.550 OA
ENDBRANCH   7   8
ENDBRANCH   6   7
ENDBRANCH   5   6
ENDBRANCH   4   5
ENDBRANCH   3   4
ENDBRANCH   2   3
ENDBRANCH   1   2
BRANCH   1  11
ATOM     11  C   UNL     1     -15.943 -13.879  13.967  1.00  0.00     0.000 C 
BRANCH  11  12
ATOM     12  C   UNL     1     -16.125 -12.987  15.208  1.00  0.00    -0.000 C 
BRANCH  12  13
ATOM     13  C   UNL     1     -16.122 -13.734  16.558  1.00  0.00    -0.000 C 
BRANCH  13  14
ATOM     14  C   UNL     1     -15.125 -13.194  17.600  1.00  0.00    -0.000 C 
BRANCH  14  15
ATOM     15  C   UNL     1     -15.686 -12.017  18.410  1.00  0.00    -0.000 C 
BRANCH  15  16
ATOM     16  C   UNL     1     -16.327 -12.507  19.716  1.00  0.00    -0.000 C 
BRANCH  16  17
ATOM     17  C   UNL     1     -17.595 -11.720  20.083  1.00  0.00    -0.003 C 
ATOM     18  C   UNL     1     -17.294 -10.455  20.888  1.00  0.00     0.004 C 
ENDBRANCH  16  17
ENDBRANCH  15  16
ENDBRANCH  14  15
ENDBRANCH  13  14
ENDBRANCH  12  13
ENDBRANCH  11  12
ENDBRANCH   1  11
TORSDOF 14
ENDMDL
MODEL 9
REMARK VINA RESULT:    -4.350      6.384      9.336
REMARK INTER + INTRA:          -9.552
REMARK INTER:                  -8.369
REMARK INTRA:                  -1.183
REMARK UNBOUND:                -1.641
REMARK SMILES CCCCCCCCCCCCCCCC(=O)[O-]
REMARK SMILES IDX 9 1 10 2 11 3 12 4 13 5 14 6 15 7 16 8 17 9 18 10 8 11 7 12
REMARK SMILES IDX 6 13 5 14 4 15 3 16 2 17 1 18
REMARK H PARENT
REMARK Flexibility Score: inf
ROOT
ATOM      1  C   UNL     1     -15.082 -12.985  16.924  1.00  0.00     0.000 C 
ENDROOT
BRANCH   1   2
ATOM      2  C   UNL     1     -15.383 -12.351  18.291  1.00  0.00     0.000 C 
BRANCH   2   3
ATOM      3  C   UNL     1     -16.544 -13.044  19.021  1.00  0.00     0.000 C 
BRANCH   3   4
ATOM      4  C   UNL     1     -16.969 -12.304  20.299  1.00  0.00     0.000 C 
BRANCH   4   5
ATOM      5  C   UNL     1     -18.285 -11.544  20.084  1.00  0.00     0.000 C 
BRANCH   5   6
ATOM      6  C   UNL     1     -18.747 -10.771  21.333  1.00  0.00     0.006 C 
BRANCH   6   7
ATOM      7  C   UNL     1     -20.248 -10.431  21.339  1.00  0.00     0.053 C 
BRANCH   7   8
ATOM      8  C   UNL     1     -20.950 -10.952  22.557  1.00  0.00     0.041 C 
ATOM      9  O   UNL     1     -21.929 -11.733  22.438  1.00  0.00    -0.550 OA
ATOM     10  O   UNL     1     -20.548 -10.543  23.823  1.00  0.00    -0.550 OA
ENDBRANCH   7   8
ENDBRANCH   6   7
ENDBRANCH   5   6
ENDBRANCH   4   5
ENDBRANCH   3   4
ENDBRANCH   2   3
ENDBRANCH   1   2
BRANCH   1  11
ATOM     11  C   UNL     1     -16.310 -13.731  16.384  1.00  0.00     0.000 C 
BRANCH  11  12
ATOM     12  C   UNL     1     -16.356 -13.775  14.846  1.00  0.00    -0.000 C 
BRANCH  12  13
ATOM     13  C   UNL     1     -15.955 -12.463  14.140  1.00  0.00    -0.000 C 
BRANCH  13  14
ATOM     14  C   UNL     1     -15.136 -12.640  12.849  1.00  0.00    -0.000 C 
BRANCH  14  15
ATOM     15  C   UNL     1     -13.884 -11.753  12.808  1.00  0.00    -0.000 C 
BRANCH  15  16
ATOM     16  C   UNL     1     -13.054 -11.917  14.090  1.00  0.00    -0.000 C 
BRANCH  16  17
ATOM     17  C   UNL     1     -11.981 -13.010  13.962  1.00  0.00    -0.003 C 
ATOM     18  C   UNL     1     -12.334 -14.279  14.738  1.00  0.00     0.004 C 
ENDBRANCH  16  17
ENDBRANCH  15  16
ENDBRANCH  14  15
ENDBRANCH  13  14
ENDBRANCH  12  13
ENDBRANCH  11  12
ENDBRANCH   1  11
TORSDOF 14
ENDMDL
