MODEL 1
REMARK VINA RESULT:    -5.704      0.000      0.000
REMARK INTER + INTRA:          -9.688
REMARK INTER:                  -8.705
REMARK INTRA:                  -0.983
REMARK UNBOUND:                -0.983
REMARK SMILES OC[C@@H]1O[C@@H](O[C@@]2(CO)O[C@@H](CO)[C@H](O)[C@@H]2O)[C@H](O)[C@H](O)[C@@H]1O
REMARK SMILES IDX 6 1 5 2 3 3 22 4 4 5 20 6 18 7 2 8 1 9 23 11 21 13 19 15
REMARK SMILES IDX 7 17 16 18 10 19 14 20 11 21 8 22 9 23 17 25 15 27 12 29
REMARK SMILES IDX 13 30
REMARK H PARENT 1 10 23 12 21 14 19 16 9 24 17 26 15 28 13 31
REMARK Flexibility Score: inf
ROOT
ATOM      1  O   UNL     1      18.984   5.132  22.515  1.00  0.00    -0.313 OA
ENDROOT
BRANCH   1   2
ATOM      2  C   UNL     1      17.782   5.730  22.992  1.00  0.00     0.285 C 
ATOM      3  C   UNL     1      18.206   7.730  21.823  1.00  0.00     0.178 C 
ATOM      4  C   UNL     1      18.455   8.542  23.116  1.00  0.00     0.177 C 
ATOM      5  O   UNL     1      17.282   6.674  22.054  1.00  0.00    -0.341 OA
ATOM      6  C   UNL     1      18.970   7.602  24.214  1.00  0.00     0.179 C 
ATOM      7  C   UNL     1      18.042   6.383  24.367  1.00  0.00     0.202 C 
BRANCH   3   8
ATOM      8  C   UNL     1      17.661   8.634  20.706  1.00  0.00     0.191 C 
BRANCH   8   9
ATOM      9  O   UNL     1      18.709   9.298  20.056  1.00  0.00    -0.394 OA
ATOM     10  H   UNL     1      19.394   8.612  19.846  1.00  0.00     0.210 HD
ENDBRANCH   8   9
ENDBRANCH   3   8
BRANCH   4  11
ATOM     11  O   UNL     1      17.268   9.166  23.543  1.00  0.00    -0.387 OA
ATOM     12  H   UNL     1      16.528   8.795  22.996  1.00  0.00     0.211 HD
ENDBRANCH   4  11
BRANCH   6  13
ATOM     13  O   UNL     1      19.071   8.301  25.428  1.00  0.00    -0.387 OA
ATOM     14  H   UNL     1      19.026   9.267  25.206  1.00  0.00     0.211 HD
ENDBRANCH   6  13
BRANCH   7  15
ATOM     15  O   UNL     1      16.825   6.780  24.949  1.00  0.00    -0.385 OA
ATOM     16  H   UNL     1      16.175   6.896  24.207  1.00  0.00     0.211 HD
ENDBRANCH   7  15
ENDBRANCH   1   2
BRANCH   1  17
ATOM     17  C   UNL     1      18.824   3.803  22.026  1.00  0.00     0.224 C 
ATOM     18  C   UNL     1      19.954   2.952  22.649  1.00  0.00     0.208 C 
ATOM     19  O   UNL     1      18.970   3.755  20.614  1.00  0.00    -0.337 OA
ATOM     20  C   UNL     1      20.421   2.073  21.519  1.00  0.00     0.180 C 
ATOM     21  C   UNL     1      20.039   2.890  20.287  1.00  0.00     0.179 C 
BRANCH  17  22
ATOM     22  C   UNL     1      17.412   3.288  22.406  1.00  0.00     0.225 C 
BRANCH  22  23
ATOM     23  O   UNL     1      17.132   2.077  21.759  1.00  0.00    -0.391 OA
ATOM     24  H   UNL     1      17.472   2.174  20.831  1.00  0.00     0.210 HD
ENDBRANCH  22  23
ENDBRANCH  17  22
BRANCH  18  25
ATOM     25  O   UNL     1      19.548   2.196  23.762  1.00  0.00    -0.385 OA
ATOM     26  H   UNL     1      18.649   2.531  24.017  1.00  0.00     0.211 HD
ENDBRANCH  18  25
BRANCH  20  27
ATOM     27  O   UNL     1      19.735   0.846  21.524  1.00  0.00    -0.387 OA
ATOM     28  H   UNL     1      18.937   0.972  22.101  1.00  0.00     0.211 HD
ENDBRANCH  20  27
BRANCH  21  29
ATOM     29  C   UNL     1      21.224   3.720  19.769  1.00  0.00     0.191 C 
BRANCH  29  30
ATOM     30  O   UNL     1      21.224   3.754  18.367  1.00  0.00    -0.394 OA
ATOM     31  H   UNL     1      22.136   3.487  18.077  1.00  0.00     0.210 HD
ENDBRANCH  29  30
ENDBRANCH  21  29
ENDBRANCH   1  17
TORSDOF 13
ENDMDL
MODEL 2
REMARK VINA RESULT:    -5.648      1.361      5.940
REMARK INTER + INTRA:          -9.602
REMARK INTER:                  -8.705
REMARK INTRA:                  -0.898
REMARK UNBOUND:                -0.983
REMARK SMILES OC[C@@H]1O[C@@H](O[C@@]2(CO)O[C@@H](CO)[C@H](O)[C@@H]2O)[C@H](O)[C@H](O)[C@@H]1O
REMARK SMILES IDX 6 1 5 2 3 3 22 4 4 5 20 6 18 7 2 8 1 9 23 11 21 13 19 15
REMARK SMILES IDX 7 17 16 18 10 19 14 20 11 21 8 22 9 23 17 25 15 27 12 29
REMARK SMILES IDX 13 30
REMARK H PARENT 1 10 23 12 21 14 19 16 9 24 17 26 15 28 13 31
REMARK Flexibility Score: inf
ROOT
ATOM      1  O   UNL     1      17.316   5.846  21.350  1.00  0.00    -0.313 OA
ENDROOT
BRANCH   1   2
ATOM      2  C   UNL     1      18.246   5.101  22.131  1.00  0.00     0.285 C 
ATOM      3  C   UNL     1      19.182   4.092  20.220  1.00  0.00     0.178 C 
ATOM      4  C   UNL     1      18.628   2.692  20.574  1.00  0.00     0.177 C 
ATOM      5  O   UNL     1      19.437   4.851  21.395  1.00  0.00    -0.341 OA
ATOM      6  C   UNL     1      17.347   2.849  21.407  1.00  0.00     0.179 C 
ATOM      7  C   UNL     1      17.588   3.787  22.603  1.00  0.00     0.202 C 
BRANCH   3   8
ATOM      8  C   UNL     1      20.481   3.976  19.409  1.00  0.00     0.191 C 
BRANCH   8   9
ATOM      9  O   UNL     1      21.597   4.122  20.244  1.00  0.00    -0.394 OA
ATOM     10  H   UNL     1      21.860   3.209  20.531  1.00  0.00     0.210 HD
ENDBRANCH   8   9
ENDBRANCH   3   8
BRANCH   4  11
ATOM     11  O   UNL     1      19.580   1.953  21.302  1.00  0.00    -0.387 OA
ATOM     12  H   UNL     1      19.860   1.192  20.731  1.00  0.00     0.211 HD
ENDBRANCH   4  11
BRANCH   6  13
ATOM     13  O   UNL     1      16.911   1.589  21.847  1.00  0.00    -0.387 OA
ATOM     14  H   UNL     1      16.780   1.031  21.036  1.00  0.00     0.211 HD
ENDBRANCH   6  13
BRANCH   7  15
ATOM     15  O   UNL     1      18.409   3.151  23.551  1.00  0.00    -0.385 OA
ATOM     16  H   UNL     1      18.144   3.500  24.442  1.00  0.00     0.211 HD
ENDBRANCH   7  15
ENDBRANCH   1   2
BRANCH   1  17
ATOM     17  C   UNL     1      17.033   7.146  21.858  1.00  0.00     0.224 C 
ATOM     18  C   UNL     1      18.177   8.075  21.390  1.00  0.00     0.208 C 
ATOM     19  O   UNL     1      17.022   7.151  23.279  1.00  0.00    -0.337 OA
ATOM     20  C   UNL     1      18.471   8.934  22.590  1.00  0.00     0.180 C 
ATOM     21  C   UNL     1      18.001   8.056  23.748  1.00  0.00     0.179 C 
BRANCH  17  22
ATOM     22  C   UNL     1      15.645   7.604  21.340  1.00  0.00     0.225 C 
BRANCH  22  23
ATOM     23  O   UNL     1      15.218   8.758  22.012  1.00  0.00    -0.391 OA
ATOM     24  H   UNL     1      16.041   9.255  22.259  1.00  0.00     0.210 HD
ENDBRANCH  22  23
ENDBRANCH  17  22
BRANCH  18  25
ATOM     25  O   UNL     1      17.855   8.849  20.262  1.00  0.00    -0.385 OA
ATOM     26  H   UNL     1      17.668   8.209  19.526  1.00  0.00     0.211 HD
ENDBRANCH  18  25
BRANCH  20  27
ATOM     27  O   UNL     1      17.725  10.125  22.547  1.00  0.00    -0.387 OA
ATOM     28  H   UNL     1      18.331  10.849  22.853  1.00  0.00     0.211 HD
ENDBRANCH  20  27
BRANCH  21  29
ATOM     29  C   UNL     1      19.165   7.268  24.368  1.00  0.00     0.191 C 
BRANCH  29  30
ATOM     30  O   UNL     1      18.734   6.564  25.500  1.00  0.00    -0.394 OA
ATOM     31  H   UNL     1      18.473   5.657  25.188  1.00  0.00     0.210 HD
ENDBRANCH  29  30
ENDBRANCH  21  29
ENDBRANCH   1  17
TORSDOF 13
ENDMDL
MODEL 3
REMARK VINA RESULT:    -5.522      1.456      5.953
REMARK INTER + INTRA:          -9.410
REMARK INTER:                  -8.416
REMARK INTRA:                  -0.993
REMARK UNBOUND:                -0.983
REMARK SMILES OC[C@@H]1O[C@@H](O[C@@]2(CO)O[C@@H](CO)[C@H](O)[C@@H]2O)[C@H](O)[C@H](O)[C@@H]1O
REMARK SMILES IDX 6 1 5 2 3 3 22 4 4 5 20 6 18 7 2 8 1 9 23 11 21 13 19 15
REMARK SMILES IDX 7 17 16 18 10 19 14 20 11 21 8 22 9 23 17 25 15 27 12 29
REMARK SMILES IDX 13 30
REMARK H PARENT 1 10 23 12 21 14 19 16 9 24 17 26 15 28 13 31
REMARK Flexibility Score: inf
ROOT
ATOM      1  O   UNL     1      18.226   6.089  21.527  1.00  0.00    -0.313 OA
ENDROOT
BRANCH   1   2
ATOM      2  C   UNL     1      18.550   4.881  22.210  1.00  0.00     0.285 C 
ATOM      3  C   UNL     1      19.657   4.004  20.324  1.00  0.00     0.178 C 
ATOM      4  C   UNL     1      18.584   2.916  20.085  1.00  0.00     0.177 C 
ATOM      5  O   UNL     1      19.758   4.325  21.706  1.00  0.00    -0.341 OA
ATOM      6  C   UNL     1      17.234   3.406  20.629  1.00  0.00     0.179 C 
ATOM      7  C   UNL     1      17.377   3.886  22.085  1.00  0.00     0.202 C 
BRANCH   3   8
ATOM      8  C   UNL     1      21.030   3.539  19.817  1.00  0.00     0.191 C 
BRANCH   8   9
ATOM      9  O   UNL     1      21.226   3.939  18.489  1.00  0.00    -0.394 OA
ATOM     10  H   UNL     1      20.519   3.497  17.951  1.00  0.00     0.210 HD
ENDBRANCH   8   9
ENDBRANCH   3   8
BRANCH   4  11
ATOM     11  O   UNL     1      18.947   1.716  20.725  1.00  0.00    -0.387 OA
ATOM     12  H   UNL     1      19.378   1.138  20.043  1.00  0.00     0.211 HD
ENDBRANCH   4  11
BRANCH   6  13
ATOM     13  O   UNL     1      16.285   2.375  20.539  1.00  0.00    -0.387 OA
ATOM     14  H   UNL     1      16.086   2.253  19.574  1.00  0.00     0.211 HD
ENDBRANCH   6  13
BRANCH   7  15
ATOM     15  O   UNL     1      17.586   2.784  22.933  1.00  0.00    -0.385 OA
ATOM     16  H   UNL     1      18.451   2.377  22.667  1.00  0.00     0.211 HD
ENDBRANCH   7  15
ENDBRANCH   1   2
BRANCH   1  17
ATOM     17  C   UNL     1      18.037   7.212  22.381  1.00  0.00     0.224 C 
ATOM     18  C   UNL     1      18.923   6.988  23.628  1.00  0.00     0.208 C 
ATOM     19  O   UNL     1      16.688   7.304  22.818  1.00  0.00    -0.337 OA
ATOM     20  C   UNL     1      18.061   7.429  24.781  1.00  0.00     0.180 C 
ATOM     21  C   UNL     1      16.650   7.236  24.229  1.00  0.00     0.179 C 
BRANCH  17  22
ATOM     22  C   UNL     1      18.409   8.506  21.612  1.00  0.00     0.225 C 
BRANCH  22  23
ATOM     23  O   UNL     1      17.896   9.637  22.261  1.00  0.00    -0.391 OA
ATOM     24  H   UNL     1      18.612   9.955  22.871  1.00  0.00     0.210 HD
ENDBRANCH  22  23
ENDBRANCH  17  22
BRANCH  18  25
ATOM     25  O   UNL     1      20.142   7.687  23.592  1.00  0.00    -0.385 OA
ATOM     26  H   UNL     1      20.681   7.275  22.867  1.00  0.00     0.211 HD
ENDBRANCH  18  25
BRANCH  20  27
ATOM     27  O   UNL     1      18.287   8.783  25.083  1.00  0.00    -0.387 OA
ATOM     28  H   UNL     1      18.370   9.256  24.214  1.00  0.00     0.211 HD
ENDBRANCH  20  27
BRANCH  21  29
ATOM     29  C   UNL     1      16.055   5.886  24.657  1.00  0.00     0.191 C 
BRANCH  29  30
ATOM     30  O   UNL     1      16.958   5.187  25.470  1.00  0.00    -0.394 OA
ATOM     31  H   UNL     1      16.700   4.229  25.422  1.00  0.00     0.210 HD
ENDBRANCH  29  30
ENDBRANCH  21  29
ENDBRANCH   1  17
TORSDOF 13
ENDMDL
MODEL 4
REMARK VINA RESULT:    -5.516      1.369      2.627
REMARK INTER + INTRA:          -9.400
REMARK INTER:                  -8.338
REMARK INTRA:                  -1.063
REMARK UNBOUND:                -0.983
REMARK SMILES OC[C@@H]1O[C@@H](O[C@@]2(CO)O[C@@H](CO)[C@H](O)[C@@H]2O)[C@H](O)[C@H](O)[C@@H]1O
REMARK SMILES IDX 6 1 5 2 3 3 22 4 4 5 20 6 18 7 2 8 1 9 23 11 21 13 19 15
REMARK SMILES IDX 7 17 16 18 10 19 14 20 11 21 8 22 9 23 17 25 15 27 12 29
REMARK SMILES IDX 13 30
REMARK H PARENT 1 10 23 12 21 14 19 16 9 24 17 26 15 28 13 31
REMARK Flexibility Score: inf
ROOT
ATOM      1  O   UNL     1      17.352   5.482  21.977  1.00  0.00    -0.313 OA
ENDROOT
BRANCH   1   2
ATOM      2  C   UNL     1      18.284   6.082  22.873  1.00  0.00     0.285 C 
ATOM      3  C   UNL     1      16.571   6.767  24.338  1.00  0.00     0.178 C 
ATOM      4  C   UNL     1      16.772   8.268  24.021  1.00  0.00     0.177 C 
ATOM      5  O   UNL     1      17.792   6.050  24.207  1.00  0.00    -0.341 OA
ATOM      6  C   UNL     1      17.337   8.414  22.601  1.00  0.00     0.179 C 
ATOM      7  C   UNL     1      18.581   7.526  22.416  1.00  0.00     0.202 C 
BRANCH   3   8
ATOM      8  C   UNL     1      16.032   6.578  25.764  1.00  0.00     0.191 C 
BRANCH   8   9
ATOM      9  O   UNL     1      15.557   7.793  26.276  1.00  0.00    -0.394 OA
ATOM     10  H   UNL     1      15.261   8.333  25.497  1.00  0.00     0.210 HD
ENDBRANCH   8   9
ENDBRANCH   3   8
BRANCH   4  11
ATOM     11  O   UNL     1      17.656   8.854  24.946  1.00  0.00    -0.387 OA
ATOM     12  H   UNL     1      18.300   9.403  24.429  1.00  0.00     0.211 HD
ENDBRANCH   4  11
BRANCH   6  13
ATOM     13  O   UNL     1      17.650   9.761  22.352  1.00  0.00    -0.387 OA
ATOM     14  H   UNL     1      17.139  10.028  21.543  1.00  0.00     0.211 HD
ENDBRANCH   6  13
BRANCH   7  15
ATOM     15  O   UNL     1      19.657   8.052  23.153  1.00  0.00    -0.385 OA
ATOM     16  H   UNL     1      19.360   8.930  23.509  1.00  0.00     0.211 HD
ENDBRANCH   7  15
ENDBRANCH   1   2
BRANCH   1  17
ATOM     17  C   UNL     1      17.636   4.123  21.660  1.00  0.00     0.224 C 
ATOM     18  C   UNL     1      18.955   3.757  22.378  1.00  0.00     0.208 C 
ATOM     19  O   UNL     1      17.838   3.952  20.264  1.00  0.00    -0.337 OA
ATOM     20  C   UNL     1      19.715   2.942  21.365  1.00  0.00     0.180 C 
ATOM     21  C   UNL     1      19.136   3.439  20.042  1.00  0.00     0.179 C 
BRANCH  17  22
ATOM     22  C   UNL     1      16.447   3.235  22.111  1.00  0.00     0.225 C 
BRANCH  22  23
ATOM     23  O   UNL     1      16.637   1.906  21.711  1.00  0.00    -0.391 OA
ATOM     24  H   UNL     1      16.315   1.850  20.774  1.00  0.00     0.210 HD
ENDBRANCH  22  23
ENDBRANCH  17  22
BRANCH  18  25
ATOM     25  O   UNL     1      18.772   3.053  23.581  1.00  0.00    -0.385 OA
ATOM     26  H   UNL     1      18.819   2.088  23.351  1.00  0.00     0.211 HD
ENDBRANCH  18  25
BRANCH  20  27
ATOM     27  O   UNL     1      19.452   1.571  21.529  1.00  0.00    -0.387 OA
ATOM     28  H   UNL     1      20.329   1.108  21.487  1.00  0.00     0.211 HD
ENDBRANCH  20  27
BRANCH  21  29
ATOM     29  C   UNL     1      20.015   4.532  19.416  1.00  0.00     0.191 C 
BRANCH  29  30
ATOM     30  O   UNL     1      21.002   3.962  18.601  1.00  0.00    -0.394 OA
ATOM     31  H   UNL     1      21.796   4.558  18.658  1.00  0.00     0.210 HD
ENDBRANCH  29  30
ENDBRANCH  21  29
ENDBRANCH   1  17
TORSDOF 13
ENDMDL
MODEL 5
REMARK VINA RESULT:    -5.454      1.665      6.184
REMARK INTER + INTRA:          -9.307
REMARK INTER:                  -7.771
REMARK INTRA:                  -1.535
REMARK UNBOUND:                -0.983
REMARK SMILES OC[C@@H]1O[C@@H](O[C@@]2(CO)O[C@@H](CO)[C@H](O)[C@@H]2O)[C@H](O)[C@H](O)[C@@H]1O
REMARK SMILES IDX 6 1 5 2 3 3 22 4 4 5 20 6 18 7 2 8 1 9 23 11 21 13 19 15
REMARK SMILES IDX 7 17 16 18 10 19 14 20 11 21 8 22 9 23 17 25 15 27 12 29
REMARK SMILES IDX 13 30
REMARK H PARENT 1 10 23 12 21 14 19 16 9 24 17 26 15 28 13 31
REMARK Flexibility Score: inf
ROOT
ATOM      1  O   UNL     1      18.716   5.746  21.136  1.00  0.00    -0.313 OA
ENDROOT
BRANCH   1   2
ATOM      2  C   UNL     1      18.551   4.357  20.863  1.00  0.00     0.285 C 
ATOM      3  C   UNL     1      20.475   3.792  22.098  1.00  0.00     0.178 C 
ATOM      4  C   UNL     1      21.270   3.366  20.841  1.00  0.00     0.177 C 
ATOM      5  O   UNL     1      19.082   3.569  21.920  1.00  0.00    -0.341 OA
ATOM      6  C   UNL     1      20.748   4.142  19.623  1.00  0.00     0.179 C 
ATOM      7  C   UNL     1      19.217   4.015  19.513  1.00  0.00     0.202 C 
BRANCH   3   8
ATOM      8  C   UNL     1      20.951   3.015  23.334  1.00  0.00     0.191 C 
BRANCH   8   9
ATOM      9  O   UNL     1      19.859   2.478  24.028  1.00  0.00    -0.394 OA
ATOM     10  H   UNL     1      20.030   1.504  24.117  1.00  0.00     0.210 HD
ENDBRANCH   8   9
ENDBRANCH   3   8
BRANCH   4  11
ATOM     11  O   UNL     1      21.135   1.983  20.616  1.00  0.00    -0.387 OA
ATOM     12  H   UNL     1      21.306   1.824  19.652  1.00  0.00     0.211 HD
ENDBRANCH   4  11
BRANCH   6  13
ATOM     13  O   UNL     1      21.368   3.667  18.456  1.00  0.00    -0.387 OA
ATOM     14  H   UNL     1      20.679   3.677  17.742  1.00  0.00     0.211 HD
ENDBRANCH   6  13
BRANCH   7  15
ATOM     15  O   UNL     1      18.874   2.708  19.125  1.00  0.00    -0.385 OA
ATOM     16  H   UNL     1      19.310   2.091  19.769  1.00  0.00     0.211 HD
ENDBRANCH   7  15
ENDBRANCH   1   2
BRANCH   1  17
ATOM     17  C   UNL     1      17.498   6.447  21.369  1.00  0.00     0.224 C 
ATOM     18  C   UNL     1      17.876   7.848  21.900  1.00  0.00     0.208 C 
ATOM     19  O   UNL     1      16.716   5.800  22.364  1.00  0.00    -0.337 OA
ATOM     20  C   UNL     1      16.885   8.106  23.004  1.00  0.00     0.180 C 
ATOM     21  C   UNL     1      16.502   6.693  23.438  1.00  0.00     0.179 C 
BRANCH  17  22
ATOM     22  C   UNL     1      16.686   6.509  20.049  1.00  0.00     0.225 C 
BRANCH  22  23
ATOM     23  O   UNL     1      15.393   6.995  20.282  1.00  0.00    -0.391 OA
ATOM     24  H   UNL     1      15.126   7.480  19.458  1.00  0.00     0.210 HD
ENDBRANCH  22  23
ENDBRANCH  17  22
BRANCH  18  25
ATOM     25  O   UNL     1      17.838   8.856  20.921  1.00  0.00    -0.385 OA
ATOM     26  H   UNL     1      18.533   8.624  20.251  1.00  0.00     0.211 HD
ENDBRANCH  18  25
BRANCH  20  27
ATOM     27  O   UNL     1      15.759   8.789  22.514  1.00  0.00    -0.387 OA
ATOM     28  H   UNL     1      16.101   9.573  22.011  1.00  0.00     0.211 HD
ENDBRANCH  20  27
BRANCH  21  29
ATOM     29  C   UNL     1      17.322   6.233  24.653  1.00  0.00     0.191 C 
BRANCH  29  30
ATOM     30  O   UNL     1      18.118   5.129  24.319  1.00  0.00    -0.394 OA
ATOM     31  H   UNL     1      17.864   4.865  23.395  1.00  0.00     0.210 HD
ENDBRANCH  29  30
ENDBRANCH  21  29
ENDBRANCH   1  17
TORSDOF 13
ENDMDL
MODEL 6
REMARK VINA RESULT:    -5.435      1.176      1.275
REMARK INTER + INTRA:          -9.277
REMARK INTER:                  -8.026
REMARK INTRA:                  -1.252
REMARK UNBOUND:                -0.983
REMARK SMILES OC[C@@H]1O[C@@H](O[C@@]2(CO)O[C@@H](CO)[C@H](O)[C@@H]2O)[C@H](O)[C@H](O)[C@@H]1O
REMARK SMILES IDX 6 1 5 2 3 3 22 4 4 5 20 6 18 7 2 8 1 9 23 11 21 13 19 15
REMARK SMILES IDX 7 17 16 18 10 19 14 20 11 21 8 22 9 23 17 25 15 27 12 29
REMARK SMILES IDX 13 30
REMARK H PARENT 1 10 23 12 21 14 19 16 9 24 17 26 15 28 13 31
REMARK Flexibility Score: inf
ROOT
ATOM      1  O   UNL     1      18.786   5.092  23.020  1.00  0.00    -0.313 OA
ENDROOT
BRANCH   1   2
ATOM      2  C   UNL     1      17.594   5.720  22.555  1.00  0.00     0.285 C 
ATOM      3  C   UNL     1      18.602   7.849  22.571  1.00  0.00     0.178 C 
ATOM      4  C   UNL     1      17.734   8.354  23.748  1.00  0.00     0.177 C 
ATOM      5  O   UNL     1      17.900   6.884  21.798  1.00  0.00    -0.341 OA
ATOM      6  C   UNL     1      17.317   7.160  24.619  1.00  0.00     0.179 C 
ATOM      7  C   UNL     1      16.684   6.053  23.757  1.00  0.00     0.202 C 
BRANCH   3   8
ATOM      8  C   UNL     1      19.015   9.014  21.659  1.00  0.00     0.191 C 
BRANCH   8   9
ATOM      9  O   UNL     1      18.036   9.248  20.684  1.00  0.00    -0.394 OA
ATOM     10  H   UNL     1      18.428   9.888  20.035  1.00  0.00     0.210 HD
ENDBRANCH   8   9
ENDBRANCH   3   8
BRANCH   4  11
ATOM     11  O   UNL     1      16.588   9.015  23.269  1.00  0.00    -0.387 OA
ATOM     12  H   UNL     1      15.801   8.578  23.686  1.00  0.00     0.211 HD
ENDBRANCH   4  11
BRANCH   6  13
ATOM     13  O   UNL     1      16.420   7.588  25.612  1.00  0.00    -0.387 OA
ATOM     14  H   UNL     1      15.908   8.346  25.226  1.00  0.00     0.211 HD
ENDBRANCH   6  13
BRANCH   7  15
ATOM     15  O   UNL     1      15.419   6.466  23.303  1.00  0.00    -0.385 OA
ATOM     16  H   UNL     1      15.341   7.434  23.509  1.00  0.00     0.211 HD
ENDBRANCH   7  15
ENDBRANCH   1   2
BRANCH   1  17
ATOM     17  C   UNL     1      18.979   3.769  22.532  1.00  0.00     0.224 C 
ATOM     18  C   UNL     1      20.501   3.495  22.553  1.00  0.00     0.208 C 
ATOM     19  O   UNL     1      18.534   3.647  21.188  1.00  0.00    -0.337 OA
ATOM     20  C   UNL     1      20.765   2.769  21.261  1.00  0.00     0.180 C 
ATOM     21  C   UNL     1      19.617   3.247  20.374  1.00  0.00     0.179 C 
BRANCH  17  22
ATOM     22  C   UNL     1      18.184   2.777  23.420  1.00  0.00     0.225 C 
BRANCH  22  23
ATOM     23  O   UNL     1      18.219   1.485  22.878  1.00  0.00    -0.391 OA
ATOM     24  H   UNL     1      18.355   1.597  21.901  1.00  0.00     0.210 HD
ENDBRANCH  22  23
ENDBRANCH  17  22
BRANCH  18  25
ATOM     25  O   UNL     1      20.929   2.751  23.666  1.00  0.00    -0.385 OA
ATOM     26  H   UNL     1      21.921   2.746  23.635  1.00  0.00     0.211 HD
ENDBRANCH  18  25
BRANCH  20  27
ATOM     27  O   UNL     1      20.692   1.377  21.447  1.00  0.00    -0.387 OA
ATOM     28  H   UNL     1      19.981   1.220  22.122  1.00  0.00     0.211 HD
ENDBRANCH  20  27
BRANCH  21  29
ATOM     29  C   UNL     1      20.044   4.423  19.482  1.00  0.00     0.191 C 
BRANCH  29  30
ATOM     30  O   UNL     1      21.061   4.028  18.602  1.00  0.00    -0.394 OA
ATOM     31  H   UNL     1      20.852   4.443  17.723  1.00  0.00     0.210 HD
ENDBRANCH  29  30
ENDBRANCH  21  29
ENDBRANCH   1  17
TORSDOF 13
ENDMDL
MODEL 7
REMARK VINA RESULT:    -5.388      2.367      5.863
REMARK INTER + INTRA:          -9.206
REMARK INTER:                  -7.587
REMARK INTRA:                  -1.619
REMARK UNBOUND:                -0.983
REMARK SMILES OC[C@@H]1O[C@@H](O[C@@]2(CO)O[C@@H](CO)[C@H](O)[C@@H]2O)[C@H](O)[C@H](O)[C@@H]1O
REMARK SMILES IDX 6 1 5 2 3 3 22 4 4 5 20 6 18 7 2 8 1 9 23 11 21 13 19 15
REMARK SMILES IDX 7 17 16 18 10 19 14 20 11 21 8 22 9 23 17 25 15 27 12 29
REMARK SMILES IDX 13 30
REMARK H PARENT 1 10 23 12 21 14 19 16 9 24 17 26 15 28 13 31
REMARK Flexibility Score: inf
ROOT
ATOM      1  O   UNL     1      16.273   5.921  23.175  1.00  0.00    -0.313 OA
ENDROOT
BRANCH   1   2
ATOM      2  C   UNL     1      16.870   4.630  23.270  1.00  0.00     0.285 C 
ATOM      3  C   UNL     1      17.623   4.714  21.040  1.00  0.00     0.178 C 
ATOM      4  C   UNL     1      16.649   3.607  20.572  1.00  0.00     0.177 C 
ATOM      5  O   UNL     1      17.990   4.528  22.401  1.00  0.00    -0.341 OA
ATOM      6  C   UNL     1      15.407   3.610  21.474  1.00  0.00     0.179 C 
ATOM      7  C   UNL     1      15.813   3.550  22.959  1.00  0.00     0.202 C 
BRANCH   3   8
ATOM      8  C   UNL     1      18.893   4.725  20.177  1.00  0.00     0.191 C 
BRANCH   8   9
ATOM      9  O   UNL     1      20.033   4.569  20.977  1.00  0.00    -0.394 OA
ATOM     10  H   UNL     1      20.431   5.472  21.084  1.00  0.00     0.210 HD
ENDBRANCH   8   9
ENDBRANCH   3   8
BRANCH   4  11
ATOM     11  O   UNL     1      17.272   2.346  20.625  1.00  0.00    -0.387 OA
ATOM     12  H   UNL     1      17.591   2.216  21.555  1.00  0.00     0.211 HD
ENDBRANCH   4  11
BRANCH   6  13
ATOM     13  O   UNL     1      14.579   2.524  21.144  1.00  0.00    -0.387 OA
ATOM     14  H   UNL     1      15.053   2.006  20.443  1.00  0.00     0.211 HD
ENDBRANCH   6  13
BRANCH   7  15
ATOM     15  O   UNL     1      16.323   2.275  23.263  1.00  0.00    -0.385 OA
ATOM     16  H   UNL     1      16.765   1.938  22.441  1.00  0.00     0.211 HD
ENDBRANCH   7  15
ENDBRANCH   1   2
BRANCH   1  17
ATOM     17  C   UNL     1      16.586   6.792  24.258  1.00  0.00     0.224 C 
ATOM     18  C   UNL     1      16.709   8.218  23.672  1.00  0.00     0.208 C 
ATOM     19  O   UNL     1      17.835   6.454  24.845  1.00  0.00    -0.337 OA
ATOM     20  C   UNL     1      17.905   8.804  24.373  1.00  0.00     0.180 C 
ATOM     21  C   UNL     1      18.707   7.562  24.752  1.00  0.00     0.179 C 
BRANCH  17  22
ATOM     22  C   UNL     1      15.476   6.685  25.335  1.00  0.00     0.225 C 
BRANCH  22  23
ATOM     23  O   UNL     1      15.748   7.531  26.418  1.00  0.00    -0.391 OA
ATOM     24  H   UNL     1      16.144   6.957  27.125  1.00  0.00     0.210 HD
ENDBRANCH  22  23
ENDBRANCH  17  22
BRANCH  18  25
ATOM     25  O   UNL     1      15.560   9.007  23.853  1.00  0.00    -0.385 OA
ATOM     26  H   UNL     1      15.854   9.823  24.336  1.00  0.00     0.211 HD
ENDBRANCH  18  25
BRANCH  20  27
ATOM     27  O   UNL     1      17.514   9.504  25.528  1.00  0.00    -0.387 OA
ATOM     28  H   UNL     1      17.529  10.468  25.293  1.00  0.00     0.211 HD
ENDBRANCH  20  27
BRANCH  21  29
ATOM     29  C   UNL     1      19.804   7.260  23.719  1.00  0.00     0.191 C 
BRANCH  29  30
ATOM     30  O   UNL     1      20.038   5.880  23.640  1.00  0.00    -0.394 OA
ATOM     31  H   UNL     1      20.967   5.731  23.957  1.00  0.00     0.210 HD
ENDBRANCH  29  30
ENDBRANCH  21  29
ENDBRANCH   1  17
TORSDOF 13
ENDMDL
MODEL 8
REMARK VINA RESULT:    -5.237      1.858      2.613
REMARK INTER + INTRA:          -8.975
REMARK INTER:                  -7.664
REMARK INTRA:                  -1.311
REMARK UNBOUND:                -0.983
REMARK SMILES OC[C@@H]1O[C@@H](O[C@@]2(CO)O[C@@H](CO)[C@H](O)[C@@H]2O)[C@H](O)[C@H](O)[C@@H]1O
REMARK SMILES IDX 6 1 5 2 3 3 22 4 4 5 20 6 18 7 2 8 1 9 23 11 21 13 19 15
REMARK SMILES IDX 7 17 16 18 10 19 14 20 11 21 8 22 9 23 17 25 15 27 12 29
REMARK SMILES IDX 13 30
REMARK H PARENT 1 10 23 12 21 14 19 16 9 24 17 26 15 28 13 31
REMARK Flexibility Score: inf
ROOT
ATOM      1  O   UNL     1      18.221   6.048  22.127  1.00  0.00    -0.313 OA
ENDROOT
BRANCH   1   2
ATOM      2  C   UNL     1      17.592   5.847  23.391  1.00  0.00     0.285 C 
ATOM      3  C   UNL     1      16.285   7.791  23.151  1.00  0.00     0.178 C 
ATOM      4  C   UNL     1      17.030   8.543  24.279  1.00  0.00     0.177 C 
ATOM      5  O   UNL     1      16.278   6.390  23.392  1.00  0.00    -0.341 OA
ATOM      6  C   UNL     1      18.464   8.005  24.386  1.00  0.00     0.179 C 
ATOM      7  C   UNL     1      18.461   6.470  24.504  1.00  0.00     0.202 C 
BRANCH   3   8
ATOM      8  C   UNL     1      14.835   8.284  23.032  1.00  0.00     0.191 C 
BRANCH   8   9
ATOM      9  O   UNL     1      14.260   7.838  21.834  1.00  0.00    -0.394 OA
ATOM     10  H   UNL     1      15.006   7.700  21.195  1.00  0.00     0.210 HD
ENDBRANCH   8   9
ENDBRANCH   3   8
BRANCH   4  11
ATOM     11  O   UNL     1      16.367   8.374  25.508  1.00  0.00    -0.387 OA
ATOM     12  H   UNL     1      15.424   8.142  25.304  1.00  0.00     0.211 HD
ENDBRANCH   4  11
BRANCH   6  13
ATOM     13  O   UNL     1      19.107   8.584  25.492  1.00  0.00    -0.387 OA
ATOM     14  H   UNL     1      20.076   8.397  25.389  1.00  0.00     0.211 HD
ENDBRANCH   6  13
BRANCH   7  15
ATOM     15  O   UNL     1      17.972   6.089  25.766  1.00  0.00    -0.385 OA
ATOM     16  H   UNL     1      18.397   6.690  26.433  1.00  0.00     0.211 HD
ENDBRANCH   7  15
ENDBRANCH   1   2
BRANCH   1  17
ATOM     17  C   UNL     1      18.167   4.919  21.260  1.00  0.00     0.224 C 
ATOM     18  C   UNL     1      17.517   3.765  22.058  1.00  0.00     0.208 C 
ATOM     19  O   UNL     1      19.471   4.503  20.878  1.00  0.00    -0.337 OA
ATOM     20  C   UNL     1      18.332   2.554  21.688  1.00  0.00     0.180 C 
ATOM     21  C   UNL     1      19.673   3.168  21.293  1.00  0.00     0.179 C 
BRANCH  17  22
ATOM     22  C   UNL     1      17.362   5.291  19.988  1.00  0.00     0.225 C 
BRANCH  22  23
ATOM     23  O   UNL     1      16.192   5.985  20.324  1.00  0.00    -0.391 OA
ATOM     24  H   UNL     1      15.530   5.297  20.596  1.00  0.00     0.210 HD
ENDBRANCH  22  23
ENDBRANCH  17  22
BRANCH  18  25
ATOM     25  O   UNL     1      16.152   3.580  21.778  1.00  0.00    -0.385 OA
ATOM     26  H   UNL     1      16.104   2.925  21.034  1.00  0.00     0.211 HD
ENDBRANCH  18  25
BRANCH  20  27
ATOM     27  O   UNL     1      17.760   1.883  20.593  1.00  0.00    -0.387 OA
ATOM     28  H   UNL     1      16.784   1.832  20.771  1.00  0.00     0.211 HD
ENDBRANCH  20  27
BRANCH  21  29
ATOM     29  C   UNL     1      20.671   3.144  22.461  1.00  0.00     0.191 C 
BRANCH  29  30
ATOM     30  O   UNL     1      20.924   4.444  22.918  1.00  0.00    -0.394 OA
ATOM     31  H   UNL     1      20.791   5.049  22.140  1.00  0.00     0.210 HD
ENDBRANCH  29  30
ENDBRANCH  21  29
ENDBRANCH   1  17
TORSDOF 13
ENDMDL
MODEL 9
REMARK VINA RESULT:    -5.220      1.587      6.393
REMARK INTER + INTRA:          -8.949
REMARK INTER:                  -7.766
REMARK INTRA:                  -1.183
REMARK UNBOUND:                -0.983
REMARK SMILES OC[C@@H]1O[C@@H](O[C@@]2(CO)O[C@@H](CO)[C@H](O)[C@@H]2O)[C@H](O)[C@H](O)[C@@H]1O
REMARK SMILES IDX 6 1 5 2 3 3 22 4 4 5 20 6 18 7 2 8 1 9 23 11 21 13 19 15
REMARK SMILES IDX 7 17 16 18 10 19 14 20 11 21 8 22 9 23 17 25 15 27 12 29
REMARK SMILES IDX 13 30
REMARK H PARENT 1 10 23 12 21 14 19 16 9 24 17 26 15 28 13 31
REMARK Flexibility Score: inf
ROOT
ATOM      1  O   UNL     1      18.497   5.683  22.104  1.00  0.00    -0.313 OA
ENDROOT
BRANCH   1   2
ATOM      2  C   UNL     1      18.244   4.990  20.885  1.00  0.00     0.285 C 
ATOM      3  C   UNL     1      17.325   3.142  22.020  1.00  0.00     0.178 C 
ATOM      4  C   UNL     1      18.501   2.210  21.647  1.00  0.00     0.177 C 
ATOM      5  O   UNL     1      17.119   4.130  21.018  1.00  0.00    -0.341 OA
ATOM      6  C   UNL     1      19.770   3.050  21.445  1.00  0.00     0.179 C 
ATOM      7  C   UNL     1      19.506   4.207  20.465  1.00  0.00     0.202 C 
BRANCH   3   8
ATOM      8  C   UNL     1      16.028   2.339  22.203  1.00  0.00     0.191 C 
BRANCH   8   9
ATOM      9  O   UNL     1      15.304   2.294  21.004  1.00  0.00    -0.394 OA
ATOM     10  H   UNL     1      14.349   2.191  21.252  1.00  0.00     0.210 HD
ENDBRANCH   8   9
ENDBRANCH   3   8
BRANCH   4  11
ATOM     11  O   UNL     1      18.211   1.497  20.468  1.00  0.00    -0.387 OA
ATOM     12  H   UNL     1      19.058   1.418  19.957  1.00  0.00     0.211 HD
ENDBRANCH   4  11
BRANCH   6  13
ATOM     13  O   UNL     1      20.811   2.232  20.975  1.00  0.00    -0.387 OA
ATOM     14  H   UNL     1      20.904   2.418  20.004  1.00  0.00     0.211 HD
ENDBRANCH   6  13
BRANCH   7  15
ATOM     15  O   UNL     1      19.348   3.702  19.162  1.00  0.00    -0.385 OA
ATOM     16  H   UNL     1      19.984   2.946  19.067  1.00  0.00     0.211 HD
ENDBRANCH   7  15
ENDBRANCH   1   2
BRANCH   1  17
ATOM     17  C   UNL     1      17.908   6.978  22.175  1.00  0.00     0.224 C 
ATOM     18  C   UNL     1      18.784   7.823  23.127  1.00  0.00     0.208 C 
ATOM     19  O   UNL     1      16.600   6.917  22.726  1.00  0.00    -0.337 OA
ATOM     20  C   UNL     1      17.793   8.596  23.956  1.00  0.00     0.180 C 
ATOM     21  C   UNL     1      16.551   7.709  23.896  1.00  0.00     0.179 C 
BRANCH  17  22
ATOM     22  C   UNL     1      17.827   7.580  20.748  1.00  0.00     0.225 C 
BRANCH  22  23
ATOM     23  O   UNL     1      17.488   8.939  20.799  1.00  0.00    -0.391 OA
ATOM     24  H   UNL     1      18.343   9.440  20.742  1.00  0.00     0.210 HD
ENDBRANCH  22  23
ENDBRANCH  17  22
BRANCH  18  25
ATOM     25  O   UNL     1      19.685   8.674  22.465  1.00  0.00    -0.385 OA
ATOM     26  H   UNL     1      20.552   8.191  22.427  1.00  0.00     0.211 HD
ENDBRANCH  18  25
BRANCH  20  27
ATOM     27  O   UNL     1      17.527   9.848  23.375  1.00  0.00    -0.387 OA
ATOM     28  H   UNL     1      16.556  10.015  23.496  1.00  0.00     0.211 HD
ENDBRANCH  20  27
BRANCH  21  29
ATOM     29  C   UNL     1      16.451   6.793  25.126  1.00  0.00     0.191 C 
BRANCH  29  30
ATOM     30  O   UNL     1      16.001   7.515  26.240  1.00  0.00    -0.394 OA
ATOM     31  H   UNL     1      16.566   8.330  26.297  1.00  0.00     0.210 HD
ENDBRANCH  29  30
ENDBRANCH  21  29
ENDBRANCH   1  17
TORSDOF 13
ENDMDL
