MODEL 1
REMARK VINA RESULT:    38.380      0.000      0.000
REMARK INTER + INTRA:          60.852
REMARK INTER:                  63.061
REMARK INTRA:                  -2.209
REMARK UNBOUND:                -2.209
REMARK SMILES C[C@H]1O[C@H](OC[C@@H]2O[C@H](Oc3c(-c4ccc(O)c(O)c4)oc4cc(O)cc(O)c4c3=O)[C@@H](O)[C@H](O)[C@H]2O)[C@@H](O)[C@H](O)[C@@H]1O
REMARK SMILES IDX 7 1 36 2 34 3 32 4 9 5 8 6 6 7 5 8 4 9 1 10 2 11 42 12 3 13
REMARK SMILES IDX 40 14 38 15 43 16 41 18 39 20 37 22 35 24 10 26 11 27 12 28
REMARK SMILES IDX 30 29 21 30 29 31 31 32 22 33 27 34 23 35 26 36 24 37 13 38
REMARK SMILES IDX 20 39 14 40 18 41 15 42 16 43 19 44 17 46 28 48 25 50 33 52
REMARK H PARENT 43 17 41 19 39 21 37 23 35 25 19 45 17 47 28 49 25 51 33 53
REMARK Flexibility Score: inf
ROOT
ATOM      1  C   UNL     1      -9.017  -9.766  21.980  1.00  0.00     0.180 C 
ATOM      2  C   UNL     1     -10.432  -9.221  22.460  1.00  0.00     0.177 C 
ATOM      3  C   UNL     1     -10.735  -9.866  23.847  1.00  0.00     0.180 C 
ATOM      4  C   UNL     1     -10.302 -11.337  23.964  1.00  0.00     0.214 C 
ATOM      5  C   UNL     1     -10.035 -11.909  22.522  1.00  0.00     0.339 C 
ATOM      6  O   UNL     1      -9.052 -11.212  21.773  1.00  0.00    -0.332 OA
ENDROOT
BRANCH   1   7
ATOM      7  C   UNL     1      -8.487  -8.982  20.695  1.00  0.00     0.198 C 
BRANCH   7   8
ATOM      8  O   UNL     1      -9.386  -7.893  20.337  1.00  0.00    -0.347 OA
BRANCH   8   9
ATOM      9  C   UNL     1      -8.589  -6.800  19.802  1.00  0.00     0.281 C 
ATOM     10  C   UNL     1     -10.675  -4.519  17.728  1.00  0.00     0.041 C 
ATOM     11  C   UNL     1     -10.398  -5.552  18.854  1.00  0.00     0.150 C 
ATOM     12  C   UNL     1     -10.519  -4.872  20.308  1.00  0.00     0.174 C 
ATOM     13  O   UNL     1      -9.182  -6.168  18.629  1.00  0.00    -0.344 OA
ATOM     14  C   UNL     1      -9.170  -4.587  20.949  1.00  0.00     0.179 C 
ATOM     15  C   UNL     1      -8.264  -5.784  20.903  1.00  0.00     0.202 C 
BRANCH  12  16
ATOM     16  O   UNL     1     -11.317  -5.652  21.176  1.00  0.00    -0.388 OA
ATOM     17  H   UNL     1     -11.090  -5.352  22.110  1.00  0.00     0.211 HD
ENDBRANCH  12  16
BRANCH  14  18
ATOM     18  O   UNL     1      -9.328  -4.136  22.326  1.00  0.00    -0.387 OA
ATOM     19  H   UNL     1     -10.147  -4.593  22.742  1.00  0.00     0.211 HD
ENDBRANCH  14  18
BRANCH  15  20
ATOM     20  O   UNL     1      -6.961  -5.337  20.821  1.00  0.00    -0.385 OA
ATOM     21  H   UNL     1      -6.900  -4.614  20.133  1.00  0.00     0.211 HD
ENDBRANCH  15  20
ENDBRANCH   8   9
ENDBRANCH   7   8
ENDBRANCH   1   7
BRANCH   2  22
ATOM     22  O   UNL     1     -10.443  -7.780  22.629  1.00  0.00    -0.387 OA
ATOM     23  H   UNL     1      -9.605  -7.634  23.146  1.00  0.00     0.211 HD
ENDBRANCH   2  22
BRANCH   3  24
ATOM     24  O   UNL     1     -12.121  -9.831  24.124  1.00  0.00    -0.387 OA
ATOM     25  H   UNL     1     -12.208  -9.428  25.069  1.00  0.00     0.211 HD
ENDBRANCH   3  24
BRANCH   5  26
ATOM     26  O   UNL     1     -11.328 -11.970  21.754  1.00  0.00    -0.454 OA
BRANCH  26  27
ATOM     27  C   UNL     1     -11.964 -13.201  21.397  1.00  0.00     0.214 A 
ATOM     28  C   UNL     1     -13.372 -13.196  21.407  1.00  0.00     0.180 A 
ATOM     29  C   UNL     1     -11.567 -13.852  20.190  1.00  0.00     0.239 A 
ATOM     30  O   UNL     1     -13.974 -12.577  20.406  1.00  0.00    -0.452 OA
ATOM     31  C   UNL     1     -12.097 -13.253  19.027  1.00  0.00     0.111 A 
ATOM     32  O   UNL     1     -10.980 -15.009  20.131  1.00  0.00    -0.285 OA
ATOM     33  C   UNL     1     -13.268 -12.433  19.250  1.00  0.00     0.146 A 
ATOM     34  C   UNL     1     -11.141 -12.818  18.082  1.00  0.00     0.134 A 
ATOM     35  C   UNL     1     -13.522 -11.322  18.398  1.00  0.00     0.094 A 
ATOM     36  C   UNL     1     -11.470 -11.912  17.107  1.00  0.00     0.093 A 
ATOM     37  C   UNL     1     -12.608 -11.098  17.314  1.00  0.00     0.123 A 
BRANCH  28  38
ATOM     38  C   UNL     1     -14.089 -14.121  22.324  1.00  0.00     0.025 A 
ATOM     39  C   UNL     1     -14.361 -15.444  21.883  1.00  0.00     0.062 A 
ATOM     40  C   UNL     1     -14.404 -13.770  23.685  1.00  0.00     0.016 A 
ATOM     41  C   UNL     1     -14.697 -16.444  22.856  1.00  0.00     0.158 A 
ATOM     42  C   UNL     1     -14.925 -14.761  24.567  1.00  0.00     0.051 A 
ATOM     43  C   UNL     1     -14.932 -16.091  24.176  1.00  0.00     0.157 A 
BRANCH  41  44
ATOM     44  O   UNL     1     -14.639 -17.806  22.567  1.00  0.00    -0.504 OA
ATOM     45  H   UNL     1     -13.800 -18.402  22.668  1.00  0.00     0.293 HD
ENDBRANCH  41  44
BRANCH  43  46
ATOM     46  O   UNL     1     -15.089 -17.136  25.125  1.00  0.00    -0.504 OA
ATOM     47  H   UNL     1     -15.808 -17.838  25.135  1.00  0.00     0.293 HD
ENDBRANCH  43  46
ENDBRANCH  28  38
BRANCH  34  48
ATOM     48  O   UNL     1      -9.800 -13.266  18.248  1.00  0.00    -0.507 OA
ATOM     49  H   UNL     1      -9.045 -12.618  18.127  1.00  0.00     0.293 HD
ENDBRANCH  34  48
BRANCH  37  50
ATOM     50  O   UNL     1     -12.782  -9.918  16.592  1.00  0.00    -0.508 OA
ATOM     51  H   UNL     1     -12.200  -9.780  15.821  1.00  0.00     0.293 HD
ENDBRANCH  37  50
ENDBRANCH  26  27
ENDBRANCH   5  26
BRANCH   4  52
ATOM     52  O   UNL     1      -9.254 -11.420  24.912  1.00  0.00    -0.384 OA
ATOM     53  H   UNL     1      -8.809 -12.289  24.768  1.00  0.00     0.211 HD
ENDBRANCH   4  52
TORSDOF 16
ENDMDL
MODEL 2
REMARK VINA RESULT:    38.894      2.119      5.666
REMARK INTER + INTRA:          61.697
REMARK INTER:                  61.605
REMARK INTRA:                   0.093
REMARK UNBOUND:                -2.209
REMARK SMILES C[C@H]1O[C@H](OC[C@@H]2O[C@H](Oc3c(-c4ccc(O)c(O)c4)oc4cc(O)cc(O)c4c3=O)[C@@H](O)[C@H](O)[C@H]2O)[C@@H](O)[C@H](O)[C@@H]1O
REMARK SMILES IDX 7 1 36 2 34 3 32 4 9 5 8 6 6 7 5 8 4 9 1 10 2 11 42 12 3 13
REMARK SMILES IDX 40 14 38 15 43 16 41 18 39 20 37 22 35 24 10 26 11 27 12 28
REMARK SMILES IDX 30 29 21 30 29 31 31 32 22 33 27 34 23 35 26 36 24 37 13 38
REMARK SMILES IDX 20 39 14 40 18 41 15 42 16 43 19 44 17 46 28 48 25 50 33 52
REMARK H PARENT 43 17 41 19 39 21 37 23 35 25 19 45 17 47 28 49 25 51 33 53
REMARK Flexibility Score: inf
ROOT
ATOM      1  C   UNL     1     -11.900 -11.532  18.344  1.00  0.00     0.180 C 
ATOM      2  C   UNL     1     -12.250 -13.078  18.200  1.00  0.00     0.177 C 
ATOM      3  C   UNL     1     -13.735 -13.179  17.733  1.00  0.00     0.180 C 
ATOM      4  C   UNL     1     -14.671 -12.148  18.387  1.00  0.00     0.214 C 
ATOM      5  C   UNL     1     -13.956 -11.534  19.648  1.00  0.00     0.339 C 
ATOM      6  O   UNL     1     -12.712 -10.903  19.384  1.00  0.00    -0.332 OA
ENDROOT
BRANCH   1   7
ATOM      7  C   UNL     1     -10.338 -11.299  18.569  1.00  0.00     0.198 C 
BRANCH   7   8
ATOM      8  O   UNL     1     -10.066  -9.927  18.977  1.00  0.00    -0.347 OA
BRANCH   8   9
ATOM      9  C   UNL     1     -10.211  -9.067  17.813  1.00  0.00     0.281 C 
ATOM     10  C   UNL     1      -9.842  -5.483  18.746  1.00  0.00     0.041 C 
ATOM     11  C   UNL     1      -9.615  -7.014  18.885  1.00  0.00     0.150 C 
ATOM     12  C   UNL     1      -8.100  -7.411  18.515  1.00  0.00     0.174 C 
ATOM     13  O   UNL     1     -10.564  -7.692  18.146  1.00  0.00    -0.344 OA
ATOM     14  C   UNL     1      -7.967  -8.041  17.137  1.00  0.00     0.179 C 
ATOM     15  C   UNL     1      -8.962  -9.146  16.929  1.00  0.00     0.202 C 
BRANCH  12  16
ATOM     16  O   UNL     1      -7.536  -8.259  19.495  1.00  0.00    -0.388 OA
ATOM     17  H   UNL     1      -7.135  -7.652  20.193  1.00  0.00     0.211 HD
ENDBRANCH  12  16
BRANCH  14  18
ATOM     18  O   UNL     1      -6.616  -8.540  16.916  1.00  0.00    -0.387 OA
ATOM     19  H   UNL     1      -5.993  -8.168  17.642  1.00  0.00     0.211 HD
ENDBRANCH  14  18
BRANCH  15  20
ATOM     20  O   UNL     1      -9.284  -9.190  15.587  1.00  0.00    -0.385 OA
ATOM     21  H   UNL     1      -8.595  -8.690  15.063  1.00  0.00     0.211 HD
ENDBRANCH  15  20
ENDBRANCH   8   9
ENDBRANCH   7   8
ENDBRANCH   1   7
BRANCH   2  22
ATOM     22  O   UNL     1     -11.427 -13.742  17.207  1.00  0.00    -0.387 OA
ATOM     23  H   UNL     1     -10.887 -12.983  16.855  1.00  0.00     0.211 HD
ENDBRANCH   2  22
BRANCH   3  24
ATOM     24  O   UNL     1     -14.267 -14.454  18.032  1.00  0.00    -0.387 OA
ATOM     25  H   UNL     1     -15.032 -14.603  17.356  1.00  0.00     0.211 HD
ENDBRANCH   3  24
BRANCH   5  26
ATOM     26  O   UNL     1     -13.787 -12.594  20.703  1.00  0.00    -0.454 OA
BRANCH  26  27
ATOM     27  C   UNL     1     -12.543 -12.843  21.365  1.00  0.00     0.214 A 
ATOM     28  C   UNL     1     -12.604 -12.990  22.763  1.00  0.00     0.180 A 
ATOM     29  C   UNL     1     -11.709 -13.896  20.880  1.00  0.00     0.239 A 
ATOM     30  O   UNL     1     -13.094 -14.128  23.224  1.00  0.00    -0.452 OA
ATOM     31  C   UNL     1     -12.153 -15.183  21.253  1.00  0.00     0.111 A 
ATOM     32  O   UNL     1     -10.534 -13.727  20.353  1.00  0.00    -0.285 OA
ATOM     33  C   UNL     1     -13.041 -15.208  22.394  1.00  0.00     0.146 A 
ATOM     34  C   UNL     1     -12.409 -16.068  20.182  1.00  0.00     0.134 A 
ATOM     35  C   UNL     1     -14.027 -16.230  22.498  1.00  0.00     0.094 A 
ATOM     36  C   UNL     1     -13.176 -17.190  20.358  1.00  0.00     0.093 A 
ATOM     37  C   UNL     1     -14.055 -17.226  21.466  1.00  0.00     0.123 A 
BRANCH  28  38
ATOM     38  C   UNL     1     -11.850 -12.037  23.621  1.00  0.00     0.025 A 
ATOM     39  C   UNL     1     -10.435 -11.988  23.504  1.00  0.00     0.062 A 
ATOM     40  C   UNL     1     -12.506 -11.075  24.469  1.00  0.00     0.016 A 
ATOM     41  C   UNL     1      -9.736 -10.847  24.023  1.00  0.00     0.158 A 
ATOM     42  C   UNL     1     -11.735 -10.071  25.124  1.00  0.00     0.051 A 
ATOM     43  C   UNL     1     -10.402  -9.898  24.783  1.00  0.00     0.157 A 
BRANCH  41  44
ATOM     44  O   UNL     1      -8.424 -10.554  23.655  1.00  0.00    -0.504 OA
ATOM     45  H   UNL     1      -7.824  -9.840  24.103  1.00  0.00     0.293 HD
ENDBRANCH  41  44
BRANCH  43  46
ATOM     46  O   UNL     1      -9.705  -8.708  25.121  1.00  0.00    -0.504 OA
ATOM     47  H   UNL     1      -9.940  -7.772  24.843  1.00  0.00     0.293 HD
ENDBRANCH  43  46
ENDBRANCH  28  38
BRANCH  34  48
ATOM     48  O   UNL     1     -11.938 -15.694  18.891  1.00  0.00    -0.507 OA
ATOM     49  H   UNL     1     -11.582 -16.398  18.273  1.00  0.00     0.293 HD
ENDBRANCH  34  48
BRANCH  37  50
ATOM     50  O   UNL     1     -15.124 -18.121  21.500  1.00  0.00    -0.508 OA
ATOM     51  H   UNL     1     -15.110 -18.803  22.197  1.00  0.00     0.293 HD
ENDBRANCH  37  50
ENDBRANCH  26  27
ENDBRANCH   5  26
BRANCH   4  52
ATOM     52  O   UNL     1     -15.125 -11.258  17.385  1.00  0.00    -0.384 OA
ATOM     53  H   UNL     1     -14.641 -11.490  16.558  1.00  0.00     0.211 HD
ENDBRANCH   4  52
TORSDOF 16
ENDMDL
