MODEL 1
REMARK VINA RESULT:    -4.727      0.000      0.000
REMARK INTER + INTRA:          -9.651
REMARK INTER:                  -8.596
REMARK INTRA:                  -1.055
REMARK UNBOUND:                -1.055
REMARK SMILES CCCCCCCCCCCCCCCC(=O)[O-]
REMARK SMILES IDX 9 1 10 2 11 3 12 4 13 5 14 6 15 7 16 8 17 9 18 10 8 11 7 12
REMARK SMILES IDX 6 13 5 14 4 15 3 16 2 17 1 18
REMARK H PARENT
REMARK Flexibility Score: inf
ROOT
ATOM      1  C   UNL     1      -5.973  35.694  21.010  1.00  0.00     0.000 C 
ENDROOT
BRANCH   1   2
ATOM      2  C   UNL     1      -4.875  35.287  22.008  1.00  0.00     0.000 C 
BRANCH   2   3
ATOM      3  C   UNL     1      -5.375  34.592  23.289  1.00  0.00     0.000 C 
BRANCH   3   4
ATOM      4  C   UNL     1      -6.010  35.569  24.292  1.00  0.00     0.000 C 
BRANCH   4   5
ATOM      5  C   UNL     1      -4.973  36.448  25.013  1.00  0.00     0.000 C 
BRANCH   5   6
ATOM      6  C   UNL     1      -4.971  37.936  24.606  1.00  0.00     0.006 C 
BRANCH   6   7
ATOM      7  C   UNL     1      -5.858  38.269  23.396  1.00  0.00     0.053 C 
BRANCH   7   8
ATOM      8  C   UNL     1      -5.152  39.147  22.408  1.00  0.00     0.041 C 
ATOM      9  O   UNL     1      -3.937  38.950  22.142  1.00  0.00    -0.550 OA
ATOM     10  O   UNL     1      -5.827  40.201  21.807  1.00  0.00    -0.550 OA
ENDBRANCH   7   8
ENDBRANCH   6   7
ENDBRANCH   5   6
ENDBRANCH   4   5
ENDBRANCH   3   4
ENDBRANCH   2   3
ENDBRANCH   1   2
BRANCH   1  11
ATOM     11  C   UNL     1      -5.413  36.270  19.701  1.00  0.00     0.000 C 
BRANCH  11  12
ATOM     12  C   UNL     1      -3.924  35.942  19.547  1.00  0.00    -0.000 C 
BRANCH  12  13
ATOM     13  C   UNL     1      -3.101  37.217  19.309  1.00  0.00    -0.000 C 
BRANCH  13  14
ATOM     14  C   UNL     1      -2.767  37.443  17.824  1.00  0.00    -0.000 C 
BRANCH  14  15
ATOM     15  C   UNL     1      -3.225  36.320  16.870  1.00  0.00    -0.000 C 
BRANCH  15  16
ATOM     16  C   UNL     1      -2.205  35.928  15.785  1.00  0.00    -0.000 C 
BRANCH  16  17
ATOM     17  C   UNL     1      -2.450  36.646  14.450  1.00  0.00    -0.003 C 
ATOM     18  C   UNL     1      -3.862  37.220  14.387  1.00  0.00     0.004 C 
ENDBRANCH  16  17
ENDBRANCH  15  16
ENDBRANCH  14  15
ENDBRANCH  13  14
ENDBRANCH  12  13
ENDBRANCH  11  12
ENDBRANCH   1  11
TORSDOF 14
ENDMDL
MODEL 2
REMARK VINA RESULT:    -4.647      2.695      6.773
REMARK INTER + INTRA:          -9.506
REMARK INTER:                  -8.185
REMARK INTRA:                  -1.321
REMARK UNBOUND:                -1.055
REMARK SMILES CCCCCCCCCCCCCCCC(=O)[O-]
REMARK SMILES IDX 9 1 10 2 11 3 12 4 13 5 14 6 15 7 16 8 17 9 18 10 8 11 7 12
REMARK SMILES IDX 6 13 5 14 4 15 3 16 2 17 1 18
REMARK H PARENT
REMARK Flexibility Score: inf
ROOT
ATOM      1  C   UNL     1      -4.612  35.348  21.934  1.00  0.00     0.000 C 
ENDROOT
BRANCH   1   2
ATOM      2  C   UNL     1      -4.567  35.318  20.396  1.00  0.00     0.000 C 
BRANCH   2   3
ATOM      3  C   UNL     1      -5.382  36.420  19.693  1.00  0.00     0.000 C 
BRANCH   3   4
ATOM      4  C   UNL     1      -4.514  37.599  19.221  1.00  0.00     0.000 C 
BRANCH   4   5
ATOM      5  C   UNL     1      -3.010  37.271  19.214  1.00  0.00     0.000 C 
BRANCH   5   6
ATOM      6  C   UNL     1      -2.356  37.201  17.819  1.00  0.00     0.006 C 
BRANCH   6   7
ATOM      7  C   UNL     1      -3.071  36.275  16.823  1.00  0.00     0.053 C 
BRANCH   7   8
ATOM      8  C   UNL     1      -3.017  36.807  15.424  1.00  0.00     0.041 C 
ATOM      9  O   UNL     1      -2.388  36.178  14.531  1.00  0.00    -0.550 OA
ATOM     10  O   UNL     1      -3.632  38.013  15.113  1.00  0.00    -0.550 OA
ENDBRANCH   7   8
ENDBRANCH   6   7
ENDBRANCH   5   6
ENDBRANCH   4   5
ENDBRANCH   3   4
ENDBRANCH   2   3
ENDBRANCH   1   2
BRANCH   1  11
ATOM     11  C   UNL     1      -6.040  35.267  22.496  1.00  0.00     0.000 C 
BRANCH  11  12
ATOM     12  C   UNL     1      -6.091  34.371  23.740  1.00  0.00    -0.000 C 
BRANCH  12  13
ATOM     13  C   UNL     1      -6.056  35.212  25.024  1.00  0.00    -0.000 C 
BRANCH  13  14
ATOM     14  C   UNL     1      -6.125  36.725  24.750  1.00  0.00    -0.000 C 
BRANCH  14  15
ATOM     15  C   UNL     1      -4.852  37.516  25.115  1.00  0.00    -0.000 C 
BRANCH  15  16
ATOM     16  C   UNL     1      -4.505  38.672  24.159  1.00  0.00    -0.000 C 
BRANCH  16  17
ATOM     17  C   UNL     1      -5.176  38.530  22.784  1.00  0.00    -0.003 C 
ATOM     18  C   UNL     1      -5.398  39.894  22.138  1.00  0.00     0.004 C 
ENDBRANCH  16  17
ENDBRANCH  15  16
ENDBRANCH  14  15
ENDBRANCH  13  14
ENDBRANCH  12  13
ENDBRANCH  11  12
ENDBRANCH   1  11
TORSDOF 14
ENDMDL
MODEL 3
REMARK VINA RESULT:    -4.365      1.965      2.965
REMARK INTER + INTRA:          -8.992
REMARK INTER:                  -7.592
REMARK INTRA:                  -1.400
REMARK UNBOUND:                -1.055
REMARK SMILES CCCCCCCCCCCCCCCC(=O)[O-]
REMARK SMILES IDX 9 1 10 2 11 3 12 4 13 5 14 6 15 7 16 8 17 9 18 10 8 11 7 12
REMARK SMILES IDX 6 13 5 14 4 15 3 16 2 17 1 18
REMARK H PARENT
REMARK Flexibility Score: inf
ROOT
ATOM      1  C   UNL     1      -4.521  35.739  20.809  1.00  0.00     0.000 C 
ENDROOT
BRANCH   1   2
ATOM      2  C   UNL     1      -4.172  37.235  20.709  1.00  0.00     0.000 C 
BRANCH   2   3
ATOM      3  C   UNL     1      -5.346  38.160  20.336  1.00  0.00     0.000 C 
BRANCH   3   4
ATOM      4  C   UNL     1      -5.645  39.214  21.416  1.00  0.00     0.000 C 
BRANCH   4   5
ATOM      5  C   UNL     1      -4.570  39.266  22.517  1.00  0.00     0.000 C 
BRANCH   5   6
ATOM      6  C   UNL     1      -4.987  38.665  23.875  1.00  0.00     0.006 C 
BRANCH   6   7
ATOM      7  C   UNL     1      -5.919  37.447  23.777  1.00  0.00     0.053 C 
BRANCH   7   8
ATOM      8  C   UNL     1      -5.411  36.286  24.575  1.00  0.00     0.041 C 
ATOM      9  O   UNL     1      -5.691  35.108  24.228  1.00  0.00    -0.550 OA
ATOM     10  O   UNL     1      -4.655  36.505  25.719  1.00  0.00    -0.550 OA
ENDBRANCH   7   8
ENDBRANCH   6   7
ENDBRANCH   5   6
ENDBRANCH   4   5
ENDBRANCH   3   4
ENDBRANCH   2   3
ENDBRANCH   1   2
BRANCH   1  11
ATOM     11  C   UNL     1      -5.941  35.418  20.318  1.00  0.00     0.000 C 
BRANCH  11  12
ATOM     12  C   UNL     1      -5.912  34.806  18.913  1.00  0.00    -0.000 C 
BRANCH  12  13
ATOM     13  C   UNL     1      -4.468  34.567  18.447  1.00  0.00    -0.000 C 
BRANCH  13  14
ATOM     14  C   UNL     1      -4.140  35.283  17.125  1.00  0.00    -0.000 C 
BRANCH  14  15
ATOM     15  C   UNL     1      -3.224  36.517  17.258  1.00  0.00    -0.000 C 
BRANCH  15  16
ATOM     16  C   UNL     1      -2.308  36.783  16.049  1.00  0.00    -0.000 C 
BRANCH  16  17
ATOM     17  C   UNL     1      -2.992  36.484  14.706  1.00  0.00    -0.003 C 
ATOM     18  C   UNL     1      -3.944  37.610  14.312  1.00  0.00     0.004 C 
ENDBRANCH  16  17
ENDBRANCH  15  16
ENDBRANCH  14  15
ENDBRANCH  13  14
ENDBRANCH  12  13
ENDBRANCH  11  12
ENDBRANCH   1  11
TORSDOF 14
ENDMDL
MODEL 4
REMARK VINA RESULT:    -4.350      1.918      6.369
REMARK INTER + INTRA:          -8.966
REMARK INTER:                  -7.158
REMARK INTRA:                  -1.809
REMARK UNBOUND:                -1.055
REMARK SMILES CCCCCCCCCCCCCCCC(=O)[O-]
REMARK SMILES IDX 9 1 10 2 11 3 12 4 13 5 14 6 15 7 16 8 17 9 18 10 8 11 7 12
REMARK SMILES IDX 6 13 5 14 4 15 3 16 2 17 1 18
REMARK H PARENT
REMARK Flexibility Score: inf
ROOT
ATOM      1  C   UNL     1      -4.319  35.727  21.001  1.00  0.00     0.000 C 
ENDROOT
BRANCH   1   2
ATOM      2  C   UNL     1      -5.612  36.078  20.243  1.00  0.00     0.000 C 
BRANCH   2   3
ATOM      3  C   UNL     1      -5.803  35.355  18.897  1.00  0.00     0.000 C 
BRANCH   3   4
ATOM      4  C   UNL     1      -4.552  34.580  18.450  1.00  0.00     0.000 C 
BRANCH   4   5
ATOM      5  C   UNL     1      -3.931  35.137  17.156  1.00  0.00     0.000 C 
BRANCH   5   6
ATOM      6  C   UNL     1      -3.523  36.624  17.206  1.00  0.00     0.006 C 
BRANCH   6   7
ATOM      7  C   UNL     1      -2.006  36.870  17.227  1.00  0.00     0.053 C 
BRANCH   7   8
ATOM      8  C   UNL     1      -1.553  37.468  18.524  1.00  0.00     0.041 C 
ATOM      9  O   UNL     1      -2.394  37.954  19.325  1.00  0.00    -0.550 OA
ATOM     10  O   UNL     1      -0.200  37.518  18.832  1.00  0.00    -0.550 OA
ENDBRANCH   7   8
ENDBRANCH   6   7
ENDBRANCH   5   6
ENDBRANCH   4   5
ENDBRANCH   3   4
ENDBRANCH   2   3
ENDBRANCH   1   2
BRANCH   1  11
ATOM     11  C   UNL     1      -4.568  34.879  22.257  1.00  0.00     0.000 C 
BRANCH  11  12
ATOM     12  C   UNL     1      -6.022  35.008  22.728  1.00  0.00    -0.000 C 
BRANCH  12  13
ATOM     13  C   UNL     1      -6.102  35.039  24.261  1.00  0.00    -0.000 C 
BRANCH  13  14
ATOM     14  C   UNL     1      -5.524  36.332  24.863  1.00  0.00    -0.000 C 
BRANCH  14  15
ATOM     15  C   UNL     1      -5.793  37.613  24.047  1.00  0.00    -0.000 C 
BRANCH  15  16
ATOM     16  C   UNL     1      -4.587  38.559  23.899  1.00  0.00    -0.000 C 
BRANCH  16  17
ATOM     17  C   UNL     1      -4.383  39.043  22.456  1.00  0.00    -0.003 C 
ATOM     18  C   UNL     1      -5.680  39.597  21.874  1.00  0.00     0.004 C 
ENDBRANCH  16  17
ENDBRANCH  15  16
ENDBRANCH  14  15
ENDBRANCH  13  14
ENDBRANCH  12  13
ENDBRANCH  11  12
ENDBRANCH   1  11
TORSDOF 14
ENDMDL
MODEL 5
REMARK VINA RESULT:    -4.263      0.931      1.623
REMARK INTER + INTRA:          -8.807
REMARK INTER:                  -7.685
REMARK INTRA:                  -1.122
REMARK UNBOUND:                -1.055
REMARK SMILES CCCCCCCCCCCCCCCC(=O)[O-]
REMARK SMILES IDX 9 1 10 2 11 3 12 4 13 5 14 6 15 7 16 8 17 9 18 10 8 11 7 12
REMARK SMILES IDX 6 13 5 14 4 15 3 16 2 17 1 18
REMARK H PARENT
REMARK Flexibility Score: inf
ROOT
ATOM      1  C   UNL     1      -5.035  35.110  22.288  1.00  0.00     0.000 C 
ENDROOT
BRANCH   1   2
ATOM      2  C   UNL     1      -5.635  34.685  23.641  1.00  0.00     0.000 C 
BRANCH   2   3
ATOM      3  C   UNL     1      -6.125  35.839  24.535  1.00  0.00     0.000 C 
BRANCH   3   4
ATOM      4  C   UNL     1      -4.976  36.583  25.237  1.00  0.00     0.000 C 
BRANCH   4   5
ATOM      5  C   UNL     1      -4.605  37.906  24.543  1.00  0.00     0.000 C 
BRANCH   5   6
ATOM      6  C   UNL     1      -5.695  38.499  23.627  1.00  0.00     0.006 C 
BRANCH   6   7
ATOM      7  C   UNL     1      -5.172  39.467  22.554  1.00  0.00     0.053 C 
BRANCH   7   8
ATOM      8  C   UNL     1      -4.847  38.761  21.273  1.00  0.00     0.041 C 
ATOM      9  O   UNL     1      -3.734  38.189  21.130  1.00  0.00    -0.550 OA
ATOM     10  O   UNL     1      -5.760  38.764  20.226  1.00  0.00    -0.550 OA
ENDBRANCH   7   8
ENDBRANCH   6   7
ENDBRANCH   5   6
ENDBRANCH   4   5
ENDBRANCH   3   4
ENDBRANCH   2   3
ENDBRANCH   1   2
BRANCH   1  11
ATOM     11  C   UNL     1      -6.100  35.534  21.265  1.00  0.00     0.000 C 
BRANCH  11  12
ATOM     12  C   UNL     1      -5.716  35.081  19.852  1.00  0.00    -0.000 C 
BRANCH  12  13
ATOM     13  C   UNL     1      -4.301  35.554  19.488  1.00  0.00    -0.000 C 
BRANCH  13  14
ATOM     14  C   UNL     1      -4.158  35.925  18.001  1.00  0.00    -0.000 C 
BRANCH  14  15
ATOM     15  C   UNL     1      -3.125  37.029  17.697  1.00  0.00    -0.000 C 
BRANCH  15  16
ATOM     16  C   UNL     1      -2.065  36.659  16.643  1.00  0.00    -0.000 C 
BRANCH  16  17
ATOM     17  C   UNL     1      -2.671  36.393  15.257  1.00  0.00    -0.003 C 
ATOM     18  C   UNL     1      -3.584  37.537  14.828  1.00  0.00     0.004 C 
ENDBRANCH  16  17
ENDBRANCH  15  16
ENDBRANCH  14  15
ENDBRANCH  13  14
ENDBRANCH  12  13
ENDBRANCH  11  12
ENDBRANCH   1  11
TORSDOF 14
ENDMDL
MODEL 6
REMARK VINA RESULT:    -4.113      2.820      7.294
REMARK INTER + INTRA:          -8.534
REMARK INTER:                  -7.487
REMARK INTRA:                  -1.047
REMARK UNBOUND:                -1.055
REMARK SMILES CCCCCCCCCCCCCCCC(=O)[O-]
REMARK SMILES IDX 9 1 10 2 11 3 12 4 13 5 14 6 15 7 16 8 17 9 18 10 8 11 7 12
REMARK SMILES IDX 6 13 5 14 4 15 3 16 2 17 1 18
REMARK H PARENT
REMARK Flexibility Score: inf
ROOT
ATOM      1  C   UNL     1      -5.177  36.312  20.730  1.00  0.00     0.000 C 
ENDROOT
BRANCH   1   2
ATOM      2  C   UNL     1      -4.242  35.842  19.602  1.00  0.00     0.000 C 
BRANCH   2   3
ATOM      3  C   UNL     1      -3.988  36.873  18.485  1.00  0.00     0.000 C 
BRANCH   3   4
ATOM      4  C   UNL     1      -2.578  37.483  18.541  1.00  0.00     0.000 C 
BRANCH   4   5
ATOM      5  C   UNL     1      -1.626  36.892  17.485  1.00  0.00     0.000 C 
BRANCH   5   6
ATOM      6  C   UNL     1      -2.303  36.054  16.381  1.00  0.00     0.006 C 
BRANCH   6   7
ATOM      7  C   UNL     1      -2.247  36.679  14.978  1.00  0.00     0.053 C 
BRANCH   7   8
ATOM      8  C   UNL     1      -3.584  37.190  14.538  1.00  0.00     0.041 C 
ATOM      9  O   UNL     1      -4.368  36.443  13.894  1.00  0.00    -0.550 OA
ATOM     10  O   UNL     1      -3.952  38.502  14.809  1.00  0.00    -0.550 OA
ENDBRANCH   7   8
ENDBRANCH   6   7
ENDBRANCH   5   6
ENDBRANCH   4   5
ENDBRANCH   3   4
ENDBRANCH   2   3
ENDBRANCH   1   2
BRANCH   1  11
ATOM     11  C   UNL     1      -5.341  37.839  20.779  1.00  0.00     0.000 C 
BRANCH  11  12
ATOM     12  C   UNL     1      -4.337  38.469  21.752  1.00  0.00    -0.000 C 
BRANCH  12  13
ATOM     13  C   UNL     1      -5.024  38.879  23.062  1.00  0.00    -0.000 C 
BRANCH  13  14
ATOM     14  C   UNL     1      -4.646  37.970  24.245  1.00  0.00    -0.000 C 
BRANCH  14  15
ATOM     15  C   UNL     1      -5.834  37.278  24.945  1.00  0.00    -0.000 C 
BRANCH  15  16
ATOM     16  C   UNL     1      -5.764  35.740  24.980  1.00  0.00    -0.000 C 
BRANCH  16  17
ATOM     17  C   UNL     1      -6.124  35.096  23.633  1.00  0.00    -0.003 C 
ATOM     18  C   UNL     1      -5.073  34.072  23.216  1.00  0.00     0.004 C 
ENDBRANCH  16  17
ENDBRANCH  15  16
ENDBRANCH  14  15
ENDBRANCH  13  14
ENDBRANCH  12  13
ENDBRANCH  11  12
ENDBRANCH   1  11
TORSDOF 14
ENDMDL
MODEL 7
REMARK VINA RESULT:    -3.990      2.904      7.273
REMARK INTER + INTRA:          -8.310
REMARK INTER:                  -7.067
REMARK INTRA:                  -1.243
REMARK UNBOUND:                -1.055
REMARK SMILES CCCCCCCCCCCCCCCC(=O)[O-]
REMARK SMILES IDX 9 1 10 2 11 3 12 4 13 5 14 6 15 7 16 8 17 9 18 10 8 11 7 12
REMARK SMILES IDX 6 13 5 14 4 15 3 16 2 17 1 18
REMARK H PARENT
REMARK Flexibility Score: inf
ROOT
ATOM      1  C   UNL     1      -3.859  35.073  20.208  1.00  0.00     0.000 C 
ENDROOT
BRANCH   1   2
ATOM      2  C   UNL     1      -4.780  34.961  18.981  1.00  0.00     0.000 C 
BRANCH   2   3
ATOM      3  C   UNL     1      -4.289  35.699  17.721  1.00  0.00     0.000 C 
BRANCH   3   4
ATOM      4  C   UNL     1      -3.307  36.839  18.038  1.00  0.00     0.000 C 
BRANCH   4   5
ATOM      5  C   UNL     1      -2.050  36.813  17.150  1.00  0.00     0.000 C 
BRANCH   5   6
ATOM      6  C   UNL     1      -2.164  35.960  15.869  1.00  0.00     0.006 C 
BRANCH   6   7
ATOM      7  C   UNL     1      -2.259  36.771  14.567  1.00  0.00     0.053 C 
BRANCH   7   8
ATOM      8  C   UNL     1      -3.659  37.226  14.291  1.00  0.00     0.041 C 
ATOM      9  O   UNL     1      -4.522  36.406  13.880  1.00  0.00    -0.550 OA
ATOM     10  O   UNL     1      -4.002  38.562  14.455  1.00  0.00    -0.550 OA
ENDBRANCH   7   8
ENDBRANCH   6   7
ENDBRANCH   5   6
ENDBRANCH   4   5
ENDBRANCH   3   4
ENDBRANCH   2   3
ENDBRANCH   1   2
BRANCH   1  11
ATOM     11  C   UNL     1      -4.602  35.504  21.482  1.00  0.00     0.000 C 
BRANCH  11  12
ATOM     12  C   UNL     1      -5.845  36.333  21.139  1.00  0.00    -0.000 C 
BRANCH  12  13
ATOM     13  C   UNL     1      -5.458  37.765  20.741  1.00  0.00    -0.000 C 
BRANCH  13  14
ATOM     14  C   UNL     1      -4.330  38.343  21.615  1.00  0.00    -0.000 C 
BRANCH  14  15
ATOM     15  C   UNL     1      -4.737  39.533  22.508  1.00  0.00    -0.000 C 
BRANCH  15  16
ATOM     16  C   UNL     1      -5.120  39.163  23.953  1.00  0.00    -0.000 C 
BRANCH  16  17
ATOM     17  C   UNL     1      -4.997  37.657  24.235  1.00  0.00    -0.003 C 
ATOM     18  C   UNL     1      -4.530  37.403  25.664  1.00  0.00     0.004 C 
ENDBRANCH  16  17
ENDBRANCH  15  16
ENDBRANCH  14  15
ENDBRANCH  13  14
ENDBRANCH  12  13
ENDBRANCH  11  12
ENDBRANCH   1  11
TORSDOF 14
ENDMDL
MODEL 8
REMARK VINA RESULT:    -3.904      2.914      6.908
REMARK INTER + INTRA:          -8.154
REMARK INTER:                  -6.768
REMARK INTRA:                  -1.385
REMARK UNBOUND:                -1.055
REMARK SMILES CCCCCCCCCCCCCCCC(=O)[O-]
REMARK SMILES IDX 9 1 10 2 11 3 12 4 13 5 14 6 15 7 16 8 17 9 18 10 8 11 7 12
REMARK SMILES IDX 6 13 5 14 4 15 3 16 2 17 1 18
REMARK H PARENT
REMARK Flexibility Score: inf
ROOT
ATOM      1  C   UNL     1      -4.561  38.916  22.376  1.00  0.00     0.000 C 
ENDROOT
BRANCH   1   2
ATOM      2  C   UNL     1      -5.713  38.682  21.384  1.00  0.00     0.000 C 
BRANCH   2   3
ATOM      3  C   UNL     1      -5.367  37.801  20.169  1.00  0.00     0.000 C 
BRANCH   3   4
ATOM      4  C   UNL     1      -3.853  37.692  19.920  1.00  0.00     0.000 C 
BRANCH   4   5
ATOM      5  C   UNL     1      -3.501  36.728  18.772  1.00  0.00     0.000 C 
BRANCH   5   6
ATOM      6  C   UNL     1      -2.518  37.283  17.722  1.00  0.00     0.006 C 
BRANCH   6   7
ATOM      7  C   UNL     1      -3.108  37.437  16.311  1.00  0.00     0.053 C 
BRANCH   7   8
ATOM      8  C   UNL     1      -2.490  36.482  15.337  1.00  0.00     0.041 C 
ATOM      9  O   UNL     1      -2.805  36.527  14.119  1.00  0.00    -0.550 OA
ATOM     10  O   UNL     1      -1.591  35.520  15.781  1.00  0.00    -0.550 OA
ENDBRANCH   7   8
ENDBRANCH   6   7
ENDBRANCH   5   6
ENDBRANCH   4   5
ENDBRANCH   3   4
ENDBRANCH   2   3
ENDBRANCH   1   2
BRANCH   1  11
ATOM     11  C   UNL     1      -5.044  39.159  23.814  1.00  0.00     0.000 C 
BRANCH  11  12
ATOM     12  C   UNL     1      -4.310  38.247  24.804  1.00  0.00    -0.000 C 
BRANCH  12  13
ATOM     13  C   UNL     1      -5.260  37.189  25.385  1.00  0.00    -0.000 C 
BRANCH  13  14
ATOM     14  C   UNL     1      -6.101  36.485  24.306  1.00  0.00    -0.000 C 
BRANCH  14  15
ATOM     15  C   UNL     1      -6.118  34.945  24.390  1.00  0.00    -0.000 C 
BRANCH  15  16
ATOM     16  C   UNL     1      -5.415  34.220  23.228  1.00  0.00    -0.000 C 
BRANCH  16  17
ATOM     17  C   UNL     1      -4.624  35.175  22.321  1.00  0.00    -0.003 C 
ATOM     18  C   UNL     1      -3.489  34.445  21.611  1.00  0.00     0.004 C 
ENDBRANCH  16  17
ENDBRANCH  15  16
ENDBRANCH  14  15
ENDBRANCH  13  14
ENDBRANCH  12  13
ENDBRANCH  11  12
ENDBRANCH   1  11
TORSDOF 14
ENDMDL
MODEL 9
REMARK VINA RESULT:    -3.396      1.368      2.149
REMARK INTER + INTRA:          -7.230
REMARK INTER:                  -6.025
REMARK INTRA:                  -1.205
REMARK UNBOUND:                -1.055
REMARK SMILES CCCCCCCCCCCCCCCC(=O)[O-]
REMARK SMILES IDX 9 1 10 2 11 3 12 4 13 5 14 6 15 7 16 8 17 9 18 10 8 11 7 12
REMARK SMILES IDX 6 13 5 14 4 15 3 16 2 17 1 18
REMARK H PARENT
REMARK Flexibility Score: inf
ROOT
ATOM      1  C   UNL     1      -5.003  37.249  20.486  1.00  0.00     0.000 C 
ENDROOT
BRANCH   1   2
ATOM      2  C   UNL     1      -6.035  36.110  20.399  1.00  0.00     0.000 C 
BRANCH   2   3
ATOM      3  C   UNL     1      -5.635  34.804  21.110  1.00  0.00     0.000 C 
BRANCH   3   4
ATOM      4  C   UNL     1      -4.927  35.044  22.453  1.00  0.00     0.000 C 
BRANCH   4   5
ATOM      5  C   UNL     1      -5.768  34.600  23.663  1.00  0.00     0.000 C 
BRANCH   5   6
ATOM      6  C   UNL     1      -6.068  35.703  24.699  1.00  0.00     0.006 C 
BRANCH   6   7
ATOM      7  C   UNL     1      -6.125  37.126  24.121  1.00  0.00     0.053 C 
BRANCH   7   8
ATOM      8  C   UNL     1      -4.992  37.976  24.609  1.00  0.00     0.041 C 
ATOM      9  O   UNL     1      -4.613  38.972  23.938  1.00  0.00    -0.550 OA
ATOM     10  O   UNL     1      -4.334  37.648  25.787  1.00  0.00    -0.550 OA
ENDBRANCH   7   8
ENDBRANCH   6   7
ENDBRANCH   5   6
ENDBRANCH   4   5
ENDBRANCH   3   4
ENDBRANCH   2   3
ENDBRANCH   1   2
BRANCH   1  11
ATOM     11  C   UNL     1      -4.604  37.806  19.111  1.00  0.00     0.000 C 
BRANCH  11  12
ATOM     12  C   UNL     1      -3.751  36.796  18.335  1.00  0.00    -0.000 C 
BRANCH  12  13
ATOM     13  C   UNL     1      -2.269  37.197  18.357  1.00  0.00    -0.000 C 
BRANCH  13  14
ATOM     14  C   UNL     1      -1.537  36.851  17.048  1.00  0.00    -0.000 C 
BRANCH  14  15
ATOM     15  C   UNL     1      -2.358  36.025  16.037  1.00  0.00    -0.000 C 
BRANCH  15  16
ATOM     16  C   UNL     1      -2.434  36.618  14.618  1.00  0.00    -0.000 C 
BRANCH  16  17
ATOM     17  C   UNL     1      -3.876  36.863  14.150  1.00  0.00    -0.003 C 
ATOM     18  C   UNL     1      -4.238  38.343  14.238  1.00  0.00     0.004 C 
ENDBRANCH  16  17
ENDBRANCH  15  16
ENDBRANCH  14  15
ENDBRANCH  13  14
ENDBRANCH  12  13
ENDBRANCH  11  12
ENDBRANCH   1  11
TORSDOF 14
ENDMDL
