MODEL 1
REMARK VINA RESULT:    -4.324      0.000      0.000
REMARK INTER + INTRA:         -12.055
REMARK INTER:                  -9.380
REMARK INTRA:                  -2.675
REMARK UNBOUND:                -2.675
REMARK SMILES CCCCCCCCCCCCCCCCCCCCCC(=O)[O-]
REMARK SMILES IDX 12 1 11 2 10 3 9 4 8 5 7 6 6 7 5 8 4 9 3 10 2 11 1 12 13 13
REMARK SMILES IDX 14 14 15 15 16 16 17 17 18 18 19 19 20 20 21 21 22 22 23 23
REMARK SMILES IDX 24 24
REMARK H PARENT
REMARK Flexibility Score: inf
ROOT
ATOM      1  C   UNL     1       7.874  -3.623  -1.276  1.00  0.00     0.000 C 
ENDROOT
BRANCH   1   2
ATOM      2  C   UNL     1       8.050  -3.975  -2.761  1.00  0.00     0.000 C 
BRANCH   2   3
ATOM      3  C   UNL     1       7.640  -2.826  -3.697  1.00  0.00     0.000 C 
BRANCH   3   4
ATOM      4  C   UNL     1       6.118  -2.752  -3.909  1.00  0.00    -0.000 C 
BRANCH   4   5
ATOM      5  C   UNL     1       5.693  -1.578  -4.812  1.00  0.00    -0.000 C 
BRANCH   5   6
ATOM      6  C   UNL     1       4.327  -1.740  -5.505  1.00  0.00    -0.000 C 
BRANCH   6   7
ATOM      7  C   UNL     1       3.168  -1.123  -4.704  1.00  0.00    -0.000 C 
BRANCH   7   8
ATOM      8  C   UNL     1       2.270  -2.182  -4.039  1.00  0.00    -0.000 C 
BRANCH   8   9
ATOM      9  C   UNL     1       2.106  -3.496  -4.829  1.00  0.00    -0.000 C 
BRANCH   9  10
ATOM     10  C   UNL     1       1.711  -4.725  -3.985  1.00  0.00    -0.000 C 
BRANCH  10  11
ATOM     11  C   UNL     1       0.691  -4.439  -2.869  1.00  0.00    -0.003 C 
ATOM     12  C   UNL     1       0.725  -5.480  -1.750  1.00  0.00     0.004 C 
ENDBRANCH  10  11
ENDBRANCH   9  10
ENDBRANCH   8   9
ENDBRANCH   7   8
ENDBRANCH   6   7
ENDBRANCH   5   6
ENDBRANCH   4   5
ENDBRANCH   3   4
ENDBRANCH   2   3
ENDBRANCH   1   2
BRANCH   1  13
ATOM     13  C   UNL     1       8.850  -2.518  -0.855  1.00  0.00     0.000 C 
BRANCH  13  14
ATOM     14  C   UNL     1       8.097  -1.260  -0.397  1.00  0.00     0.000 C 
BRANCH  14  15
ATOM     15  C   UNL     1       6.576  -1.478  -0.293  1.00  0.00     0.000 C 
BRANCH  15  16
ATOM     16  C   UNL     1       5.718  -0.399  -0.979  1.00  0.00     0.000 C 
BRANCH  16  17
ATOM     17  C   UNL     1       6.518   0.694  -1.713  1.00  0.00     0.000 C 
BRANCH  17  18
ATOM     18  C   UNL     1       6.715   1.980  -0.882  1.00  0.00     0.000 C 
BRANCH  18  19
ATOM     19  C   UNL     1       5.641   2.146   0.203  1.00  0.00     0.000 C 
BRANCH  19  20
ATOM     20  C   UNL     1       6.272   2.480   1.559  1.00  0.00     0.006 C 
BRANCH  20  21
ATOM     21  C   UNL     1       7.128   1.317   2.069  1.00  0.00     0.053 C 
BRANCH  21  22
ATOM     22  C   UNL     1       6.377   0.517   3.086  1.00  0.00     0.041 C 
ATOM     23  O   UNL     1       6.664   0.616   4.309  1.00  0.00    -0.550 OA
ATOM     24  O   UNL     1       5.386  -0.369   2.680  1.00  0.00    -0.550 OA
ENDBRANCH  21  22
ENDBRANCH  20  21
ENDBRANCH  19  20
ENDBRANCH  18  19
ENDBRANCH  17  18
ENDBRANCH  16  17
ENDBRANCH  15  16
ENDBRANCH  14  15
ENDBRANCH  13  14
ENDBRANCH   1  13
TORSDOF 20
ENDMDL
MODEL 2
REMARK VINA RESULT:    -4.186      1.267      3.241
REMARK INTER + INTRA:         -11.755
REMARK INTER:                  -9.011
REMARK INTRA:                  -2.744
REMARK UNBOUND:                -2.675
REMARK SMILES CCCCCCCCCCCCCCCCCCCCCC(=O)[O-]
REMARK SMILES IDX 12 1 11 2 10 3 9 4 8 5 7 6 6 7 5 8 4 9 3 10 2 11 1 12 13 13
REMARK SMILES IDX 14 14 15 15 16 16 17 17 18 18 19 19 20 20 21 21 22 22 23 23
REMARK SMILES IDX 24 24
REMARK H PARENT
REMARK Flexibility Score: inf
ROOT
ATOM      1  C   UNL     1       6.109  -1.683  -4.479  1.00  0.00     0.000 C 
ENDROOT
BRANCH   1   2
ATOM      2  C   UNL     1       4.817  -0.916  -4.163  1.00  0.00     0.000 C 
BRANCH   2   3
ATOM      3  C   UNL     1       3.672  -1.839  -3.715  1.00  0.00     0.000 C 
BRANCH   3   4
ATOM      4  C   UNL     1       2.333  -1.488  -4.386  1.00  0.00    -0.000 C 
BRANCH   4   5
ATOM      5  C   UNL     1       2.349  -1.707  -5.911  1.00  0.00    -0.000 C 
BRANCH   5   6
ATOM      6  C   UNL     1       2.870  -3.080  -6.376  1.00  0.00    -0.000 C 
BRANCH   6   7
ATOM      7  C   UNL     1       1.921  -4.236  -6.020  1.00  0.00    -0.000 C 
BRANCH   7   8
ATOM      8  C   UNL     1       2.572  -5.283  -5.098  1.00  0.00    -0.000 C 
BRANCH   8   9
ATOM      9  C   UNL     1       1.722  -5.711  -3.884  1.00  0.00    -0.000 C 
BRANCH   9  10
ATOM     10  C   UNL     1       0.860  -4.596  -3.260  1.00  0.00    -0.000 C 
BRANCH  10  11
ATOM     11  C   UNL     1       0.562  -4.775  -1.761  1.00  0.00    -0.003 C 
ATOM     12  C   UNL     1       1.039  -6.122  -1.216  1.00  0.00     0.004 C 
ENDBRANCH  10  11
ENDBRANCH   9  10
ENDBRANCH   8   9
ENDBRANCH   7   8
ENDBRANCH   6   7
ENDBRANCH   5   6
ENDBRANCH   4   5
ENDBRANCH   3   4
ENDBRANCH   2   3
ENDBRANCH   1   2
BRANCH   1  13
ATOM     13  C   UNL     1       5.894  -3.196  -4.348  1.00  0.00     0.000 C 
BRANCH  13  14
ATOM     14  C   UNL     1       7.235  -3.937  -4.239  1.00  0.00     0.000 C 
BRANCH  14  15
ATOM     15  C   UNL     1       8.177  -3.319  -3.189  1.00  0.00     0.000 C 
BRANCH  15  16
ATOM     16  C   UNL     1       7.885  -3.732  -1.735  1.00  0.00     0.000 C 
BRANCH  16  17
ATOM     17  C   UNL     1       7.866  -2.570  -0.723  1.00  0.00     0.000 C 
BRANCH  17  18
ATOM     18  C   UNL     1       6.677  -1.604  -0.913  1.00  0.00     0.000 C 
BRANCH  18  19
ATOM     19  C   UNL     1       6.994  -0.182  -0.427  1.00  0.00     0.000 C 
BRANCH  19  20
ATOM     20  C   UNL     1       7.875  -0.211   0.828  1.00  0.00     0.006 C 
BRANCH  20  21
ATOM     21  C   UNL     1       7.458   0.879   1.819  1.00  0.00     0.053 C 
BRANCH  21  22
ATOM     22  C   UNL     1       5.992   0.794   2.107  1.00  0.00     0.041 C 
ATOM     23  O   UNL     1       5.239   1.771   1.854  1.00  0.00    -0.550 OA
ATOM     24  O   UNL     1       5.464  -0.349   2.696  1.00  0.00    -0.550 OA
ENDBRANCH  21  22
ENDBRANCH  20  21
ENDBRANCH  19  20
ENDBRANCH  18  19
ENDBRANCH  17  18
ENDBRANCH  16  17
ENDBRANCH  15  16
ENDBRANCH  14  15
ENDBRANCH  13  14
ENDBRANCH   1  13
TORSDOF 20
ENDMDL
MODEL 3
REMARK VINA RESULT:    -4.151      1.494      4.113
REMARK INTER + INTRA:         -11.679
REMARK INTER:                  -9.257
REMARK INTRA:                  -2.422
REMARK UNBOUND:                -2.675
REMARK SMILES CCCCCCCCCCCCCCCCCCCCCC(=O)[O-]
REMARK SMILES IDX 12 1 11 2 10 3 9 4 8 5 7 6 6 7 5 8 4 9 3 10 2 11 1 12 13 13
REMARK SMILES IDX 14 14 15 15 16 16 17 17 18 18 19 19 20 20 21 21 22 22 23 23
REMARK SMILES IDX 24 24
REMARK H PARENT
REMARK Flexibility Score: inf
ROOT
ATOM      1  C   UNL     1       4.153  -1.194  -4.913  1.00  0.00     0.000 C 
ENDROOT
BRANCH   1   2
ATOM      2  C   UNL     1       2.658  -1.258  -4.569  1.00  0.00     0.000 C 
BRANCH   2   3
ATOM      3  C   UNL     1       2.249  -2.598  -3.935  1.00  0.00     0.000 C 
BRANCH   3   4
ATOM      4  C   UNL     1       2.697  -3.808  -4.772  1.00  0.00    -0.000 C 
BRANCH   4   5
ATOM      5  C   UNL     1       1.524  -4.529  -5.463  1.00  0.00    -0.000 C 
BRANCH   5   6
ATOM      6  C   UNL     1       1.595  -6.068  -5.450  1.00  0.00    -0.000 C 
BRANCH   6   7
ATOM      7  C   UNL     1       0.211  -6.735  -5.526  1.00  0.00    -0.000 C 
BRANCH   7   8
ATOM      8  C   UNL     1      -0.901  -5.880  -4.892  1.00  0.00    -0.000 C 
BRANCH   8   9
ATOM      9  C   UNL     1      -1.074  -6.046  -3.369  1.00  0.00    -0.000 C 
BRANCH   9  10
ATOM     10  C   UNL     1      -0.717  -4.804  -2.528  1.00  0.00    -0.000 C 
BRANCH  10  11
ATOM     11  C   UNL     1       0.612  -4.907  -1.760  1.00  0.00    -0.003 C 
ATOM     12  C   UNL     1       1.148  -6.338  -1.685  1.00  0.00     0.004 C 
ENDBRANCH  10  11
ENDBRANCH   9  10
ENDBRANCH   8   9
ENDBRANCH   7   8
ENDBRANCH   6   7
ENDBRANCH   5   6
ENDBRANCH   4   5
ENDBRANCH   3   4
ENDBRANCH   2   3
ENDBRANCH   1   2
BRANCH   1  13
ATOM     13  C   UNL     1       5.012  -1.385  -3.656  1.00  0.00     0.000 C 
BRANCH  13  14
ATOM     14  C   UNL     1       6.449  -1.787  -4.025  1.00  0.00     0.000 C 
BRANCH  14  15
ATOM     15  C   UNL     1       6.848  -3.163  -3.462  1.00  0.00     0.000 C 
BRANCH  15  16
ATOM     16  C   UNL     1       8.069  -3.149  -2.522  1.00  0.00     0.000 C 
BRANCH  16  17
ATOM     17  C   UNL     1       7.741  -3.361  -1.032  1.00  0.00     0.000 C 
BRANCH  17  18
ATOM     18  C   UNL     1       7.151  -2.112  -0.345  1.00  0.00     0.000 C 
BRANCH  18  19
ATOM     19  C   UNL     1       7.939  -0.835  -0.675  1.00  0.00     0.000 C 
BRANCH  19  20
ATOM     20  C   UNL     1       7.496   0.332   0.215  1.00  0.00     0.006 C 
BRANCH  20  21
ATOM     21  C   UNL     1       5.969   0.405   0.309  1.00  0.00     0.053 C 
BRANCH  21  22
ATOM     22  C   UNL     1       5.542   0.710   1.710  1.00  0.00     0.041 C 
ATOM     23  O   UNL     1       5.310   1.898   2.057  1.00  0.00    -0.550 OA
ATOM     24  O   UNL     1       5.442  -0.314   2.644  1.00  0.00    -0.550 OA
ENDBRANCH  21  22
ENDBRANCH  20  21
ENDBRANCH  19  20
ENDBRANCH  18  19
ENDBRANCH  17  18
ENDBRANCH  16  17
ENDBRANCH  15  16
ENDBRANCH  14  15
ENDBRANCH  13  14
ENDBRANCH   1  13
TORSDOF 20
ENDMDL
MODEL 4
REMARK VINA RESULT:    -4.147      1.052      2.250
REMARK INTER + INTRA:         -11.670
REMARK INTER:                  -9.586
REMARK INTRA:                  -2.084
REMARK UNBOUND:                -2.675
REMARK SMILES CCCCCCCCCCCCCCCCCCCCCC(=O)[O-]
REMARK SMILES IDX 12 1 11 2 10 3 9 4 8 5 7 6 6 7 5 8 4 9 3 10 2 11 1 12 13 13
REMARK SMILES IDX 14 14 15 15 16 16 17 17 18 18 19 19 20 20 21 21 22 22 23 23
REMARK SMILES IDX 24 24
REMARK H PARENT
REMARK Flexibility Score: inf
ROOT
ATOM      1  C   UNL     1       6.477  -2.560  -3.234  1.00  0.00     0.000 C 
ENDROOT
BRANCH   1   2
ATOM      2  C   UNL     1       6.795  -1.590  -4.383  1.00  0.00     0.000 C 
BRANCH   2   3
ATOM      3  C   UNL     1       5.545  -1.176  -5.175  1.00  0.00     0.000 C 
BRANCH   3   4
ATOM      4  C   UNL     1       4.264  -1.224  -4.325  1.00  0.00    -0.000 C 
BRANCH   4   5
ATOM      5  C   UNL     1       2.982  -1.331  -5.173  1.00  0.00    -0.000 C 
BRANCH   5   6
ATOM      6  C   UNL     1       2.272  -2.697  -5.126  1.00  0.00    -0.000 C 
BRANCH   6   7
ATOM      7  C   UNL     1       1.822  -3.093  -3.709  1.00  0.00    -0.000 C 
BRANCH   7   8
ATOM      8  C   UNL     1       1.126  -4.466  -3.664  1.00  0.00    -0.000 C 
BRANCH   8   9
ATOM      9  C   UNL     1       0.310  -4.748  -2.387  1.00  0.00    -0.000 C 
BRANCH   9  10
ATOM     10  C   UNL     1       0.893  -5.837  -1.463  1.00  0.00    -0.000 C 
BRANCH  10  11
ATOM     11  C   UNL     1       1.497  -7.047  -2.196  1.00  0.00    -0.003 C 
ATOM     12  C   UNL     1       2.162  -8.046  -1.248  1.00  0.00     0.004 C 
ENDBRANCH  10  11
ENDBRANCH   9  10
ENDBRANCH   8   9
ENDBRANCH   7   8
ENDBRANCH   6   7
ENDBRANCH   5   6
ENDBRANCH   4   5
ENDBRANCH   3   4
ENDBRANCH   2   3
ENDBRANCH   1   2
BRANCH   1  13
ATOM     13  C   UNL     1       7.731  -3.329  -2.804  1.00  0.00     0.000 C 
BRANCH  13  14
ATOM     14  C   UNL     1       7.835  -3.405  -1.273  1.00  0.00     0.000 C 
BRANCH  14  15
ATOM     15  C   UNL     1       7.181  -2.202  -0.569  1.00  0.00     0.000 C 
BRANCH  15  16
ATOM     16  C   UNL     1       8.115  -1.000  -0.338  1.00  0.00     0.000 C 
BRANCH  16  17
ATOM     17  C   UNL     1       7.779   0.253  -1.169  1.00  0.00     0.000 C 
BRANCH  17  18
ATOM     18  C   UNL     1       6.283   0.633  -1.136  1.00  0.00     0.000 C 
BRANCH  18  19
ATOM     19  C   UNL     1       6.048   2.033  -0.551  1.00  0.00     0.000 C 
BRANCH  19  20
ATOM     20  C   UNL     1       5.426   1.950   0.848  1.00  0.00     0.006 C 
BRANCH  20  21
ATOM     21  C   UNL     1       6.509   1.891   1.929  1.00  0.00     0.053 C 
BRANCH  21  22
ATOM     22  C   UNL     1       6.445   0.592   2.668  1.00  0.00     0.041 C 
ATOM     23  O   UNL     1       7.384   0.253   3.436  1.00  0.00    -0.550 OA
ATOM     24  O   UNL     1       5.367  -0.264   2.477  1.00  0.00    -0.550 OA
ENDBRANCH  21  22
ENDBRANCH  20  21
ENDBRANCH  19  20
ENDBRANCH  18  19
ENDBRANCH  17  18
ENDBRANCH  16  17
ENDBRANCH  15  16
ENDBRANCH  14  15
ENDBRANCH  13  14
ENDBRANCH   1  13
TORSDOF 20
ENDMDL
MODEL 5
REMARK VINA RESULT:    -4.140      1.150      2.362
REMARK INTER + INTRA:         -11.655
REMARK INTER:                  -8.669
REMARK INTRA:                  -2.987
REMARK UNBOUND:                -2.675
REMARK SMILES CCCCCCCCCCCCCCCCCCCCCC(=O)[O-]
REMARK SMILES IDX 12 1 11 2 10 3 9 4 8 5 7 6 6 7 5 8 4 9 3 10 2 11 1 12 13 13
REMARK SMILES IDX 14 14 15 15 16 16 17 17 18 18 19 19 20 20 21 21 22 22 23 23
REMARK SMILES IDX 24 24
REMARK H PARENT
REMARK Flexibility Score: inf
ROOT
ATOM      1  C   UNL     1       7.815  -2.986  -3.296  1.00  0.00     0.000 C 
ENDROOT
BRANCH   1   2
ATOM      2  C   UNL     1       6.972  -3.969  -4.123  1.00  0.00     0.000 C 
BRANCH   2   3
ATOM      3  C   UNL     1       6.151  -3.271  -5.219  1.00  0.00     0.000 C 
BRANCH   3   4
ATOM      4  C   UNL     1       6.374  -1.750  -5.246  1.00  0.00    -0.000 C 
BRANCH   4   5
ATOM      5  C   UNL     1       5.124  -0.951  -4.830  1.00  0.00    -0.000 C 
BRANCH   5   6
ATOM      6  C   UNL     1       4.152  -1.687  -3.889  1.00  0.00    -0.000 C 
BRANCH   6   7
ATOM      7  C   UNL     1       2.687  -1.595  -4.345  1.00  0.00    -0.000 C 
BRANCH   7   8
ATOM      8  C   UNL     1       1.905  -2.901  -4.115  1.00  0.00    -0.000 C 
BRANCH   8   9
ATOM      9  C   UNL     1       1.968  -3.919  -5.272  1.00  0.00    -0.000 C 
BRANCH   9  10
ATOM     10  C   UNL     1       2.176  -3.310  -6.672  1.00  0.00    -0.000 C 
BRANCH  10  11
ATOM     11  C   UNL     1       3.432  -3.806  -7.410  1.00  0.00    -0.003 C 
ATOM     12  C   UNL     1       4.123  -2.705  -8.216  1.00  0.00     0.004 C 
ENDBRANCH  10  11
ENDBRANCH   9  10
ENDBRANCH   8   9
ENDBRANCH   7   8
ENDBRANCH   6   7
ENDBRANCH   5   6
ENDBRANCH   4   5
ENDBRANCH   3   4
ENDBRANCH   2   3
ENDBRANCH   1   2
BRANCH   1  13
ATOM     13  C   UNL     1       7.781  -3.354  -1.807  1.00  0.00     0.000 C 
BRANCH  13  14
ATOM     14  C   UNL     1       8.022  -2.117  -0.927  1.00  0.00     0.000 C 
BRANCH  14  15
ATOM     15  C   UNL     1       6.742  -1.623  -0.229  1.00  0.00     0.000 C 
BRANCH  15  16
ATOM     16  C   UNL     1       5.878  -0.660  -1.065  1.00  0.00     0.000 C 
BRANCH  16  17
ATOM     17  C   UNL     1       6.660   0.462  -1.774  1.00  0.00     0.000 C 
BRANCH  17  18
ATOM     18  C   UNL     1       6.673   1.795  -0.996  1.00  0.00     0.000 C 
BRANCH  18  19
ATOM     19  C   UNL     1       5.591   1.846   0.094  1.00  0.00     0.000 C 
BRANCH  19  20
ATOM     20  C   UNL     1       6.181   2.296   1.436  1.00  0.00     0.006 C 
BRANCH  20  21
ATOM     21  C   UNL     1       7.074   1.208   2.037  1.00  0.00     0.053 C 
BRANCH  21  22
ATOM     22  C   UNL     1       6.294   0.349   2.982  1.00  0.00     0.041 C 
ATOM     23  O   UNL     1       5.314  -0.323   2.565  1.00  0.00    -0.550 OA
ATOM     24  O   UNL     1       6.625   0.323   4.331  1.00  0.00    -0.550 OA
ENDBRANCH  21  22
ENDBRANCH  20  21
ENDBRANCH  19  20
ENDBRANCH  18  19
ENDBRANCH  17  18
ENDBRANCH  16  17
ENDBRANCH  15  16
ENDBRANCH  14  15
ENDBRANCH  13  14
ENDBRANCH   1  13
TORSDOF 20
ENDMDL
MODEL 6
REMARK VINA RESULT:    -4.136      1.991      2.436
REMARK INTER + INTRA:         -11.647
REMARK INTER:                  -9.601
REMARK INTRA:                  -2.046
REMARK UNBOUND:                -2.675
REMARK SMILES CCCCCCCCCCCCCCCCCCCCCC(=O)[O-]
REMARK SMILES IDX 12 1 11 2 10 3 9 4 8 5 7 6 6 7 5 8 4 9 3 10 2 11 1 12 13 13
REMARK SMILES IDX 14 14 15 15 16 16 17 17 18 18 19 19 20 20 21 21 22 22 23 23
REMARK SMILES IDX 24 24
REMARK H PARENT
REMARK Flexibility Score: inf
ROOT
ATOM      1  C   UNL     1       7.533  -2.888  -1.261  1.00  0.00     0.000 C 
ENDROOT
BRANCH   1   2
ATOM      2  C   UNL     1       7.959  -2.648  -2.718  1.00  0.00     0.000 C 
BRANCH   2   3
ATOM      3  C   UNL     1       6.856  -3.007  -3.727  1.00  0.00     0.000 C 
BRANCH   3   4
ATOM      4  C   UNL     1       6.279  -1.770  -4.435  1.00  0.00    -0.000 C 
BRANCH   4   5
ATOM      5  C   UNL     1       4.821  -1.472  -4.034  1.00  0.00    -0.000 C 
BRANCH   5   6
ATOM      6  C   UNL     1       3.873  -1.130  -5.199  1.00  0.00    -0.000 C 
BRANCH   6   7
ATOM      7  C   UNL     1       2.397  -1.420  -4.879  1.00  0.00    -0.000 C 
BRANCH   7   8
ATOM      8  C   UNL     1       2.221  -2.453  -3.750  1.00  0.00    -0.000 C 
BRANCH   8   9
ATOM      9  C   UNL     1       1.763  -3.853  -4.205  1.00  0.00    -0.000 C 
BRANCH   9  10
ATOM     10  C   UNL     1       0.792  -4.570  -3.247  1.00  0.00    -0.000 C 
BRANCH  10  11
ATOM     11  C   UNL     1       1.297  -5.921  -2.710  1.00  0.00    -0.003 C 
ATOM     12  C   UNL     1       0.936  -6.151  -1.242  1.00  0.00     0.004 C 
ENDBRANCH  10  11
ENDBRANCH   9  10
ENDBRANCH   8   9
ENDBRANCH   7   8
ENDBRANCH   6   7
ENDBRANCH   5   6
ENDBRANCH   4   5
ENDBRANCH   3   4
ENDBRANCH   2   3
ENDBRANCH   1   2
BRANCH   1  13
ATOM     13  C   UNL     1       7.716  -1.618  -0.421  1.00  0.00     0.000 C 
BRANCH  13  14
ATOM     14  C   UNL     1       6.371  -1.128   0.138  1.00  0.00     0.000 C 
BRANCH  14  15
ATOM     15  C   UNL     1       5.691  -0.086  -0.769  1.00  0.00     0.000 C 
BRANCH  15  16
ATOM     16  C   UNL     1       6.653   0.729  -1.654  1.00  0.00     0.000 C 
BRANCH  16  17
ATOM     17  C   UNL     1       6.801   2.210  -1.257  1.00  0.00     0.000 C 
BRANCH  17  18
ATOM     18  C   UNL     1       7.056   2.423   0.251  1.00  0.00     0.000 C 
BRANCH  18  19
ATOM     19  C   UNL     1       6.635   3.823   0.723  1.00  0.00     0.000 C 
BRANCH  19  20
ATOM     20  C   UNL     1       5.135   4.053   0.501  1.00  0.00     0.006 C 
BRANCH  20  21
ATOM     21  C   UNL     1       4.300   3.145   1.408  1.00  0.00     0.053 C 
BRANCH  21  22
ATOM     22  C   UNL     1       3.007   3.807   1.767  1.00  0.00     0.041 C 
ATOM     23  O   UNL     1       2.385   4.489   0.911  1.00  0.00    -0.550 OA
ATOM     24  O   UNL     1       2.509   3.704   3.061  1.00  0.00    -0.550 OA
ENDBRANCH  21  22
ENDBRANCH  20  21
ENDBRANCH  19  20
ENDBRANCH  18  19
ENDBRANCH  17  18
ENDBRANCH  16  17
ENDBRANCH  15  16
ENDBRANCH  14  15
ENDBRANCH  13  14
ENDBRANCH   1  13
TORSDOF 20
ENDMDL
MODEL 7
REMARK VINA RESULT:    -4.070      2.959      7.777
REMARK INTER + INTRA:         -11.503
REMARK INTER:                  -8.183
REMARK INTRA:                  -3.320
REMARK UNBOUND:                -2.675
REMARK SMILES CCCCCCCCCCCCCCCCCCCCCC(=O)[O-]
REMARK SMILES IDX 12 1 11 2 10 3 9 4 8 5 7 6 6 7 5 8 4 9 3 10 2 11 1 12 13 13
REMARK SMILES IDX 14 14 15 15 16 16 17 17 18 18 19 19 20 20 21 21 22 22 23 23
REMARK SMILES IDX 24 24
REMARK H PARENT
REMARK Flexibility Score: inf
ROOT
ATOM      1  C   UNL     1       2.867  -1.622  -3.729  1.00  0.00     0.000 C 
ENDROOT
BRANCH   1   2
ATOM      2  C   UNL     1       4.294  -1.449  -3.188  1.00  0.00     0.000 C 
BRANCH   2   3
ATOM      3  C   UNL     1       5.288  -0.988  -4.267  1.00  0.00     0.000 C 
BRANCH   3   4
ATOM      4  C   UNL     1       6.728  -1.440  -3.975  1.00  0.00    -0.000 C 
BRANCH   4   5
ATOM      5  C   UNL     1       6.800  -2.828  -3.310  1.00  0.00    -0.000 C 
BRANCH   5   6
ATOM      6  C   UNL     1       7.948  -3.018  -2.301  1.00  0.00    -0.000 C 
BRANCH   6   7
ATOM      7  C   UNL     1       7.493  -2.885  -0.839  1.00  0.00    -0.000 C 
BRANCH   7   8
ATOM      8  C   UNL     1       7.474  -1.426  -0.348  1.00  0.00    -0.000 C 
BRANCH   8   9
ATOM      9  C   UNL     1       6.083  -0.875   0.027  1.00  0.00    -0.000 C 
BRANCH   9  10
ATOM     10  C   UNL     1       5.881   0.630  -0.235  1.00  0.00    -0.000 C 
BRANCH  10  11
ATOM     11  C   UNL     1       6.571   1.162  -1.503  1.00  0.00    -0.003 C 
ATOM     12  C   UNL     1       7.801   2.018  -1.198  1.00  0.00     0.004 C 
ENDBRANCH  10  11
ENDBRANCH   9  10
ENDBRANCH   8   9
ENDBRANCH   7   8
ENDBRANCH   6   7
ENDBRANCH   5   6
ENDBRANCH   4   5
ENDBRANCH   3   4
ENDBRANCH   2   3
ENDBRANCH   1   2
BRANCH   1  13
ATOM     13  C   UNL     1       2.795  -1.245  -5.214  1.00  0.00     0.000 C 
BRANCH  13  14
ATOM     14  C   UNL     1       2.301  -2.427  -6.061  1.00  0.00     0.000 C 
BRANCH  14  15
ATOM     15  C   UNL     1       3.345  -2.904  -7.088  1.00  0.00     0.000 C 
BRANCH  15  16
ATOM     16  C   UNL     1       4.502  -3.732  -6.500  1.00  0.00     0.000 C 
BRANCH  16  17
ATOM     17  C   UNL     1       4.134  -4.568  -5.259  1.00  0.00     0.000 C 
BRANCH  17  18
ATOM     18  C   UNL     1       3.246  -5.790  -5.578  1.00  0.00     0.000 C 
BRANCH  18  19
ATOM     19  C   UNL     1       2.322  -6.163  -4.409  1.00  0.00     0.000 C 
BRANCH  19  20
ATOM     20  C   UNL     1       1.127  -5.206  -4.323  1.00  0.00     0.006 C 
BRANCH  20  21
ATOM     21  C   UNL     1       0.917  -4.716  -2.887  1.00  0.00     0.053 C 
BRANCH  21  22
ATOM     22  C   UNL     1       0.534  -5.853  -1.993  1.00  0.00     0.041 C 
ATOM     23  O   UNL     1      -0.515  -6.512  -2.220  1.00  0.00    -0.550 OA
ATOM     24  O   UNL     1       1.315  -6.159  -0.885  1.00  0.00    -0.550 OA
ENDBRANCH  21  22
ENDBRANCH  20  21
ENDBRANCH  19  20
ENDBRANCH  18  19
ENDBRANCH  17  18
ENDBRANCH  16  17
ENDBRANCH  15  16
ENDBRANCH  14  15
ENDBRANCH  13  14
ENDBRANCH   1  13
TORSDOF 20
ENDMDL
MODEL 8
REMARK VINA RESULT:    -4.048      1.732      2.884
REMARK INTER + INTRA:         -11.456
REMARK INTER:                  -9.443
REMARK INTRA:                  -2.013
REMARK UNBOUND:                -2.675
REMARK SMILES CCCCCCCCCCCCCCCCCCCCCC(=O)[O-]
REMARK SMILES IDX 12 1 11 2 10 3 9 4 8 5 7 6 6 7 5 8 4 9 3 10 2 11 1 12 13 13
REMARK SMILES IDX 14 14 15 15 16 16 17 17 18 18 19 19 20 20 21 21 22 22 23 23
REMARK SMILES IDX 24 24
REMARK H PARENT
REMARK Flexibility Score: inf
ROOT
ATOM      1  C   UNL     1       5.518  -0.778  -1.576  1.00  0.00     0.000 C 
ENDROOT
BRANCH   1   2
ATOM      2  C   UNL     1       6.352  -0.888  -2.861  1.00  0.00     0.000 C 
BRANCH   2   3
ATOM      3  C   UNL     1       5.728  -1.838  -3.896  1.00  0.00     0.000 C 
BRANCH   3   4
ATOM      4  C   UNL     1       5.129  -1.090  -5.099  1.00  0.00    -0.000 C 
BRANCH   4   5
ATOM      5  C   UNL     1       3.830  -1.733  -5.622  1.00  0.00    -0.000 C 
BRANCH   5   6
ATOM      6  C   UNL     1       2.550  -1.351  -4.857  1.00  0.00    -0.000 C 
BRANCH   6   7
ATOM      7  C   UNL     1       2.161  -2.379  -3.782  1.00  0.00    -0.000 C 
BRANCH   7   8
ATOM      8  C   UNL     1       2.221  -3.831  -4.291  1.00  0.00    -0.000 C 
BRANCH   8   9
ATOM      9  C   UNL     1       0.967  -4.681  -4.005  1.00  0.00    -0.000 C 
BRANCH   9  10
ATOM     10  C   UNL     1       0.411  -4.570  -2.571  1.00  0.00    -0.000 C 
BRANCH  10  11
ATOM     11  C   UNL     1       0.888  -5.671  -1.609  1.00  0.00    -0.003 C 
ATOM     12  C   UNL     1       1.398  -6.917  -2.334  1.00  0.00     0.004 C 
ENDBRANCH  10  11
ENDBRANCH   9  10
ENDBRANCH   8   9
ENDBRANCH   7   8
ENDBRANCH   6   7
ENDBRANCH   5   6
ENDBRANCH   4   5
ENDBRANCH   3   4
ENDBRANCH   2   3
ENDBRANCH   1   2
BRANCH   1  13
ATOM     13  C   UNL     1       6.340  -1.200  -0.352  1.00  0.00     0.000 C 
BRANCH  13  14
ATOM     14  C   UNL     1       7.408  -2.236  -0.734  1.00  0.00     0.000 C 
BRANCH  14  15
ATOM     15  C   UNL     1       8.836  -1.781  -0.379  1.00  0.00     0.000 C 
BRANCH  15  16
ATOM     16  C   UNL     1       8.930  -0.383   0.261  1.00  0.00     0.000 C 
BRANCH  16  17
ATOM     17  C   UNL     1       9.381  -0.375   1.734  1.00  0.00     0.000 C 
BRANCH  17  18
ATOM     18  C   UNL     1       8.405   0.362   2.676  1.00  0.00     0.000 C 
BRANCH  18  19
ATOM     19  C   UNL     1       7.736   1.568   1.999  1.00  0.00     0.000 C 
BRANCH  19  20
ATOM     20  C   UNL     1       6.211   1.413   1.978  1.00  0.00     0.006 C 
BRANCH  20  21
ATOM     21  C   UNL     1       5.594   2.207   0.823  1.00  0.00     0.053 C 
BRANCH  21  22
ATOM     22  C   UNL     1       4.704   3.291   1.346  1.00  0.00     0.041 C 
ATOM     23  O   UNL     1       4.457   3.369   2.578  1.00  0.00    -0.550 OA
ATOM     24  O   UNL     1       4.114   4.190   0.465  1.00  0.00    -0.550 OA
ENDBRANCH  21  22
ENDBRANCH  20  21
ENDBRANCH  19  20
ENDBRANCH  18  19
ENDBRANCH  17  18
ENDBRANCH  16  17
ENDBRANCH  15  16
ENDBRANCH  14  15
ENDBRANCH  13  14
ENDBRANCH   1  13
TORSDOF 20
ENDMDL
MODEL 9
REMARK VINA RESULT:    -3.997      1.656      2.591
REMARK INTER + INTRA:         -11.346
REMARK INTER:                  -7.949
REMARK INTRA:                  -3.396
REMARK UNBOUND:                -2.675
REMARK SMILES CCCCCCCCCCCCCCCCCCCCCC(=O)[O-]
REMARK SMILES IDX 12 1 11 2 10 3 9 4 8 5 7 6 6 7 5 8 4 9 3 10 2 11 1 12 13 13
REMARK SMILES IDX 14 14 15 15 16 16 17 17 18 18 19 19 20 20 21 21 22 22 23 23
REMARK SMILES IDX 24 24
REMARK H PARENT
REMARK Flexibility Score: inf
ROOT
ATOM      1  C   UNL     1       7.481  -2.660  -0.741  1.00  0.00     0.000 C 
ENDROOT
BRANCH   1   2
ATOM      2  C   UNL     1       7.890  -2.252  -2.165  1.00  0.00     0.000 C 
BRANCH   2   3
ATOM      3  C   UNL     1       7.585  -3.342  -3.206  1.00  0.00     0.000 C 
BRANCH   3   4
ATOM      4  C   UNL     1       6.375  -2.993  -4.089  1.00  0.00    -0.000 C 
BRANCH   4   5
ATOM      5  C   UNL     1       6.406  -1.541  -4.605  1.00  0.00    -0.000 C 
BRANCH   5   6
ATOM      6  C   UNL     1       5.042  -0.827  -4.647  1.00  0.00    -0.000 C 
BRANCH   6   7
ATOM      7  C   UNL     1       3.962  -1.542  -3.819  1.00  0.00    -0.000 C 
BRANCH   7   8
ATOM      8  C   UNL     1       2.574  -1.503  -4.484  1.00  0.00    -0.000 C 
BRANCH   8   9
ATOM      9  C   UNL     1       2.179  -2.776  -5.259  1.00  0.00    -0.000 C 
BRANCH   9  10
ATOM     10  C   UNL     1       2.385  -2.707  -6.785  1.00  0.00    -0.000 C 
BRANCH  10  11
ATOM     11  C   UNL     1       3.792  -3.105  -7.263  1.00  0.00    -0.003 C 
ATOM     12  C   UNL     1       4.265  -4.437  -6.679  1.00  0.00     0.004 C 
ENDBRANCH  10  11
ENDBRANCH   9  10
ENDBRANCH   8   9
ENDBRANCH   7   8
ENDBRANCH   6   7
ENDBRANCH   5   6
ENDBRANCH   4   5
ENDBRANCH   3   4
ENDBRANCH   2   3
ENDBRANCH   1   2
BRANCH   1  13
ATOM     13  C   UNL     1       6.780  -1.502  -0.021  1.00  0.00     0.000 C 
BRANCH  13  14
ATOM     14  C   UNL     1       5.807  -0.774  -0.961  1.00  0.00     0.000 C 
BRANCH  14  15
ATOM     15  C   UNL     1       5.992   0.755  -0.947  1.00  0.00     0.000 C 
BRANCH  15  16
ATOM     16  C   UNL     1       7.020   1.293  -1.960  1.00  0.00     0.000 C 
BRANCH  16  17
ATOM     17  C   UNL     1       8.338   1.795  -1.340  1.00  0.00     0.000 C 
BRANCH  17  18
ATOM     18  C   UNL     1       8.239   2.089   0.172  1.00  0.00     0.000 C 
BRANCH  18  19
ATOM     19  C   UNL     1       9.177   1.203   1.004  1.00  0.00     0.000 C 
BRANCH  19  20
ATOM     20  C   UNL     1       8.917   1.379   2.504  1.00  0.00     0.006 C 
BRANCH  20  21
ATOM     21  C   UNL     1       8.230   0.144   3.093  1.00  0.00     0.053 C 
BRANCH  21  22
ATOM     22  C   UNL     1       6.826   0.465   3.498  1.00  0.00     0.041 C 
ATOM     23  O   UNL     1       5.899   0.443   2.645  1.00  0.00    -0.550 OA
ATOM     24  O   UNL     1       6.547   0.831   4.809  1.00  0.00    -0.550 OA
ENDBRANCH  21  22
ENDBRANCH  20  21
ENDBRANCH  19  20
ENDBRANCH  18  19
ENDBRANCH  17  18
ENDBRANCH  16  17
ENDBRANCH  15  16
ENDBRANCH  14  15
ENDBRANCH  13  14
ENDBRANCH   1  13
TORSDOF 20
ENDMDL
