MODEL 1
REMARK VINA RESULT:    -1.111      0.000      0.000
REMARK INTER + INTRA:          -1.342
REMARK INTER:                  -1.500
REMARK INTRA:                   0.158
REMARK UNBOUND:                 0.158
REMARK SMILES O=c1c(-c2ccc(O)cc2)coc2c([C@@H]3O[C@@H](CO)[C@@H](O)[C@H](O)[C@H]3O)c(O)ccc12
REMARK SMILES IDX 3 1 11 2 12 3 13 4 30 5 2 6 1 7 29 8 28 9 26 10 14 11 4 12
REMARK SMILES IDX 5 13 6 14 7 15 10 16 9 17 8 18 15 20 24 21 16 22 22 23 17 24
REMARK SMILES IDX 20 25 25 26 23 28 18 30 19 31 21 33 27 35
REMARK H PARENT 8 19 25 27 23 29 19 32 21 34 27 36
REMARK Flexibility Score: inf
ROOT
ATOM      1  C   UNL     1      -7.271 -18.981  -9.163  1.00  0.00     0.065 A 
ATOM      2  C   UNL     1      -6.067 -18.344  -8.827  1.00  0.00     0.208 A 
ATOM      3  O   UNL     1      -5.637 -18.318  -7.571  1.00  0.00    -0.463 OA
ATOM      4  C   UNL     1      -6.301 -18.875  -6.562  1.00  0.00     0.147 A 
ATOM      5  C   UNL     1      -7.530 -19.530  -6.810  1.00  0.00     0.066 A 
ATOM      6  C   UNL     1      -8.017 -19.574  -8.129  1.00  0.00     0.200 A 
ATOM      7  O   UNL     1      -9.125 -20.125  -8.381  1.00  0.00    -0.288 OA
ATOM      8  C   UNL     1      -8.238 -20.103  -5.742  1.00  0.00     0.020 A 
ATOM      9  C   UNL     1      -7.737 -20.022  -4.445  1.00  0.00     0.047 A 
ATOM     10  C   UNL     1      -6.523 -19.377  -4.188  1.00  0.00     0.125 A 
ATOM     11  C   UNL     1      -5.780 -18.810  -5.248  1.00  0.00     0.069 A 
ENDROOT
BRANCH   1  12
ATOM     12  C   UNL     1      -7.727 -19.006 -10.576  1.00  0.00    -0.011 A 
ATOM     13  C   UNL     1      -8.487 -20.087 -11.056  1.00  0.00     0.013 A 
ATOM     14  C   UNL     1      -8.926 -20.110 -12.384  1.00  0.00     0.047 A 
ATOM     15  C   UNL     1      -8.615 -19.050 -13.246  1.00  0.00     0.115 A 
ATOM     16  C   UNL     1      -7.426 -17.943 -11.445  1.00  0.00     0.013 A 
ATOM     17  C   UNL     1      -7.866 -17.968 -12.773  1.00  0.00     0.047 A 
BRANCH  15  18
ATOM     18  O   UNL     1      -9.046 -19.062 -14.570  1.00  0.00    -0.508 OA
ATOM     19  H   UNL     1      -8.868 -18.283 -15.192  1.00  0.00     0.293 HD
ENDBRANCH  15  18
ENDBRANCH   1  12
BRANCH  11  20
ATOM     20  C   UNL     1      -4.467 -18.087  -4.974  1.00  0.00     0.188 C 
ATOM     21  C   UNL     1      -4.709 -16.562  -4.915  1.00  0.00     0.179 C 
ATOM     22  O   UNL     1      -3.913 -18.578  -3.761  1.00  0.00    -0.362 OA
ATOM     23  C   UNL     1      -3.391 -15.837  -4.595  1.00  0.00     0.177 C 
ATOM     24  C   UNL     1      -2.655 -17.991  -3.450  1.00  0.00     0.176 C 
ATOM     25  C   UNL     1      -2.761 -16.447  -3.337  1.00  0.00     0.177 C 
BRANCH  21  26
ATOM     26  O   UNL     1      -5.203 -16.121  -6.155  1.00  0.00    -0.387 OA
ATOM     27  H   UNL     1      -5.875 -15.415  -5.964  1.00  0.00     0.211 HD
ENDBRANCH  21  26
BRANCH  23  28
ATOM     28  O   UNL     1      -3.637 -14.473  -4.368  1.00  0.00    -0.387 OA
ATOM     29  H   UNL     1      -3.733 -14.043  -5.257  1.00  0.00     0.211 HD
ENDBRANCH  23  28
BRANCH  24  30
ATOM     30  C   UNL     1      -1.534 -18.501  -4.385  1.00  0.00     0.191 C 
BRANCH  30  31
ATOM     31  O   UNL     1      -1.412 -19.896  -4.293  1.00  0.00    -0.394 OA
ATOM     32  H   UNL     1      -2.051 -20.203  -3.597  1.00  0.00     0.210 HD
ENDBRANCH  30  31
ENDBRANCH  24  30
BRANCH  25  33
ATOM     33  O   UNL     1      -1.503 -15.867  -3.113  1.00  0.00    -0.388 OA
ATOM     34  H   UNL     1      -1.335 -15.247  -3.870  1.00  0.00     0.211 HD
ENDBRANCH  25  33
ENDBRANCH  11  20
BRANCH  10  35
ATOM     35  O   UNL     1      -6.055 -19.294  -2.875  1.00  0.00    -0.507 OA
ATOM     36  H   UNL     1      -5.103 -19.544  -2.631  1.00  0.00     0.293 HD
ENDBRANCH  10  35
TORSDOF 9
ENDMDL
MODEL 2
REMARK VINA RESULT:     1.143      2.053      3.648
REMARK INTER + INTRA:           1.702
REMARK INTER:                   1.700
REMARK INTRA:                   0.002
REMARK UNBOUND:                 0.158
REMARK SMILES O=c1c(-c2ccc(O)cc2)coc2c([C@@H]3O[C@@H](CO)[C@@H](O)[C@H](O)[C@H]3O)c(O)ccc12
REMARK SMILES IDX 3 1 11 2 12 3 13 4 30 5 2 6 1 7 29 8 28 9 26 10 14 11 4 12
REMARK SMILES IDX 5 13 6 14 7 15 10 16 9 17 8 18 15 20 24 21 16 22 22 23 17 24
REMARK SMILES IDX 20 25 25 26 23 28 18 30 19 31 21 33 27 35
REMARK H PARENT 8 19 25 27 23 29 19 32 21 34 27 36
REMARK Flexibility Score: inf
ROOT
ATOM      1  C   UNL     1      -6.813 -18.805  -9.724  1.00  0.00     0.065 A 
ATOM      2  C   UNL     1      -7.504 -18.169  -8.682  1.00  0.00     0.208 A 
ATOM      3  O   UNL     1      -6.973 -18.076  -7.468  1.00  0.00    -0.463 OA
ATOM      4  C   UNL     1      -5.778 -18.570  -7.156  1.00  0.00     0.147 A 
ATOM      5  C   UNL     1      -5.017 -19.237  -8.144  1.00  0.00     0.066 A 
ATOM      6  C   UNL     1      -5.550 -19.356  -9.440  1.00  0.00     0.200 A 
ATOM      7  O   UNL     1      -4.910 -19.970 -10.339  1.00  0.00    -0.288 OA
ATOM      8  C   UNL     1      -3.764 -19.773  -7.809  1.00  0.00     0.020 A 
ATOM      9  C   UNL     1      -3.275 -19.656  -6.510  1.00  0.00     0.047 A 
ATOM     10  C   UNL     1      -4.020 -18.999  -5.524  1.00  0.00     0.125 A 
ATOM     11  C   UNL     1      -5.275 -18.432  -5.841  1.00  0.00     0.069 A 
ENDROOT
BRANCH   1  12
ATOM     12  C   UNL     1      -7.422 -18.888 -11.075  1.00  0.00    -0.011 A 
ATOM     13  C   UNL     1      -7.306 -17.811 -11.972  1.00  0.00     0.013 A 
ATOM     14  C   UNL     1      -7.871 -17.889 -13.248  1.00  0.00     0.047 A 
ATOM     15  C   UNL     1      -8.553 -19.046 -13.646  1.00  0.00     0.115 A 
ATOM     16  C   UNL     1      -8.101 -20.048 -11.485  1.00  0.00     0.013 A 
ATOM     17  C   UNL     1      -8.665 -20.124 -12.763  1.00  0.00     0.047 A 
BRANCH  15  18
ATOM     18  O   UNL     1      -9.120 -19.135 -14.915  1.00  0.00    -0.508 OA
ATOM     19  H   UNL     1     -10.029 -18.737 -15.119  1.00  0.00     0.293 HD
ENDBRANCH  15  18
ENDBRANCH   1  12
BRANCH  11  20
ATOM     20  C   UNL     1      -6.102 -17.734  -4.768  1.00  0.00     0.188 C 
ATOM     21  C   UNL     1      -5.624 -16.274  -4.601  1.00  0.00     0.179 C 
ATOM     22  O   UNL     1      -7.476 -17.799  -5.127  1.00  0.00    -0.362 OA
ATOM     23  C   UNL     1      -6.488 -15.560  -3.549  1.00  0.00     0.177 C 
ATOM     24  C   UNL     1      -8.330 -17.213  -4.152  1.00  0.00     0.176 C 
ATOM     25  C   UNL     1      -7.970 -15.724  -3.903  1.00  0.00     0.177 C 
BRANCH  21  26
ATOM     26  O   UNL     1      -4.279 -16.269  -4.192  1.00  0.00    -0.387 OA
ATOM     27  H   UNL     1      -4.176 -16.996  -3.524  1.00  0.00     0.211 HD
ENDBRANCH  21  26
BRANCH  23  28
ATOM     28  O   UNL     1      -6.174 -14.191  -3.520  1.00  0.00    -0.387 OA
ATOM     29  H   UNL     1      -5.337 -14.096  -2.994  1.00  0.00     0.211 HD
ENDBRANCH  23  28
BRANCH  24  30
ATOM     30  C   UNL     1      -8.432 -18.081  -2.877  1.00  0.00     0.191 C 
BRANCH  30  31
ATOM     31  O   UNL     1      -8.982 -19.337  -3.179  1.00  0.00    -0.394 OA
ATOM     32  H   UNL     1      -9.509 -19.626  -2.389  1.00  0.00     0.210 HD
ENDBRANCH  30  31
ENDBRANCH  24  30
BRANCH  25  33
ATOM     33  O   UNL     1      -8.762 -15.175  -2.882  1.00  0.00    -0.388 OA
ATOM     34  H   UNL     1      -9.662 -15.018  -3.271  1.00  0.00     0.211 HD
ENDBRANCH  25  33
ENDBRANCH  11  20
BRANCH  10  35
ATOM     35  O   UNL     1      -3.514 -18.914  -4.226  1.00  0.00    -0.507 OA
ATOM     36  H   UNL     1      -2.720 -19.470  -3.925  1.00  0.00     0.293 HD
ENDBRANCH  10  35
TORSDOF 9
ENDMDL
