MODEL 1
REMARK VINA RESULT:    -5.182      0.000      0.000
REMARK INTER + INTRA:          -6.061
REMARK INTER:                  -5.636
REMARK INTRA:                  -0.424
REMARK UNBOUND:                -0.424
REMARK SMILES C=C1C[C@@]2(O)O[C@]3(C[C@H]2C(C)C)[C@@H]1CC[C@@H]3C
REMARK SMILES IDX 17 1 16 2 15 3 14 4 13 5 7 6 8 7 9 8 4 9 6 10 3 11 2 12 1 13
REMARK SMILES IDX 10 14 11 15 12 16 5 17
REMARK H PARENT 5 18
REMARK Flexibility Score: inf
ROOT
ATOM      1  C   UNL     1      -7.124   0.861  -3.270  1.00  0.00     0.011 C 
ATOM      2  C   UNL     1      -8.160  -0.187  -3.710  1.00  0.00     0.019 C 
ATOM      3  C   UNL     1      -9.607   0.364  -3.615  1.00  0.00     0.007 C 
ATOM      4  C   UNL     1     -10.113   0.592  -5.052  1.00  0.00     0.011 C 
ATOM      5  C   UNL     1      -8.863   0.466  -5.908  1.00  0.00     0.047 C 
ATOM      6  C   UNL     1      -8.017  -0.586  -5.190  1.00  0.00     0.081 C 
ATOM      7  C   UNL     1      -8.508  -2.041  -5.440  1.00  0.00     0.046 C 
ATOM      8  C   UNL     1      -7.550  -2.561  -6.506  1.00  0.00     0.054 C 
ATOM      9  C   UNL     1      -6.840  -1.258  -6.940  1.00  0.00     0.173 C 
ATOM     10  O   UNL     1      -6.719  -0.509  -5.738  1.00  0.00    -0.342 OA
ATOM     11  C   UNL     1      -7.661  -0.422  -7.986  1.00  0.00     0.096 C 
ATOM     12  C   UNL     1      -8.948   0.109  -7.372  1.00  0.00    -0.066 C 
ATOM     13  C   UNL     1     -10.001   0.434  -8.135  1.00  0.00     0.008 C 
ENDROOT
BRANCH   8  14
ATOM     14  C   UNL     1      -8.235  -3.419  -7.614  1.00  0.00    -0.009 C 
ATOM     15  C   UNL     1      -7.619  -4.825  -7.694  1.00  0.00     0.008 C 
ATOM     16  C   UNL     1      -9.743  -3.556  -7.342  1.00  0.00     0.008 C 
ENDBRANCH   8  14
BRANCH   9  17
ATOM     17  O   UNL     1      -5.565  -1.531  -7.467  1.00  0.00    -0.365 OA
ATOM     18  H   UNL     1      -4.936  -0.864  -7.086  1.00  0.00     0.214 HD
ENDBRANCH   9  17
TORSDOF 2
ENDMDL
MODEL 2
REMARK VINA RESULT:    -4.880     12.810     15.890
REMARK INTER + INTRA:          -5.732
REMARK INTER:                  -5.314
REMARK INTRA:                  -0.418
REMARK UNBOUND:                -0.424
REMARK SMILES C=C1C[C@@]2(O)O[C@]3(C[C@H]2C(C)C)[C@@H]1CC[C@@H]3C
REMARK SMILES IDX 17 1 16 2 15 3 14 4 13 5 7 6 8 7 9 8 4 9 6 10 3 11 2 12 1 13
REMARK SMILES IDX 10 14 11 15 12 16 5 17
REMARK H PARENT 5 18
REMARK Flexibility Score: inf
ROOT
ATOM      1  C   UNL     1      -5.709   4.744   4.504  1.00  0.00     0.011 C 
ATOM      2  C   UNL     1      -5.277   6.144   4.970  1.00  0.00     0.019 C 
ATOM      3  C   UNL     1      -6.214   6.694   6.076  1.00  0.00     0.007 C 
ATOM      4  C   UNL     1      -5.433   6.667   7.404  1.00  0.00     0.011 C 
ATOM      5  C   UNL     1      -4.203   5.829   7.092  1.00  0.00     0.047 C 
ATOM      6  C   UNL     1      -3.886   6.152   5.631  1.00  0.00     0.081 C 
ATOM      7  C   UNL     1      -3.175   7.524   5.448  1.00  0.00     0.046 C 
ATOM      8  C   UNL     1      -1.708   7.142   5.277  1.00  0.00     0.054 C 
ATOM      9  C   UNL     1      -1.731   5.651   5.682  1.00  0.00     0.173 C 
ATOM     10  O   UNL     1      -2.973   5.172   5.185  1.00  0.00    -0.342 OA
ATOM     11  C   UNL     1      -1.679   5.428   7.237  1.00  0.00     0.096 C 
ATOM     12  C   UNL     1      -2.939   5.958   7.906  1.00  0.00    -0.066 C 
ATOM     13  C   UNL     1      -2.947   6.305   9.200  1.00  0.00     0.008 C 
ENDROOT
BRANCH   8  14
ATOM     14  C   UNL     1      -0.714   8.084   6.025  1.00  0.00    -0.009 C 
ATOM     15  C   UNL     1       0.246   8.777   5.044  1.00  0.00     0.008 C 
ATOM     16  C   UNL     1      -1.475   9.161   6.816  1.00  0.00     0.008 C 
ENDBRANCH   8  14
BRANCH   9  17
ATOM     17  O   UNL     1      -0.671   4.949   5.082  1.00  0.00    -0.365 OA
ATOM     18  H   UNL     1      -0.209   4.438   5.797  1.00  0.00     0.214 HD
ENDBRANCH   9  17
TORSDOF 2
ENDMDL
MODEL 3
REMARK VINA RESULT:    -4.739     13.645     15.473
REMARK INTER + INTRA:          -5.579
REMARK INTER:                  -5.162
REMARK INTRA:                  -0.417
REMARK UNBOUND:                -0.424
REMARK SMILES C=C1C[C@@]2(O)O[C@]3(C[C@H]2C(C)C)[C@@H]1CC[C@@H]3C
REMARK SMILES IDX 17 1 16 2 15 3 14 4 13 5 7 6 8 7 9 8 4 9 6 10 3 11 2 12 1 13
REMARK SMILES IDX 10 14 11 15 12 16 5 17
REMARK H PARENT 5 18
REMARK Flexibility Score: inf
ROOT
ATOM      1  C   UNL     1      -0.001   4.875   5.630  1.00  0.00     0.011 C 
ATOM      2  C   UNL     1      -0.788   5.903   6.459  1.00  0.00     0.019 C 
ATOM      3  C   UNL     1      -0.067   7.275   6.505  1.00  0.00     0.007 C 
ATOM      4  C   UNL     1      -0.875   8.255   5.632  1.00  0.00     0.011 C 
ATOM      5  C   UNL     1      -1.843   7.361   4.873  1.00  0.00     0.047 C 
ATOM      6  C   UNL     1      -2.165   6.233   5.855  1.00  0.00     0.081 C 
ATOM      7  C   UNL     1      -3.186   6.651   6.953  1.00  0.00     0.046 C 
ATOM      8  C   UNL     1      -4.503   6.067   6.453  1.00  0.00     0.054 C 
ATOM      9  C   UNL     1      -4.129   5.661   5.009  1.00  0.00     0.173 C 
ATOM     10  O   UNL     1      -2.786   5.208   5.110  1.00  0.00    -0.342 OA
ATOM     11  C   UNL     1      -4.193   6.857   3.992  1.00  0.00     0.096 C 
ATOM     12  C   UNL     1      -3.135   7.903   4.311  1.00  0.00    -0.066 C 
ATOM     13  C   UNL     1      -3.272   9.176   3.915  1.00  0.00     0.008 C 
ENDROOT
BRANCH   8  14
ATOM     14  C   UNL     1      -5.731   7.007   6.650  1.00  0.00    -0.009 C 
ATOM     15  C   UNL     1      -6.787   6.367   7.566  1.00  0.00     0.008 C 
ATOM     16  C   UNL     1      -5.297   8.351   7.260  1.00  0.00     0.008 C 
ENDBRANCH   8  14
BRANCH   9  17
ATOM     17  O   UNL     1      -4.954   4.620   4.548  1.00  0.00    -0.365 OA
ATOM     18  H   UNL     1      -5.438   4.253   5.333  1.00  0.00     0.214 HD
ENDBRANCH   9  17
TORSDOF 2
ENDMDL
MODEL 4
REMARK VINA RESULT:    -4.693     15.433     17.263
REMARK INTER + INTRA:          -5.529
REMARK INTER:                  -5.110
REMARK INTRA:                  -0.419
REMARK UNBOUND:                -0.424
REMARK SMILES C=C1C[C@@]2(O)O[C@]3(C[C@H]2C(C)C)[C@@H]1CC[C@@H]3C
REMARK SMILES IDX 17 1 16 2 15 3 14 4 13 5 7 6 8 7 9 8 4 9 6 10 3 11 2 12 1 13
REMARK SMILES IDX 10 14 11 15 12 16 5 17
REMARK H PARENT 5 18
REMARK Flexibility Score: inf
ROOT
ATOM      1  C   UNL     1       0.427   9.742   4.851  1.00  0.00     0.011 C 
ATOM      2  C   UNL     1       0.350   9.230   6.300  1.00  0.00     0.019 C 
ATOM      3  C   UNL     1      -0.711  10.004   7.124  1.00  0.00     0.007 C 
ATOM      4  C   UNL     1      -1.901   9.054   7.360  1.00  0.00     0.011 C 
ATOM      5  C   UNL     1      -1.635   7.889   6.419  1.00  0.00     0.047 C 
ATOM      6  C   UNL     1      -0.111   7.764   6.393  1.00  0.00     0.081 C 
ATOM      7  C   UNL     1       0.467   7.064   7.657  1.00  0.00     0.046 C 
ATOM      8  C   UNL     1       0.731   5.639   7.182  1.00  0.00     0.054 C 
ATOM      9  C   UNL     1      -0.001   5.629   5.821  1.00  0.00     0.173 C 
ATOM     10  O   UNL     1       0.212   6.933   5.300  1.00  0.00    -0.342 OA
ATOM     11  C   UNL     1      -1.547   5.374   5.950  1.00  0.00     0.096 C 
ATOM     12  C   UNL     1      -2.232   6.526   6.671  1.00  0.00    -0.066 C 
ATOM     13  C   UNL     1      -3.404   6.356   7.298  1.00  0.00     0.008 C 
ENDROOT
BRANCH   8  14
ATOM     14  C   UNL     1       0.349   4.541   8.222  1.00  0.00    -0.009 C 
ATOM     15  C   UNL     1       1.573   3.705   8.630  1.00  0.00     0.008 C 
ATOM     16  C   UNL     1      -0.260   5.174   9.485  1.00  0.00     0.008 C 
ENDBRANCH   8  14
BRANCH   9  17
ATOM     17  O   UNL     1       0.552   4.668   4.957  1.00  0.00    -0.365 OA
ATOM     18  H   UNL     1      -0.200   4.191   4.520  1.00  0.00     0.214 HD
ENDBRANCH   9  17
TORSDOF 2
ENDMDL
MODEL 5
REMARK VINA RESULT:    -4.657     15.063     16.927
REMARK INTER + INTRA:          -5.489
REMARK INTER:                  -5.075
REMARK INTRA:                  -0.415
REMARK UNBOUND:                -0.424
REMARK SMILES C=C1C[C@@]2(O)O[C@]3(C[C@H]2C(C)C)[C@@H]1CC[C@@H]3C
REMARK SMILES IDX 17 1 16 2 15 3 14 4 13 5 7 6 8 7 9 8 4 9 6 10 3 11 2 12 1 13
REMARK SMILES IDX 10 14 11 15 12 16 5 17
REMARK H PARENT 5 18
REMARK Flexibility Score: inf
ROOT
ATOM      1  C   UNL     1      -4.333   4.647   8.802  1.00  0.00     0.011 C 
ATOM      2  C   UNL     1      -3.401   5.870   8.849  1.00  0.00     0.019 C 
ATOM      3  C   UNL     1      -2.520   5.870  10.125  1.00  0.00     0.007 C 
ATOM      4  C   UNL     1      -1.077   5.539   9.693  1.00  0.00     0.011 C 
ATOM      5  C   UNL     1      -1.223   5.060   8.257  1.00  0.00     0.047 C 
ATOM      6  C   UNL     1      -2.380   5.889   7.697  1.00  0.00     0.081 C 
ATOM      7  C   UNL     1      -1.967   7.342   7.323  1.00  0.00     0.046 C 
ATOM      8  C   UNL     1      -1.789   7.282   5.810  1.00  0.00     0.054 C 
ATOM      9  C   UNL     1      -1.826   5.757   5.559  1.00  0.00     0.173 C 
ATOM     10  O   UNL     1      -2.779   5.271   6.494  1.00  0.00    -0.342 OA
ATOM     11  C   UNL     1      -0.446   5.052   5.818  1.00  0.00     0.096 C 
ATOM     12  C   UNL     1      -0.065   5.121   7.290  1.00  0.00    -0.066 C 
ATOM     13  C   UNL     1       1.211   5.022   7.685  1.00  0.00     0.008 C 
ENDROOT
BRANCH   8  14
ATOM     14  C   UNL     1      -0.557   8.077   5.282  1.00  0.00    -0.009 C 
ATOM     15  C   UNL     1      -0.985   9.212   4.337  1.00  0.00     0.008 C 
ATOM     16  C   UNL     1       0.243   8.681   6.449  1.00  0.00     0.008 C 
ENDBRANCH   8  14
BRANCH   9  17
ATOM     17  O   UNL     1      -2.248   5.472   4.248  1.00  0.00    -0.365 OA
ATOM     18  H   UNL     1      -2.192   4.488   4.124  1.00  0.00     0.214 HD
ENDBRANCH   9  17
TORSDOF 2
ENDMDL
MODEL 6
REMARK VINA RESULT:    -4.653      1.433      4.669
REMARK INTER + INTRA:          -5.486
REMARK INTER:                  -5.686
REMARK INTRA:                   0.200
REMARK UNBOUND:                -0.424
REMARK SMILES C=C1C[C@@]2(O)O[C@]3(C[C@H]2C(C)C)[C@@H]1CC[C@@H]3C
REMARK SMILES IDX 17 1 16 2 15 3 14 4 13 5 7 6 8 7 9 8 4 9 6 10 3 11 2 12 1 13
REMARK SMILES IDX 10 14 11 15 12 16 5 17
REMARK H PARENT 5 18
REMARK Flexibility Score: inf
ROOT
ATOM      1  C   UNL     1      -6.150  -2.031  -7.989  1.00  0.00     0.011 C 
ATOM      2  C   UNL     1      -7.519  -1.340  -7.876  1.00  0.00     0.019 C 
ATOM      3  C   UNL     1      -8.677  -2.293  -8.270  1.00  0.00     0.007 C 
ATOM      4  C   UNL     1      -9.431  -2.667  -6.979  1.00  0.00     0.011 C 
ATOM      5  C   UNL     1      -8.517  -2.181  -5.864  1.00  0.00     0.047 C 
ATOM      6  C   UNL     1      -7.861  -0.923  -6.434  1.00  0.00     0.081 C 
ATOM      7  C   UNL     1      -8.797   0.321  -6.406  1.00  0.00     0.046 C 
ATOM      8  C   UNL     1      -8.319   1.096  -5.183  1.00  0.00     0.054 C 
ATOM      9  C   UNL     1      -7.392   0.061  -4.508  1.00  0.00     0.173 C 
ATOM     10  O   UNL     1      -6.771  -0.614  -5.594  1.00  0.00    -0.342 OA
ATOM     11  C   UNL     1      -8.166  -0.986  -3.628  1.00  0.00     0.096 C 
ATOM     12  C   UNL     1      -9.056  -1.871  -4.489  1.00  0.00    -0.066 C 
ATOM     13  C   UNL     1     -10.124  -2.496  -3.974  1.00  0.00     0.008 C 
ENDROOT
BRANCH   8  14
ATOM     14  C   UNL     1      -9.471   1.708  -4.328  1.00  0.00    -0.009 C 
ATOM     15  C   UNL     1      -8.957   2.197  -2.964  1.00  0.00     0.008 C 
ATOM     16  C   UNL     1     -10.125   2.892  -5.061  1.00  0.00     0.008 C 
ENDBRANCH   8  14
BRANCH   9  17
ATOM     17  O   UNL     1      -6.418   0.695  -3.716  1.00  0.00    -0.365 OA
ATOM     18  H   UNL     1      -6.413   0.245  -2.832  1.00  0.00     0.214 HD
ENDBRANCH   9  17
TORSDOF 2
ENDMDL
MODEL 7
REMARK VINA RESULT:    -4.452     13.937     16.122
REMARK INTER + INTRA:          -5.267
REMARK INTER:                  -4.846
REMARK INTRA:                  -0.421
REMARK UNBOUND:                -0.424
REMARK SMILES C=C1C[C@@]2(O)O[C@]3(C[C@H]2C(C)C)[C@@H]1CC[C@@H]3C
REMARK SMILES IDX 17 1 16 2 15 3 14 4 13 5 7 6 8 7 9 8 4 9 6 10 3 11 2 12 1 13
REMARK SMILES IDX 10 14 11 15 12 16 5 17
REMARK H PARENT 5 18
REMARK Flexibility Score: inf
ROOT
ATOM      1  C   UNL     1      -5.639   6.641   4.865  1.00  0.00     0.011 C 
ATOM      2  C   UNL     1      -4.196   6.319   4.441  1.00  0.00     0.019 C 
ATOM      3  C   UNL     1      -3.700   7.272   3.323  1.00  0.00     0.007 C 
ATOM      4  C   UNL     1      -2.665   8.226   3.951  1.00  0.00     0.011 C 
ATOM      5  C   UNL     1      -2.821   8.007   5.447  1.00  0.00     0.047 C 
ATOM      6  C   UNL     1      -3.178   6.525   5.578  1.00  0.00     0.081 C 
ATOM      7  C   UNL     1      -1.949   5.584   5.422  1.00  0.00     0.046 C 
ATOM      8  C   UNL     1      -1.592   5.225   6.860  1.00  0.00     0.054 C 
ATOM      9  C   UNL     1      -2.459   6.232   7.650  1.00  0.00     0.173 C 
ATOM     10  O   UNL     1      -3.656   6.335   6.891  1.00  0.00    -0.342 OA
ATOM     11  C   UNL     1      -1.803   7.655   7.769  1.00  0.00     0.096 C 
ATOM     12  C   UNL     1      -1.700   8.326   6.407  1.00  0.00    -0.066 C 
ATOM     13  C   UNL     1      -0.800   9.290   6.171  1.00  0.00     0.008 C 
ENDROOT
BRANCH   8  14
ATOM     14  C   UNL     1      -0.060   5.200   7.149  1.00  0.00    -0.009 C 
ATOM     15  C   UNL     1       0.399   3.811   7.622  1.00  0.00     0.008 C 
ATOM     16  C   UNL     1       0.738   5.582   5.891  1.00  0.00     0.008 C 
ENDBRANCH   8  14
BRANCH   9  17
ATOM     17  O   UNL     1      -2.745   5.749   8.939  1.00  0.00    -0.365 OA
ATOM     18  H   UNL     1      -1.899   5.397   9.320  1.00  0.00     0.214 HD
ENDBRANCH   9  17
TORSDOF 2
ENDMDL
MODEL 8
REMARK VINA RESULT:    -4.413     14.506     16.639
REMARK INTER + INTRA:          -5.224
REMARK INTER:                  -4.801
REMARK INTRA:                  -0.423
REMARK UNBOUND:                -0.424
REMARK SMILES C=C1C[C@@]2(O)O[C@]3(C[C@H]2C(C)C)[C@@H]1CC[C@@H]3C
REMARK SMILES IDX 17 1 16 2 15 3 14 4 13 5 7 6 8 7 9 8 4 9 6 10 3 11 2 12 1 13
REMARK SMILES IDX 10 14 11 15 12 16 5 17
REMARK H PARENT 5 18
REMARK Flexibility Score: inf
ROOT
ATOM      1  C   UNL     1       1.202   4.836   7.891  1.00  0.00     0.011 C 
ATOM      2  C   UNL     1      -0.026   5.568   8.457  1.00  0.00     0.019 C 
ATOM      3  C   UNL     1       0.375   6.871   9.196  1.00  0.00     0.007 C 
ATOM      4  C   UNL     1      -0.069   8.059   8.319  1.00  0.00     0.011 C 
ATOM      5  C   UNL     1      -0.423   7.420   6.985  1.00  0.00     0.047 C 
ATOM      6  C   UNL     1      -0.993   6.051   7.360  1.00  0.00     0.081 C 
ATOM      7  C   UNL     1      -2.458   6.120   7.880  1.00  0.00     0.046 C 
ATOM      8  C   UNL     1      -3.284   5.699   6.669  1.00  0.00     0.054 C 
ATOM      9  C   UNL     1      -2.222   5.739   5.546  1.00  0.00     0.173 C 
ATOM     10  O   UNL     1      -1.031   5.287   6.175  1.00  0.00    -0.342 OA
ATOM     11  C   UNL     1      -1.983   7.181   4.970  1.00  0.00     0.096 C 
ATOM     12  C   UNL     1      -1.368   8.095   6.020  1.00  0.00    -0.066 C 
ATOM     13  C   UNL     1      -1.493   9.427   5.944  1.00  0.00     0.008 C 
ENDROOT
BRANCH   8  14
ATOM     14  C   UNL     1      -4.587   6.531   6.468  1.00  0.00    -0.009 C 
ATOM     15  C   UNL     1      -5.829   5.625   6.420  1.00  0.00     0.008 C 
ATOM     16  C   UNL     1      -4.764   7.551   7.606  1.00  0.00     0.008 C 
ENDBRANCH   8  14
BRANCH   9  17
ATOM     17  O   UNL     1      -2.569   4.875   4.493  1.00  0.00    -0.365 OA
ATOM     18  H   UNL     1      -2.736   3.979   4.886  1.00  0.00     0.214 HD
ENDBRANCH   9  17
TORSDOF 2
ENDMDL
MODEL 9
REMARK VINA RESULT:    -3.690      1.567      4.498
REMARK INTER + INTRA:          -4.438
REMARK INTER:                  -4.016
REMARK INTRA:                  -0.422
REMARK UNBOUND:                -0.424
REMARK SMILES C=C1C[C@@]2(O)O[C@]3(C[C@H]2C(C)C)[C@@H]1CC[C@@H]3C
REMARK SMILES IDX 17 1 16 2 15 3 14 4 13 5 7 6 8 7 9 8 4 9 6 10 3 11 2 12 1 13
REMARK SMILES IDX 10 14 11 15 12 16 5 17
REMARK H PARENT 5 18
REMARK Flexibility Score: inf
ROOT
ATOM      1  C   UNL     1      -7.269  -3.655  -7.765  1.00  0.00     0.011 C 
ATOM      2  C   UNL     1      -6.764  -2.244  -7.421  1.00  0.00     0.019 C 
ATOM      3  C   UNL     1      -6.629  -1.359  -8.687  1.00  0.00     0.007 C 
ATOM      4  C   UNL     1      -7.760  -0.312  -8.645  1.00  0.00     0.011 C 
ATOM      5  C   UNL     1      -8.681  -0.809  -7.542  1.00  0.00     0.047 C 
ATOM      6  C   UNL     1      -7.741  -1.458  -6.527  1.00  0.00     0.081 C 
ATOM      7  C   UNL     1      -6.994  -0.424  -5.635  1.00  0.00     0.046 C 
ATOM      8  C   UNL     1      -7.785  -0.443  -4.332  1.00  0.00     0.054 C 
ATOM      9  C   UNL     1      -9.039  -1.246  -4.747  1.00  0.00     0.173 C 
ATOM     10  O   UNL     1      -8.545  -2.222  -5.655  1.00  0.00    -0.342 OA
ATOM     11  C   UNL     1     -10.123  -0.371  -5.473  1.00  0.00     0.096 C 
ATOM     12  C   UNL     1      -9.611   0.132  -6.815  1.00  0.00    -0.066 C 
ATOM     13  C   UNL     1     -10.125   1.228  -7.391  1.00  0.00     0.008 C 
ENDROOT
BRANCH   8  14
ATOM     14  C   UNL     1      -8.000   0.965  -3.697  1.00  0.00    -0.009 C 
ATOM     15  C   UNL     1      -7.484   1.011  -2.249  1.00  0.00     0.008 C 
ATOM     16  C   UNL     1      -7.275   2.048  -4.514  1.00  0.00     0.008 C 
ENDBRANCH   8  14
BRANCH   9  17
ATOM     17  O   UNL     1      -9.626  -1.876  -3.635  1.00  0.00    -0.365 OA
ATOM     18  H   UNL     1      -9.693  -1.200  -2.911  1.00  0.00     0.214 HD
ENDBRANCH   9  17
TORSDOF 2
ENDMDL
