MODEL 1
REMARK VINA RESULT:    -5.381      0.000      0.000
REMARK INTER + INTRA:          -5.538
REMARK INTER:                  -5.538
REMARK INTRA:                   0.000
REMARK UNBOUND:                 0.000
REMARK SMILES Oc1ccc2[nH]ccc2c1
REMARK SMILES IDX 3 1 4 2 5 3 9 4 8 5 7 6 6 7 10 8 2 9 1 11
REMARK H PARENT 6 10 1 12
REMARK Flexibility Score: inf
ROOT
ATOM      1  C   UNL     1     112.856 112.196 111.946  1.00  0.00     0.048 A 
ATOM      2  C   UNL     1     111.885 111.403 112.586  1.00  0.00     0.030 A 
ATOM      3  C   UNL     1     110.824 110.926 111.817  1.00  0.00     0.046 A 
ATOM      4  C   UNL     1     110.719 111.211 110.481  1.00  0.00     0.003 A 
ATOM      5  C   UNL     1     109.575 110.599 110.019  1.00  0.00     0.028 A 
ATOM      6  C   UNL     1     109.032 109.958 111.128  1.00  0.00     0.083 A 
ATOM      7  N   UNL     1     109.799 110.161 112.224  1.00  0.00    -0.361 N 
ATOM      8  C   UNL     1     111.664 111.992 109.818  1.00  0.00     0.056 A 
ATOM      9  C   UNL     1     112.747 112.491 110.565  1.00  0.00     0.116 A 
ATOM     10  H   UNL     1     109.626 109.795 113.187  1.00  0.00     0.166 HD
ENDROOT
BRANCH   9  11
ATOM     11  O   UNL     1     113.710 113.275 109.933  1.00  0.00    -0.508 OA
ATOM     12  H   UNL     1     113.797 114.266 110.128  1.00  0.00     0.293 HD
ENDBRANCH   9  11
TORSDOF 1
ENDMDL
MODEL 2
REMARK VINA RESULT:    -5.378      4.096      4.831
REMARK INTER + INTRA:          -5.535
REMARK INTER:                  -5.535
REMARK INTRA:                   0.000
REMARK UNBOUND:                 0.000
REMARK SMILES Oc1ccc2[nH]ccc2c1
REMARK SMILES IDX 3 1 4 2 5 3 9 4 8 5 7 6 6 7 10 8 2 9 1 11
REMARK H PARENT 6 10 1 12
REMARK Flexibility Score: inf
ROOT
ATOM      1  C   UNL     1     112.810 112.098 116.892  1.00  0.00     0.048 A 
ATOM      2  C   UNL     1     111.779 111.322 117.453  1.00  0.00     0.030 A 
ATOM      3  C   UNL     1     110.766 110.876 116.605  1.00  0.00     0.046 A 
ATOM      4  C   UNL     1     110.763 111.174 115.269  1.00  0.00     0.003 A 
ATOM      5  C   UNL     1     109.642 110.591 114.720  1.00  0.00     0.028 A 
ATOM      6  C   UNL     1     109.007 109.954 115.781  1.00  0.00     0.083 A 
ATOM      7  N   UNL     1     109.698 110.130 116.931  1.00  0.00    -0.361 N 
ATOM      8  C   UNL     1     111.769 111.939 114.683  1.00  0.00     0.056 A 
ATOM      9  C   UNL     1     112.807 112.407 115.510  1.00  0.00     0.116 A 
ATOM     10  H   UNL     1     109.448 109.760 117.875  1.00  0.00     0.166 HD
ENDROOT
BRANCH   9  11
ATOM     11  O   UNL     1     113.829 113.174 114.956  1.00  0.00    -0.508 OA
ATOM     12  H   UNL     1     113.727 113.618 114.051  1.00  0.00     0.293 HD
ENDBRANCH   9  11
TORSDOF 1
ENDMDL
MODEL 3
REMARK VINA RESULT:    -5.348      2.531      3.641
REMARK INTER + INTRA:          -5.505
REMARK INTER:                  -5.505
REMARK INTRA:                   0.000
REMARK UNBOUND:                 0.000
REMARK SMILES Oc1ccc2[nH]ccc2c1
REMARK SMILES IDX 3 1 4 2 5 3 9 4 8 5 7 6 6 7 10 8 2 9 1 11
REMARK H PARENT 6 10 1 12
REMARK Flexibility Score: inf
ROOT
ATOM      1  C   UNL     1     109.496 110.144 111.933  1.00  0.00     0.048 A 
ATOM      2  C   UNL     1     110.494 110.977 112.473  1.00  0.00     0.030 A 
ATOM      3  C   UNL     1     111.500 111.425 111.617  1.00  0.00     0.046 A 
ATOM      4  C   UNL     1     111.528 111.073 110.294  1.00  0.00     0.003 A 
ATOM      5  C   UNL     1     112.635 111.672 109.733  1.00  0.00     0.028 A 
ATOM      6  C   UNL     1     113.235 112.374 110.773  1.00  0.00     0.083 A 
ATOM      7  N   UNL     1     112.538 112.220 111.923  1.00  0.00    -0.361 N 
ATOM      8  C   UNL     1     110.556 110.250 109.729  1.00  0.00     0.056 A 
ATOM      9  C   UNL     1     109.525 109.780 110.564  1.00  0.00     0.116 A 
ATOM     10  H   UNL     1     112.763 112.636 112.854  1.00  0.00     0.166 HD
ENDROOT
BRANCH   9  11
ATOM     11  O   UNL     1     108.537 108.955 110.032  1.00  0.00    -0.508 OA
ATOM     12  H   UNL     1     108.379 108.894 109.033  1.00  0.00     0.293 HD
ENDBRANCH   9  11
TORSDOF 1
ENDMDL
MODEL 4
REMARK VINA RESULT:    -5.345      4.745      6.036
REMARK INTER + INTRA:          -5.501
REMARK INTER:                  -5.501
REMARK INTRA:                   0.000
REMARK UNBOUND:                 0.000
REMARK SMILES Oc1ccc2[nH]ccc2c1
REMARK SMILES IDX 3 1 4 2 5 3 9 4 8 5 7 6 6 7 10 8 2 9 1 11
REMARK H PARENT 6 10 1 12
REMARK Flexibility Score: inf
ROOT
ATOM      1  C   UNL     1     109.398 110.249 116.891  1.00  0.00     0.048 A 
ATOM      2  C   UNL     1     110.441 111.023 117.433  1.00  0.00     0.030 A 
ATOM      3  C   UNL     1     111.472 111.414 116.580  1.00  0.00     0.046 A 
ATOM      4  C   UNL     1     111.482 111.066 115.256  1.00  0.00     0.003 A 
ATOM      5  C   UNL     1     112.621 111.602 114.697  1.00  0.00     0.028 A 
ATOM      6  C   UNL     1     113.260 112.265 115.740  1.00  0.00     0.083 A 
ATOM      7  N   UNL     1     112.554 112.148 116.889  1.00  0.00    -0.361 N 
ATOM      8  C   UNL     1     110.464 110.302 114.688  1.00  0.00     0.056 A 
ATOM      9  C   UNL     1     109.408 109.888 115.521  1.00  0.00     0.116 A 
ATOM     10  H   UNL     1     112.802 112.547 117.821  1.00  0.00     0.166 HD
ENDROOT
BRANCH   9  11
ATOM     11  O   UNL     1     108.374 109.123 114.985  1.00  0.00    -0.508 OA
ATOM     12  H   UNL     1     107.447 109.124 115.395  1.00  0.00     0.293 HD
ENDBRANCH   9  11
TORSDOF 1
ENDMDL
MODEL 5
REMARK VINA RESULT:    -5.300      2.769      3.774
REMARK INTER + INTRA:          -5.455
REMARK INTER:                  -5.455
REMARK INTRA:                   0.000
REMARK UNBOUND:                 0.000
REMARK SMILES Oc1ccc2[nH]ccc2c1
REMARK SMILES IDX 3 1 4 2 5 3 9 4 8 5 7 6 6 7 10 8 2 9 1 11
REMARK H PARENT 6 10 1 12
REMARK Flexibility Score: inf
ROOT
ATOM      1  C   UNL     1     110.948 109.513 110.590  1.00  0.00     0.048 A 
ATOM      2  C   UNL     1     111.870 110.116 111.467  1.00  0.00     0.030 A 
ATOM      3  C   UNL     1     111.364 110.817 112.561  1.00  0.00     0.046 A 
ATOM      4  C   UNL     1     110.017 110.922 112.788  1.00  0.00     0.003 A 
ATOM      5  C   UNL     1     109.850 111.667 113.935  1.00  0.00     0.028 A 
ATOM      6  C   UNL     1     111.138 111.983 114.354  1.00  0.00     0.083 A 
ATOM      7  N   UNL     1     112.060 111.461 113.511  1.00  0.00    -0.361 N 
ATOM      8  C   UNL     1     109.080 110.336 111.940  1.00  0.00     0.056 A 
ATOM      9  C   UNL     1     109.555 109.622 110.824  1.00  0.00     0.116 A 
ATOM     10  H   UNL     1     113.098 111.544 113.588  1.00  0.00     0.166 HD
ENDROOT
BRANCH   9  11
ATOM     11  O   UNL     1     108.645 109.025 109.956  1.00  0.00    -0.508 OA
ATOM     12  H   UNL     1     108.801 109.006 108.955  1.00  0.00     0.293 HD
ENDBRANCH   9  11
TORSDOF 1
ENDMDL
MODEL 6
REMARK VINA RESULT:    -5.254      1.236      2.545
REMARK INTER + INTRA:          -5.407
REMARK INTER:                  -5.407
REMARK INTRA:                   0.000
REMARK UNBOUND:                 0.000
REMARK SMILES Oc1ccc2[nH]ccc2c1
REMARK SMILES IDX 3 1 4 2 5 3 9 4 8 5 7 6 6 7 10 8 2 9 1 11
REMARK H PARENT 6 10 1 12
REMARK Flexibility Score: inf
ROOT
ATOM      1  C   UNL     1     111.361 112.563 110.488  1.00  0.00     0.048 A 
ATOM      2  C   UNL     1     110.466 111.900 111.348  1.00  0.00     0.030 A 
ATOM      3  C   UNL     1     110.992 111.280 112.481  1.00  0.00     0.046 A 
ATOM      4  C   UNL     1     112.332 111.307 112.760  1.00  0.00     0.003 A 
ATOM      5  C   UNL     1     112.523 110.612 113.934  1.00  0.00     0.028 A 
ATOM      6  C   UNL     1     111.254 110.188 114.315  1.00  0.00     0.083 A 
ATOM      7  N   UNL     1     110.322 110.599 113.424  1.00  0.00    -0.361 N 
ATOM      8  C   UNL     1     113.244 111.956 111.929  1.00  0.00     0.056 A 
ATOM      9  C   UNL     1     112.748 112.592 110.776  1.00  0.00     0.116 A 
ATOM     10  H   UNL     1     109.293 110.421 113.466  1.00  0.00     0.166 HD
ENDROOT
BRANCH   9  11
ATOM     11  O   UNL     1     113.632 113.248 109.923  1.00  0.00    -0.508 OA
ATOM     12  H   UNL     1     113.301 113.835 109.165  1.00  0.00     0.293 HD
ENDBRANCH   9  11
TORSDOF 1
ENDMDL
MODEL 7
REMARK VINA RESULT:    -5.250      3.239      4.230
REMARK INTER + INTRA:          -5.403
REMARK INTER:                  -5.403
REMARK INTRA:                   0.000
REMARK UNBOUND:                 0.000
REMARK SMILES Oc1ccc2[nH]ccc2c1
REMARK SMILES IDX 3 1 4 2 5 3 9 4 8 5 7 6 6 7 10 8 2 9 1 11
REMARK H PARENT 6 10 1 12
REMARK Flexibility Score: inf
ROOT
ATOM      1  C   UNL     1     111.033 109.531 110.525  1.00  0.00     0.048 A 
ATOM      2  C   UNL     1     112.264 110.119 110.180  1.00  0.00     0.030 A 
ATOM      3  C   UNL     1     112.324 110.856 108.997  1.00  0.00     0.046 A 
ATOM      4  C   UNL     1     111.229 111.010 108.190  1.00  0.00     0.003 A 
ATOM      5  C   UNL     1     111.615 111.782 107.116  1.00  0.00     0.028 A 
ATOM      6  C   UNL     1     112.960 112.062 107.334  1.00  0.00     0.083 A 
ATOM      7  N   UNL     1     113.389 111.493 108.486  1.00  0.00    -0.361 N 
ATOM      8  C   UNL     1     109.996 110.441 108.504  1.00  0.00     0.056 A 
ATOM      9  C   UNL     1     109.900 109.690 109.690  1.00  0.00     0.116 A 
ATOM     10  H   UNL     1     114.351 111.544 108.890  1.00  0.00     0.166 HD
ENDROOT
BRANCH   9  11
ATOM     11  O   UNL     1     108.682 109.108 110.033  1.00  0.00    -0.508 OA
ATOM     12  H   UNL     1     108.263 109.254 110.944  1.00  0.00     0.293 HD
ENDBRANCH   9  11
TORSDOF 1
ENDMDL
MODEL 8
REMARK VINA RESULT:    -5.249      4.131      4.861
REMARK INTER + INTRA:          -5.402
REMARK INTER:                  -5.402
REMARK INTRA:                   0.000
REMARK UNBOUND:                 0.000
REMARK SMILES Oc1ccc2[nH]ccc2c1
REMARK SMILES IDX 3 1 4 2 5 3 9 4 8 5 7 6 6 7 10 8 2 9 1 11
REMARK H PARENT 6 10 1 12
REMARK Flexibility Score: inf
ROOT
ATOM      1  C   UNL     1     112.803 112.117 107.159  1.00  0.00     0.048 A 
ATOM      2  C   UNL     1     111.830 111.270 107.721  1.00  0.00     0.030 A 
ATOM      3  C   UNL     1     110.773 110.864 106.908  1.00  0.00     0.046 A 
ATOM      4  C   UNL     1     110.671 111.269 105.604  1.00  0.00     0.003 A 
ATOM      5  C   UNL     1     109.528 110.701 105.085  1.00  0.00     0.028 A 
ATOM      6  C   UNL     1     108.983 109.961 106.130  1.00  0.00     0.083 A 
ATOM      7  N   UNL     1     109.747 110.064 107.242  1.00  0.00    -0.361 N 
ATOM      8  C   UNL     1     111.617 112.107 105.018  1.00  0.00     0.056 A 
ATOM      9  C   UNL     1     112.698 112.537 105.809  1.00  0.00     0.116 A 
ATOM     10  H   UNL     1     109.572 109.612 108.167  1.00  0.00     0.166 HD
ENDROOT
BRANCH   9  11
ATOM     11  O   UNL     1     113.661 113.376 105.254  1.00  0.00    -0.508 OA
ATOM     12  H   UNL     1     113.424 114.056 104.542  1.00  0.00     0.293 HD
ENDBRANCH   9  11
TORSDOF 1
ENDMDL
MODEL 9
REMARK VINA RESULT:    -5.221      3.459      4.528
REMARK INTER + INTRA:          -5.373
REMARK INTER:                  -5.373
REMARK INTRA:                   0.000
REMARK UNBOUND:                 0.000
REMARK SMILES Oc1ccc2[nH]ccc2c1
REMARK SMILES IDX 3 1 4 2 5 3 9 4 8 5 7 6 6 7 10 8 2 9 1 11
REMARK H PARENT 6 10 1 12
REMARK Flexibility Score: inf
ROOT
ATOM      1  C   UNL     1     110.955 109.798 115.495  1.00  0.00     0.048 A 
ATOM      2  C   UNL     1     112.157 110.444 115.150  1.00  0.00     0.030 A 
ATOM      3  C   UNL     1     112.226 111.066 113.904  1.00  0.00     0.046 A 
ATOM      4  C   UNL     1     111.168 111.057 113.035  1.00  0.00     0.003 A 
ATOM      5  C   UNL     1     111.554 111.750 111.909  1.00  0.00     0.028 A 
ATOM      6  C   UNL     1     112.862 112.153 112.161  1.00  0.00     0.083 A 
ATOM      7  N   UNL     1     113.268 111.733 113.381  1.00  0.00    -0.361 N 
ATOM      8  C   UNL     1     109.965 110.427 113.347  1.00  0.00     0.056 A 
ATOM      9  C   UNL     1     109.860 109.788 114.596  1.00  0.00     0.116 A 
ATOM     10  H   UNL     1     114.201 111.896 113.823  1.00  0.00     0.166 HD
ENDROOT
BRANCH   9  11
ATOM     11  O   UNL     1     108.671 109.148 114.939  1.00  0.00    -0.508 OA
ATOM     12  H   UNL     1     108.058 109.518 115.657  1.00  0.00     0.293 HD
ENDBRANCH   9  11
TORSDOF 1
ENDMDL
