MODEL 1
REMARK VINA RESULT:     0.000      0.000      0.000
REMARK INTER + INTRA:          -5.111
REMARK INTER:                   0.000
REMARK INTRA:                  -5.111
REMARK UNBOUND:                -5.111
REMARK SMILES CCC(=O)CCCCC[C@H]1NC(=O)[C@H]2CCCCN2C(=O)[C@@H]([C@@H](C)CC)NC(=O)[C@H](Cc2cn(OC)c3ccccc23)NC1=O
REMARK SMILES IDX 9 1 10 2 44 3 43 4 45 6 30 7 28 8 27 9 29 11 22 12 23 14
REMARK SMILES IDX 24 15 25 16 26 17 31 18 32 19 33 20 42 21 34 22 37 23 41 24
REMARK SMILES IDX 38 25 40 26 39 27 35 28 36 29 11 30 12 31 13 33 14 34 19 35
REMARK SMILES IDX 15 36 18 37 16 38 17 39 20 40 21 41 8 43 7 44 6 45 5 46 3 47
REMARK SMILES IDX 4 48 2 49 1 50
REMARK H PARENT 43 5 27 10 11 32
REMARK Flexibility Score: 80.00
ROOT
ATOM      1  C   UNL     1      -1.471   0.127  -6.454  1.00  0.00     0.035 C 
ENDROOT
BRANCH   1   2
ATOM      2  C   UNL     1      -2.138   0.168  -5.068  1.00  0.00     0.171 C 
BRANCH   2   3
ATOM      3  C   UNL     1      -1.136   0.236  -3.945  1.00  0.00     0.243 C 
ATOM      4  N   UNL     1      -1.586   0.377  -2.609  1.00  0.00    -0.342 N 
ATOM      5  H   UNL     1      -1.955   1.307  -2.286  1.00  0.00     0.164 HD
ATOM      6  O   UNL     1       0.096   0.071  -4.158  1.00  0.00    -0.273 OA
BRANCH   4   7
ATOM      7  C   UNL     1      -1.498  -0.743  -1.676  1.00  0.00     0.175 C 
BRANCH   7   8
ATOM      8  C   UNL     1      -2.883  -1.096  -1.189  1.00  0.00     0.243 C 
ATOM      9  N   UNL     1      -3.251  -2.466  -1.002  1.00  0.00    -0.342 N 
ATOM     10  H   UNL     1      -2.447  -3.128  -0.892  1.00  0.00     0.164 HD
ATOM     11  O   UNL     1      -3.703  -0.169  -0.940  1.00  0.00    -0.273 OA
BRANCH   9  12
ATOM     12  C   UNL     1      -4.519  -3.005  -1.520  1.00  0.00     0.174 CG0
ATOM     13  G   UNL     1      -4.370  -3.415  -2.960  1.00  0.00     0.000 G0
BRANCH  12  14
ATOM     14  C   UNL     1      -5.070  -4.186  -0.642  1.00  0.00     0.018 C 
ATOM     15  C   UNL     1      -4.042  -4.752   0.361  1.00  0.00     0.010 C 
BRANCH  14  16
ATOM     16  C   UNL     1      -6.440  -3.821  -0.006  1.00  0.00     0.002 C 
ATOM     17  C   UNL     1      -6.892  -2.372  -0.205  1.00  0.00     0.004 C 
ENDBRANCH  14  16
ENDBRANCH  12  14
ENDBRANCH   9  12
ENDBRANCH   7   8
BRANCH   7  18
ATOM     18  C   UNL     1      -0.542  -0.378  -0.538  1.00  0.00     0.073 C 
BRANCH  18  19
ATOM     19  C   UNL     1       0.692  -1.245  -0.518  1.00  0.00    -0.016 A 
ATOM     20  C   UNL     1       1.930  -0.938  -1.070  1.00  0.00     0.134 A 
ATOM     21  C   UNL     1       0.807  -2.546  -0.037  1.00  0.00     0.006 A 
ATOM     22  N   UNL     1       2.756  -1.988  -0.931  1.00  0.00    -0.191 N 
ATOM     23  C   UNL     1       2.079  -2.970  -0.323  1.00  0.00     0.087 A 
ATOM     24  C   UNL     1      -0.107  -3.386   0.585  1.00  0.00     0.011 A 
ATOM     25  C   UNL     1       2.515  -4.260  -0.033  1.00  0.00     0.030 A 
ATOM     26  C   UNL     1       0.303  -4.690   0.888  1.00  0.00     0.001 A 
ATOM     27  C   UNL     1       1.611  -5.133   0.586  1.00  0.00     0.002 A 
BRANCH  22  28
ATOM     28  O   UNL     1       4.016  -2.097  -1.483  1.00  0.00    -0.417 OA
ATOM     29  C   UNL     1       5.117  -1.385  -0.915  1.00  0.00     0.313 C 
ENDBRANCH  22  28
ENDBRANCH  18  19
ENDBRANCH   7  18
ENDBRANCH   4   7
ENDBRANCH   2   3
BRANCH   2  30
ATOM     30  N   UNL     1      -2.926  -1.055  -4.921  1.00  0.00    -0.343 N 
ATOM     31  C   UNL     1      -4.340  -1.050  -4.668  1.00  0.00     0.243 C 
ATOM     32  H   UNL     1      -2.416  -1.960  -5.030  1.00  0.00     0.164 HD
ATOM     33  O   UNL     1      -4.875  -0.056  -4.098  1.00  0.00    -0.273 OA
BRANCH  31  34
ATOM     34  C   UNL     1      -5.218  -2.216  -5.046  1.00  0.00     0.174 C 
ATOM     35  N   UNL     1      -5.414  -3.186  -3.956  1.00  0.00    -0.329 N 
ATOM     36  C   UNL     1      -4.705  -2.963  -6.305  1.00  0.00     0.035 C 
ATOM     37  C   UNL     1      -6.353  -4.274  -4.264  1.00  0.00     0.120 C 
ATOM     38  C   UNL     1      -5.620  -4.136  -6.676  1.00  0.00     0.004 C 
ATOM     39  C   UNL     1      -5.830  -5.073  -5.460  1.00  0.00     0.022 C 
BRANCH  35  40
ATOM     40  C   UNL     1      -4.368  -3.407  -2.991  1.00  0.00     0.246 CG0
ATOM     41  O   UNL     1      -3.300  -3.967  -3.351  1.00  0.00    -0.272 OA
ATOM     42  G   UNL     1      -4.544  -2.999  -1.553  1.00  0.00     0.000 G0
ENDBRANCH  35  40
ENDBRANCH  31  34
ENDBRANCH   2  30
ENDBRANCH   1   2
BRANCH   1  43
ATOM     43  C   UNL     1      -1.376  -1.293  -7.039  1.00  0.00     0.003 C 
BRANCH  43  44
ATOM     44  C   UNL     1       0.086  -1.672  -7.320  1.00  0.00     0.001 C 
BRANCH  44  45
ATOM     45  C   UNL     1       0.451  -3.046  -6.719  1.00  0.00     0.008 C 
BRANCH  45  46
ATOM     46  C   UNL     1       0.092  -3.148  -5.231  1.00  0.00     0.075 C 
BRANCH  46  47
ATOM     47  C   UNL     1       1.257  -3.478  -4.325  1.00  0.00     0.132 C 
ATOM     48  O   UNL     1       2.179  -2.683  -4.180  1.00  0.00    -0.300 OA
BRANCH  47  49
ATOM     49  C   UNL     1       1.281  -4.792  -3.581  1.00  0.00     0.072 C 
ATOM     50  C   UNL     1      -0.030  -5.010  -2.830  1.00  0.00     0.012 C 
ENDBRANCH  47  49
ENDBRANCH  46  47
ENDBRANCH  45  46
ENDBRANCH  44  45
ENDBRANCH  43  44
ENDBRANCH   1  43
TORSDOF 12
ENDMDL
MODEL 2
REMARK VINA RESULT:     0.069      5.482      8.973
REMARK INTER + INTRA:          -4.965
REMARK INTER:                   0.000
REMARK INTRA:                  -4.965
REMARK UNBOUND:                -5.111
REMARK SMILES CCC(=O)CCCCC[C@H]1NC(=O)[C@H]2CCCCN2C(=O)[C@@H]([C@@H](C)CC)NC(=O)[C@H](Cc2cn(OC)c3ccccc23)NC1=O
REMARK SMILES IDX 9 1 10 2 44 3 43 4 45 6 30 7 28 8 27 9 29 11 22 12 23 14
REMARK SMILES IDX 24 15 25 16 26 17 31 18 32 19 33 20 42 21 34 22 37 23 41 24
REMARK SMILES IDX 38 25 40 26 39 27 35 28 36 29 11 30 12 31 13 33 14 34 19 35
REMARK SMILES IDX 15 36 18 37 16 38 17 39 20 40 21 41 8 43 7 44 6 45 5 46 3 47
REMARK SMILES IDX 4 48 2 49 1 50
REMARK H PARENT 43 5 27 10 11 32
REMARK Flexibility Score: 80.00
ROOT
ATOM      1  C   UNL     1       5.336   3.181  -5.091  1.00  0.00     0.035 C 
ENDROOT
BRANCH   1   2
ATOM      2  C   UNL     1       5.868   1.792  -4.693  1.00  0.00     0.171 C 
BRANCH   2   3
ATOM      3  C   UNL     1       5.611   0.750  -5.751  1.00  0.00     0.243 C 
ATOM      4  N   UNL     1       6.250  -0.512  -5.663  1.00  0.00    -0.342 N 
ATOM      5  H   UNL     1       7.273  -0.588  -5.890  1.00  0.00     0.164 HD
ATOM      6  O   UNL     1       4.762   0.941  -6.662  1.00  0.00    -0.273 OA
BRANCH   4   7
ATOM      7  C   UNL     1       5.486  -1.704  -5.304  1.00  0.00     0.175 C 
BRANCH   7   8
ATOM      8  C   UNL     1       6.045  -2.289  -4.030  1.00  0.00     0.243 C 
ATOM      9  N   UNL     1       5.163  -2.682  -2.973  1.00  0.00    -0.342 N 
ATOM     10  H   UNL     1       4.173  -2.855  -3.266  1.00  0.00     0.164 HD
ATOM     11  O   UNL     1       7.293  -2.435  -3.915  1.00  0.00    -0.273 OA
BRANCH   9  12
ATOM     12  C   UNL     1       5.409  -2.295  -1.574  1.00  0.00     0.174 CG0
ATOM     13  G   UNL     1       4.452  -1.215  -1.149  1.00  0.00     0.000 G0
BRANCH  12  14
ATOM     14  C   UNL     1       5.359  -3.524  -0.596  1.00  0.00     0.018 C 
ATOM     15  C   UNL     1       5.158  -4.881  -1.306  1.00  0.00     0.010 C 
BRANCH  14  16
ATOM     16  C   UNL     1       6.554  -3.500   0.397  1.00  0.00     0.002 C 
ATOM     17  C   UNL     1       7.723  -4.420   0.041  1.00  0.00     0.004 C 
ENDBRANCH  14  16
ENDBRANCH  12  14
ENDBRANCH   9  12
ENDBRANCH   7   8
BRANCH   7  18
ATOM     18  C   UNL     1       5.512  -2.690  -6.474  1.00  0.00     0.073 C 
BRANCH  18  19
ATOM     19  C   UNL     1       4.137  -2.972  -7.026  1.00  0.00    -0.016 A 
ATOM     20  C   UNL     1       3.587  -2.445  -8.189  1.00  0.00     0.134 A 
ATOM     21  C   UNL     1       3.125  -3.724  -6.438  1.00  0.00     0.006 A 
ATOM     22  N   UNL     1       2.314  -2.856  -8.308  1.00  0.00    -0.191 N 
ATOM     23  C   UNL     1       2.022  -3.615  -7.245  1.00  0.00     0.087 A 
ATOM     24  C   UNL     1       3.081  -4.452  -5.257  1.00  0.00     0.011 A 
ATOM     25  C   UNL     1       0.801  -4.200  -6.918  1.00  0.00     0.030 A 
ATOM     26  C   UNL     1       1.866  -5.051  -4.901  1.00  0.00     0.001 A 
ATOM     27  C   UNL     1       0.725  -4.932  -5.727  1.00  0.00     0.002 A 
BRANCH  22  28
ATOM     28  O   UNL     1       1.415  -2.420  -9.260  1.00  0.00    -0.417 OA
ATOM     29  C   UNL     1       0.727  -1.180  -9.088  1.00  0.00     0.313 C 
ENDBRANCH  22  28
ENDBRANCH  18  19
ENDBRANCH   7  18
ENDBRANCH   4   7
ENDBRANCH   2   3
BRANCH   2  30
ATOM     30  N   UNL     1       5.185   1.394  -3.464  1.00  0.00    -0.343 N 
ATOM     31  C   UNL     1       5.882   1.065  -2.252  1.00  0.00     0.243 C 
ATOM     32  H   UNL     1       4.140   1.374  -3.490  1.00  0.00     0.164 HD
ATOM     33  O   UNL     1       7.073   0.646  -2.303  1.00  0.00    -0.273 OA
BRANCH  31  34
ATOM     34  C   UNL     1       5.223   1.187  -0.900  1.00  0.00     0.174 C 
ATOM     35  N   UNL     1       4.836  -0.106  -0.313  1.00  0.00    -0.329 N 
ATOM     36  C   UNL     1       3.989   2.125  -0.922  1.00  0.00     0.035 C 
ATOM     37  C   UNL     1       4.292  -0.024   1.050  1.00  0.00     0.120 C 
ATOM     38  C   UNL     1       3.345   2.242   0.465  1.00  0.00     0.004 C 
ATOM     39  C   UNL     1       3.028   0.839   1.042  1.00  0.00     0.022 C 
BRANCH  35  40
ATOM     40  C   UNL     1       4.439  -1.196  -1.167  1.00  0.00     0.246 CG0
ATOM     41  O   UNL     1       3.249  -1.264  -1.572  1.00  0.00    -0.272 OA
ATOM     42  G   UNL     1       5.420  -2.265  -1.563  1.00  0.00     0.000 G0
ENDBRANCH  35  40
ENDBRANCH  31  34
ENDBRANCH   2  30
ENDBRANCH   1   2
BRANCH   1  43
ATOM     43  C   UNL     1       3.986   3.522  -4.437  1.00  0.00     0.003 C 
BRANCH  43  44
ATOM     44  C   UNL     1       2.901   3.739  -5.503  1.00  0.00     0.001 C 
BRANCH  44  45
ATOM     45  C   UNL     1       1.496   3.378  -4.977  1.00  0.00     0.008 C 
BRANCH  45  46
ATOM     46  C   UNL     1       1.430   1.953  -4.411  1.00  0.00     0.075 C 
BRANCH  46  47
ATOM     47  C   UNL     1       1.171   0.879  -5.443  1.00  0.00     0.132 C 
ATOM     48  O   UNL     1       0.406   1.084  -6.379  1.00  0.00    -0.300 OA
BRANCH  47  49
ATOM     49  C   UNL     1       1.869  -0.455  -5.330  1.00  0.00     0.072 C 
ATOM     50  C   UNL     1       1.134  -1.367  -4.350  1.00  0.00     0.012 C 
ENDBRANCH  47  49
ENDBRANCH  46  47
ENDBRANCH  45  46
ENDBRANCH  44  45
ENDBRANCH  43  44
ENDBRANCH   1  43
TORSDOF 12
ENDMDL
MODEL 3
REMARK VINA RESULT:     0.092      9.658     12.578
REMARK INTER + INTRA:          -4.916
REMARK INTER:                   0.000
REMARK INTRA:                  -4.916
REMARK UNBOUND:                -5.111
REMARK SMILES CCC(=O)CCCCC[C@H]1NC(=O)[C@H]2CCCCN2C(=O)[C@@H]([C@@H](C)CC)NC(=O)[C@H](Cc2cn(OC)c3ccccc23)NC1=O
REMARK SMILES IDX 9 1 10 2 44 3 43 4 45 6 30 7 28 8 27 9 29 11 22 12 23 14
REMARK SMILES IDX 24 15 25 16 26 17 31 18 32 19 33 20 42 21 34 22 37 23 41 24
REMARK SMILES IDX 38 25 40 26 39 27 35 28 36 29 11 30 12 31 13 33 14 34 19 35
REMARK SMILES IDX 15 36 18 37 16 38 17 39 20 40 21 41 8 43 7 44 6 45 5 46 3 47
REMARK SMILES IDX 4 48 2 49 1 50
REMARK H PARENT 43 5 27 10 11 32
REMARK Flexibility Score: 80.00
ROOT
ATOM      1  C   UNL     1      -5.759  -8.100 -17.462  1.00  0.00     0.035 C 
ENDROOT
BRANCH   1   2
ATOM      2  C   UNL     1      -5.187  -6.770 -16.942  1.00  0.00     0.171 C 
BRANCH   2   3
ATOM      3  C   UNL     1      -3.724  -6.865 -16.597  1.00  0.00     0.243 C 
ATOM      4  N   UNL     1      -3.014  -5.698 -16.218  1.00  0.00    -0.342 N 
ATOM      5  H   UNL     1      -2.757  -4.992 -16.953  1.00  0.00     0.164 HD
ATOM      6  O   UNL     1      -3.137  -7.979 -16.542  1.00  0.00    -0.273 OA
BRANCH   4   7
ATOM      7  C   UNL     1      -2.604  -5.499 -14.831  1.00  0.00     0.175 C 
BRANCH   7   8
ATOM      8  C   UNL     1      -3.234  -4.233 -14.302  1.00  0.00     0.243 C 
ATOM      9  N   UNL     1      -3.745  -4.190 -12.966  1.00  0.00    -0.342 N 
ATOM     10  H   UNL     1      -3.359  -4.919 -12.322  1.00  0.00     0.164 HD
ATOM     11  O   UNL     1      -3.293  -3.217 -15.048  1.00  0.00    -0.273 OA
BRANCH   9  12
ATOM     12  C   UNL     1      -5.078  -3.641 -12.664  1.00  0.00     0.174 CG0
ATOM     13  G   UNL     1      -6.127  -4.714 -12.771  1.00  0.00     0.000 G0
BRANCH  12  14
ATOM     14  C   UNL     1      -5.127  -2.929 -11.264  1.00  0.00     0.018 C 
ATOM     15  C   UNL     1      -3.847  -3.114 -10.422  1.00  0.00     0.010 C 
BRANCH  14  16
ATOM     16  C   UNL     1      -5.584  -1.450 -11.404  1.00  0.00     0.002 C 
ATOM     17  C   UNL     1      -5.467  -0.603 -10.135  1.00  0.00     0.004 C 
ENDBRANCH  14  16
ENDBRANCH  12  14
ENDBRANCH   9  12
ENDBRANCH   7   8
BRANCH   7  18
ATOM     18  C   UNL     1      -1.075  -5.480 -14.754  1.00  0.00     0.073 C 
BRANCH  18  19
ATOM     19  C   UNL     1      -0.514  -6.705 -14.079  1.00  0.00    -0.016 A 
ATOM     20  C   UNL     1       0.127  -7.773 -14.697  1.00  0.00     0.134 A 
ATOM     21  C   UNL     1      -0.612  -7.054 -12.735  1.00  0.00     0.006 A 
ATOM     22  N   UNL     1       0.409  -8.717 -13.784  1.00  0.00    -0.191 N 
ATOM     23  C   UNL     1      -0.050  -8.297 -12.599  1.00  0.00     0.087 A 
ATOM     24  C   UNL     1      -1.177  -6.399 -11.649  1.00  0.00     0.011 A 
ATOM     25  C   UNL     1      -0.036  -8.977 -11.384  1.00  0.00     0.030 A 
ATOM     26  C   UNL     1      -1.178  -7.059 -10.414  1.00  0.00     0.001 A 
ATOM     27  C   UNL     1      -0.608  -8.344 -10.273  1.00  0.00     0.002 A 
BRANCH  22  28
ATOM     28  O   UNL     1       0.914  -9.972 -14.056  1.00  0.00    -0.417 OA
ATOM     29  C   UNL     1       0.049 -11.015 -14.508  1.00  0.00     0.313 C 
ENDBRANCH  22  28
ENDBRANCH  18  19
ENDBRANCH   7  18
ENDBRANCH   4   7
ENDBRANCH   2   3
BRANCH   2  30
ATOM     30  N   UNL     1      -5.932  -6.412 -15.736  1.00  0.00    -0.343 N 
ATOM     31  C   UNL     1      -6.651  -5.176 -15.597  1.00  0.00     0.243 C 
ATOM     32  H   UNL     1      -5.941  -7.113 -14.961  1.00  0.00     0.164 HD
ATOM     33  O   UNL     1      -6.303  -4.165 -16.271  1.00  0.00    -0.273 OA
BRANCH  31  34
ATOM     34  C   UNL     1      -7.814  -5.036 -14.646  1.00  0.00     0.174 C 
ATOM     35  N   UNL     1      -7.442  -4.470 -13.339  1.00  0.00    -0.329 N 
ATOM     36  C   UNL     1      -8.565  -6.375 -14.425  1.00  0.00     0.035 C 
ATOM     37  C   UNL     1      -8.573  -4.222 -12.433  1.00  0.00     0.120 C 
ATOM     38  C   UNL     1      -9.748  -6.204 -13.464  1.00  0.00     0.004 C 
ATOM     39  C   UNL     1      -9.288  -5.543 -12.141  1.00  0.00     0.022 C 
BRANCH  35  40
ATOM     40  C   UNL     1      -6.137  -4.727 -12.786  1.00  0.00     0.246 CG0
ATOM     41  O   UNL     1      -5.857  -5.882 -12.370  1.00  0.00    -0.272 OA
ATOM     42  G   UNL     1      -5.113  -3.631 -12.677  1.00  0.00     0.000 G0
ENDBRANCH  35  40
ENDBRANCH  31  34
ENDBRANCH   2  30
ENDBRANCH   1   2
BRANCH   1  43
ATOM     43  C   UNL     1      -6.611  -8.844 -16.418  1.00  0.00     0.003 C 
BRANCH  43  44
ATOM     44  C   UNL     1      -6.033 -10.238 -16.133  1.00  0.00     0.001 C 
BRANCH  44  45
ATOM     45  C   UNL     1      -6.216 -10.647 -14.657  1.00  0.00     0.008 C 
BRANCH  45  46
ATOM     46  C   UNL     1      -6.486  -9.443 -13.744  1.00  0.00     0.075 C 
BRANCH  46  47
ATOM     47  C   UNL     1      -5.918  -9.572 -12.349  1.00  0.00     0.132 C 
ATOM     48  O   UNL     1      -6.658  -9.755 -11.388  1.00  0.00    -0.300 OA
BRANCH  47  49
ATOM     49  C   UNL     1      -4.426  -9.490 -12.135  1.00  0.00     0.072 C 
ATOM     50  C   UNL     1      -3.781  -8.581 -13.179  1.00  0.00     0.012 C 
ENDBRANCH  47  49
ENDBRANCH  46  47
ENDBRANCH  45  46
ENDBRANCH  44  45
ENDBRANCH  43  44
ENDBRANCH   1  43
TORSDOF 12
ENDMDL
MODEL 4
REMARK VINA RESULT:     0.143      8.576     12.194
REMARK INTER + INTRA:          -4.809
REMARK INTER:                   0.000
REMARK INTRA:                  -4.809
REMARK UNBOUND:                -5.111
REMARK SMILES CCC(=O)CCCCC[C@H]1NC(=O)[C@H]2CCCCN2C(=O)[C@@H]([C@@H](C)CC)NC(=O)[C@H](Cc2cn(OC)c3ccccc23)NC1=O
REMARK SMILES IDX 9 1 10 2 44 3 43 4 45 6 30 7 28 8 27 9 29 11 22 12 23 14
REMARK SMILES IDX 24 15 25 16 26 17 31 18 32 19 33 20 42 21 34 22 37 23 41 24
REMARK SMILES IDX 38 25 40 26 39 27 35 28 36 29 11 30 12 31 13 33 14 34 19 35
REMARK SMILES IDX 15 36 18 37 16 38 17 39 20 40 21 41 8 43 7 44 6 45 5 46 3 47
REMARK SMILES IDX 4 48 2 49 1 50
REMARK H PARENT 43 5 27 10 11 32
REMARK Flexibility Score: 80.00
ROOT
ATOM      1  C   UNL     1       6.293  -2.964 -12.420  1.00  0.00     0.035 C 
ENDROOT
BRANCH   1   2
ATOM      2  C   UNL     1       5.443  -2.053 -11.517  1.00  0.00     0.171 C 
BRANCH   2   3
ATOM      3  C   UNL     1       4.270  -2.776 -10.906  1.00  0.00     0.243 C 
ATOM      4  N   UNL     1       3.490  -2.135  -9.912  1.00  0.00    -0.342 N 
ATOM      5  H   UNL     1       3.880  -2.026  -8.942  1.00  0.00     0.164 HD
ATOM      6  O   UNL     1       3.907  -3.906 -11.331  1.00  0.00    -0.273 OA
BRANCH   4   7
ATOM      7  C   UNL     1       2.139  -1.670 -10.218  1.00  0.00     0.175 C 
BRANCH   7   8
ATOM      8  C   UNL     1       2.057  -0.182  -9.972  1.00  0.00     0.243 C 
ATOM      9  N   UNL     1       1.336   0.656 -10.880  1.00  0.00    -0.342 N 
ATOM     10  H   UNL     1       0.631   0.161 -11.474  1.00  0.00     0.164 HD
ATOM     11  O   UNL     1       2.622   0.306  -8.954  1.00  0.00    -0.273 OA
BRANCH   9  12
ATOM     12  C   UNL     1       1.907   1.912 -11.395  1.00  0.00     0.174 CG0
ATOM     13  G   UNL     1       2.593   1.679 -12.714  1.00  0.00     0.000 G0
BRANCH  12  14
ATOM     14  C   UNL     1       0.836   3.057 -11.500  1.00  0.00     0.018 C 
ATOM     15  C   UNL     1      -0.617   2.547 -11.599  1.00  0.00     0.010 C 
BRANCH  14  16
ATOM     16  C   UNL     1       1.055   4.133 -10.400  1.00  0.00     0.002 C 
ATOM     17  C   UNL     1       2.515   4.462 -10.083  1.00  0.00     0.004 C 
ENDBRANCH  14  16
ENDBRANCH  12  14
ENDBRANCH   9  12
ENDBRANCH   7   8
BRANCH   7  18
ATOM     18  C   UNL     1       1.131  -2.467  -9.387  1.00  0.00     0.073 C 
BRANCH  18  19
ATOM     19  C   UNL     1       0.187  -3.275 -10.241  1.00  0.00    -0.016 A 
ATOM     20  C   UNL     1       0.311  -4.620 -10.569  1.00  0.00     0.134 A 
ATOM     21  C   UNL     1      -0.925  -2.818 -10.942  1.00  0.00     0.006 A 
ATOM     22  N   UNL     1      -0.672  -4.967 -11.417  1.00  0.00    -0.191 N 
ATOM     23  C   UNL     1      -1.412  -3.879 -11.661  1.00  0.00     0.087 A 
ATOM     24  C   UNL     1      -1.511  -1.563 -11.030  1.00  0.00     0.011 A 
ATOM     25  C   UNL     1      -2.494  -3.755 -12.529  1.00  0.00     0.030 A 
ATOM     26  C   UNL     1      -2.601  -1.407 -11.895  1.00  0.00     0.001 A 
ATOM     27  C   UNL     1      -3.099  -2.497 -12.644  1.00  0.00     0.002 A 
BRANCH  22  28
ATOM     28  O   UNL     1      -0.783  -6.181 -12.063  1.00  0.00    -0.417 OA
ATOM     29  C   UNL     1      -1.432  -7.282 -11.424  1.00  0.00     0.313 C 
ENDBRANCH  22  28
ENDBRANCH  18  19
ENDBRANCH   7  18
ENDBRANCH   4   7
ENDBRANCH   2   3
BRANCH   2  30
ATOM     30  N   UNL     1       4.940  -0.957 -12.344  1.00  0.00    -0.343 N 
ATOM     31  C   UNL     1       5.098   0.426 -11.992  1.00  0.00     0.243 C 
ATOM     32  H   UNL     1       4.465  -1.220 -13.237  1.00  0.00     0.164 HD
ATOM     33  O   UNL     1       5.235   0.756 -10.780  1.00  0.00    -0.273 OA
BRANCH  31  34
ATOM     34  C   UNL     1       5.086   1.517 -13.034  1.00  0.00     0.174 C 
ATOM     35  N   UNL     1       3.833   2.290 -13.065  1.00  0.00    -0.329 N 
ATOM     36  C   UNL     1       5.388   0.982 -14.457  1.00  0.00     0.035 C 
ATOM     37  C   UNL     1       3.837   3.428 -13.995  1.00  0.00     0.120 C 
ATOM     38  C   UNL     1       5.382   2.111 -15.496  1.00  0.00     0.004 C 
ATOM     39  C   UNL     1       4.061   2.917 -15.421  1.00  0.00     0.022 C 
BRANCH  35  40
ATOM     40  C   UNL     1       2.584   1.654 -12.731  1.00  0.00     0.246 CG0
ATOM     41  O   UNL     1       2.030   0.898 -13.571  1.00  0.00    -0.272 OA
ATOM     42  G   UNL     1       1.923   1.899 -11.402  1.00  0.00     0.000 G0
ENDBRANCH  35  40
ENDBRANCH  31  34
ENDBRANCH   2  30
ENDBRANCH   1   2
BRANCH   1  43
ATOM     43  C   UNL     1       6.995  -2.203 -13.559  1.00  0.00     0.003 C 
BRANCH  43  44
ATOM     44  C   UNL     1       6.862  -2.963 -14.887  1.00  0.00     0.001 C 
BRANCH  44  45
ATOM     45  C   UNL     1       5.648  -2.480 -15.708  1.00  0.00     0.008 C 
BRANCH  45  46
ATOM     46  C   UNL     1       4.529  -3.528 -15.773  1.00  0.00     0.075 C 
BRANCH  46  47
ATOM     47  C   UNL     1       3.308  -3.195 -14.946  1.00  0.00     0.132 C 
ATOM     48  O   UNL     1       3.232  -2.129 -14.346  1.00  0.00    -0.300 OA
BRANCH  47  49
ATOM     49  C   UNL     1       2.163  -4.177 -14.868  1.00  0.00     0.072 C 
ATOM     50  C   UNL     1       0.899  -3.490 -14.354  1.00  0.00     0.012 C 
ENDBRANCH  47  49
ENDBRANCH  46  47
ENDBRANCH  45  46
ENDBRANCH  44  45
ENDBRANCH  43  44
ENDBRANCH   1  43
TORSDOF 12
ENDMDL
MODEL 5
REMARK VINA RESULT:     0.165      3.840      8.465
REMARK INTER + INTRA:          -4.763
REMARK INTER:                   0.000
REMARK INTRA:                  -4.763
REMARK UNBOUND:                -5.111
REMARK SMILES CCC(=O)CCCCC[C@H]1NC(=O)[C@H]2CCCCN2C(=O)[C@@H]([C@@H](C)CC)NC(=O)[C@H](Cc2cn(OC)c3ccccc23)NC1=O
REMARK SMILES IDX 9 1 10 2 44 3 43 4 45 6 30 7 28 8 27 9 29 11 22 12 23 14
REMARK SMILES IDX 24 15 25 16 26 17 31 18 32 19 33 20 42 21 34 22 37 23 41 24
REMARK SMILES IDX 38 25 40 26 39 27 35 28 36 29 11 30 12 31 13 33 14 34 19 35
REMARK SMILES IDX 15 36 18 37 16 38 17 39 20 40 21 41 8 43 7 44 6 45 5 46 3 47
REMARK SMILES IDX 4 48 2 49 1 50
REMARK H PARENT 43 5 27 10 11 32
REMARK Flexibility Score: 80.00
ROOT
ATOM      1  C   UNL     1       1.899  -5.855  -9.085  1.00  0.00     0.035 C 
ENDROOT
BRANCH   1   2
ATOM      2  C   UNL     1       1.815  -5.824  -7.548  1.00  0.00     0.171 C 
BRANCH   2   3
ATOM      3  C   UNL     1       0.412  -5.589  -7.051  1.00  0.00     0.243 C 
ATOM      4  N   UNL     1       0.145  -5.626  -5.660  1.00  0.00    -0.342 N 
ATOM      5  H   UNL     1       0.125  -6.552  -5.164  1.00  0.00     0.164 HD
ATOM      6  O   UNL     1      -0.515  -5.262  -7.841  1.00  0.00    -0.273 OA
BRANCH   4   7
ATOM      7  C   UNL     1      -0.146  -4.395  -4.930  1.00  0.00     0.175 C 
BRANCH   7   8
ATOM      8  C   UNL     1       0.876  -4.213  -3.833  1.00  0.00     0.243 C 
ATOM      9  N   UNL     1       1.400  -2.912  -3.548  1.00  0.00    -0.342 N 
ATOM     10  H   UNL     1       0.808  -2.115  -3.882  1.00  0.00     0.164 HD
ATOM     11  O   UNL     1       1.252  -5.218  -3.169  1.00  0.00    -0.273 OA
BRANCH   9  12
ATOM     12  C   UNL     1       2.844  -2.676  -3.389  1.00  0.00     0.174 CG0
ATOM     13  G   UNL     1       3.484  -2.396  -4.722  1.00  0.00     0.000 G0
BRANCH  12  14
ATOM     14  C   UNL     1       3.153  -1.534  -2.353  1.00  0.00     0.018 C 
ATOM     15  C   UNL     1       1.957  -0.597  -2.081  1.00  0.00     0.010 C 
BRANCH  14  16
ATOM     16  C   UNL     1       3.814  -2.107  -1.069  1.00  0.00     0.002 C 
ATOM     17  C   UNL     1       5.312  -2.400  -1.175  1.00  0.00     0.004 C 
ENDBRANCH  14  16
ENDBRANCH  12  14
ENDBRANCH   9  12
ENDBRANCH   7   8
BRANCH   7  18
ATOM     18  C   UNL     1      -1.581  -4.447  -4.402  1.00  0.00     0.073 C 
BRANCH  18  19
ATOM     19  C   UNL     1      -2.560  -3.750  -5.314  1.00  0.00    -0.016 A 
ATOM     20  C   UNL     1      -3.479  -4.357  -6.162  1.00  0.00     0.134 A 
ATOM     21  C   UNL     1      -2.667  -2.385  -5.558  1.00  0.00     0.006 A 
ATOM     22  N   UNL     1      -4.115  -3.416  -6.879  1.00  0.00    -0.191 N 
ATOM     23  C   UNL     1      -3.617  -2.223  -6.532  1.00  0.00     0.087 A 
ATOM     24  C   UNL     1      -1.985  -1.295  -5.032  1.00  0.00     0.011 A 
ATOM     25  C   UNL     1      -3.933  -0.975  -7.063  1.00  0.00     0.030 A 
ATOM     26  C   UNL     1      -2.281  -0.027  -5.547  1.00  0.00     0.001 A 
ATOM     27  C   UNL     1      -3.254   0.141  -6.558  1.00  0.00     0.002 A 
BRANCH  22  28
ATOM     28  O   UNL     1      -4.990  -3.654  -7.919  1.00  0.00    -0.417 OA
ATOM     29  C   UNL     1      -4.624  -4.535  -8.983  1.00  0.00     0.313 C 
ENDBRANCH  22  28
ENDBRANCH  18  19
ENDBRANCH   7  18
ENDBRANCH   4   7
ENDBRANCH   2   3
BRANCH   2  30
ATOM     30  N   UNL     1       2.668  -4.733  -7.081  1.00  0.00    -0.343 N 
ATOM     31  C   UNL     1       3.737  -4.923  -6.141  1.00  0.00     0.243 C 
ATOM     32  H   UNL     1       2.483  -3.785  -7.480  1.00  0.00     0.164 HD
ATOM     33  O   UNL     1       3.699  -5.891  -5.330  1.00  0.00    -0.273 OA
BRANCH  31  34
ATOM     34  C   UNL     1       4.913  -3.980  -6.075  1.00  0.00     0.174 C 
ATOM     35  N   UNL     1       4.768  -2.925  -5.058  1.00  0.00    -0.329 N 
ATOM     36  C   UNL     1       5.227  -3.325  -7.445  1.00  0.00     0.035 C 
ATOM     37  C   UNL     1       5.945  -2.060  -4.899  1.00  0.00     0.120 C 
ATOM     38  C   UNL     1       6.432  -2.381  -7.355  1.00  0.00     0.004 C 
ATOM     39  C   UNL     1       6.233  -1.344  -6.221  1.00  0.00     0.022 C 
BRANCH  35  40
ATOM     40  C   UNL     1       3.463  -2.408  -4.736  1.00  0.00     0.246 CG0
ATOM     41  O   UNL     1       2.845  -1.712  -5.584  1.00  0.00    -0.272 OA
ATOM     42  G   UNL     1       2.837  -2.670  -3.393  1.00  0.00     0.000 G0
ENDBRANCH  35  40
ENDBRANCH  31  34
ENDBRANCH   2  30
ENDBRANCH   1   2
BRANCH   1  43
ATOM     43  C   UNL     1       3.306  -5.536  -9.620  1.00  0.00     0.003 C 
BRANCH  43  44
ATOM     44  C   UNL     1       3.233  -4.551 -10.797  1.00  0.00     0.001 C 
BRANCH  44  45
ATOM     45  C   UNL     1       1.802  -4.014 -11.011  1.00  0.00     0.008 C 
BRANCH  45  46
ATOM     46  C   UNL     1       1.730  -2.484 -10.912  1.00  0.00     0.075 C 
BRANCH  46  47
ATOM     47  C   UNL     1       1.935  -1.935  -9.519  1.00  0.00     0.132 C 
ATOM     48  O   UNL     1       1.309  -2.393  -8.569  1.00  0.00    -0.300 OA
BRANCH  47  49
ATOM     49  C   UNL     1       2.928  -0.821  -9.289  1.00  0.00     0.072 C 
ATOM     50  C   UNL     1       4.040  -0.866 -10.335  1.00  0.00     0.012 C 
ENDBRANCH  47  49
ENDBRANCH  46  47
ENDBRANCH  45  46
ENDBRANCH  44  45
ENDBRANCH  43  44
ENDBRANCH   1  43
TORSDOF 12
ENDMDL
MODEL 6
REMARK VINA RESULT:     0.188      8.047     11.726
REMARK INTER + INTRA:          -4.714
REMARK INTER:                   0.000
REMARK INTRA:                  -4.714
REMARK UNBOUND:                -5.111
REMARK SMILES CCC(=O)CCCCC[C@H]1NC(=O)[C@H]2CCCCN2C(=O)[C@@H]([C@@H](C)CC)NC(=O)[C@H](Cc2cn(OC)c3ccccc23)NC1=O
REMARK SMILES IDX 9 1 10 2 44 3 43 4 45 6 30 7 28 8 27 9 29 11 22 12 23 14
REMARK SMILES IDX 24 15 25 16 26 17 31 18 32 19 33 20 42 21 34 22 37 23 41 24
REMARK SMILES IDX 38 25 40 26 39 27 35 28 36 29 11 30 12 31 13 33 14 34 19 35
REMARK SMILES IDX 15 36 18 37 16 38 17 39 20 40 21 41 8 43 7 44 6 45 5 46 3 47
REMARK SMILES IDX 4 48 2 49 1 50
REMARK H PARENT 43 5 27 10 11 32
REMARK Flexibility Score: 80.00
ROOT
ATOM      1  C   UNL     1      -7.294  -5.639 -11.336  1.00  0.00     0.035 C 
ENDROOT
BRANCH   1   2
ATOM      2  C   UNL     1      -6.156  -6.532 -10.810  1.00  0.00     0.171 C 
BRANCH   2   3
ATOM      3  C   UNL     1      -5.039  -5.737 -10.186  1.00  0.00     0.243 C 
ATOM      4  N   UNL     1      -3.942  -6.412  -9.595  1.00  0.00    -0.342 N 
ATOM      5  H   UNL     1      -4.070  -6.890  -8.668  1.00  0.00     0.164 HD
ATOM      6  O   UNL     1      -5.010  -4.479 -10.263  1.00  0.00    -0.273 OA
BRANCH   4   7
ATOM      7  C   UNL     1      -2.633  -6.406 -10.245  1.00  0.00     0.175 C 
BRANCH   7   8
ATOM      8  C   UNL     1      -2.226  -7.826 -10.557  1.00  0.00     0.243 C 
ATOM      9  N   UNL     1      -1.556  -8.127 -11.786  1.00  0.00    -0.342 N 
ATOM     10  H   UNL     1      -1.090  -7.310 -12.245  1.00  0.00     0.164 HD
ATOM     11  O   UNL     1      -2.475  -8.736  -9.719  1.00  0.00    -0.273 OA
BRANCH   9  12
ATOM     12  C   UNL     1      -1.973  -9.251 -12.640  1.00  0.00     0.174 CG0
ATOM     13  G   UNL     1      -3.129  -8.849 -13.515  1.00  0.00     0.000 G0
BRANCH  12  14
ATOM     14  C   UNL     1      -0.783  -9.828 -13.490  1.00  0.00     0.018 C 
ATOM     15  C   UNL     1       0.423  -8.873 -13.608  1.00  0.00     0.010 C 
BRANCH  14  16
ATOM     16  C   UNL     1      -0.410 -11.265 -13.029  1.00  0.00     0.002 C 
ATOM     17  C   UNL     1      -1.289 -11.849 -11.921  1.00  0.00     0.004 C 
ENDBRANCH  14  16
ENDBRANCH  12  14
ENDBRANCH   9  12
ENDBRANCH   7   8
BRANCH   7  18
ATOM     18  C   UNL     1      -1.627  -5.682  -9.347  1.00  0.00     0.073 C 
BRANCH  18  19
ATOM     19  C   UNL     1      -1.417  -4.245  -9.752  1.00  0.00    -0.016 A 
ATOM     20  C   UNL     1      -1.908  -3.120  -9.100  1.00  0.00     0.134 A 
ATOM     21  C   UNL     1      -0.786  -3.770 -10.897  1.00  0.00     0.006 A 
ATOM     22  N   UNL     1      -1.590  -2.020  -9.803  1.00  0.00    -0.191 N 
ATOM     23  C   UNL     1      -0.927  -2.407 -10.899  1.00  0.00     0.087 A 
ATOM     24  C   UNL     1      -0.141  -4.427 -11.937  1.00  0.00     0.011 A 
ATOM     25  C   UNL     1      -0.460  -1.613 -11.944  1.00  0.00     0.030 A 
ATOM     26  C   UNL     1       0.338  -3.655 -13.003  1.00  0.00     0.001 A 
ATOM     27  C   UNL     1       0.185  -2.249 -13.012  1.00  0.00     0.002 A 
BRANCH  22  28
ATOM     28  O   UNL     1      -2.032  -0.741  -9.535  1.00  0.00    -0.417 OA
ATOM     29  C   UNL     1      -3.030  -0.516  -8.538  1.00  0.00     0.313 C 
ENDBRANCH  22  28
ENDBRANCH  18  19
ENDBRANCH   7  18
ENDBRANCH   4   7
ENDBRANCH   2   3
BRANCH   2  30
ATOM     30  N   UNL     1      -5.621  -7.280 -11.947  1.00  0.00    -0.343 N 
ATOM     31  C   UNL     1      -5.608  -8.715 -12.004  1.00  0.00     0.243 C 
ATOM     32  H   UNL     1      -5.257  -6.720 -12.751  1.00  0.00     0.164 HD
ATOM     33  O   UNL     1      -5.602  -9.388 -10.934  1.00  0.00    -0.273 OA
BRANCH  31  34
ATOM     34  C   UNL     1      -5.579  -9.458 -13.317  1.00  0.00     0.174 C 
ATOM     35  N   UNL     1      -4.220  -9.742 -13.805  1.00  0.00    -0.329 N 
ATOM     36  C   UNL     1      -6.377  -8.729 -14.429  1.00  0.00     0.035 C 
ATOM     37  C   UNL     1      -4.164 -10.559 -15.025  1.00  0.00     0.120 C 
ATOM     38  C   UNL     1      -6.343  -9.509 -15.749  1.00  0.00     0.004 C 
ATOM     39  C   UNL     1      -4.883  -9.826 -16.161  1.00  0.00     0.022 C 
BRANCH  35  40
ATOM     40  C   UNL     1      -3.144  -8.828 -13.517  1.00  0.00     0.246 CG0
ATOM     41  O   UNL     1      -3.162  -7.672 -14.015  1.00  0.00    -0.272 OA
ATOM     42  G   UNL     1      -1.989  -9.244 -12.647  1.00  0.00     0.000 G0
ENDBRANCH  35  40
ENDBRANCH  31  34
ENDBRANCH   2  30
ENDBRANCH   1   2
BRANCH   1  43
ATOM     43  C   UNL     1      -7.283  -5.482 -12.867  1.00  0.00     0.003 C 
BRANCH  43  44
ATOM     44  C   UNL     1      -7.388  -4.003 -13.266  1.00  0.00     0.001 C 
BRANCH  44  45
ATOM     45  C   UNL     1      -7.128  -3.793 -14.773  1.00  0.00     0.008 C 
BRANCH  45  46
ATOM     46  C   UNL     1      -5.913  -2.895 -15.039  1.00  0.00     0.075 C 
BRANCH  46  47
ATOM     47  C   UNL     1      -4.657  -3.639 -15.435  1.00  0.00     0.132 C 
ATOM     48  O   UNL     1      -4.362  -3.781 -16.616  1.00  0.00    -0.300 OA
BRANCH  47  49
ATOM     49  C   UNL     1      -3.750  -4.201 -14.367  1.00  0.00     0.072 C 
ATOM     50  C   UNL     1      -3.583  -3.205 -13.221  1.00  0.00     0.012 C 
ENDBRANCH  47  49
ENDBRANCH  46  47
ENDBRANCH  45  46
ENDBRANCH  44  45
ENDBRANCH  43  44
ENDBRANCH   1  43
TORSDOF 12
ENDMDL
MODEL 7
REMARK VINA RESULT:     0.207      6.574     10.125
REMARK INTER + INTRA:          -4.674
REMARK INTER:                   0.000
REMARK INTRA:                  -4.674
REMARK UNBOUND:                -5.111
REMARK SMILES CCC(=O)CCCCC[C@H]1NC(=O)[C@H]2CCCCN2C(=O)[C@@H]([C@@H](C)CC)NC(=O)[C@H](Cc2cn(OC)c3ccccc23)NC1=O
REMARK SMILES IDX 9 1 10 2 44 3 43 4 45 6 30 7 28 8 27 9 29 11 22 12 23 14
REMARK SMILES IDX 24 15 25 16 26 17 31 18 32 19 33 20 42 21 34 22 37 23 41 24
REMARK SMILES IDX 38 25 40 26 39 27 35 28 36 29 11 30 12 31 13 33 14 34 19 35
REMARK SMILES IDX 15 36 18 37 16 38 17 39 20 40 21 41 8 43 7 44 6 45 5 46 3 47
REMARK SMILES IDX 4 48 2 49 1 50
REMARK H PARENT 43 5 27 10 11 32
REMARK Flexibility Score: 80.00
ROOT
ATOM      1  C   UNL     1       0.274  -1.039  -6.438  1.00  0.00     0.035 C 
ENDROOT
BRANCH   1   2
ATOM      2  C   UNL     1      -0.242  -1.765  -7.693  1.00  0.00     0.171 C 
BRANCH   2   3
ATOM      3  C   UNL     1       0.258  -3.184  -7.785  1.00  0.00     0.243 C 
ATOM      4  N   UNL     1      -0.317  -4.070  -8.730  1.00  0.00    -0.342 N 
ATOM      5  H   UNL     1      -1.277  -4.459  -8.554  1.00  0.00     0.164 HD
ATOM      6  O   UNL     1       1.245  -3.574  -7.106  1.00  0.00    -0.273 OA
BRANCH   4   7
ATOM      7  C   UNL     1       0.434  -4.476  -9.916  1.00  0.00     0.175 C 
BRANCH   7   8
ATOM      8  C   UNL     1      -0.306  -4.026 -11.152  1.00  0.00     0.243 C 
ATOM      9  N   UNL     1       0.405  -3.405 -12.228  1.00  0.00    -0.342 N 
ATOM     10  H   UNL     1       1.434  -3.596 -12.245  1.00  0.00     0.164 HD
ATOM     11  O   UNL     1      -1.552  -4.215 -11.227  1.00  0.00    -0.273 OA
BRANCH   9  12
ATOM     12  C   UNL     1      -0.075  -2.164 -12.859  1.00  0.00     0.174 CG0
ATOM     13  G   UNL     1       0.717  -0.982 -12.370  1.00  0.00     0.000 G0
BRANCH  12  14
ATOM     14  C   UNL     1      -0.067  -2.251 -14.429  1.00  0.00     0.018 C 
ATOM     15  C   UNL     1       0.812  -3.389 -14.988  1.00  0.00     0.010 C 
BRANCH  14  16
ATOM     16  C   UNL     1      -1.513  -2.229 -14.999  1.00  0.00     0.002 C 
ATOM     17  C   UNL     1      -1.992  -3.540 -15.625  1.00  0.00     0.004 C 
ENDBRANCH  14  16
ENDBRANCH  12  14
ENDBRANCH   9  12
ENDBRANCH   7   8
BRANCH   7  18
ATOM     18  C   UNL     1       0.662  -5.989  -9.875  1.00  0.00     0.073 C 
BRANCH  18  19
ATOM     19  C   UNL     1       2.121  -6.358  -9.962  1.00  0.00    -0.016 A 
ATOM     20  C   UNL     1       2.921  -6.824  -8.926  1.00  0.00     0.134 A 
ATOM     21  C   UNL     1       2.969  -6.213 -11.055  1.00  0.00     0.006 A 
ATOM     22  N   UNL     1       4.185  -6.961  -9.361  1.00  0.00    -0.191 N 
ATOM     23  C   UNL     1       4.225  -6.577 -10.643  1.00  0.00     0.087 A 
ATOM     24  C   UNL     1       2.742  -5.760 -12.348  1.00  0.00     0.011 A 
ATOM     25  C   UNL     1       5.336  -6.491 -11.478  1.00  0.00     0.030 A 
ATOM     26  C   UNL     1       3.841  -5.662 -13.211  1.00  0.00     0.001 A 
ATOM     27  C   UNL     1       5.138  -6.028 -12.785  1.00  0.00     0.002 A 
BRANCH  22  28
ATOM     28  O   UNL     1       5.277  -7.265  -8.575  1.00  0.00    -0.417 OA
ATOM     29  C   UNL     1       5.100  -7.624  -7.203  1.00  0.00     0.313 C 
ENDBRANCH  22  28
ENDBRANCH  18  19
ENDBRANCH   7  18
ENDBRANCH   4   7
ENDBRANCH   2   3
BRANCH   2  30
ATOM     30  N   UNL     1       0.235  -1.023  -8.859  1.00  0.00    -0.343 N 
ATOM     31  C   UNL     1      -0.645  -0.502  -9.868  1.00  0.00     0.243 C 
ATOM     32  H   UNL     1       1.265  -0.860  -8.927  1.00  0.00     0.164 HD
ATOM     33  O   UNL     1      -1.771  -1.042 -10.062  1.00  0.00    -0.273 OA
BRANCH  31  34
ATOM     34  C   UNL     1      -0.256   0.674 -10.731  1.00  0.00     0.174 C 
ATOM     35  N   UNL     1       0.108   0.301 -12.108  1.00  0.00    -0.329 N 
ATOM     36  C   UNL     1       0.892   1.511 -10.110  1.00  0.00     0.035 C 
ATOM     37  C   UNL     1       0.385   1.437 -12.998  1.00  0.00     0.120 C 
ATOM     38  C   UNL     1       1.261   2.705 -10.999  1.00  0.00     0.004 C 
ATOM     39  C   UNL     1       1.565   2.240 -12.445  1.00  0.00     0.022 C 
BRANCH  35  40
ATOM     40  C   UNL     1       0.731  -0.971 -12.370  1.00  0.00     0.246 CG0
ATOM     41  O   UNL     1       1.970  -1.102 -12.196  1.00  0.00    -0.272 OA
ATOM     42  G   UNL     1      -0.076  -2.139 -12.870  1.00  0.00     0.000 G0
ENDBRANCH  35  40
ENDBRANCH  31  34
ENDBRANCH   2  30
ENDBRANCH   1   2
BRANCH   1  43
ATOM     43  C   UNL     1       1.307   0.058  -6.754  1.00  0.00     0.003 C 
BRANCH  43  44
ATOM     44  C   UNL     1       2.736  -0.451  -6.511  1.00  0.00     0.001 C 
BRANCH  44  45
ATOM     45  C   UNL     1       3.741   0.156  -7.512  1.00  0.00     0.008 C 
BRANCH  45  46
ATOM     46  C   UNL     1       4.664  -0.903  -8.130  1.00  0.00     0.075 C 
BRANCH  46  47
ATOM     47  C   UNL     1       3.946  -2.005  -8.876  1.00  0.00     0.132 C 
ATOM     48  O   UNL     1       3.043  -1.741  -9.662  1.00  0.00    -0.300 OA
BRANCH  47  49
ATOM     49  C   UNL     1       4.351  -3.444  -8.663  1.00  0.00     0.072 C 
ATOM     50  C   UNL     1       4.613  -3.717  -7.183  1.00  0.00     0.012 C 
ENDBRANCH  47  49
ENDBRANCH  46  47
ENDBRANCH  45  46
ENDBRANCH  44  45
ENDBRANCH  43  44
ENDBRANCH   1  43
TORSDOF 12
ENDMDL
MODEL 8
REMARK VINA RESULT:     0.252      5.476      8.787
REMARK INTER + INTRA:          -4.578
REMARK INTER:                   0.000
REMARK INTRA:                  -4.578
REMARK UNBOUND:                -5.111
REMARK SMILES CCC(=O)CCCCC[C@H]1NC(=O)[C@H]2CCCCN2C(=O)[C@@H]([C@@H](C)CC)NC(=O)[C@H](Cc2cn(OC)c3ccccc23)NC1=O
REMARK SMILES IDX 9 1 10 2 44 3 43 4 45 6 30 7 28 8 27 9 29 11 22 12 23 14
REMARK SMILES IDX 24 15 25 16 26 17 31 18 32 19 33 20 42 21 34 22 37 23 41 24
REMARK SMILES IDX 38 25 40 26 39 27 35 28 36 29 11 30 12 31 13 33 14 34 19 35
REMARK SMILES IDX 15 36 18 37 16 38 17 39 20 40 21 41 8 43 7 44 6 45 5 46 3 47
REMARK SMILES IDX 4 48 2 49 1 50
REMARK H PARENT 43 5 27 10 11 32
REMARK Flexibility Score: 80.00
ROOT
ATOM      1  C   UNL     1       4.798  -3.448  -8.115  1.00  0.00     0.035 C 
ENDROOT
BRANCH   1   2
ATOM      2  C   UNL     1       4.824  -4.422  -6.925  1.00  0.00     0.171 C 
BRANCH   2   3
ATOM      3  C   UNL     1       4.896  -5.864  -7.358  1.00  0.00     0.243 C 
ATOM      4  N   UNL     1       5.156  -6.873  -6.398  1.00  0.00    -0.342 N 
ATOM      5  H   UNL     1       6.129  -6.979  -6.013  1.00  0.00     0.164 HD
ATOM      6  O   UNL     1       4.633  -6.203  -8.543  1.00  0.00    -0.273 OA
BRANCH   4   7
ATOM      7  C   UNL     1       4.097  -7.788  -5.981  1.00  0.00     0.175 C 
BRANCH   7   8
ATOM      8  C   UNL     1       3.856  -7.627  -4.499  1.00  0.00     0.243 C 
ATOM      9  N   UNL     1       2.519  -7.583  -3.990  1.00  0.00    -0.342 N 
ATOM     10  H   UNL     1       1.792  -7.996  -4.621  1.00  0.00     0.164 HD
ATOM     11  O   UNL     1       4.845  -7.543  -3.720  1.00  0.00    -0.273 OA
BRANCH   9  12
ATOM     12  C   UNL     1       2.090  -6.554  -3.028  1.00  0.00     0.174 CG0
ATOM     13  G   UNL     1       1.348  -5.450  -3.732  1.00  0.00     0.000 G0
BRANCH  12  14
ATOM     14  C   UNL     1       1.241  -7.155  -1.850  1.00  0.00     0.018 C 
ATOM     15  C   UNL     1       0.805  -8.618  -2.075  1.00  0.00     0.010 C 
BRANCH  14  16
ATOM     16  C   UNL     1       1.929  -6.904  -0.479  1.00  0.00     0.002 C 
ATOM     17  C   UNL     1       3.408  -7.288  -0.405  1.00  0.00     0.004 C 
ENDBRANCH  14  16
ENDBRANCH  12  14
ENDBRANCH   9  12
ENDBRANCH   7   8
BRANCH   7  18
ATOM     18  C   UNL     1       4.482  -9.217  -6.370  1.00  0.00     0.073 C 
BRANCH  18  19
ATOM     19  C   UNL     1       3.673  -9.740  -7.530  1.00  0.00    -0.016 A 
ATOM     20  C   UNL     1       4.073  -9.797  -8.860  1.00  0.00     0.134 A 
ATOM     21  C   UNL     1       2.350 -10.169  -7.517  1.00  0.00     0.006 A 
ATOM     22  N   UNL     1       3.055 -10.241  -9.616  1.00  0.00    -0.191 N 
ATOM     23  C   UNL     1       2.005 -10.451  -8.813  1.00  0.00     0.087 A 
ATOM     24  C   UNL     1       1.429 -10.295  -6.485  1.00  0.00     0.011 A 
ATOM     25  C   UNL     1       0.719 -10.851  -9.170  1.00  0.00     0.030 A 
ATOM     26  C   UNL     1       0.127 -10.694  -6.814  1.00  0.00     0.001 A 
ATOM     27  C   UNL     1      -0.233 -10.977  -8.151  1.00  0.00     0.002 A 
BRANCH  22  28
ATOM     28  O   UNL     1       3.041 -10.291 -10.995  1.00  0.00    -0.417 OA
ATOM     29  C   UNL     1       4.231 -10.611 -11.717  1.00  0.00     0.313 C 
ENDBRANCH  22  28
ENDBRANCH  18  19
ENDBRANCH   7  18
ENDBRANCH   4   7
ENDBRANCH   2   3
BRANCH   2  30
ATOM     30  N   UNL     1       3.591  -4.222  -6.164  1.00  0.00    -0.343 N 
ATOM     31  C   UNL     1       3.578  -3.894  -4.766  1.00  0.00     0.243 C 
ATOM     32  H   UNL     1       2.692  -4.308  -6.690  1.00  0.00     0.164 HD
ATOM     33  O   UNL     1       4.554  -4.222  -4.032  1.00  0.00    -0.273 OA
BRANCH  31  34
ATOM     34  C   UNL     1       2.414  -3.176  -4.129  1.00  0.00     0.174 C 
ATOM     35  N   UNL     1       1.531  -4.059  -3.349  1.00  0.00    -0.329 N 
ATOM     36  C   UNL     1       1.564  -2.391  -5.161  1.00  0.00     0.035 C 
ATOM     37  C   UNL     1       0.452  -3.369  -2.630  1.00  0.00     0.120 C 
ATOM     38  C   UNL     1       0.394  -1.662  -4.489  1.00  0.00     0.004 C 
ATOM     39  C   UNL     1      -0.447  -2.645  -3.636  1.00  0.00     0.022 C 
BRANCH  35  40
ATOM     40  C   UNL     1       1.350  -5.432  -3.747  1.00  0.00     0.246 CG0
ATOM     41  O   UNL     1       0.563  -5.706  -4.690  1.00  0.00    -0.272 OA
ATOM     42  G   UNL     1       2.071  -6.545  -3.036  1.00  0.00     0.000 G0
ENDBRANCH  35  40
ENDBRANCH  31  34
ENDBRANCH   2  30
ENDBRANCH   1   2
BRANCH   1  43
ATOM     43  C   UNL     1       3.611  -2.469  -8.072  1.00  0.00     0.003 C 
BRANCH  43  44
ATOM     44  C   UNL     1       2.642  -2.732  -9.235  1.00  0.00     0.001 C 
BRANCH  44  45
ATOM     45  C   UNL     1       1.234  -2.170  -8.949  1.00  0.00     0.008 C 
BRANCH  45  46
ATOM     46  C   UNL     1       0.242  -3.262  -8.527  1.00  0.00     0.075 C 
BRANCH  46  47
ATOM     47  C   UNL     1       0.549  -4.637  -9.077  1.00  0.00     0.132 C 
ATOM     48  O   UNL     1       0.427  -4.870 -10.275  1.00  0.00    -0.300 OA
BRANCH  47  49
ATOM     49  C   UNL     1       1.022  -5.730  -8.149  1.00  0.00     0.072 C 
ATOM     50  C   UNL     1       1.191  -7.045  -8.907  1.00  0.00     0.012 C 
ENDBRANCH  47  49
ENDBRANCH  46  47
ENDBRANCH  45  46
ENDBRANCH  44  45
ENDBRANCH  43  44
ENDBRANCH   1  43
TORSDOF 12
ENDMDL
MODEL 9
REMARK VINA RESULT:     0.269     10.570     15.276
REMARK INTER + INTRA:          -4.542
REMARK INTER:                   0.000
REMARK INTRA:                  -4.542
REMARK UNBOUND:                -5.111
REMARK SMILES CCC(=O)CCCCC[C@H]1NC(=O)[C@H]2CCCCN2C(=O)[C@@H]([C@@H](C)CC)NC(=O)[C@H](Cc2cn(OC)c3ccccc23)NC1=O
REMARK SMILES IDX 9 1 10 2 44 3 43 4 45 6 30 7 28 8 27 9 29 11 22 12 23 14
REMARK SMILES IDX 24 15 25 16 26 17 31 18 32 19 33 20 42 21 34 22 37 23 41 24
REMARK SMILES IDX 38 25 40 26 39 27 35 28 36 29 11 30 12 31 13 33 14 34 19 35
REMARK SMILES IDX 15 36 18 37 16 38 17 39 20 40 21 41 8 43 7 44 6 45 5 46 3 47
REMARK SMILES IDX 4 48 2 49 1 50
REMARK H PARENT 43 5 27 10 11 32
REMARK Flexibility Score: 80.00
ROOT
ATOM      1  C   UNL     1       4.295   5.743 -12.423  1.00  0.00     0.035 C 
ENDROOT
BRANCH   1   2
ATOM      2  C   UNL     1       4.627   4.753 -13.554  1.00  0.00     0.171 C 
BRANCH   2   3
ATOM      3  C   UNL     1       3.614   4.788 -14.669  1.00  0.00     0.243 C 
ATOM      4  N   UNL     1       3.883   4.108 -15.883  1.00  0.00    -0.342 N 
ATOM      5  H   UNL     1       4.582   4.512 -16.556  1.00  0.00     0.164 HD
ATOM      6  O   UNL     1       2.486   5.329 -14.511  1.00  0.00    -0.273 OA
BRANCH   4   7
ATOM      7  C   UNL     1       3.163   2.882 -16.219  1.00  0.00     0.175 C 
BRANCH   7   8
ATOM      8  C   UNL     1       4.148   1.745 -16.344  1.00  0.00     0.243 C 
ATOM      9  N   UNL     1       3.846   0.467 -15.774  1.00  0.00    -0.342 N 
ATOM     10  H   UNL     1       2.829   0.293 -15.596  1.00  0.00     0.164 HD
ATOM     11  O   UNL     1       5.232   1.934 -16.963  1.00  0.00    -0.273 OA
BRANCH   9  12
ATOM     12  C   UNL     1       4.823  -0.266 -14.953  1.00  0.00     0.174 CG0
ATOM     13  G   UNL     1       4.549  -0.052 -13.489  1.00  0.00     0.000 G0
BRANCH  12  14
ATOM     14  C   UNL     1       4.875  -1.796 -15.309  1.00  0.00     0.018 C 
ATOM     15  C   UNL     1       3.787  -2.243 -16.307  1.00  0.00     0.010 C 
BRANCH  14  16
ATOM     16  C   UNL     1       6.314  -2.231 -15.705  1.00  0.00     0.002 C 
ATOM     17  C   UNL     1       6.602  -2.262 -17.207  1.00  0.00     0.004 C 
ENDBRANCH  14  16
ENDBRANCH  12  14
ENDBRANCH   9  12
ENDBRANCH   7   8
BRANCH   7  18
ATOM     18  C   UNL     1       2.350   3.108 -17.495  1.00  0.00     0.073 C 
BRANCH  18  19
ATOM     19  C   UNL     1       0.865   2.973 -17.268  1.00  0.00    -0.016 A 
ATOM     20  C   UNL     1       0.122   1.799 -17.320  1.00  0.00     0.134 A 
ATOM     21  C   UNL     1      -0.058   3.993 -17.063  1.00  0.00     0.006 A 
ATOM     22  N   UNL     1      -1.180   2.085 -17.152  1.00  0.00    -0.191 N 
ATOM     23  C   UNL     1      -1.298   3.410 -17.013  1.00  0.00     0.087 A 
ATOM     24  C   UNL     1       0.093   5.369 -16.956  1.00  0.00     0.011 A 
ATOM     25  C   UNL     1      -2.465   4.158 -16.880  1.00  0.00     0.030 A 
ATOM     26  C   UNL     1      -1.063   6.147 -16.822  1.00  0.00     0.001 A 
ATOM     27  C   UNL     1      -2.344   5.550 -16.780  1.00  0.00     0.002 A 
BRANCH  22  28
ATOM     28  O   UNL     1      -2.222   1.190 -17.285  1.00  0.00    -0.417 OA
ATOM     29  C   UNL     1      -2.543   0.293 -16.220  1.00  0.00     0.313 C 
ENDBRANCH  22  28
ENDBRANCH  18  19
ENDBRANCH   7  18
ENDBRANCH   4   7
ENDBRANCH   2   3
BRANCH   2  30
ATOM     30  N   UNL     1       4.642   3.411 -12.975  1.00  0.00    -0.343 N 
ATOM     31  C   UNL     1       5.781   2.539 -13.049  1.00  0.00     0.243 C 
ATOM     32  H   UNL     1       3.779   3.104 -12.472  1.00  0.00     0.164 HD
ATOM     33  O   UNL     1       6.617   2.673 -13.987  1.00  0.00    -0.273 OA
BRANCH  31  34
ATOM     34  C   UNL     1       6.006   1.439 -12.041  1.00  0.00     0.174 C 
ATOM     35  N   UNL     1       5.634   0.102 -12.532  1.00  0.00    -0.329 N 
ATOM     36  C   UNL     1       5.280   1.708 -10.697  1.00  0.00     0.035 C 
ATOM     37  C   UNL     1       5.945  -0.999 -11.610  1.00  0.00     0.120 C 
ATOM     38  C   UNL     1       5.533   0.583  -9.686  1.00  0.00     0.004 C 
ATOM     39  C   UNL     1       5.180  -0.796 -10.300  1.00  0.00     0.022 C 
BRANCH  35  40
ATOM     40  C   UNL     1       4.551  -0.046 -13.470  1.00  0.00     0.246 CG0
ATOM     41  O   UNL     1       3.362  -0.004 -13.057  1.00  0.00    -0.272 OA
ATOM     42  G   UNL     1       4.820  -0.272 -14.933  1.00  0.00     0.000 G0
ENDBRANCH  35  40
ENDBRANCH  31  34
ENDBRANCH   2  30
ENDBRANCH   1   2
BRANCH   1  43
ATOM     43  C   UNL     1       3.907   5.049 -11.105  1.00  0.00     0.003 C 
BRANCH  43  44
ATOM     44  C   UNL     1       2.615   5.649 -10.531  1.00  0.00     0.001 C 
BRANCH  44  45
ATOM     45  C   UNL     1       1.396   5.361 -11.433  1.00  0.00     0.008 C 
BRANCH  45  46
ATOM     46  C   UNL     1       0.612   4.122 -10.980  1.00  0.00     0.075 C 
BRANCH  46  47
ATOM     47  C   UNL     1       1.217   2.805 -11.409  1.00  0.00     0.132 C 
ATOM     48  O   UNL     1       1.708   2.677 -12.525  1.00  0.00    -0.300 OA
BRANCH  47  49
ATOM     49  C   UNL     1       1.230   1.637 -10.452  1.00  0.00     0.072 C 
ATOM     50  C   UNL     1       1.954   2.007  -9.159  1.00  0.00     0.012 C 
ENDBRANCH  47  49
ENDBRANCH  46  47
ENDBRANCH  45  46
ENDBRANCH  44  45
ENDBRANCH  43  44
ENDBRANCH   1  43
TORSDOF 12
ENDMDL
