MODEL 1
REMARK VINA RESULT:    -4.988      0.000      0.000
REMARK INTER + INTRA:          -8.757
REMARK INTER:                  -7.029
REMARK INTRA:                  -1.728
REMARK UNBOUND:                -1.728
REMARK SMILES C=CC(=C)CCC=C(C)CCC=C(C)C
REMARK SMILES IDX 8 1 7 2 9 3 10 4 11 5 12 6 14 7 13 8 15 9 6 10 5 11 3 12
REMARK SMILES IDX 4 13 2 14 1 15
REMARK H PARENT
REMARK Flexibility Score: inf
ROOT
ATOM      1  C   UNL     1      -1.596   0.487  13.453  1.00  0.00    -0.077 C 
ATOM      2  C   UNL     1      -1.029   0.488  12.225  1.00  0.00    -0.028 C 
ATOM      3  C   UNL     1      -1.949  -0.839  14.079  1.00  0.00     0.039 C 
ENDROOT
BRANCH   1   4
ATOM      4  C   UNL     1      -1.912   1.764  14.211  1.00  0.00     0.034 C 
BRANCH   4   5
ATOM      5  C   UNL     1      -0.794   2.140  15.197  1.00  0.00     0.032 C 
BRANCH   5   6
ATOM      6  C   UNL     1       0.239   3.039  14.562  1.00  0.00    -0.028 C 
ATOM      7  C   UNL     1       1.282   5.151  13.867  1.00  0.00     0.039 C 
ATOM      8  C   UNL     1       0.205   4.389  14.594  1.00  0.00    -0.080 C 
ATOM      9  C   UNL     1      -0.864   5.146  15.346  1.00  0.00     0.039 C 
ENDBRANCH   5   6
ENDBRANCH   4   5
ENDBRANCH   1   4
BRANCH   2  10
ATOM     10  C   UNL     1      -0.598   1.740  11.501  1.00  0.00     0.032 C 
BRANCH  10  11
ATOM     11  C   UNL     1      -1.766   2.366  10.730  1.00  0.00     0.039 C 
BRANCH  11  12
ATOM     12  C   UNL     1      -1.788   3.868  10.913  1.00  0.00    -0.055 C 
ATOM     13  C   UNL     1      -0.663   4.563  10.717  1.00  0.00     0.012 C 
BRANCH  12  14
ATOM     14  C   UNL     1      -3.008   4.595  11.350  1.00  0.00    -0.005 C 
ATOM     15  C   UNL     1      -3.323   4.823  12.626  1.00  0.00     0.009 C 
ENDBRANCH  12  14
ENDBRANCH  11  12
ENDBRANCH  10  11
ENDBRANCH   2  10
TORSDOF 7
ENDMDL
MODEL 2
REMARK VINA RESULT:    -4.948      1.029      3.768
REMARK INTER + INTRA:          -8.700
REMARK INTER:                  -6.784
REMARK INTRA:                  -1.916
REMARK UNBOUND:                -1.728
REMARK SMILES C=CC(=C)CCC=C(C)CCC=C(C)C
REMARK SMILES IDX 8 1 7 2 9 3 10 4 11 5 12 6 14 7 13 8 15 9 6 10 5 11 3 12
REMARK SMILES IDX 4 13 2 14 1 15
REMARK H PARENT
REMARK Flexibility Score: inf
ROOT
ATOM      1  C   UNL     1      -1.678   0.821  13.833  1.00  0.00    -0.077 C 
ATOM      2  C   UNL     1      -2.466   1.627  14.580  1.00  0.00    -0.028 C 
ATOM      3  C   UNL     1      -1.862  -0.671  13.949  1.00  0.00     0.039 C 
ENDROOT
BRANCH   1   4
ATOM      4  C   UNL     1      -0.604   1.358  12.903  1.00  0.00     0.034 C 
BRANCH   4   5
ATOM      5  C   UNL     1      -1.190   1.840  11.565  1.00  0.00     0.032 C 
BRANCH   5   6
ATOM      6  C   UNL     1      -0.598   3.160  11.134  1.00  0.00    -0.028 C 
ATOM      7  C   UNL     1      -0.585   5.494  10.370  1.00  0.00     0.039 C 
ATOM      8  C   UNL     1      -1.318   4.263  10.837  1.00  0.00    -0.080 C 
ATOM      9  C   UNL     1      -2.822   4.300  10.977  1.00  0.00     0.039 C 
ENDBRANCH   5   6
ENDBRANCH   4   5
ENDBRANCH   1   4
BRANCH   2  10
ATOM     10  C   UNL     1      -2.408   3.135  14.533  1.00  0.00     0.032 C 
BRANCH  10  11
ATOM     11  C   UNL     1      -1.214   3.669  15.332  1.00  0.00     0.039 C 
BRANCH  11  12
ATOM     12  C   UNL     1      -0.519   4.783  14.580  1.00  0.00    -0.055 C 
ATOM     13  C   UNL     1      -1.211   5.881  14.259  1.00  0.00     0.012 C 
BRANCH  12  14
ATOM     14  C   UNL     1       0.898   4.680  14.142  1.00  0.00    -0.005 C 
ATOM     15  C   UNL     1       1.666   5.731  13.850  1.00  0.00     0.009 C 
ENDBRANCH  12  14
ENDBRANCH  11  12
ENDBRANCH  10  11
ENDBRANCH   2  10
TORSDOF 7
ENDMDL
MODEL 3
REMARK VINA RESULT:    -4.725      0.767      4.533
REMARK INTER + INTRA:          -8.387
REMARK INTER:                  -6.652
REMARK INTRA:                  -1.735
REMARK UNBOUND:                -1.728
REMARK SMILES C=CC(=C)CCC=C(C)CCC=C(C)C
REMARK SMILES IDX 8 1 7 2 9 3 10 4 11 5 12 6 14 7 13 8 15 9 6 10 5 11 3 12
REMARK SMILES IDX 4 13 2 14 1 15
REMARK H PARENT
REMARK Flexibility Score: inf
ROOT
ATOM      1  C   UNL     1       0.140   4.214  14.457  1.00  0.00    -0.077 C 
ATOM      2  C   UNL     1       0.122   2.866  14.562  1.00  0.00    -0.028 C 
ATOM      3  C   UNL     1       1.308   4.863  13.759  1.00  0.00     0.039 C 
ENDROOT
BRANCH   1   4
ATOM      4  C   UNL     1      -0.955   5.096  15.031  1.00  0.00     0.034 C 
BRANCH   4   5
ATOM      5  C   UNL     1      -1.571   6.017  13.966  1.00  0.00     0.032 C 
BRANCH   5   6
ATOM      6  C   UNL     1      -2.386   5.246  12.955  1.00  0.00    -0.028 C 
ATOM      7  C   UNL     1      -3.059   4.425  10.741  1.00  0.00     0.039 C 
ATOM      8  C   UNL     1      -2.121   5.197  11.632  1.00  0.00    -0.080 C 
ATOM      9  C   UNL     1      -0.912   5.876  11.031  1.00  0.00     0.039 C 
ENDBRANCH   5   6
ENDBRANCH   4   5
ENDBRANCH   1   4
BRANCH   2  10
ATOM     10  C   UNL     1      -1.001   2.089  15.206  1.00  0.00     0.032 C 
BRANCH  10  11
ATOM     11  C   UNL     1      -2.055   1.676  14.171  1.00  0.00     0.039 C 
BRANCH  11  12
ATOM     12  C   UNL     1      -1.666   0.379  13.496  1.00  0.00    -0.055 C 
ATOM     13  C   UNL     1      -1.718  -0.759  14.196  1.00  0.00     0.012 C 
BRANCH  12  14
ATOM     14  C   UNL     1      -1.181   0.330  12.092  1.00  0.00    -0.005 C 
ATOM     15  C   UNL     1      -1.128   1.391  11.285  1.00  0.00     0.009 C 
ENDBRANCH  12  14
ENDBRANCH  11  12
ENDBRANCH  10  11
ENDBRANCH   2  10
TORSDOF 7
ENDMDL
MODEL 4
REMARK VINA RESULT:    -4.603      1.251      5.182
REMARK INTER + INTRA:          -8.215
REMARK INTER:                  -6.226
REMARK INTRA:                  -1.990
REMARK UNBOUND:                -1.728
REMARK SMILES C=CC(=C)CCC=C(C)CCC=C(C)C
REMARK SMILES IDX 8 1 7 2 9 3 10 4 11 5 12 6 14 7 13 8 15 9 6 10 5 11 3 12
REMARK SMILES IDX 4 13 2 14 1 15
REMARK H PARENT
REMARK Flexibility Score: inf
ROOT
ATOM      1  C   UNL     1      -0.707   6.188  13.941  1.00  0.00    -0.077 C 
ATOM      2  C   UNL     1      -0.121   5.245  14.713  1.00  0.00    -0.028 C 
ATOM      3  C   UNL     1       0.172   7.211  13.266  1.00  0.00     0.039 C 
ENDROOT
BRANCH   1   4
ATOM      4  C   UNL     1      -2.211   6.271  13.747  1.00  0.00     0.034 C 
BRANCH   4   5
ATOM      5  C   UNL     1      -2.629   5.888  12.318  1.00  0.00     0.032 C 
BRANCH   5   6
ATOM      6  C   UNL     1      -2.399   4.422  12.037  1.00  0.00    -0.028 C 
ATOM      7  C   UNL     1      -1.409   2.452  10.956  1.00  0.00     0.039 C 
ATOM      8  C   UNL     1      -1.484   3.942  11.169  1.00  0.00    -0.080 C 
ATOM      9  C   UNL     1      -0.530   4.848  10.426  1.00  0.00     0.039 C 
ENDBRANCH   5   6
ENDBRANCH   4   5
ENDBRANCH   1   4
BRANCH   2  10
ATOM     10  C   UNL     1      -0.880   4.146  15.416  1.00  0.00     0.032 C 
BRANCH  10  11
ATOM     11  C   UNL     1      -0.517   2.769  14.846  1.00  0.00     0.039 C 
BRANCH  11  12
ATOM     12  C   UNL     1      -1.734   1.871  14.797  1.00  0.00    -0.055 C 
ATOM     13  C   UNL     1      -2.944   2.403  14.998  1.00  0.00     0.012 C 
BRANCH  12  14
ATOM     14  C   UNL     1      -1.627   0.405  14.578  1.00  0.00    -0.005 C 
ATOM     15  C   UNL     1      -2.559  -0.327  13.964  1.00  0.00     0.009 C 
ENDBRANCH  12  14
ENDBRANCH  11  12
ENDBRANCH  10  11
ENDBRANCH   2  10
TORSDOF 7
ENDMDL
MODEL 5
REMARK VINA RESULT:    -4.598      1.064      4.104
REMARK INTER + INTRA:          -8.207
REMARK INTER:                  -6.302
REMARK INTRA:                  -1.905
REMARK UNBOUND:                -1.728
REMARK SMILES C=CC(=C)CCC=C(C)CCC=C(C)C
REMARK SMILES IDX 8 1 7 2 9 3 10 4 11 5 12 6 14 7 13 8 15 9 6 10 5 11 3 12
REMARK SMILES IDX 4 13 2 14 1 15
REMARK H PARENT
REMARK Flexibility Score: inf
ROOT
ATOM      1  C   UNL     1      -0.411   3.761  14.591  1.00  0.00    -0.077 C 
ATOM      2  C   UNL     1      -0.348   4.972  13.992  1.00  0.00    -0.028 C 
ATOM      3  C   UNL     1       0.820   2.890  14.579  1.00  0.00     0.039 C 
ENDROOT
BRANCH   1   4
ATOM      4  C   UNL     1      -1.674   3.238  15.254  1.00  0.00     0.034 C 
BRANCH   4   5
ATOM      5  C   UNL     1      -2.496   2.350  14.306  1.00  0.00     0.032 C 
BRANCH   5   6
ATOM      6  C   UNL     1      -2.224   0.881  14.532  1.00  0.00    -0.028 C 
ATOM      7  C   UNL     1      -1.486  -1.395  13.984  1.00  0.00     0.039 C 
ATOM      8  C   UNL     1      -1.642   0.061  13.632  1.00  0.00    -0.080 C 
ATOM      9  C   UNL     1      -1.132   0.564  12.301  1.00  0.00     0.039 C 
ENDBRANCH   5   6
ENDBRANCH   4   5
ENDBRANCH   1   4
BRANCH   2  10
ATOM     10  C   UNL     1      -1.495   5.953  13.962  1.00  0.00     0.032 C 
BRANCH  10  11
ATOM     11  C   UNL     1      -1.928   6.258  12.523  1.00  0.00     0.039 C 
BRANCH  11  12
ATOM     12  C   UNL     1      -2.830   5.166  11.991  1.00  0.00    -0.055 C 
ATOM     13  C   UNL     1      -4.066   5.044  12.488  1.00  0.00     0.012 C 
BRANCH  12  14
ATOM     14  C   UNL     1      -2.375   4.192  10.965  1.00  0.00    -0.005 C 
ATOM     15  C   UNL     1      -1.094   3.919  10.713  1.00  0.00     0.009 C 
ENDBRANCH  12  14
ENDBRANCH  11  12
ENDBRANCH  10  11
ENDBRANCH   2  10
TORSDOF 7
ENDMDL
MODEL 6
REMARK VINA RESULT:    -4.562      1.090      3.873
REMARK INTER + INTRA:          -8.156
REMARK INTER:                  -6.158
REMARK INTRA:                  -1.998
REMARK UNBOUND:                -1.728
REMARK SMILES C=CC(=C)CCC=C(C)CCC=C(C)C
REMARK SMILES IDX 8 1 7 2 9 3 10 4 11 5 12 6 14 7 13 8 15 9 6 10 5 11 3 12
REMARK SMILES IDX 4 13 2 14 1 15
REMARK H PARENT
REMARK Flexibility Score: inf
ROOT
ATOM      1  C   UNL     1      -2.499   4.376  11.262  1.00  0.00    -0.077 C 
ATOM      2  C   UNL     1      -1.498   3.668  10.692  1.00  0.00    -0.028 C 
ATOM      3  C   UNL     1      -3.432   5.150  10.365  1.00  0.00     0.039 C 
ENDROOT
BRANCH   1   4
ATOM      4  C   UNL     1      -2.705   4.440  12.765  1.00  0.00     0.034 C 
BRANCH   4   5
ATOM      5  C   UNL     1      -2.127   5.729  13.372  1.00  0.00     0.032 C 
BRANCH   5   6
ATOM      6  C   UNL     1      -0.841   5.473  14.119  1.00  0.00    -0.028 C 
ATOM      7  C   UNL     1       1.586   5.374  14.481  1.00  0.00     0.039 C 
ATOM      8  C   UNL     1       0.393   5.734  13.635  1.00  0.00    -0.080 C 
ATOM      9  C   UNL     1       0.604   6.387  12.289  1.00  0.00     0.039 C 
ENDBRANCH   5   6
ENDBRANCH   4   5
ENDBRANCH   1   4
BRANCH   2  10
ATOM     10  C   UNL     1      -0.517   2.825  11.470  1.00  0.00     0.032 C 
BRANCH  10  11
ATOM     11  C   UNL     1      -0.970   1.362  11.533  1.00  0.00     0.039 C 
BRANCH  11  12
ATOM     12  C   UNL     1      -1.014   0.874  12.965  1.00  0.00    -0.055 C 
ATOM     13  C   UNL     1      -1.455  -0.363  13.217  1.00  0.00     0.012 C 
BRANCH  12  14
ATOM     14  C   UNL     1      -0.626   1.739  14.109  1.00  0.00    -0.005 C 
ATOM     15  C   UNL     1      -1.396   1.953  15.177  1.00  0.00     0.009 C 
ENDBRANCH  12  14
ENDBRANCH  11  12
ENDBRANCH  10  11
ENDBRANCH   2  10
TORSDOF 7
ENDMDL
MODEL 7
REMARK VINA RESULT:    -4.560      1.226      4.233
REMARK INTER + INTRA:          -8.154
REMARK INTER:                  -6.304
REMARK INTRA:                  -1.850
REMARK UNBOUND:                -1.728
REMARK SMILES C=CC(=C)CCC=C(C)CCC=C(C)C
REMARK SMILES IDX 8 1 7 2 9 3 10 4 11 5 12 6 14 7 13 8 15 9 6 10 5 11 3 12
REMARK SMILES IDX 4 13 2 14 1 15
REMARK H PARENT
REMARK Flexibility Score: inf
ROOT
ATOM      1  C   UNL     1      -1.771   4.400  10.747  1.00  0.00    -0.077 C 
ATOM      2  C   UNL     1      -1.585   3.163  11.261  1.00  0.00    -0.028 C 
ATOM      3  C   UNL     1      -3.183   4.882  10.530  1.00  0.00     0.039 C 
ENDROOT
BRANCH   1   4
ATOM      4  C   UNL     1      -0.617   5.309  10.360  1.00  0.00     0.034 C 
BRANCH   4   5
ATOM      5  C   UNL     1      -0.504   6.524  11.295  1.00  0.00     0.032 C 
BRANCH   5   6
ATOM      6  C   UNL     1       0.395   6.245  12.476  1.00  0.00    -0.028 C 
ATOM      7  C   UNL     1       0.984   5.819  14.822  1.00  0.00     0.039 C 
ATOM      8  C   UNL     1      -0.039   6.034  13.737  1.00  0.00    -0.080 C 
ATOM      9  C   UNL     1      -1.510   5.990  14.082  1.00  0.00     0.039 C 
ENDBRANCH   5   6
ENDBRANCH   4   5
ENDBRANCH   1   4
BRANCH   2  10
ATOM     10  C   UNL     1      -0.228   2.573  11.558  1.00  0.00     0.032 C 
BRANCH  10  11
ATOM     11  C   UNL     1       0.043   2.538  13.067  1.00  0.00     0.039 C 
BRANCH  11  12
ATOM     12  C   UNL     1      -0.991   1.694  13.779  1.00  0.00    -0.055 C 
ATOM     13  C   UNL     1      -1.631   2.204  14.837  1.00  0.00     0.012 C 
BRANCH  12  14
ATOM     14  C   UNL     1      -1.289   0.295  13.373  1.00  0.00    -0.005 C 
ATOM     15  C   UNL     1      -2.016  -0.554  14.101  1.00  0.00     0.009 C 
ENDBRANCH  12  14
ENDBRANCH  11  12
ENDBRANCH  10  11
ENDBRANCH   2  10
TORSDOF 7
ENDMDL
MODEL 8
REMARK VINA RESULT:    -4.478      1.220      5.083
REMARK INTER + INTRA:          -8.038
REMARK INTER:                  -6.416
REMARK INTRA:                  -1.623
REMARK UNBOUND:                -1.728
REMARK SMILES C=CC(=C)CCC=C(C)CCC=C(C)C
REMARK SMILES IDX 8 1 7 2 9 3 10 4 11 5 12 6 14 7 13 8 15 9 6 10 5 11 3 12
REMARK SMILES IDX 4 13 2 14 1 15
REMARK H PARENT
REMARK Flexibility Score: inf
ROOT
ATOM      1  C   UNL     1      -0.281   4.728  12.307  1.00  0.00    -0.077 C 
ATOM      2  C   UNL     1       0.053   4.320  13.552  1.00  0.00    -0.028 C 
ATOM      3  C   UNL     1      -0.420   6.207  12.050  1.00  0.00     0.039 C 
ENDROOT
BRANCH   1   4
ATOM      4  C   UNL     1      -0.543   3.757  11.168  1.00  0.00     0.034 C 
BRANCH   4   5
ATOM      5  C   UNL     1      -1.996   3.256  11.162  1.00  0.00     0.032 C 
BRANCH   5   6
ATOM      6  C   UNL     1      -2.915   4.200  10.425  1.00  0.00    -0.028 C 
ATOM      7  C   UNL     1      -4.730   5.829  10.136  1.00  0.00     0.039 C 
ATOM      8  C   UNL     1      -3.852   4.975  11.013  1.00  0.00    -0.080 C 
ATOM      9  C   UNL     1      -4.027   5.021  12.513  1.00  0.00     0.039 C 
ENDBRANCH   5   6
ENDBRANCH   4   5
ENDBRANCH   1   4
BRANCH   2  10
ATOM     10  C   UNL     1       0.257   2.874  13.935  1.00  0.00     0.032 C 
BRANCH  10  11
ATOM     11  C   UNL     1      -0.573   2.504  15.170  1.00  0.00     0.039 C 
BRANCH  11  12
ATOM     12  C   UNL     1      -1.810   1.728  14.774  1.00  0.00    -0.055 C 
ATOM     13  C   UNL     1      -3.009   2.307  14.897  1.00  0.00     0.012 C 
BRANCH  12  14
ATOM     14  C   UNL     1      -1.743   0.322  14.295  1.00  0.00    -0.005 C 
ATOM     15  C   UNL     1      -1.498  -0.024  13.031  1.00  0.00     0.009 C 
ENDBRANCH  12  14
ENDBRANCH  11  12
ENDBRANCH  10  11
ENDBRANCH   2  10
TORSDOF 7
ENDMDL
MODEL 9
REMARK VINA RESULT:    -4.428      1.257      4.295
REMARK INTER + INTRA:          -7.967
REMARK INTER:                  -5.958
REMARK INTRA:                  -2.010
REMARK UNBOUND:                -1.728
REMARK SMILES C=CC(=C)CCC=C(C)CCC=C(C)C
REMARK SMILES IDX 8 1 7 2 9 3 10 4 11 5 12 6 14 7 13 8 15 9 6 10 5 11 3 12
REMARK SMILES IDX 4 13 2 14 1 15
REMARK H PARENT
REMARK Flexibility Score: inf
ROOT
ATOM      1  C   UNL     1      -0.000   5.430  14.410  1.00  0.00    -0.077 C 
ATOM      2  C   UNL     1      -0.503   6.543  13.828  1.00  0.00    -0.028 C 
ATOM      3  C   UNL     1       1.497   5.298  14.531  1.00  0.00     0.039 C 
ENDROOT
BRANCH   1   4
ATOM      4  C   UNL     1      -0.881   4.305  14.924  1.00  0.00     0.034 C 
BRANCH   4   5
ATOM      5  C   UNL     1      -0.161   2.947  14.884  1.00  0.00     0.032 C 
BRANCH   5   6
ATOM      6  C   UNL     1      -0.317   2.265  13.546  1.00  0.00    -0.028 C 
ATOM      7  C   UNL     1      -1.164   0.628  11.924  1.00  0.00     0.039 C 
ATOM      8  C   UNL     1      -1.160   1.239  13.301  1.00  0.00    -0.080 C 
ATOM      9  C   UNL     1      -2.101   0.705  14.356  1.00  0.00     0.039 C 
ENDBRANCH   5   6
ENDBRANCH   4   5
ENDBRANCH   1   4
BRANCH   2  10
ATOM     10  C   UNL     1      -1.980   6.815  13.675  1.00  0.00     0.032 C 
BRANCH  10  11
ATOM     11  C   UNL     1      -2.433   6.619  12.223  1.00  0.00     0.039 C 
BRANCH  11  12
ATOM     12  C   UNL     1      -2.874   5.191  11.986  1.00  0.00    -0.055 C 
ATOM     13  C   UNL     1      -3.932   4.718  12.654  1.00  0.00     0.012 C 
BRANCH  12  14
ATOM     14  C   UNL     1      -2.143   4.278  11.070  1.00  0.00    -0.005 C 
ATOM     15  C   UNL     1      -0.873   4.454  10.699  1.00  0.00     0.009 C 
ENDBRANCH  12  14
ENDBRANCH  11  12
ENDBRANCH  10  11
ENDBRANCH   2  10
TORSDOF 7
ENDMDL
