MODEL 1
REMARK VINA RESULT:    -5.778      0.000      0.000
REMARK INTER + INTRA:          -6.720
REMARK INTER:                  -6.960
REMARK INTRA:                   0.241
REMARK UNBOUND:                 0.241
REMARK SMILES O=c1c(O)c(-c2ccc(O)c(O)c2)oc2cc(O)cc(O)c12
REMARK SMILES IDX 5 1 3 2 2 3 1 4 22 5 20 6 19 7 17 8 16 9 15 10 14 11 6 12
REMARK SMILES IDX 7 13 8 14 9 15 13 16 11 17 10 18 12 20 4 22 21 24 18 26
REMARK H PARENT 10 19 12 21 4 23 21 25 18 27
REMARK Flexibility Score: inf
ROOT
ATOM      1  C   UNL     1      24.697   0.083  62.112  1.00  0.00     0.180 A 
ATOM      2  C   UNL     1      25.741   0.767  62.757  1.00  0.00     0.208 A 
ATOM      3  C   UNL     1      25.437   1.899  63.530  1.00  0.00     0.238 A 
ATOM      4  O   UNL     1      26.369   2.476  64.150  1.00  0.00    -0.285 OA
ATOM      5  C   UNL     1      24.097   2.342  63.635  1.00  0.00     0.111 A 
ATOM      6  C   UNL     1      23.680   3.500  64.358  1.00  0.00     0.134 A 
ATOM      7  C   UNL     1      22.314   3.770  64.502  1.00  0.00     0.093 A 
ATOM      8  C   UNL     1      21.353   2.962  63.896  1.00  0.00     0.123 A 
ATOM      9  C   UNL     1      21.751   1.861  63.137  1.00  0.00     0.094 A 
ATOM     10  C   UNL     1      23.106   1.546  63.005  1.00  0.00     0.146 A 
ATOM     11  O   UNL     1      23.443   0.484  62.282  1.00  0.00    -0.452 OA
ENDROOT
BRANCH   1  12
ATOM     12  C   UNL     1      24.941  -1.103  61.259  1.00  0.00     0.025 A 
ATOM     13  C   UNL     1      26.116  -1.173  60.494  1.00  0.00     0.016 A 
ATOM     14  C   UNL     1      26.376  -2.292  59.698  1.00  0.00     0.051 A 
ATOM     15  C   UNL     1      25.477  -3.363  59.666  1.00  0.00     0.157 A 
ATOM     16  C   UNL     1      24.048  -2.190  61.242  1.00  0.00     0.062 A 
ATOM     17  C   UNL     1      24.308  -3.314  60.445  1.00  0.00     0.158 A 
BRANCH  15  18
ATOM     18  O   UNL     1      25.762  -4.465  58.861  1.00  0.00    -0.504 OA
ATOM     19  H   UNL     1      25.162  -4.740  58.093  1.00  0.00     0.293 HD
ENDBRANCH  15  18
BRANCH  17  20
ATOM     20  O   UNL     1      23.415  -4.383  60.429  1.00  0.00    -0.504 OA
ATOM     21  H   UNL     1      23.607  -5.244  60.929  1.00  0.00     0.293 HD
ENDBRANCH  17  20
ENDBRANCH   1  12
BRANCH   2  22
ATOM     22  O   UNL     1      27.054   0.300  62.658  1.00  0.00    -0.502 OA
ATOM     23  H   UNL     1      27.274  -0.670  62.464  1.00  0.00     0.293 HD
ENDBRANCH   2  22
BRANCH   6  24
ATOM     24  O   UNL     1      24.562   4.425  64.926  1.00  0.00    -0.507 OA
ATOM     25  H   UNL     1      25.084   5.114  64.406  1.00  0.00     0.293 HD
ENDBRANCH   6  24
BRANCH   8  26
ATOM     26  O   UNL     1      20.002   3.269  64.047  1.00  0.00    -0.508 OA
ATOM     27  H   UNL     1      19.647   4.203  63.869  1.00  0.00     0.293 HD
ENDBRANCH   8  26
TORSDOF 6
ENDMDL
MODEL 2
REMARK VINA RESULT:    -5.758      1.620      6.462
REMARK INTER + INTRA:          -6.696
REMARK INTER:                  -6.974
REMARK INTRA:                   0.278
REMARK UNBOUND:                 0.241
REMARK SMILES O=c1c(O)c(-c2ccc(O)c(O)c2)oc2cc(O)cc(O)c12
REMARK SMILES IDX 5 1 3 2 2 3 1 4 22 5 20 6 19 7 17 8 16 9 15 10 14 11 6 12
REMARK SMILES IDX 7 13 8 14 9 15 13 16 11 17 10 18 12 20 4 22 21 24 18 26
REMARK H PARENT 10 19 12 21 4 23 21 25 18 27
REMARK Flexibility Score: inf
ROOT
ATOM      1  C   UNL     1      24.712  -0.052  62.227  1.00  0.00     0.180 A 
ATOM      2  C   UNL     1      25.761  -0.736  61.590  1.00  0.00     0.208 A 
ATOM      3  C   UNL     1      25.463  -1.864  60.808  1.00  0.00     0.238 A 
ATOM      4  O   UNL     1      26.400  -2.440  60.195  1.00  0.00    -0.285 OA
ATOM      5  C   UNL     1      24.122  -2.302  60.686  1.00  0.00     0.111 A 
ATOM      6  C   UNL     1      23.710  -3.455  59.953  1.00  0.00     0.134 A 
ATOM      7  C   UNL     1      22.345  -3.720  59.793  1.00  0.00     0.093 A 
ATOM      8  C   UNL     1      21.380  -2.913  60.393  1.00  0.00     0.123 A 
ATOM      9  C   UNL     1      21.773  -1.817  61.162  1.00  0.00     0.094 A 
ATOM     10  C   UNL     1      23.127  -1.506  61.310  1.00  0.00     0.146 A 
ATOM     11  O   UNL     1      23.459  -0.449  62.041  1.00  0.00    -0.452 OA
ENDROOT
BRANCH   1  12
ATOM     12  C   UNL     1      24.951   1.129  63.088  1.00  0.00     0.025 A 
ATOM     13  C   UNL     1      26.145   1.219  63.821  1.00  0.00     0.016 A 
ATOM     14  C   UNL     1      26.399   2.334  64.624  1.00  0.00     0.051 A 
ATOM     15  C   UNL     1      25.476   3.381  64.695  1.00  0.00     0.157 A 
ATOM     16  C   UNL     1      24.032   2.192  63.145  1.00  0.00     0.062 A 
ATOM     17  C   UNL     1      24.287   3.313  63.949  1.00  0.00     0.158 A 
BRANCH  15  18
ATOM     18  O   UNL     1      25.756   4.480  65.507  1.00  0.00    -0.504 OA
ATOM     19  H   UNL     1      25.840   4.398  66.513  1.00  0.00     0.293 HD
ENDBRANCH  15  18
BRANCH  17  20
ATOM     20  O   UNL     1      23.368   4.359  64.004  1.00  0.00    -0.504 OA
ATOM     21  H   UNL     1      23.445   5.166  63.395  1.00  0.00     0.293 HD
ENDBRANCH  17  20
ENDBRANCH   1  12
BRANCH   2  22
ATOM     22  O   UNL     1      27.075  -0.274  61.704  1.00  0.00    -0.502 OA
ATOM     23  H   UNL     1      27.806  -0.545  61.057  1.00  0.00     0.293 HD
ENDBRANCH   2  22
BRANCH   6  24
ATOM     24  O   UNL     1      24.595  -4.380  59.389  1.00  0.00    -0.507 OA
ATOM     25  H   UNL     1      25.064  -4.259  58.504  1.00  0.00     0.293 HD
ENDBRANCH   6  24
BRANCH   8  26
ATOM     26  O   UNL     1      20.030  -3.216  60.226  1.00  0.00    -0.508 OA
ATOM     27  H   UNL     1      19.546  -3.848  60.854  1.00  0.00     0.293 HD
ENDBRANCH   8  26
TORSDOF 6
ENDMDL
MODEL 3
REMARK VINA RESULT:    -5.417      0.636      1.482
REMARK INTER + INTRA:          -6.284
REMARK INTER:                  -6.462
REMARK INTRA:                   0.177
REMARK UNBOUND:                 0.241
REMARK SMILES O=c1c(O)c(-c2ccc(O)c(O)c2)oc2cc(O)cc(O)c12
REMARK SMILES IDX 5 1 3 2 2 3 1 4 22 5 20 6 19 7 17 8 16 9 15 10 14 11 6 12
REMARK SMILES IDX 7 13 8 14 9 15 13 16 11 17 10 18 12 20 4 22 21 24 18 26
REMARK H PARENT 10 19 12 21 4 23 21 25 18 27
REMARK Flexibility Score: inf
ROOT
ATOM      1  C   UNL     1      24.743   0.196  62.180  1.00  0.00     0.180 A 
ATOM      2  C   UNL     1      25.754   0.897  62.859  1.00  0.00     0.208 A 
ATOM      3  C   UNL     1      25.405   2.020  63.626  1.00  0.00     0.238 A 
ATOM      4  O   UNL     1      26.307   2.612  64.276  1.00  0.00    -0.285 OA
ATOM      5  C   UNL     1      24.054   2.437  63.692  1.00  0.00     0.111 A 
ATOM      6  C   UNL     1      23.594   3.584  64.406  1.00  0.00     0.134 A 
ATOM      7  C   UNL     1      22.218   3.827  64.510  1.00  0.00     0.093 A 
ATOM      8  C   UNL     1      21.292   3.004  63.872  1.00  0.00     0.123 A 
ATOM      9  C   UNL     1      21.734   1.913  63.122  1.00  0.00     0.094 A 
ATOM     10  C   UNL     1      23.098   1.624  63.029  1.00  0.00     0.146 A 
ATOM     11  O   UNL     1      23.477   0.572  62.314  1.00  0.00    -0.452 OA
ENDROOT
BRANCH   1  12
ATOM     12  C   UNL     1      25.036  -0.982  61.331  1.00  0.00     0.025 A 
ATOM     13  C   UNL     1      24.093  -2.019  61.240  1.00  0.00     0.016 A 
ATOM     14  C   UNL     1      24.339  -3.130  60.429  1.00  0.00     0.051 A 
ATOM     15  C   UNL     1      25.521  -3.216  59.686  1.00  0.00     0.157 A 
ATOM     16  C   UNL     1      26.214  -1.061  60.567  1.00  0.00     0.062 A 
ATOM     17  C   UNL     1      26.462  -2.175  59.752  1.00  0.00     0.158 A 
BRANCH  15  18
ATOM     18  O   UNL     1      25.740  -4.338  58.888  1.00  0.00    -0.504 OA
ATOM     19  H   UNL     1      25.025  -4.711  58.276  1.00  0.00     0.293 HD
ENDBRANCH  15  18
BRANCH  17  20
ATOM     20  O   UNL     1      27.635  -2.247  59.003  1.00  0.00    -0.504 OA
ATOM     21  H   UNL     1      28.538  -2.390  59.442  1.00  0.00     0.293 HD
ENDBRANCH  17  20
ENDBRANCH   1  12
BRANCH   2  22
ATOM     22  O   UNL     1      27.078   0.456  62.798  1.00  0.00    -0.502 OA
ATOM     23  H   UNL     1      27.796   0.797  63.428  1.00  0.00     0.293 HD
ENDBRANCH   2  22
BRANCH   6  24
ATOM     24  O   UNL     1      24.439   4.523  65.004  1.00  0.00    -0.507 OA
ATOM     25  H   UNL     1      25.029   5.168  64.499  1.00  0.00     0.293 HD
ENDBRANCH   6  24
BRANCH   8  26
ATOM     26  O   UNL     1      19.932   3.284  63.983  1.00  0.00    -0.508 OA
ATOM     27  H   UNL     1      19.567   3.849  64.742  1.00  0.00     0.293 HD
ENDBRANCH   8  26
TORSDOF 6
ENDMDL
MODEL 4
REMARK VINA RESULT:    -5.385      1.846      6.506
REMARK INTER + INTRA:          -6.246
REMARK INTER:                  -6.437
REMARK INTRA:                   0.191
REMARK UNBOUND:                 0.241
REMARK SMILES O=c1c(O)c(-c2ccc(O)c(O)c2)oc2cc(O)cc(O)c12
REMARK SMILES IDX 5 1 3 2 2 3 1 4 22 5 20 6 19 7 17 8 16 9 15 10 14 11 6 12
REMARK SMILES IDX 7 13 8 14 9 15 13 16 11 17 10 18 12 20 4 22 21 24 18 26
REMARK H PARENT 10 19 12 21 4 23 21 25 18 27
REMARK Flexibility Score: inf
ROOT
ATOM      1  C   UNL     1      24.765  -0.192  62.111  1.00  0.00     0.180 A 
ATOM      2  C   UNL     1      25.783  -0.881  61.429  1.00  0.00     0.208 A 
ATOM      3  C   UNL     1      25.443  -1.994  60.642  1.00  0.00     0.238 A 
ATOM      4  O   UNL     1      26.351  -2.574  59.990  1.00  0.00    -0.285 OA
ATOM      5  C   UNL     1      24.093  -2.412  60.560  1.00  0.00     0.111 A 
ATOM      6  C   UNL     1      23.641  -3.550  59.826  1.00  0.00     0.134 A 
ATOM      7  C   UNL     1      22.267  -3.795  59.708  1.00  0.00     0.093 A 
ATOM      8  C   UNL     1      21.334  -2.983  60.351  1.00  0.00     0.123 A 
ATOM      9  C   UNL     1      21.768  -1.903  61.121  1.00  0.00     0.094 A 
ATOM     10  C   UNL     1      23.130  -1.612  61.228  1.00  0.00     0.146 A 
ATOM     11  O   UNL     1      23.501  -0.570  61.962  1.00  0.00    -0.452 OA
ENDROOT
BRANCH   1  12
ATOM     12  C   UNL     1      25.049   0.973  62.979  1.00  0.00     0.025 A 
ATOM     13  C   UNL     1      24.090   1.992  63.101  1.00  0.00     0.016 A 
ATOM     14  C   UNL     1      24.328   3.091  63.931  1.00  0.00     0.051 A 
ATOM     15  C   UNL     1      25.516   3.182  64.662  1.00  0.00     0.157 A 
ATOM     16  C   UNL     1      26.234   1.056  63.731  1.00  0.00     0.062 A 
ATOM     17  C   UNL     1      26.474   2.158  64.565  1.00  0.00     0.158 A 
BRANCH  15  18
ATOM     18  O   UNL     1      25.727   4.292  65.480  1.00  0.00    -0.504 OA
ATOM     19  H   UNL     1      25.997   4.200  66.452  1.00  0.00     0.293 HD
ENDBRANCH  15  18
BRANCH  17  20
ATOM     20  O   UNL     1      27.654   2.235  65.302  1.00  0.00    -0.504 OA
ATOM     21  H   UNL     1      27.646   2.381  66.305  1.00  0.00     0.293 HD
ENDBRANCH  17  20
ENDBRANCH   1  12
BRANCH   2  22
ATOM     22  O   UNL     1      27.106  -0.438  61.505  1.00  0.00    -0.502 OA
ATOM     23  H   UNL     1      27.895  -1.040  61.302  1.00  0.00     0.293 HD
ENDBRANCH   2  22
BRANCH   6  24
ATOM     24  O   UNL     1      24.493  -4.478  59.220  1.00  0.00    -0.507 OA
ATOM     25  H   UNL     1      24.377  -5.480  59.265  1.00  0.00     0.293 HD
ENDBRANCH   6  24
BRANCH   8  26
ATOM     26  O   UNL     1      19.976  -3.266  60.226  1.00  0.00    -0.508 OA
ATOM     27  H   UNL     1      19.590  -3.647  59.369  1.00  0.00     0.293 HD
ENDBRANCH   8  26
TORSDOF 6
ENDMDL
MODEL 5
REMARK VINA RESULT:    -5.353      1.133      2.854
REMARK INTER + INTRA:          -6.208
REMARK INTER:                  -6.442
REMARK INTRA:                   0.234
REMARK UNBOUND:                 0.241
REMARK SMILES O=c1c(O)c(-c2ccc(O)c(O)c2)oc2cc(O)cc(O)c12
REMARK SMILES IDX 5 1 3 2 2 3 1 4 22 5 20 6 19 7 17 8 16 9 15 10 14 11 6 12
REMARK SMILES IDX 7 13 8 14 9 15 13 16 11 17 10 18 12 20 4 22 21 24 18 26
REMARK H PARENT 10 19 12 21 4 23 21 25 18 27
REMARK Flexibility Score: inf
ROOT
ATOM      1  C   UNL     1      23.846  -0.185  61.904  1.00  0.00     0.180 A 
ATOM      2  C   UNL     1      22.473   0.114  61.905  1.00  0.00     0.208 A 
ATOM      3  C   UNL     1      22.015   1.207  62.659  1.00  0.00     0.238 A 
ATOM      4  O   UNL     1      20.792   1.504  62.612  1.00  0.00    -0.285 OA
ATOM      5  C   UNL     1      22.933   1.976  63.413  1.00  0.00     0.111 A 
ATOM      6  C   UNL     1      22.574   3.080  64.245  1.00  0.00     0.134 A 
ATOM      7  C   UNL     1      23.579   3.849  64.843  1.00  0.00     0.093 A 
ATOM      8  C   UNL     1      24.925   3.517  64.695  1.00  0.00     0.123 A 
ATOM      9  C   UNL     1      25.284   2.404  63.933  1.00  0.00     0.094 A 
ATOM     10  C   UNL     1      24.306   1.638  63.294  1.00  0.00     0.146 A 
ATOM     11  O   UNL     1      24.690   0.594  62.570  1.00  0.00    -0.452 OA
ENDROOT
BRANCH   1  12
ATOM     12  C   UNL     1      24.400  -1.336  61.155  1.00  0.00     0.025 A 
ATOM     13  C   UNL     1      25.722  -1.281  60.683  1.00  0.00     0.016 A 
ATOM     14  C   UNL     1      26.272  -2.363  59.991  1.00  0.00     0.051 A 
ATOM     15  C   UNL     1      25.519  -3.522  59.775  1.00  0.00     0.157 A 
ATOM     16  C   UNL     1      23.652  -2.510  60.954  1.00  0.00     0.062 A 
ATOM     17  C   UNL     1      24.203  -3.598  60.262  1.00  0.00     0.158 A 
BRANCH  15  18
ATOM     18  O   UNL     1      26.094  -4.585  59.080  1.00  0.00    -0.504 OA
ATOM     19  H   UNL     1      26.995  -4.505  58.625  1.00  0.00     0.293 HD
ENDBRANCH  15  18
BRANCH  17  20
ATOM     20  O   UNL     1      23.452  -4.754  60.062  1.00  0.00    -0.504 OA
ATOM     21  H   UNL     1      23.249  -5.394  60.822  1.00  0.00     0.293 HD
ENDBRANCH  17  20
ENDBRANCH   1  12
BRANCH   2  22
ATOM     22  O   UNL     1      21.587  -0.644  61.135  1.00  0.00    -0.502 OA
ATOM     23  H   UNL     1      21.856  -1.518  60.697  1.00  0.00     0.293 HD
ENDBRANCH   2  22
BRANCH   6  24
ATOM     24  O   UNL     1      21.255   3.443  64.534  1.00  0.00    -0.507 OA
ATOM     25  H   UNL     1      20.944   4.388  64.701  1.00  0.00     0.293 HD
ENDBRANCH   6  24
BRANCH   8  26
ATOM     26  O   UNL     1      25.898   4.295  65.317  1.00  0.00    -0.508 OA
ATOM     27  H   UNL     1      25.669   5.181  65.756  1.00  0.00     0.293 HD
ENDBRANCH   8  26
TORSDOF 6
ENDMDL
MODEL 6
REMARK VINA RESULT:    -5.232      1.630      7.044
REMARK INTER + INTRA:          -6.062
REMARK INTER:                  -6.296
REMARK INTRA:                   0.234
REMARK UNBOUND:                 0.241
REMARK SMILES O=c1c(O)c(-c2ccc(O)c(O)c2)oc2cc(O)cc(O)c12
REMARK SMILES IDX 5 1 3 2 2 3 1 4 22 5 20 6 19 7 17 8 16 9 15 10 14 11 6 12
REMARK SMILES IDX 7 13 8 14 9 15 13 16 11 17 10 18 12 20 4 22 21 24 18 26
REMARK H PARENT 10 19 12 21 4 23 21 25 18 27
REMARK Flexibility Score: inf
ROOT
ATOM      1  C   UNL     1      23.840   0.194  62.385  1.00  0.00     0.180 A 
ATOM      2  C   UNL     1      22.467  -0.107  62.381  1.00  0.00     0.208 A 
ATOM      3  C   UNL     1      22.012  -1.198  61.623  1.00  0.00     0.238 A 
ATOM      4  O   UNL     1      20.789  -1.497  61.667  1.00  0.00    -0.285 OA
ATOM      5  C   UNL     1      22.932  -1.962  60.867  1.00  0.00     0.111 A 
ATOM      6  C   UNL     1      22.576  -3.064  60.030  1.00  0.00     0.134 A 
ATOM      7  C   UNL     1      23.583  -3.829  59.430  1.00  0.00     0.093 A 
ATOM      8  C   UNL     1      24.928  -3.495  59.582  1.00  0.00     0.123 A 
ATOM      9  C   UNL     1      25.284  -2.385  60.348  1.00  0.00     0.094 A 
ATOM     10  C   UNL     1      24.304  -1.623  60.989  1.00  0.00     0.146 A 
ATOM     11  O   UNL     1      24.686  -0.580  61.717  1.00  0.00    -0.452 OA
ENDROOT
BRANCH   1  12
ATOM     12  C   UNL     1      24.391   1.343  63.140  1.00  0.00     0.025 A 
ATOM     13  C   UNL     1      25.713   1.288  63.612  1.00  0.00     0.016 A 
ATOM     14  C   UNL     1      26.260   2.369  64.308  1.00  0.00     0.051 A 
ATOM     15  C   UNL     1      25.505   3.525  64.529  1.00  0.00     0.157 A 
ATOM     16  C   UNL     1      23.640   2.515  63.345  1.00  0.00     0.062 A 
ATOM     17  C   UNL     1      24.189   3.601  64.042  1.00  0.00     0.158 A 
BRANCH  15  18
ATOM     18  O   UNL     1      26.077   4.586  65.229  1.00  0.00    -0.504 OA
ATOM     19  H   UNL     1      26.973   4.503  65.695  1.00  0.00     0.293 HD
ENDBRANCH  15  18
BRANCH  17  20
ATOM     20  O   UNL     1      23.435   4.755  64.246  1.00  0.00    -0.504 OA
ATOM     21  H   UNL     1      23.759   5.663  63.933  1.00  0.00     0.293 HD
ENDBRANCH  17  20
ENDBRANCH   1  12
BRANCH   2  22
ATOM     22  O   UNL     1      21.579   0.647  63.153  1.00  0.00    -0.502 OA
ATOM     23  H   UNL     1      21.543   1.659  63.110  1.00  0.00     0.293 HD
ENDBRANCH   2  22
BRANCH   6  24
ATOM     24  O   UNL     1      21.258  -3.428  59.738  1.00  0.00    -0.507 OA
ATOM     25  H   UNL     1      20.718  -3.059  58.969  1.00  0.00     0.293 HD
ENDBRANCH   6  24
BRANCH   8  26
ATOM     26  O   UNL     1      25.903  -4.269  58.957  1.00  0.00    -0.508 OA
ATOM     27  H   UNL     1      25.682  -5.170  58.546  1.00  0.00     0.293 HD
ENDBRANCH   8  26
TORSDOF 6
ENDMDL
MODEL 7
REMARK VINA RESULT:    -4.418      2.088      3.586
REMARK INTER + INTRA:          -5.081
REMARK INTER:                  -4.919
REMARK INTRA:                  -0.163
REMARK UNBOUND:                 0.241
REMARK SMILES O=c1c(O)c(-c2ccc(O)c(O)c2)oc2cc(O)cc(O)c12
REMARK SMILES IDX 5 1 3 2 2 3 1 4 22 5 20 6 19 7 17 8 16 9 15 10 14 11 6 12
REMARK SMILES IDX 7 13 8 14 9 15 13 16 11 17 10 18 12 20 4 22 21 24 18 26
REMARK H PARENT 10 19 12 21 4 23 21 25 18 27
REMARK Flexibility Score: inf
ROOT
ATOM      1  C   UNL     1      22.591  -0.000  62.091  1.00  0.00     0.180 A 
ATOM      2  C   UNL     1      21.472   0.573  62.721  1.00  0.00     0.208 A 
ATOM      3  C   UNL     1      21.596   1.845  63.302  1.00  0.00     0.238 A 
ATOM      4  O   UNL     1      20.577   2.376  63.816  1.00  0.00    -0.285 OA
ATOM      5  C   UNL     1      22.839   2.520  63.262  1.00  0.00     0.111 A 
ATOM      6  C   UNL     1      23.089   3.795  63.855  1.00  0.00     0.134 A 
ATOM      7  C   UNL     1      24.320   4.426  63.641  1.00  0.00     0.093 A 
ATOM      8  C   UNL     1      25.332   3.803  62.913  1.00  0.00     0.123 A 
ATOM      9  C   UNL     1      25.120   2.531  62.379  1.00  0.00     0.094 A 
ATOM     10  C   UNL     1      23.890   1.891  62.545  1.00  0.00     0.146 A 
ATOM     11  O   UNL     1      23.725   0.685  62.013  1.00  0.00    -0.452 OA
ENDROOT
BRANCH   1  12
ATOM     12  C   UNL     1      22.545  -1.347  61.478  1.00  0.00     0.025 A 
ATOM     13  C   UNL     1      21.752  -1.561  60.339  1.00  0.00     0.016 A 
ATOM     14  C   UNL     1      21.710  -2.819  59.732  1.00  0.00     0.051 A 
ATOM     15  C   UNL     1      22.469  -3.877  60.242  1.00  0.00     0.157 A 
ATOM     16  C   UNL     1      23.324  -2.407  61.977  1.00  0.00     0.062 A 
ATOM     17  C   UNL     1      23.284  -3.670  61.368  1.00  0.00     0.158 A 
BRANCH  15  18
ATOM     18  O   UNL     1      22.405  -5.121  59.617  1.00  0.00    -0.504 OA
ATOM     19  H   UNL     1      22.425  -5.988  60.140  1.00  0.00     0.293 HD
ENDBRANCH  15  18
BRANCH  17  20
ATOM     20  O   UNL     1      24.054  -4.715  61.873  1.00  0.00    -0.504 OA
ATOM     21  H   UNL     1      24.900  -5.025  61.408  1.00  0.00     0.293 HD
ENDBRANCH  17  20
ENDBRANCH   1  12
BRANCH   2  22
ATOM     22  O   UNL     1      20.248  -0.101  62.729  1.00  0.00    -0.502 OA
ATOM     23  H   UNL     1      20.046  -0.872  62.103  1.00  0.00     0.293 HD
ENDBRANCH   2  22
BRANCH   6  24
ATOM     24  O   UNL     1      22.179   4.465  64.677  1.00  0.00    -0.507 OA
ATOM     25  H   UNL     1      21.216   4.649  64.437  1.00  0.00     0.293 HD
ENDBRANCH   6  24
BRANCH   8  26
ATOM     26  O   UNL     1      26.551   4.454  62.733  1.00  0.00    -0.508 OA
ATOM     27  H   UNL     1      26.800   5.273  63.278  1.00  0.00     0.293 HD
ENDBRANCH   8  26
TORSDOF 6
ENDMDL
MODEL 8
REMARK VINA RESULT:    -4.415      2.100      7.425
REMARK INTER + INTRA:          -5.078
REMARK INTER:                  -4.916
REMARK INTRA:                  -0.163
REMARK UNBOUND:                 0.241
REMARK SMILES O=c1c(O)c(-c2ccc(O)c(O)c2)oc2cc(O)cc(O)c12
REMARK SMILES IDX 5 1 3 2 2 3 1 4 22 5 20 6 19 7 17 8 16 9 15 10 14 11 6 12
REMARK SMILES IDX 7 13 8 14 9 15 13 16 11 17 10 18 12 20 4 22 21 24 18 26
REMARK H PARENT 10 19 12 21 4 23 21 25 18 27
REMARK Flexibility Score: inf
ROOT
ATOM      1  C   UNL     1      22.571   0.009  62.150  1.00  0.00     0.180 A 
ATOM      2  C   UNL     1      21.486  -0.567  61.466  1.00  0.00     0.208 A 
ATOM      3  C   UNL     1      21.643  -1.836  60.887  1.00  0.00     0.238 A 
ATOM      4  O   UNL     1      20.651  -2.370  60.323  1.00  0.00    -0.285 OA
ATOM      5  C   UNL     1      22.885  -2.507  60.985  1.00  0.00     0.111 A 
ATOM      6  C   UNL     1      23.168  -3.779  60.402  1.00  0.00     0.134 A 
ATOM      7  C   UNL     1      24.390  -4.407  60.672  1.00  0.00     0.093 A 
ATOM      8  C   UNL     1      25.364  -3.782  61.450  1.00  0.00     0.123 A 
ATOM      9  C   UNL     1      25.121  -2.512  61.976  1.00  0.00     0.094 A 
ATOM     10  C   UNL     1      23.898  -1.876  61.754  1.00  0.00     0.146 A 
ATOM     11  O   UNL     1      23.703  -0.673  62.280  1.00  0.00    -0.452 OA
ENDROOT
BRANCH   1  12
ATOM     12  C   UNL     1      22.491   1.354  62.764  1.00  0.00     0.025 A 
ATOM     13  C   UNL     1      21.645   1.560  63.865  1.00  0.00     0.016 A 
ATOM     14  C   UNL     1      21.569   2.817  64.473  1.00  0.00     0.051 A 
ATOM     15  C   UNL     1      22.346   3.879  64.002  1.00  0.00     0.157 A 
ATOM     16  C   UNL     1      23.287   2.418  62.304  1.00  0.00     0.062 A 
ATOM     17  C   UNL     1      23.213   3.679  62.914  1.00  0.00     0.158 A 
BRANCH  15  18
ATOM     18  O   UNL     1      22.247   5.122  64.627  1.00  0.00    -0.504 OA
ATOM     19  H   UNL     1      22.718   5.324  65.500  1.00  0.00     0.293 HD
ENDBRANCH  15  18
BRANCH  17  20
ATOM     20  O   UNL     1      24.001   4.730  62.448  1.00  0.00    -0.504 OA
ATOM     21  H   UNL     1      24.675   5.194  63.046  1.00  0.00     0.293 HD
ENDBRANCH  17  20
ENDBRANCH   1  12
BRANCH   2  22
ATOM     22  O   UNL     1      20.261   0.103  61.400  1.00  0.00    -0.502 OA
ATOM     23  H   UNL     1      19.721   0.333  62.226  1.00  0.00     0.293 HD
ENDBRANCH   2  22
BRANCH   6  24
ATOM     24  O   UNL     1      22.301  -4.450  59.535  1.00  0.00    -0.507 OA
ATOM     25  H   UNL     1      21.561  -4.010  59.008  1.00  0.00     0.293 HD
ENDBRANCH   6  24
BRANCH   8  26
ATOM     26  O   UNL     1      26.575  -4.429  61.686  1.00  0.00    -0.508 OA
ATOM     27  H   UNL     1      26.632  -5.245  62.284  1.00  0.00     0.293 HD
ENDBRANCH   8  26
TORSDOF 6
ENDMDL
MODEL 9
REMARK VINA RESULT:    -4.041      1.876      3.682
REMARK INTER + INTRA:          -4.627
REMARK INTER:                  -5.111
REMARK INTRA:                   0.484
REMARK UNBOUND:                 0.241
REMARK SMILES O=c1c(O)c(-c2ccc(O)c(O)c2)oc2cc(O)cc(O)c12
REMARK SMILES IDX 5 1 3 2 2 3 1 4 22 5 20 6 19 7 17 8 16 9 15 10 14 11 6 12
REMARK SMILES IDX 7 13 8 14 9 15 13 16 11 17 10 18 12 20 4 22 21 24 18 26
REMARK H PARENT 10 19 12 21 4 23 21 25 18 27
REMARK Flexibility Score: inf
ROOT
ATOM      1  C   UNL     1      23.107   0.092  62.336  1.00  0.00     0.180 A 
ATOM      2  C   UNL     1      22.201   1.161  62.448  1.00  0.00     0.208 A 
ATOM      3  C   UNL     1      22.603   2.325  63.122  1.00  0.00     0.238 A 
ATOM      4  O   UNL     1      21.807   3.300  63.172  1.00  0.00    -0.285 OA
ATOM      5  C   UNL     1      23.897   2.400  63.690  1.00  0.00     0.111 A 
ATOM      6  C   UNL     1      24.395   3.515  64.430  1.00  0.00     0.134 A 
ATOM      7  C   UNL     1      25.735   3.533  64.834  1.00  0.00     0.093 A 
ATOM      8  C   UNL     1      26.577   2.451  64.583  1.00  0.00     0.123 A 
ATOM      9  C   UNL     1      26.085   1.330  63.913  1.00  0.00     0.094 A 
ATOM     10  C   UNL     1      24.762   1.298  63.465  1.00  0.00     0.146 A 
ATOM     11  O   UNL     1      24.336   0.217  62.823  1.00  0.00    -0.452 OA
ENDROOT
BRANCH   1  12
ATOM     12  C   UNL     1      22.748  -1.177  61.663  1.00  0.00     0.025 A 
ATOM     13  C   UNL     1      21.637  -1.213  60.804  1.00  0.00     0.016 A 
ATOM     14  C   UNL     1      21.293  -2.394  60.143  1.00  0.00     0.051 A 
ATOM     15  C   UNL     1      22.059  -3.551  60.314  1.00  0.00     0.157 A 
ATOM     16  C   UNL     1      23.529  -2.336  61.818  1.00  0.00     0.062 A 
ATOM     17  C   UNL     1      23.185  -3.522  61.153  1.00  0.00     0.158 A 
BRANCH  15  18
ATOM     18  O   UNL     1      21.689  -4.716  59.643  1.00  0.00    -0.504 OA
ATOM     19  H   UNL     1      20.721  -5.000  59.551  1.00  0.00     0.293 HD
ENDBRANCH  15  18
BRANCH  17  20
ATOM     20  O   UNL     1      23.962  -4.668  61.318  1.00  0.00    -0.504 OA
ATOM     21  H   UNL     1      24.278  -5.214  60.525  1.00  0.00     0.293 HD
ENDBRANCH  17  20
ENDBRANCH   1  12
BRANCH   2  22
ATOM     22  O   UNL     1      20.936   1.075  61.861  1.00  0.00    -0.502 OA
ATOM     23  H   UNL     1      20.800   1.088  60.857  1.00  0.00     0.293 HD
ENDBRANCH   2  22
BRANCH   6  24
ATOM     24  O   UNL     1      23.613   4.608  64.814  1.00  0.00    -0.507 OA
ATOM     25  H   UNL     1      23.386   4.845  65.769  1.00  0.00     0.293 HD
ENDBRANCH   6  24
BRANCH   8  26
ATOM     26  O   UNL     1      27.901   2.496  65.013  1.00  0.00    -0.508 OA
ATOM     27  H   UNL     1      28.148   2.836  65.937  1.00  0.00     0.293 HD
ENDBRANCH   8  26
TORSDOF 6
ENDMDL
