MODEL 1
REMARK VINA RESULT:    12.869      0.000      0.000
REMARK INTER + INTRA:          15.570
REMARK INTER:                  15.503
REMARK INTRA:                   0.067
REMARK UNBOUND:                 0.067
REMARK SMILES O=c1c(O)c(-c2ccc(O)c(O)c2)oc2cc(O)cc(O)c12
REMARK SMILES IDX 5 1 3 2 2 3 1 4 22 5 20 6 19 7 17 8 16 9 15 10 14 11 6 12
REMARK SMILES IDX 7 13 8 14 9 15 13 16 11 17 10 18 12 20 4 22 21 24 18 26
REMARK H PARENT 10 19 12 21 4 23 21 25 18 27
REMARK Flexibility Score: inf
ROOT
ATOM      1  C   UNL     1      28.580  59.261   4.327  1.00  0.00     0.180 A 
ATOM      2  C   UNL     1      27.195  59.480   4.445  1.00  0.00     0.208 A 
ATOM      3  C   UNL     1      26.729  60.790   4.639  1.00  0.00     0.238 A 
ATOM      4  O   UNL     1      25.491  60.998   4.757  1.00  0.00    -0.285 OA
ATOM      5  C   UNL     1      27.650  61.856   4.690  1.00  0.00     0.111 A 
ATOM      6  C   UNL     1      27.263  63.206   4.877  1.00  0.00     0.134 A 
ATOM      7  C   UNL     1      28.240  64.212   4.907  1.00  0.00     0.093 A 
ATOM      8  C   UNL     1      29.594  63.895   4.753  1.00  0.00     0.123 A 
ATOM      9  C   UNL     1      29.981  62.566   4.568  1.00  0.00     0.094 A 
ATOM     10  C   UNL     1      29.022  61.548   4.537  1.00  0.00     0.146 A 
ATOM     11  O   UNL     1      29.418  60.293   4.365  1.00  0.00    -0.452 OA
ENDROOT
BRANCH   1  12
ATOM     12  C   UNL     1      29.149  57.907   4.141  1.00  0.00     0.025 A 
ATOM     13  C   UNL     1      30.220  57.491   4.948  1.00  0.00     0.016 A 
ATOM     14  C   UNL     1      30.760  56.210   4.805  1.00  0.00     0.051 A 
ATOM     15  C   UNL     1      30.229  55.321   3.865  1.00  0.00     0.157 A 
ATOM     16  C   UNL     1      28.603  57.004   3.211  1.00  0.00     0.062 A 
ATOM     17  C   UNL     1      29.143  55.717   3.066  1.00  0.00     0.158 A 
BRANCH  15  18
ATOM     18  O   UNL     1      30.791  54.050   3.741  1.00  0.00    -0.504 OA
ATOM     19  H   UNL     1      30.226  53.228   3.565  1.00  0.00     0.293 HD
ENDBRANCH  15  18
BRANCH  17  20
ATOM     20  O   UNL     1      28.601  54.830   2.137  1.00  0.00    -0.504 OA
ATOM     21  H   UNL     1      27.953  55.141   1.422  1.00  0.00     0.293 HD
ENDBRANCH  17  20
ENDBRANCH   1  12
BRANCH   2  22
ATOM     22  O   UNL     1      26.299  58.412   4.342  1.00  0.00    -0.502 OA
ATOM     23  H   UNL     1      26.596  57.446   4.414  1.00  0.00     0.293 HD
ENDBRANCH   2  22
BRANCH   6  24
ATOM     24  O   UNL     1      25.921  63.553   5.032  1.00  0.00    -0.507 OA
ATOM     25  H   UNL     1      25.453  64.177   4.385  1.00  0.00     0.293 HD
ENDBRANCH   6  24
BRANCH   8  26
ATOM     26  O   UNL     1      30.565  64.894   4.781  1.00  0.00    -0.508 OA
ATOM     27  H   UNL     1      31.551  64.676   4.693  1.00  0.00     0.293 HD
ENDBRANCH   8  26
TORSDOF 6
ENDMDL
MODEL 2
REMARK VINA RESULT:    13.113      3.418      9.232
REMARK INTER + INTRA:          15.863
REMARK INTER:                  15.796
REMARK INTRA:                   0.067
REMARK UNBOUND:                 0.067
REMARK SMILES O=c1c(O)c(-c2ccc(O)c(O)c2)oc2cc(O)cc(O)c12
REMARK SMILES IDX 5 1 3 2 2 3 1 4 22 5 20 6 19 7 17 8 16 9 15 10 14 11 6 12
REMARK SMILES IDX 7 13 8 14 9 15 13 16 11 17 10 18 12 20 4 22 21 24 18 26
REMARK H PARENT 10 19 12 21 4 23 21 25 18 27
REMARK Flexibility Score: inf
ROOT
ATOM      1  C   UNL     1      27.596  65.693   5.106  1.00  0.00     0.180 A 
ATOM      2  C   UNL     1      28.964  65.415   4.925  1.00  0.00     0.208 A 
ATOM      3  C   UNL     1      29.368  64.084   4.737  1.00  0.00     0.238 A 
ATOM      4  O   UNL     1      30.592  63.822   4.586  1.00  0.00    -0.285 OA
ATOM      5  C   UNL     1      28.399  63.060   4.712  1.00  0.00     0.111 A 
ATOM      6  C   UNL     1      28.722  61.694   4.523  1.00  0.00     0.134 A 
ATOM      7  C   UNL     1      27.699  60.734   4.501  1.00  0.00     0.093 A 
ATOM      8  C   UNL     1      26.362  61.114   4.662  1.00  0.00     0.123 A 
ATOM      9  C   UNL     1      26.039  62.459   4.849  1.00  0.00     0.094 A 
ATOM     10  C   UNL     1      27.044  63.431   4.877  1.00  0.00     0.146 A 
ATOM     11  O   UNL     1      26.710  64.702   5.061  1.00  0.00    -0.452 OA
ENDROOT
BRANCH   1  12
ATOM     12  C   UNL     1      27.095  67.067   5.330  1.00  0.00     0.025 A 
ATOM     13  C   UNL     1      26.207  67.315   6.388  1.00  0.00     0.016 A 
ATOM     14  C   UNL     1      25.737  68.609   6.631  1.00  0.00     0.051 A 
ATOM     15  C   UNL     1      26.157  69.675   5.830  1.00  0.00     0.157 A 
ATOM     16  C   UNL     1      27.533  68.145   4.538  1.00  0.00     0.062 A 
ATOM     17  C   UNL     1      27.063  69.444   4.781  1.00  0.00     0.158 A 
BRANCH  15  18
ATOM     18  O   UNL     1      25.669  70.954   6.094  1.00  0.00    -0.504 OA
ATOM     19  H   UNL     1      25.910  71.458   6.939  1.00  0.00     0.293 HD
ENDBRANCH  15  18
BRANCH  17  20
ATOM     20  O   UNL     1      27.497  70.506   3.988  1.00  0.00    -0.504 OA
ATOM     21  H   UNL     1      26.902  71.304   3.800  1.00  0.00     0.293 HD
ENDBRANCH  17  20
ENDBRANCH   1  12
BRANCH   2  22
ATOM     22  O   UNL     1      29.899  66.454   4.906  1.00  0.00    -0.502 OA
ATOM     23  H   UNL     1      29.744  67.333   5.386  1.00  0.00     0.293 HD
ENDBRANCH   2  22
BRANCH   6  24
ATOM     24  O   UNL     1      30.045  61.284   4.357  1.00  0.00    -0.507 OA
ATOM     25  H   UNL     1      30.814  61.943   4.377  1.00  0.00     0.293 HD
ENDBRANCH   6  24
BRANCH   8  26
ATOM     26  O   UNL     1      25.346  60.161   4.639  1.00  0.00    -0.508 OA
ATOM     27  H   UNL     1      25.063  59.709   3.778  1.00  0.00     0.293 HD
ENDBRANCH   8  26
TORSDOF 6
ENDMDL
MODEL 3
REMARK VINA RESULT:    14.722      5.079      8.385
REMARK INTER + INTRA:          17.802
REMARK INTER:                  18.104
REMARK INTRA:                  -0.302
REMARK UNBOUND:                 0.067
REMARK SMILES O=c1c(O)c(-c2ccc(O)c(O)c2)oc2cc(O)cc(O)c12
REMARK SMILES IDX 5 1 3 2 2 3 1 4 22 5 20 6 19 7 17 8 16 9 15 10 14 11 6 12
REMARK SMILES IDX 7 13 8 14 9 15 13 16 11 17 10 18 12 20 4 22 21 24 18 26
REMARK H PARENT 10 19 12 21 4 23 21 25 18 27
REMARK Flexibility Score: inf
ROOT
ATOM      1  C   UNL     1      26.946  67.237   5.045  1.00  0.00     0.180 A 
ATOM      2  C   UNL     1      26.370  67.829   6.184  1.00  0.00     0.208 A 
ATOM      3  C   UNL     1      26.455  69.222   6.342  1.00  0.00     0.238 A 
ATOM      4  O   UNL     1      25.953  69.762   7.365  1.00  0.00    -0.285 OA
ATOM      5  C   UNL     1      27.093  69.997   5.352  1.00  0.00     0.111 A 
ATOM      6  C   UNL     1      27.217  71.405   5.432  1.00  0.00     0.134 A 
ATOM      7  C   UNL     1      27.858  72.107   4.401  1.00  0.00     0.093 A 
ATOM      8  C   UNL     1      28.376  71.428   3.292  1.00  0.00     0.123 A 
ATOM      9  C   UNL     1      28.256  70.040   3.208  1.00  0.00     0.094 A 
ATOM     10  C   UNL     1      27.622  69.322   4.227  1.00  0.00     0.146 A 
ATOM     11  O   UNL     1      27.526  68.002   4.124  1.00  0.00    -0.452 OA
ENDROOT
BRANCH   1  12
ATOM     12  C   UNL     1      26.915  65.775   4.817  1.00  0.00     0.025 A 
ATOM     13  C   UNL     1      26.023  65.241   3.873  1.00  0.00     0.016 A 
ATOM     14  C   UNL     1      25.991  63.866   3.627  1.00  0.00     0.051 A 
ATOM     15  C   UNL     1      26.858  63.006   4.308  1.00  0.00     0.157 A 
ATOM     16  C   UNL     1      27.801  64.910   5.485  1.00  0.00     0.062 A 
ATOM     17  C   UNL     1      27.771  63.529   5.239  1.00  0.00     0.158 A 
BRANCH  15  18
ATOM     18  O   UNL     1      26.801  61.637   4.043  1.00  0.00    -0.504 OA
ATOM     19  H   UNL     1      27.551  61.008   4.303  1.00  0.00     0.293 HD
ENDBRANCH  15  18
BRANCH  17  20
ATOM     20  O   UNL     1      28.648  62.678   5.910  1.00  0.00    -0.504 OA
ATOM     21  H   UNL     1      28.391  62.235   6.785  1.00  0.00     0.293 HD
ENDBRANCH  17  20
ENDBRANCH   1  12
BRANCH   2  22
ATOM     22  O   UNL     1      25.701  67.044   7.126  1.00  0.00    -0.502 OA
ATOM     23  H   UNL     1      25.428  66.086   6.939  1.00  0.00     0.293 HD
ENDBRANCH   2  22
BRANCH   6  24
ATOM     24  O   UNL     1      26.710  72.110   6.524  1.00  0.00    -0.507 OA
ATOM     25  H   UNL     1      27.189  72.915   6.909  1.00  0.00     0.293 HD
ENDBRANCH   6  24
BRANCH   8  26
ATOM     26  O   UNL     1      29.012  72.125   2.266  1.00  0.00    -0.508 OA
ATOM     27  H   UNL     1      29.364  71.650   1.444  1.00  0.00     0.293 HD
ENDBRANCH   8  26
TORSDOF 6
ENDMDL
