MODEL 1
REMARK VINA RESULT:    -3.290      0.000      0.000
REMARK INTER + INTRA:          -7.691
REMARK INTER:                  -5.983
REMARK INTRA:                  -1.707
REMARK UNBOUND:                -1.707
REMARK SMILES CCCCCCCCCCCCCC[C@H](C)C(=O)[O-]
REMARK SMILES IDX 9 1 10 2 11 3 12 4 13 5 14 6 15 7 16 8 17 9 18 10 19 11 8 12
REMARK SMILES IDX 7 13 6 14 5 15 4 16 3 17 2 18 1 19
REMARK H PARENT
REMARK Flexibility Score: inf
ROOT
ATOM      1  C   UNL     1       0.860   6.828   3.554  1.00  0.00     0.000 C 
ENDROOT
BRANCH   1   2
ATOM      2  C   UNL     1      -0.352   5.969   3.952  1.00  0.00     0.000 C 
BRANCH   2   3
ATOM      3  C   UNL     1      -1.692   6.635   3.603  1.00  0.00     0.000 C 
BRANCH   3   4
ATOM      4  C   UNL     1      -2.698   5.599   3.078  1.00  0.00     0.000 C 
BRANCH   4   5
ATOM      5  C   UNL     1      -2.399   5.162   1.635  1.00  0.00     0.001 C 
BRANCH   5   6
ATOM      6  C   UNL     1      -2.735   6.253   0.601  1.00  0.00     0.009 C 
BRANCH   6   7
ATOM      7  C   UNL     1      -3.061   5.657  -0.784  1.00  0.00     0.032 C 
ATOM      8  C   UNL     1      -2.911   4.133  -0.765  1.00  0.00     0.014 C 
BRANCH   7   9
ATOM      9  C   UNL     1      -2.187   6.247  -1.858  1.00  0.00     0.044 C 
ATOM     10  O   UNL     1      -1.006   5.837  -2.019  1.00  0.00    -0.550 OA
ATOM     11  O   UNL     1      -2.682   7.251  -2.681  1.00  0.00    -0.550 OA
ENDBRANCH   7   9
ENDBRANCH   6   7
ENDBRANCH   5   6
ENDBRANCH   4   5
ENDBRANCH   3   4
ENDBRANCH   2   3
ENDBRANCH   1   2
BRANCH   1  12
ATOM     12  C   UNL     1       0.716   7.440   2.150  1.00  0.00     0.000 C 
BRANCH  12  13
ATOM     13  C   UNL     1       2.055   7.517   1.399  1.00  0.00    -0.000 C 
BRANCH  13  14
ATOM     14  C   UNL     1       3.262   7.249   2.311  1.00  0.00    -0.000 C 
BRANCH  14  15
ATOM     15  C   UNL     1       4.234   6.259   1.657  1.00  0.00    -0.000 C 
BRANCH  15  16
ATOM     16  C   UNL     1       4.067   4.851   2.242  1.00  0.00    -0.000 C 
BRANCH  16  17
ATOM     17  C   UNL     1       4.205   4.872   3.771  1.00  0.00    -0.000 C 
BRANCH  17  18
ATOM     18  C   UNL     1       3.460   3.710   4.446  1.00  0.00    -0.003 C 
ATOM     19  C   UNL     1       2.438   3.046   3.523  1.00  0.00     0.004 C 
ENDBRANCH  17  18
ENDBRANCH  16  17
ENDBRANCH  15  16
ENDBRANCH  14  15
ENDBRANCH  13  14
ENDBRANCH  12  13
ENDBRANCH   1  12
TORSDOF 14
ENDMDL
MODEL 2
REMARK VINA RESULT:    -3.268      5.600      7.921
REMARK INTER + INTRA:          -7.650
REMARK INTER:                  -6.092
REMARK INTRA:                  -1.558
REMARK UNBOUND:                -1.707
REMARK SMILES CCCCCCCCCCCCCC[C@H](C)C(=O)[O-]
REMARK SMILES IDX 9 1 10 2 11 3 12 4 13 5 14 6 15 7 16 8 17 9 18 10 19 11 8 12
REMARK SMILES IDX 7 13 6 14 5 15 4 16 3 17 2 18 1 19
REMARK H PARENT
REMARK Flexibility Score: inf
ROOT
ATOM      1  C   UNL     1       2.272   3.428   3.699  1.00  0.00     0.000 C 
ENDROOT
BRANCH   1   2
ATOM      2  C   UNL     1       3.666   3.744   3.131  1.00  0.00     0.000 C 
BRANCH   2   3
ATOM      3  C   UNL     1       4.381   4.867   3.900  1.00  0.00     0.000 C 
BRANCH   3   4
ATOM      4  C   UNL     1       5.330   5.645   2.975  1.00  0.00     0.000 C 
BRANCH   4   5
ATOM      5  C   UNL     1       4.899   5.587   1.501  1.00  0.00     0.001 C 
BRANCH   5   6
ATOM      6  C   UNL     1       6.030   5.112   0.569  1.00  0.00     0.009 C 
BRANCH   6   7
ATOM      7  C   UNL     1       7.385   5.760   0.927  1.00  0.00     0.032 C 
ATOM      8  C   UNL     1       7.579   7.068   0.151  1.00  0.00     0.014 C 
BRANCH   7   9
ATOM      9  C   UNL     1       8.532   4.825   0.654  1.00  0.00     0.044 C 
ATOM     10  O   UNL     1       9.458   4.683   1.497  1.00  0.00    -0.550 OA
ATOM     11  O   UNL     1       8.574   4.110  -0.537  1.00  0.00    -0.550 OA
ENDBRANCH   7   9
ENDBRANCH   6   7
ENDBRANCH   5   6
ENDBRANCH   4   5
ENDBRANCH   3   4
ENDBRANCH   2   3
ENDBRANCH   1   2
BRANCH   1  12
ATOM     12  C   UNL     1       2.309   2.333   4.781  1.00  0.00     0.000 C 
BRANCH  12  13
ATOM     13  C   UNL     1       2.100   2.895   6.196  1.00  0.00    -0.000 C 
BRANCH  13  14
ATOM     14  C   UNL     1       3.292   2.621   7.125  1.00  0.00    -0.000 C 
BRANCH  14  15
ATOM     15  C   UNL     1       4.477   2.044   6.341  1.00  0.00    -0.000 C 
BRANCH  15  16
ATOM     16  C   UNL     1       4.847   0.646   6.850  1.00  0.00    -0.000 C 
BRANCH  16  17
ATOM     17  C   UNL     1       3.851   0.166   7.916  1.00  0.00    -0.000 C 
BRANCH  17  18
ATOM     18  C   UNL     1       3.094  -1.100   7.488  1.00  0.00    -0.003 C 
ATOM     19  C   UNL     1       1.776  -0.791   6.778  1.00  0.00     0.004 C 
ENDBRANCH  17  18
ENDBRANCH  16  17
ENDBRANCH  15  16
ENDBRANCH  14  15
ENDBRANCH  13  14
ENDBRANCH  12  13
ENDBRANCH   1  12
TORSDOF 14
ENDMDL
MODEL 3
REMARK VINA RESULT:    -3.208     10.043     11.883
REMARK INTER + INTRA:          -7.541
REMARK INTER:                  -5.250
REMARK INTRA:                  -2.290
REMARK UNBOUND:                -1.707
REMARK SMILES CCCCCCCCCCCCCC[C@H](C)C(=O)[O-]
REMARK SMILES IDX 9 1 10 2 11 3 12 4 13 5 14 6 15 7 16 8 17 9 18 10 19 11 8 12
REMARK SMILES IDX 7 13 6 14 5 15 4 16 3 17 2 18 1 19
REMARK H PARENT
REMARK Flexibility Score: inf
ROOT
ATOM      1  C   UNL     1       4.857  -2.256  -7.724  1.00  0.00     0.000 C 
ENDROOT
BRANCH   1   2
ATOM      2  C   UNL     1       6.222  -1.552  -7.652  1.00  0.00     0.000 C 
BRANCH   2   3
ATOM      3  C   UNL     1       6.212  -0.167  -8.318  1.00  0.00     0.000 C 
BRANCH   3   4
ATOM      4  C   UNL     1       6.848   0.887  -7.398  1.00  0.00     0.000 C 
BRANCH   4   5
ATOM      5  C   UNL     1       5.842   1.486  -6.401  1.00  0.00     0.001 C 
BRANCH   5   6
ATOM      6  C   UNL     1       4.435   1.653  -7.005  1.00  0.00     0.009 C 
BRANCH   6   7
ATOM      7  C   UNL     1       3.335   1.113  -6.068  1.00  0.00     0.032 C 
ATOM      8  C   UNL     1       2.132   0.615  -6.877  1.00  0.00     0.014 C 
BRANCH   7   9
ATOM      9  C   UNL     1       2.891   2.158  -5.079  1.00  0.00     0.044 C 
ATOM     10  O   UNL     1       2.492   3.286  -5.474  1.00  0.00    -0.550 OA
ATOM     11  O   UNL     1       2.920   1.879  -3.718  1.00  0.00    -0.550 OA
ENDBRANCH   7   9
ENDBRANCH   6   7
ENDBRANCH   5   6
ENDBRANCH   4   5
ENDBRANCH   3   4
ENDBRANCH   2   3
ENDBRANCH   1   2
BRANCH   1  12
ATOM     12  C   UNL     1       4.192  -2.400  -6.343  1.00  0.00     0.000 C 
BRANCH  12  13
ATOM     13  C   UNL     1       5.155  -2.077  -5.189  1.00  0.00    -0.000 C 
BRANCH  13  14
ATOM     14  C   UNL     1       5.632  -3.334  -4.445  1.00  0.00    -0.000 C 
BRANCH  14  15
ATOM     15  C   UNL     1       7.156  -3.478  -4.533  1.00  0.00    -0.000 C 
BRANCH  15  16
ATOM     16  C   UNL     1       7.860  -2.187  -4.095  1.00  0.00    -0.000 C 
BRANCH  16  17
ATOM     17  C   UNL     1       9.239  -2.061  -4.757  1.00  0.00    -0.000 C 
BRANCH  17  18
ATOM     18  C   UNL     1       9.988  -0.792  -4.322  1.00  0.00    -0.003 C 
ATOM     19  C   UNL     1       9.909   0.328  -5.359  1.00  0.00     0.004 C 
ENDBRANCH  17  18
ENDBRANCH  16  17
ENDBRANCH  15  16
ENDBRANCH  14  15
ENDBRANCH  13  14
ENDBRANCH  12  13
ENDBRANCH   1  12
TORSDOF 14
ENDMDL
MODEL 4
REMARK VINA RESULT:    -3.188      9.366     12.337
REMARK INTER + INTRA:          -7.505
REMARK INTER:                  -5.524
REMARK INTRA:                  -1.982
REMARK UNBOUND:                -1.707
REMARK SMILES CCCCCCCCCCCCCC[C@H](C)C(=O)[O-]
REMARK SMILES IDX 9 1 10 2 11 3 12 4 13 5 14 6 15 7 16 8 17 9 18 10 19 11 8 12
REMARK SMILES IDX 7 13 6 14 5 15 4 16 3 17 2 18 1 19
REMARK H PARENT
REMARK Flexibility Score: inf
ROOT
ATOM      1  C   UNL     1      -3.695  -3.756   4.363  1.00  0.00     0.000 C 
ENDROOT
BRANCH   1   2
ATOM      2  C   UNL     1      -2.399  -3.772   3.534  1.00  0.00     0.000 C 
BRANCH   2   3
ATOM      3  C   UNL     1      -1.656  -5.114   3.620  1.00  0.00     0.000 C 
BRANCH   3   4
ATOM      4  C   UNL     1      -0.348  -4.966   4.414  1.00  0.00     0.000 C 
BRANCH   4   5
ATOM      5  C   UNL     1       0.389  -3.654   4.100  1.00  0.00     0.001 C 
BRANCH   5   6
ATOM      6  C   UNL     1       0.687  -2.823   5.362  1.00  0.00     0.009 C 
BRANCH   6   7
ATOM      7  C   UNL     1      -0.214  -1.573   5.459  1.00  0.00     0.032 C 
ATOM      8  C   UNL     1       0.636  -0.304   5.586  1.00  0.00     0.014 C 
BRANCH   7   9
ATOM      9  C   UNL     1      -1.169  -1.671   6.618  1.00  0.00     0.044 C 
ATOM     10  O   UNL     1      -1.702  -0.635   7.098  1.00  0.00    -0.550 OA
ATOM     11  O   UNL     1      -1.470  -2.912   7.166  1.00  0.00    -0.550 OA
ENDBRANCH   7   9
ENDBRANCH   6   7
ENDBRANCH   5   6
ENDBRANCH   4   5
ENDBRANCH   3   4
ENDBRANCH   2   3
ENDBRANCH   1   2
BRANCH   1  12
ATOM     12  C   UNL     1      -4.739  -2.770   3.809  1.00  0.00     0.000 C 
BRANCH  12  13
ATOM     13  C   UNL     1      -5.586  -3.382   2.681  1.00  0.00    -0.000 C 
BRANCH  13  14
ATOM     14  C   UNL     1      -6.262  -4.698   3.094  1.00  0.00    -0.000 C 
BRANCH  14  15
ATOM     15  C   UNL     1      -5.909  -5.826   2.115  1.00  0.00    -0.000 C 
BRANCH  15  16
ATOM     16  C   UNL     1      -5.017  -6.879   2.784  1.00  0.00    -0.000 C 
BRANCH  16  17
ATOM     17  C   UNL     1      -3.863  -7.290   1.859  1.00  0.00    -0.000 C 
BRANCH  17  18
ATOM     18  C   UNL     1      -3.706  -6.347   0.656  1.00  0.00    -0.003 C 
ATOM     19  C   UNL     1      -3.564  -7.095  -0.669  1.00  0.00     0.004 C 
ENDBRANCH  17  18
ENDBRANCH  16  17
ENDBRANCH  15  16
ENDBRANCH  14  15
ENDBRANCH  13  14
ENDBRANCH  12  13
ENDBRANCH   1  12
TORSDOF 14
ENDMDL
MODEL 5
REMARK VINA RESULT:    -3.174      0.991      2.651
REMARK INTER + INTRA:          -7.479
REMARK INTER:                  -5.705
REMARK INTRA:                  -1.774
REMARK UNBOUND:                -1.707
REMARK SMILES CCCCCCCCCCCCCC[C@H](C)C(=O)[O-]
REMARK SMILES IDX 9 1 10 2 11 3 12 4 13 5 14 6 15 7 16 8 17 9 18 10 19 11 8 12
REMARK SMILES IDX 7 13 6 14 5 15 4 16 3 17 2 18 1 19
REMARK H PARENT
REMARK Flexibility Score: inf
ROOT
ATOM      1  C   UNL     1       1.047   5.947   5.249  1.00  0.00     0.000 C 
ENDROOT
BRANCH   1   2
ATOM      2  C   UNL     1       0.122   6.779   4.345  1.00  0.00     0.000 C 
BRANCH   2   3
ATOM      3  C   UNL     1      -0.380   5.991   3.124  1.00  0.00     0.000 C 
BRANCH   3   4
ATOM      4  C   UNL     1      -1.915   5.922   3.111  1.00  0.00     0.000 C 
BRANCH   4   5
ATOM      5  C   UNL     1      -2.467   5.269   1.834  1.00  0.00     0.001 C 
BRANCH   5   6
ATOM      6  C   UNL     1      -2.944   6.303   0.797  1.00  0.00     0.009 C 
BRANCH   6   7
ATOM      7  C   UNL     1      -2.927   5.735  -0.638  1.00  0.00     0.032 C 
ATOM      8  C   UNL     1      -2.645   4.229  -0.619  1.00  0.00     0.014 C 
BRANCH   7   9
ATOM      9  C   UNL     1      -1.911   6.438  -1.497  1.00  0.00     0.044 C 
ATOM     10  O   UNL     1      -0.928   5.808  -1.972  1.00  0.00    -0.550 OA
ATOM     11  O   UNL     1      -2.054   7.792  -1.772  1.00  0.00    -0.550 OA
ENDBRANCH   7   9
ENDBRANCH   6   7
ENDBRANCH   5   6
ENDBRANCH   4   5
ENDBRANCH   3   4
ENDBRANCH   2   3
ENDBRANCH   1   2
BRANCH   1  12
ATOM     12  C   UNL     1       0.578   4.489   5.393  1.00  0.00     0.000 C 
BRANCH  12  13
ATOM     13  C   UNL     1       1.724   3.480   5.211  1.00  0.00    -0.000 C 
BRANCH  13  14
ATOM     14  C   UNL     1       2.258   3.443   3.771  1.00  0.00    -0.000 C 
BRANCH  14  15
ATOM     15  C   UNL     1       3.792   3.428   3.755  1.00  0.00    -0.000 C 
BRANCH  15  16
ATOM     16  C   UNL     1       4.357   4.847   3.612  1.00  0.00    -0.000 C 
BRANCH  16  17
ATOM     17  C   UNL     1       3.910   5.485   2.288  1.00  0.00    -0.000 C 
BRANCH  17  18
ATOM     18  C   UNL     1       3.559   6.973   2.440  1.00  0.00    -0.003 C 
ATOM     19  C   UNL     1       2.545   7.451   1.401  1.00  0.00     0.004 C 
ENDBRANCH  17  18
ENDBRANCH  16  17
ENDBRANCH  15  16
ENDBRANCH  14  15
ENDBRANCH  13  14
ENDBRANCH  12  13
ENDBRANCH   1  12
TORSDOF 14
ENDMDL
MODEL 6
REMARK VINA RESULT:    -3.169      5.050      7.347
REMARK INTER + INTRA:          -7.471
REMARK INTER:                  -5.821
REMARK INTRA:                  -1.650
REMARK UNBOUND:                -1.707
REMARK SMILES CCCCCCCCCCCCCC[C@H](C)C(=O)[O-]
REMARK SMILES IDX 9 1 10 2 11 3 12 4 13 5 14 6 15 7 16 8 17 9 18 10 19 11 8 12
REMARK SMILES IDX 7 13 6 14 5 15 4 16 3 17 2 18 1 19
REMARK H PARENT
REMARK Flexibility Score: inf
ROOT
ATOM      1  C   UNL     1       1.466   4.625   4.126  1.00  0.00     0.000 C 
ENDROOT
BRANCH   1   2
ATOM      2  C   UNL     1       2.198   3.318   3.778  1.00  0.00     0.000 C 
BRANCH   2   3
ATOM      3  C   UNL     1       3.622   3.556   3.253  1.00  0.00     0.000 C 
BRANCH   3   4
ATOM      4  C   UNL     1       4.323   4.664   4.056  1.00  0.00     0.000 C 
BRANCH   4   5
ATOM      5  C   UNL     1       4.957   5.736   3.155  1.00  0.00     0.001 C 
BRANCH   5   6
ATOM      6  C   UNL     1       5.112   5.270   1.695  1.00  0.00     0.009 C 
BRANCH   6   7
ATOM      7  C   UNL     1       6.233   6.035   0.959  1.00  0.00     0.032 C 
ATOM      8  C   UNL     1       5.815   6.351  -0.481  1.00  0.00     0.014 C 
BRANCH   7   9
ATOM      9  C   UNL     1       7.523   5.259   0.962  1.00  0.00     0.044 C 
ATOM     10  O   UNL     1       8.355   5.402   1.898  1.00  0.00    -0.550 OA
ATOM     11  O   UNL     1       7.802   4.376  -0.073  1.00  0.00    -0.550 OA
ENDBRANCH   7   9
ENDBRANCH   6   7
ENDBRANCH   5   6
ENDBRANCH   4   5
ENDBRANCH   3   4
ENDBRANCH   2   3
ENDBRANCH   1   2
BRANCH   1  12
ATOM     12  C   UNL     1       0.743   4.555   5.483  1.00  0.00     0.000 C 
BRANCH  12  13
ATOM     13  C   UNL     1       1.109   3.293   6.281  1.00  0.00    -0.000 C 
BRANCH  13  14
ATOM     14  C   UNL     1      -0.114   2.422   6.606  1.00  0.00    -0.000 C 
BRANCH  14  15
ATOM     15  C   UNL     1       0.299   0.964   6.845  1.00  0.00    -0.000 C 
BRANCH  15  16
ATOM     16  C   UNL     1       1.520   0.590   5.996  1.00  0.00    -0.000 C 
BRANCH  16  17
ATOM     17  C   UNL     1       2.556  -0.177   6.830  1.00  0.00    -0.000 C 
BRANCH  17  18
ATOM     18  C   UNL     1       3.561   0.755   7.524  1.00  0.00    -0.003 C 
ATOM     19  C   UNL     1       4.342   1.624   6.538  1.00  0.00     0.004 C 
ENDBRANCH  17  18
ENDBRANCH  16  17
ENDBRANCH  15  16
ENDBRANCH  14  15
ENDBRANCH  13  14
ENDBRANCH  12  13
ENDBRANCH   1  12
TORSDOF 14
ENDMDL
MODEL 7
REMARK VINA RESULT:    -3.128      3.559      7.366
REMARK INTER + INTRA:          -7.396
REMARK INTER:                  -5.741
REMARK INTRA:                  -1.654
REMARK UNBOUND:                -1.707
REMARK SMILES CCCCCCCCCCCCCC[C@H](C)C(=O)[O-]
REMARK SMILES IDX 9 1 10 2 11 3 12 4 13 5 14 6 15 7 16 8 17 9 18 10 19 11 8 12
REMARK SMILES IDX 7 13 6 14 5 15 4 16 3 17 2 18 1 19
REMARK H PARENT
REMARK Flexibility Score: inf
ROOT
ATOM      1  C   UNL     1       2.587   7.166   2.169  1.00  0.00     0.000 C 
ENDROOT
BRANCH   1   2
ATOM      2  C   UNL     1       3.345   6.198   3.093  1.00  0.00     0.000 C 
BRANCH   2   3
ATOM      3  C   UNL     1       3.947   5.003   2.337  1.00  0.00     0.000 C 
BRANCH   3   4
ATOM      4  C   UNL     1       3.956   3.745   3.219  1.00  0.00     0.000 C 
BRANCH   4   5
ATOM      5  C   UNL     1       2.542   3.215   3.508  1.00  0.00     0.001 C 
BRANCH   5   6
ATOM      6  C   UNL     1       2.404   2.637   4.929  1.00  0.00     0.009 C 
BRANCH   6   7
ATOM      7  C   UNL     1       3.561   3.079   5.849  1.00  0.00     0.032 C 
ATOM      8  C   UNL     1       4.228   1.862   6.500  1.00  0.00     0.014 C 
BRANCH   7   9
ATOM      9  C   UNL     1       3.087   4.034   6.911  1.00  0.00     0.044 C 
ATOM     10  O   UNL     1       2.110   4.800   6.694  1.00  0.00    -0.550 OA
ATOM     11  O   UNL     1       3.728   4.074   8.143  1.00  0.00    -0.550 OA
ENDBRANCH   7   9
ENDBRANCH   6   7
ENDBRANCH   5   6
ENDBRANCH   4   5
ENDBRANCH   3   4
ENDBRANCH   2   3
ENDBRANCH   1   2
BRANCH   1  12
ATOM     12  C   UNL     1       1.105   7.314   2.556  1.00  0.00     0.000 C 
BRANCH  12  13
ATOM     13  C   UNL     1       0.754   6.555   3.846  1.00  0.00    -0.000 C 
BRANCH  13  14
ATOM     14  C   UNL     1      -0.348   5.505   3.635  1.00  0.00    -0.000 C 
BRANCH  14  15
ATOM     15  C   UNL     1      -1.685   6.175   3.293  1.00  0.00    -0.000 C 
BRANCH  15  16
ATOM     16  C   UNL     1      -2.357   5.488   2.097  1.00  0.00    -0.000 C 
BRANCH  16  17
ATOM     17  C   UNL     1      -2.254   6.358   0.836  1.00  0.00    -0.000 C 
BRANCH  17  18
ATOM     18  C   UNL     1      -2.915   5.703  -0.387  1.00  0.00    -0.003 C 
ATOM     19  C   UNL     1      -2.610   4.209  -0.496  1.00  0.00     0.004 C 
ENDBRANCH  17  18
ENDBRANCH  16  17
ENDBRANCH  15  16
ENDBRANCH  14  15
ENDBRANCH  13  14
ENDBRANCH  12  13
ENDBRANCH   1  12
TORSDOF 14
ENDMDL
MODEL 8
REMARK VINA RESULT:    -3.114      3.528      7.172
REMARK INTER + INTRA:          -7.370
REMARK INTER:                  -5.564
REMARK INTRA:                  -1.806
REMARK UNBOUND:                -1.707
REMARK SMILES CCCCCCCCCCCCCC[C@H](C)C(=O)[O-]
REMARK SMILES IDX 9 1 10 2 11 3 12 4 13 5 14 6 15 7 16 8 17 9 18 10 19 11 8 12
REMARK SMILES IDX 7 13 6 14 5 15 4 16 3 17 2 18 1 19
REMARK H PARENT
REMARK Flexibility Score: inf
ROOT
ATOM      1  C   UNL     1       1.884   6.990   4.399  1.00  0.00     0.000 C 
ENDROOT
BRANCH   1   2
ATOM      2  C   UNL     1       3.260   6.333   4.197  1.00  0.00     0.000 C 
BRANCH   2   3
ATOM      3  C   UNL     1       3.547   5.994   2.726  1.00  0.00     0.000 C 
BRANCH   3   4
ATOM      4  C   UNL     1       3.839   4.494   2.557  1.00  0.00     0.000 C 
BRANCH   4   5
ATOM      5  C   UNL     1       3.670   3.708   3.867  1.00  0.00     0.001 C 
BRANCH   5   6
ATOM      6  C   UNL     1       2.473   2.739   3.828  1.00  0.00     0.009 C 
BRANCH   6   7
ATOM      7  C   UNL     1       1.836   2.549   5.221  1.00  0.00     0.032 C 
ATOM      8  C   UNL     1       2.575   3.386   6.271  1.00  0.00     0.014 C 
BRANCH   7   9
ATOM      9  C   UNL     1       1.828   1.101   5.631  1.00  0.00     0.044 C 
ATOM     10  O   UNL     1       2.780   0.619   6.302  1.00  0.00    -0.550 OA
ATOM     11  O   UNL     1       0.763   0.285   5.270  1.00  0.00    -0.550 OA
ENDBRANCH   7   9
ENDBRANCH   6   7
ENDBRANCH   5   6
ENDBRANCH   4   5
ENDBRANCH   3   4
ENDBRANCH   2   3
ENDBRANCH   1   2
BRANCH   1  12
ATOM     12  C   UNL     1       0.720   6.037   4.068  1.00  0.00     0.000 C 
BRANCH  12  13
ATOM     13  C   UNL     1      -0.209   5.803   5.270  1.00  0.00    -0.000 C 
BRANCH  13  14
ATOM     14  C   UNL     1      -1.593   5.280   4.856  1.00  0.00    -0.000 C 
BRANCH  14  15
ATOM     15  C   UNL     1      -2.216   6.172   3.775  1.00  0.00    -0.000 C 
BRANCH  15  16
ATOM     16  C   UNL     1      -2.845   5.330   2.658  1.00  0.00    -0.000 C 
BRANCH  16  17
ATOM     17  C   UNL     1      -2.254   5.701   1.291  1.00  0.00    -0.000 C 
BRANCH  17  18
ATOM     18  C   UNL     1      -2.579   4.662   0.206  1.00  0.00    -0.003 C 
ATOM     19  C   UNL     1      -2.536   5.247  -1.205  1.00  0.00     0.004 C 
ENDBRANCH  17  18
ENDBRANCH  16  17
ENDBRANCH  15  16
ENDBRANCH  14  15
ENDBRANCH  13  14
ENDBRANCH  12  13
ENDBRANCH   1  12
TORSDOF 14
ENDMDL
MODEL 9
REMARK VINA RESULT:    -3.110      4.577      6.613
REMARK INTER + INTRA:          -7.363
REMARK INTER:                  -4.823
REMARK INTRA:                  -2.540
REMARK UNBOUND:                -1.707
REMARK SMILES CCCCCCCCCCCCCC[C@H](C)C(=O)[O-]
REMARK SMILES IDX 9 1 10 2 11 3 12 4 13 5 14 6 15 7 16 8 17 9 18 10 19 11 8 12
REMARK SMILES IDX 7 13 6 14 5 15 4 16 3 17 2 18 1 19
REMARK H PARENT
REMARK Flexibility Score: inf
ROOT
ATOM      1  C   UNL     1       1.179   3.306   5.929  1.00  0.00     0.000 C 
ENDROOT
BRANCH   1   2
ATOM      2  C   UNL     1       1.676   4.004   4.652  1.00  0.00     0.000 C 
BRANCH   2   3
ATOM      3  C   UNL     1       2.371   3.038   3.679  1.00  0.00     0.000 C 
BRANCH   3   4
ATOM      4  C   UNL     1       3.820   3.475   3.416  1.00  0.00     0.000 C 
BRANCH   4   5
ATOM      5  C   UNL     1       4.099   4.913   3.882  1.00  0.00     0.001 C 
BRANCH   5   6
ATOM      6  C   UNL     1       5.167   5.618   3.025  1.00  0.00     0.009 C 
BRANCH   6   7
ATOM      7  C   UNL     1       4.807   5.604   1.524  1.00  0.00     0.032 C 
ATOM      8  C   UNL     1       6.025   5.212   0.681  1.00  0.00     0.014 C 
BRANCH   7   9
ATOM      9  C   UNL     1       4.276   6.937   1.071  1.00  0.00     0.044 C 
ATOM     10  O   UNL     1       4.814   7.548   0.109  1.00  0.00    -0.550 OA
ATOM     11  O   UNL     1       3.183   7.502   1.716  1.00  0.00    -0.550 OA
ENDBRANCH   7   9
ENDBRANCH   6   7
ENDBRANCH   5   6
ENDBRANCH   4   5
ENDBRANCH   3   4
ENDBRANCH   2   3
ENDBRANCH   1   2
BRANCH   1  12
ATOM     12  C   UNL     1       1.408   1.784   5.899  1.00  0.00     0.000 C 
BRANCH  12  13
ATOM     13  C   UNL     1       2.218   1.286   7.107  1.00  0.00    -0.000 C 
BRANCH  13  14
ATOM     14  C   UNL     1       3.548   0.632   6.701  1.00  0.00    -0.000 C 
BRANCH  14  15
ATOM     15  C   UNL     1       4.655   1.684   6.562  1.00  0.00    -0.000 C 
BRANCH  15  16
ATOM     16  C   UNL     1       4.693   2.611   7.783  1.00  0.00    -0.000 C 
BRANCH  16  17
ATOM     17  C   UNL     1       4.716   4.085   7.354  1.00  0.00    -0.000 C 
BRANCH  17  18
ATOM     18  C   UNL     1       3.668   4.931   8.093  1.00  0.00    -0.003 C 
ATOM     19  C   UNL     1       3.221   6.153   7.291  1.00  0.00     0.004 C 
ENDBRANCH  17  18
ENDBRANCH  16  17
ENDBRANCH  15  16
ENDBRANCH  14  15
ENDBRANCH  13  14
ENDBRANCH  12  13
ENDBRANCH   1  12
TORSDOF 14
ENDMDL
