MODEL 1
REMARK VINA RESULT:    -1.686      0.000      0.000
REMARK INTER + INTRA:          -2.017
REMARK INTER:                  -1.982
REMARK INTRA:                  -0.035
REMARK UNBOUND:                -0.035
REMARK SMILES CCCCC(=O)[O-]
REMARK SMILES IDX 4 1 5 2 6 3 7 4 3 5 2 6 1 7
REMARK H PARENT
REMARK Flexibility Score: inf
ROOT
ATOM      1  C   UNL     1      -6.143  28.192 -19.534  1.00  0.00     0.053 C 
ENDROOT
BRANCH   1   2
ATOM      2  C   UNL     1      -7.066  28.754 -18.495  1.00  0.00     0.041 C 
ATOM      3  O   UNL     1      -8.095  29.391 -18.841  1.00  0.00    -0.550 OA
ATOM      4  O   UNL     1      -6.807  28.545 -17.146  1.00  0.00    -0.550 OA
ENDBRANCH   1   2
BRANCH   1   5
ATOM      5  C   UNL     1      -6.303  28.905 -20.883  1.00  0.00     0.006 C 
BRANCH   5   6
ATOM      6  C   UNL     1      -6.331  27.920 -22.060  1.00  0.00    -0.003 C 
ATOM      7  C   UNL     1      -4.964  27.824 -22.730  1.00  0.00     0.004 C 
ENDBRANCH   5   6
ENDBRANCH   1   5
TORSDOF 3
ENDMDL
MODEL 2
REMARK VINA RESULT:    -1.644      0.072      1.224
REMARK INTER + INTRA:          -1.967
REMARK INTER:                  -1.934
REMARK INTRA:                  -0.033
REMARK UNBOUND:                -0.035
REMARK SMILES CCCCC(=O)[O-]
REMARK SMILES IDX 4 1 5 2 6 3 7 4 3 5 2 6 1 7
REMARK H PARENT
REMARK Flexibility Score: inf
ROOT
ATOM      1  C   UNL     1      -6.111  28.210 -19.516  1.00  0.00     0.053 C 
ENDROOT
BRANCH   1   2
ATOM      2  C   UNL     1      -7.036  28.724 -18.454  1.00  0.00     0.041 C 
ATOM      3  O   UNL     1      -6.755  28.560 -17.238  1.00  0.00    -0.550 OA
ATOM      4  O   UNL     1      -8.190  29.411 -18.808  1.00  0.00    -0.550 OA
ENDBRANCH   1   2
BRANCH   1   5
ATOM      5  C   UNL     1      -6.349  28.904 -20.863  1.00  0.00     0.006 C 
BRANCH   5   6
ATOM      6  C   UNL     1      -6.379  27.909 -22.032  1.00  0.00    -0.003 C 
ATOM      7  C   UNL     1      -5.021  27.829 -22.722  1.00  0.00     0.004 C 
ENDBRANCH   5   6
ENDBRANCH   1   5
TORSDOF 3
ENDMDL
MODEL 3
REMARK VINA RESULT:    -1.426      3.043      5.192
REMARK INTER + INTRA:          -1.711
REMARK INTER:                  -1.670
REMARK INTRA:                  -0.041
REMARK UNBOUND:                -0.035
REMARK SMILES CCCCC(=O)[O-]
REMARK SMILES IDX 4 1 5 2 6 3 7 4 3 5 2 6 1 7
REMARK H PARENT
REMARK Flexibility Score: inf
ROOT
ATOM      1  C   UNL     1      -8.400  29.475 -17.475  1.00  0.00     0.053 C 
ENDROOT
BRANCH   1   2
ATOM      2  C   UNL     1      -7.135  28.782 -17.880  1.00  0.00     0.041 C 
ATOM      3  O   UNL     1      -6.397  28.251 -17.008  1.00  0.00    -0.550 OA
ATOM      4  O   UNL     1      -6.787  28.694 -19.222  1.00  0.00    -0.550 OA
ENDBRANCH   1   2
BRANCH   1   5
ATOM      5  C   UNL     1      -8.488  29.660 -15.955  1.00  0.00     0.006 C 
BRANCH   5   6
ATOM      6  C   UNL     1      -9.396  30.834 -15.563  1.00  0.00    -0.003 C 
ATOM      7  C   UNL     1      -9.015  32.101 -16.323  1.00  0.00     0.004 C 
ENDBRANCH   5   6
ENDBRANCH   1   5
TORSDOF 3
ENDMDL
MODEL 4
REMARK VINA RESULT:    -1.342      2.952      4.184
REMARK INTER + INTRA:          -1.612
REMARK INTER:                  -1.579
REMARK INTRA:                  -0.033
REMARK UNBOUND:                -0.035
REMARK SMILES CCCCC(=O)[O-]
REMARK SMILES IDX 4 1 5 2 6 3 7 4 3 5 2 6 1 7
REMARK H PARENT
REMARK Flexibility Score: inf
ROOT
ATOM      1  C   UNL     1      -8.645  29.768 -17.162  1.00  0.00     0.053 C 
ENDROOT
BRANCH   1   2
ATOM      2  C   UNL     1      -9.020  30.782 -16.123  1.00  0.00     0.041 C 
ATOM      3  O   UNL     1      -9.194  30.428 -14.927  1.00  0.00    -0.550 OA
ATOM      4  O   UNL     1      -9.146  32.121 -16.470  1.00  0.00    -0.550 OA
ENDBRANCH   1   2
BRANCH   1   5
ATOM      5  C   UNL     1      -7.604  28.772 -16.635  1.00  0.00     0.006 C 
BRANCH   5   6
ATOM      6  C   UNL     1      -6.383  28.664 -17.560  1.00  0.00    -0.003 C 
ATOM      7  C   UNL     1      -6.806  28.600 -19.024  1.00  0.00     0.004 C 
ENDBRANCH   5   6
ENDBRANCH   1   5
TORSDOF 3
ENDMDL
MODEL 5
REMARK VINA RESULT:    -1.034      4.231      5.198
REMARK INTER + INTRA:          -1.251
REMARK INTER:                  -1.176
REMARK INTRA:                  -0.075
REMARK UNBOUND:                -0.035
REMARK SMILES CCCCC(=O)[O-]
REMARK SMILES IDX 4 1 5 2 6 3 7 4 3 5 2 6 1 7
REMARK H PARENT
REMARK Flexibility Score: inf
ROOT
ATOM      1  C   UNL     1      -9.319  30.583 -15.963  1.00  0.00     0.053 C 
ENDROOT
BRANCH   1   2
ATOM      2  C   UNL     1      -9.061  32.054 -16.091  1.00  0.00     0.041 C 
ATOM      3  O   UNL     1      -9.178  32.622 -17.209  1.00  0.00    -0.550 OA
ATOM      4  O   UNL     1      -8.722  32.803 -14.971  1.00  0.00    -0.550 OA
ENDBRANCH   1   2
BRANCH   1   5
ATOM      5  C   UNL     1      -9.147  29.856 -17.302  1.00  0.00     0.006 C 
BRANCH   5   6
ATOM      6  C   UNL     1      -7.825  29.079 -17.376  1.00  0.00    -0.003 C 
ATOM      7  C   UNL     1      -7.403  28.578 -15.999  1.00  0.00     0.004 C 
ENDBRANCH   5   6
ENDBRANCH   1   5
TORSDOF 3
ENDMDL
MODEL 6
REMARK VINA RESULT:    -0.965      4.262      5.725
REMARK INTER + INTRA:          -1.170
REMARK INTER:                  -1.111
REMARK INTRA:                  -0.059
REMARK UNBOUND:                -0.035
REMARK SMILES CCCCC(=O)[O-]
REMARK SMILES IDX 4 1 5 2 6 3 7 4 3 5 2 6 1 7
REMARK H PARENT
REMARK Flexibility Score: inf
ROOT
ATOM      1  C   UNL     1      -8.939  29.835 -16.996  1.00  0.00     0.053 C 
ENDROOT
BRANCH   1   2
ATOM      2  C   UNL     1      -7.777  29.051 -16.466  1.00  0.00     0.041 C 
ATOM      3  O   UNL     1      -6.916  28.584 -17.256  1.00  0.00    -0.550 OA
ATOM      4  O   UNL     1      -7.629  28.864 -15.097  1.00  0.00    -0.550 OA
ENDBRANCH   1   2
BRANCH   1   5
ATOM      5  C   UNL     1      -9.467  30.840 -15.964  1.00  0.00     0.006 C 
BRANCH   5   6
ATOM      6  C   UNL     1      -8.992  32.271 -16.251  1.00  0.00    -0.003 C 
ATOM      7  C   UNL     1      -8.619  32.996 -14.961  1.00  0.00     0.004 C 
ENDBRANCH   5   6
ENDBRANCH   1   5
TORSDOF 3
ENDMDL
MODEL 7
REMARK VINA RESULT:    -0.434      2.638      4.906
REMARK INTER + INTRA:          -0.546
REMARK INTER:                  -0.520
REMARK INTRA:                  -0.026
REMARK UNBOUND:                -0.035
REMARK SMILES CCCCC(=O)[O-]
REMARK SMILES IDX 4 1 5 2 6 3 7 4 3 5 2 6 1 7
REMARK H PARENT
REMARK Flexibility Score: inf
ROOT
ATOM      1  C   UNL     1      -7.641  29.031 -17.287  1.00  0.00     0.053 C 
ENDROOT
BRANCH   1   2
ATOM      2  C   UNL     1      -7.233  28.894 -18.723  1.00  0.00     0.041 C 
ATOM      3  O   UNL     1      -7.925  29.427 -19.630  1.00  0.00    -0.550 OA
ATOM      4  O   UNL     1      -6.074  28.204 -19.055  1.00  0.00    -0.550 OA
ENDBRANCH   1   2
BRANCH   1   5
ATOM      5  C   UNL     1      -8.975  29.773 -17.141  1.00  0.00     0.006 C 
BRANCH   5   6
ATOM      6  C   UNL     1      -9.107  30.472 -15.781  1.00  0.00    -0.003 C 
ATOM      7  C   UNL     1      -9.002  31.987 -15.928  1.00  0.00     0.004 C 
ENDBRANCH   5   6
ENDBRANCH   1   5
TORSDOF 3
ENDMDL
MODEL 8
REMARK VINA RESULT:    -0.320     15.208     15.598
REMARK INTER + INTRA:          -0.412
REMARK INTER:                  -0.392
REMARK INTRA:                  -0.020
REMARK UNBOUND:                -0.035
REMARK SMILES CCCCC(=O)[O-]
REMARK SMILES IDX 4 1 5 2 6 3 7 4 3 5 2 6 1 7
REMARK H PARENT
REMARK Flexibility Score: inf
ROOT
ATOM      1  C   UNL     1     -10.011  25.540  -4.661  1.00  0.00     0.053 C 
ENDROOT
BRANCH   1   2
ATOM      2  C   UNL     1     -10.720  26.861  -4.698  1.00  0.00     0.041 C 
ATOM      3  O   UNL     1     -10.079  27.928  -4.507  1.00  0.00    -0.550 OA
ATOM      4  O   UNL     1     -12.080  26.914  -4.974  1.00  0.00    -0.550 OA
ENDBRANCH   1   2
BRANCH   1   5
ATOM      5  C   UNL     1      -8.551  25.665  -5.112  1.00  0.00     0.006 C 
BRANCH   5   6
ATOM      6  C   UNL     1      -8.022  24.366  -5.737  1.00  0.00    -0.003 C 
ATOM      7  C   UNL     1      -6.548  24.155  -5.402  1.00  0.00     0.004 C 
ENDBRANCH   5   6
ENDBRANCH   1   5
TORSDOF 3
ENDMDL
