MODEL 1
REMARK VINA RESULT:    -3.451      0.000      0.000
REMARK INTER + INTRA:          -9.437
REMARK INTER:                  -8.697
REMARK INTRA:                  -0.741
REMARK UNBOUND:                -0.741
REMARK SMILES CCCCCCCCCCCCCCCCCCCCCCCCCCCC(=O)[O-]
REMARK SMILES IDX 15 1 16 2 17 3 18 4 19 5 20 6 21 7 22 8 23 9 24 10 25 11
REMARK SMILES IDX 26 12 27 13 28 14 29 15 30 16 14 17 13 18 12 19 11 20 10 21
REMARK SMILES IDX 9 22 8 23 7 24 6 25 5 26 4 27 3 28 2 29 1 30
REMARK H PARENT
REMARK Flexibility Score: inf
ROOT
ATOM      1  C   UNL     1      41.359  66.287  21.967  1.00  0.00     0.000 C 
ENDROOT
BRANCH   1   2
ATOM      2  C   UNL     1      39.858  66.122  22.247  1.00  0.00     0.000 C 
BRANCH   2   3
ATOM      3  C   UNL     1      39.300  67.204  23.190  1.00  0.00     0.000 C 
BRANCH   3   4
ATOM      4  C   UNL     1      38.605  66.669  24.457  1.00  0.00     0.000 C 
BRANCH   4   5
ATOM      5  C   UNL     1      39.363  67.018  25.748  1.00  0.00     0.000 C 
BRANCH   5   6
ATOM      6  C   UNL     1      40.879  66.897  25.550  1.00  0.00     0.000 C 
BRANCH   6   7
ATOM      7  C   UNL     1      41.358  65.467  25.845  1.00  0.00     0.000 C 
BRANCH   7   8
ATOM      8  C   UNL     1      41.765  64.700  24.577  1.00  0.00     0.000 C 
BRANCH   8   9
ATOM      9  C   UNL     1      41.811  63.178  24.793  1.00  0.00     0.000 C 
BRANCH   9  10
ATOM     10  C   UNL     1      42.444  62.792  26.141  1.00  0.00     0.000 C 
BRANCH  10  11
ATOM     11  C   UNL     1      43.481  61.665  26.013  1.00  0.00     0.000 C 
BRANCH  11  12
ATOM     12  C   UNL     1      44.872  62.149  26.448  1.00  0.00     0.006 C 
BRANCH  12  13
ATOM     13  C   UNL     1      45.849  62.243  25.267  1.00  0.00     0.053 C 
BRANCH  13  14
ATOM     14  C   UNL     1      47.013  63.133  25.578  1.00  0.00     0.041 C 
ATOM     15  O   UNL     1      47.754  63.552  24.651  1.00  0.00    -0.550 OA
ATOM     16  O   UNL     1      47.273  63.507  26.891  1.00  0.00    -0.550 OA
ENDBRANCH  13  14
ENDBRANCH  12  13
ENDBRANCH  11  12
ENDBRANCH  10  11
ENDBRANCH   9  10
ENDBRANCH   8   9
ENDBRANCH   7   8
ENDBRANCH   6   7
ENDBRANCH   5   6
ENDBRANCH   4   5
ENDBRANCH   3   4
ENDBRANCH   2   3
ENDBRANCH   1   2
BRANCH   1  17
ATOM     17  C   UNL     1      41.774  67.763  22.057  1.00  0.00     0.000 C 
BRANCH  17  18
ATOM     18  C   UNL     1      42.133  68.194  23.490  1.00  0.00     0.000 C 
BRANCH  18  19
ATOM     19  C   UNL     1      43.351  69.133  23.607  1.00  0.00     0.000 C 
BRANCH  19  20
ATOM     20  C   UNL     1      43.324  70.094  24.809  1.00  0.00     0.000 C 
BRANCH  20  21
ATOM     21  C   UNL     1      44.459  71.127  24.774  1.00  0.00     0.000 C 
BRANCH  21  22
ATOM     22  C   UNL     1      43.926  72.543  25.046  1.00  0.00    -0.000 C 
BRANCH  22  23
ATOM     23  C   UNL     1      42.424  72.676  24.742  1.00  0.00    -0.000 C 
BRANCH  23  24
ATOM     24  C   UNL     1      41.699  73.593  25.745  1.00  0.00    -0.000 C 
BRANCH  24  25
ATOM     25  C   UNL     1      40.547  74.379  25.099  1.00  0.00    -0.000 C 
BRANCH  25  26
ATOM     26  C   UNL     1      40.410  74.108  23.591  1.00  0.00    -0.000 C 
BRANCH  26  27
ATOM     27  C   UNL     1      39.197  74.820  22.964  1.00  0.00    -0.000 C 
BRANCH  27  28
ATOM     28  C   UNL     1      37.972  73.919  22.712  1.00  0.00    -0.000 C 
BRANCH  28  29
ATOM     29  C   UNL     1      36.826  74.583  21.930  1.00  0.00    -0.003 C 
ATOM     30  C   UNL     1      37.262  75.846  21.186  1.00  0.00     0.004 C 
ENDBRANCH  28  29
ENDBRANCH  27  28
ENDBRANCH  26  27
ENDBRANCH  25  26
ENDBRANCH  24  25
ENDBRANCH  23  24
ENDBRANCH  22  23
ENDBRANCH  21  22
ENDBRANCH  20  21
ENDBRANCH  19  20
ENDBRANCH  18  19
ENDBRANCH  17  18
ENDBRANCH   1  17
TORSDOF 26
ENDMDL
MODEL 2
REMARK VINA RESULT:    -3.342      3.861      9.847
REMARK INTER + INTRA:          -9.163
REMARK INTER:                  -8.480
REMARK INTRA:                  -0.683
REMARK UNBOUND:                -0.741
REMARK SMILES CCCCCCCCCCCCCCCCCCCCCCCCCCCC(=O)[O-]
REMARK SMILES IDX 15 1 16 2 17 3 18 4 19 5 20 6 21 7 22 8 23 9 24 10 25 11
REMARK SMILES IDX 26 12 27 13 28 14 29 15 30 16 14 17 13 18 12 19 11 20 10 21
REMARK SMILES IDX 9 22 8 23 7 24 6 25 5 26 4 27 3 28 2 29 1 30
REMARK H PARENT
REMARK Flexibility Score: inf
ROOT
ATOM      1  C   UNL     1      40.251  66.446  22.256  1.00  0.00     0.000 C 
ENDROOT
BRANCH   1   2
ATOM      2  C   UNL     1      39.069  66.442  23.237  1.00  0.00     0.000 C 
BRANCH   2   3
ATOM      3  C   UNL     1      39.200  67.509  24.340  1.00  0.00     0.000 C 
BRANCH   3   4
ATOM      4  C   UNL     1      39.496  66.957  25.748  1.00  0.00     0.000 C 
BRANCH   4   5
ATOM      5  C   UNL     1      41.000  66.846  26.042  1.00  0.00     0.000 C 
BRANCH   5   6
ATOM      6  C   UNL     1      41.734  68.141  25.674  1.00  0.00     0.000 C 
BRANCH   6   7
ATOM      7  C   UNL     1      42.120  68.148  24.187  1.00  0.00     0.000 C 
BRANCH   7   8
ATOM      8  C   UNL     1      43.284  69.102  23.876  1.00  0.00     0.000 C 
BRANCH   8   9
ATOM      9  C   UNL     1      43.590  70.064  25.037  1.00  0.00     0.000 C 
BRANCH   9  10
ATOM     10  C   UNL     1      44.700  71.071  24.693  1.00  0.00     0.000 C 
BRANCH  10  11
ATOM     11  C   UNL     1      44.320  72.520  25.036  1.00  0.00     0.000 C 
BRANCH  11  12
ATOM     12  C   UNL     1      42.852  72.799  24.681  1.00  0.00     0.006 C 
BRANCH  12  13
ATOM     13  C   UNL     1      42.038  73.260  25.899  1.00  0.00     0.053 C 
BRANCH  13  14
ATOM     14  C   UNL     1      40.995  74.266  25.522  1.00  0.00     0.041 C 
ATOM     15  O   UNL     1      40.488  74.251  24.370  1.00  0.00    -0.550 OA
ATOM     16  O   UNL     1      40.575  75.215  26.446  1.00  0.00    -0.550 OA
ENDBRANCH  13  14
ENDBRANCH  12  13
ENDBRANCH  11  12
ENDBRANCH  10  11
ENDBRANCH   9  10
ENDBRANCH   8   9
ENDBRANCH   7   8
ENDBRANCH   6   7
ENDBRANCH   5   6
ENDBRANCH   4   5
ENDBRANCH   3   4
ENDBRANCH   2   3
ENDBRANCH   1   2
BRANCH   1  17
ATOM     17  C   UNL     1      41.100  65.178  22.417  1.00  0.00     0.000 C 
BRANCH  17  18
ATOM     18  C   UNL     1      41.568  64.953  23.866  1.00  0.00     0.000 C 
BRANCH  18  19
ATOM     19  C   UNL     1      41.696  63.476  24.291  1.00  0.00     0.000 C 
BRANCH  19  20
ATOM     20  C   UNL     1      42.355  63.245  25.664  1.00  0.00     0.000 C 
BRANCH  20  21
ATOM     21  C   UNL     1      42.894  61.818  25.836  1.00  0.00     0.000 C 
BRANCH  21  22
ATOM     22  C   UNL     1      44.187  61.812  26.667  1.00  0.00    -0.000 C 
BRANCH  22  23
ATOM     23  C   UNL     1      45.417  62.234  25.847  1.00  0.00    -0.000 C 
BRANCH  23  24
ATOM     24  C   UNL     1      46.434  63.035  26.680  1.00  0.00    -0.000 C 
BRANCH  24  25
ATOM     25  C   UNL     1      47.690  63.412  25.877  1.00  0.00    -0.000 C 
BRANCH  25  26
ATOM     26  C   UNL     1      47.406  63.592  24.375  1.00  0.00    -0.000 C 
BRANCH  26  27
ATOM     27  C   UNL     1      48.666  63.954  23.570  1.00  0.00    -0.000 C 
BRANCH  27  28
ATOM     28  C   UNL     1      48.662  65.368  22.954  1.00  0.00    -0.000 C 
BRANCH  28  29
ATOM     29  C   UNL     1      49.822  65.660  21.987  1.00  0.00    -0.003 C 
ATOM     30  C   UNL     1      50.744  64.459  21.779  1.00  0.00     0.004 C 
ENDBRANCH  28  29
ENDBRANCH  27  28
ENDBRANCH  26  27
ENDBRANCH  25  26
ENDBRANCH  24  25
ENDBRANCH  23  24
ENDBRANCH  22  23
ENDBRANCH  21  22
ENDBRANCH  20  21
ENDBRANCH  19  20
ENDBRANCH  18  19
ENDBRANCH  17  18
ENDBRANCH   1  17
TORSDOF 26
ENDMDL
MODEL 3
REMARK VINA RESULT:    -3.332      4.045      6.723
REMARK INTER + INTRA:          -9.137
REMARK INTER:                  -6.917
REMARK INTRA:                  -2.220
REMARK UNBOUND:                -0.741
REMARK SMILES CCCCCCCCCCCCCCCCCCCCCCCCCCCC(=O)[O-]
REMARK SMILES IDX 15 1 16 2 17 3 18 4 19 5 20 6 21 7 22 8 23 9 24 10 25 11
REMARK SMILES IDX 26 12 27 13 28 14 29 15 30 16 14 17 13 18 12 19 11 20 10 21
REMARK SMILES IDX 9 22 8 23 7 24 6 25 5 26 4 27 3 28 2 29 1 30
REMARK H PARENT
REMARK Flexibility Score: inf
ROOT
ATOM      1  C   UNL     1      40.337  65.443  22.072  1.00  0.00     0.000 C 
ENDROOT
BRANCH   1   2
ATOM      2  C   UNL     1      41.522  64.799  22.807  1.00  0.00     0.000 C 
BRANCH   2   3
ATOM      3  C   UNL     1      41.115  64.136  24.137  1.00  0.00     0.000 C 
BRANCH   3   4
ATOM      4  C   UNL     1      42.229  64.069  25.199  1.00  0.00     0.000 C 
BRANCH   4   5
ATOM      5  C   UNL     1      42.098  62.852  26.128  1.00  0.00     0.000 C 
BRANCH   5   6
ATOM      6  C   UNL     1      42.993  61.698  25.659  1.00  0.00     0.000 C 
BRANCH   6   7
ATOM      7  C   UNL     1      44.309  61.669  26.453  1.00  0.00     0.000 C 
BRANCH   7   8
ATOM      8  C   UNL     1      45.502  62.216  25.653  1.00  0.00     0.000 C 
BRANCH   8   9
ATOM      9  C   UNL     1      46.483  63.018  26.524  1.00  0.00     0.000 C 
BRANCH   9  10
ATOM     10  C   UNL     1      47.757  63.418  25.761  1.00  0.00     0.000 C 
BRANCH  10  11
ATOM     11  C   UNL     1      47.495  63.719  24.277  1.00  0.00     0.000 C 
BRANCH  11  12
ATOM     12  C   UNL     1      48.812  63.979  23.531  1.00  0.00     0.006 C 
BRANCH  12  13
ATOM     13  C   UNL     1      48.797  65.318  22.778  1.00  0.00     0.053 C 
BRANCH  13  14
ATOM     14  C   UNL     1      50.042  65.514  21.968  1.00  0.00     0.041 C 
ATOM     15  O   UNL     1      50.669  64.519  21.521  1.00  0.00    -0.550 OA
ATOM     16  O   UNL     1      50.503  66.797  21.699  1.00  0.00    -0.550 OA
ENDBRANCH  13  14
ENDBRANCH  12  13
ENDBRANCH  11  12
ENDBRANCH  10  11
ENDBRANCH   9  10
ENDBRANCH   8   9
ENDBRANCH   7   8
ENDBRANCH   6   7
ENDBRANCH   5   6
ENDBRANCH   4   5
ENDBRANCH   3   4
ENDBRANCH   2   3
ENDBRANCH   1   2
BRANCH   1  17
ATOM     17  C   UNL     1      40.645  66.903  21.710  1.00  0.00     0.000 C 
BRANCH  17  18
ATOM     18  C   UNL     1      41.804  67.490  22.536  1.00  0.00     0.000 C 
BRANCH  18  19
ATOM     19  C   UNL     1      41.380  68.290  23.784  1.00  0.00     0.000 C 
BRANCH  19  20
ATOM     20  C   UNL     1      41.736  67.637  25.132  1.00  0.00     0.000 C 
BRANCH  20  21
ATOM     21  C   UNL     1      40.513  67.057  25.856  1.00  0.00     0.000 C 
BRANCH  21  22
ATOM     22  C   UNL     1      39.273  67.074  24.947  1.00  0.00    -0.000 C 
BRANCH  22  23
ATOM     23  C   UNL     1      37.959  67.119  25.743  1.00  0.00    -0.000 C 
BRANCH  23  24
ATOM     24  C   UNL     1      36.775  67.625  24.898  1.00  0.00    -0.000 C 
BRANCH  24  25
ATOM     25  C   UNL     1      35.533  67.937  25.748  1.00  0.00    -0.000 C 
BRANCH  25  26
ATOM     26  C   UNL     1      35.115  66.761  26.648  1.00  0.00    -0.000 C 
BRANCH  26  27
ATOM     27  C   UNL     1      34.478  65.603  25.859  1.00  0.00    -0.000 C 
BRANCH  27  28
ATOM     28  C   UNL     1      34.920  64.193  26.301  1.00  0.00    -0.000 C 
BRANCH  28  29
ATOM     29  C   UNL     1      34.891  63.948  27.819  1.00  0.00    -0.003 C 
ATOM     30  C   UNL     1      34.264  62.606  28.198  1.00  0.00     0.004 C 
ENDBRANCH  28  29
ENDBRANCH  27  28
ENDBRANCH  26  27
ENDBRANCH  25  26
ENDBRANCH  24  25
ENDBRANCH  23  24
ENDBRANCH  22  23
ENDBRANCH  21  22
ENDBRANCH  20  21
ENDBRANCH  19  20
ENDBRANCH  18  19
ENDBRANCH  17  18
ENDBRANCH   1  17
TORSDOF 26
ENDMDL
MODEL 4
REMARK VINA RESULT:    -3.241      4.973      9.840
REMARK INTER + INTRA:          -8.907
REMARK INTER:                  -7.735
REMARK INTRA:                  -1.172
REMARK UNBOUND:                -0.741
REMARK SMILES CCCCCCCCCCCCCCCCCCCCCCCCCCCC(=O)[O-]
REMARK SMILES IDX 15 1 16 2 17 3 18 4 19 5 20 6 21 7 22 8 23 9 24 10 25 11
REMARK SMILES IDX 26 12 27 13 28 14 29 15 30 16 14 17 13 18 12 19 11 20 10 21
REMARK SMILES IDX 9 22 8 23 7 24 6 25 5 26 4 27 3 28 2 29 1 30
REMARK H PARENT
REMARK Flexibility Score: inf
ROOT
ATOM      1  C   UNL     1      41.005  65.287  22.383  1.00  0.00     0.000 C 
ENDROOT
BRANCH   1   2
ATOM      2  C   UNL     1      41.030  66.782  22.032  1.00  0.00     0.000 C 
BRANCH   2   3
ATOM      3  C   UNL     1      42.053  67.578  22.864  1.00  0.00     0.000 C 
BRANCH   3   4
ATOM      4  C   UNL     1      41.456  68.384  24.033  1.00  0.00     0.000 C 
BRANCH   4   5
ATOM      5  C   UNL     1      41.794  67.784  25.407  1.00  0.00     0.000 C 
BRANCH   5   6
ATOM      6  C   UNL     1      40.738  66.758  25.837  1.00  0.00     0.000 C 
BRANCH   6   7
ATOM      7  C   UNL     1      39.328  67.363  25.774  1.00  0.00     0.000 C 
BRANCH   7   8
ATOM      8  C   UNL     1      38.629  67.113  24.429  1.00  0.00     0.000 C 
BRANCH   8   9
ATOM      9  C   UNL     1      37.128  67.446  24.468  1.00  0.00     0.000 C 
BRANCH   9  10
ATOM     10  C   UNL     1      36.634  67.778  25.886  1.00  0.00     0.000 C 
BRANCH  10  11
ATOM     11  C   UNL     1      35.120  67.573  26.054  1.00  0.00     0.000 C 
BRANCH  11  12
ATOM     12  C   UNL     1      34.746  66.094  25.882  1.00  0.00     0.006 C 
BRANCH  12  13
ATOM     13  C   UNL     1      34.873  65.307  27.195  1.00  0.00     0.053 C 
BRANCH  13  14
ATOM     14  C   UNL     1      34.837  63.828  26.963  1.00  0.00     0.041 C 
ATOM     15  O   UNL     1      35.041  63.032  27.917  1.00  0.00    -0.550 OA
ATOM     16  O   UNL     1      34.568  63.328  25.695  1.00  0.00    -0.550 OA
ENDBRANCH  13  14
ENDBRANCH  12  13
ENDBRANCH  11  12
ENDBRANCH  10  11
ENDBRANCH   9  10
ENDBRANCH   8   9
ENDBRANCH   7   8
ENDBRANCH   6   7
ENDBRANCH   5   6
ENDBRANCH   4   5
ENDBRANCH   3   4
ENDBRANCH   2   3
ENDBRANCH   1   2
BRANCH   1  17
ATOM     17  C   UNL     1      41.828  65.008  23.649  1.00  0.00     0.000 C 
BRANCH  17  18
ATOM     18  C   UNL     1      41.390  63.722  24.373  1.00  0.00     0.000 C 
BRANCH  18  19
ATOM     19  C   UNL     1      42.329  63.254  25.503  1.00  0.00     0.000 C 
BRANCH  19  20
ATOM     20  C   UNL     1      42.537  61.730  25.592  1.00  0.00     0.000 C 
BRANCH  20  21
ATOM     21  C   UNL     1      43.807  61.344  26.363  1.00  0.00     0.000 C 
BRANCH  21  22
ATOM     22  C   UNL     1      45.031  62.104  25.826  1.00  0.00    -0.000 C 
BRANCH  22  23
ATOM     23  C   UNL     1      45.793  62.851  26.933  1.00  0.00    -0.000 C 
BRANCH  23  24
ATOM     24  C   UNL     1      47.201  63.288  26.487  1.00  0.00    -0.000 C 
BRANCH  24  25
ATOM     25  C   UNL     1      47.366  63.280  24.959  1.00  0.00    -0.000 C 
BRANCH  25  26
ATOM     26  C   UNL     1      48.139  64.503  24.436  1.00  0.00    -0.000 C 
BRANCH  26  27
ATOM     27  C   UNL     1      48.810  64.246  23.074  1.00  0.00    -0.000 C 
BRANCH  27  28
ATOM     28  C   UNL     1      49.032  65.504  22.210  1.00  0.00    -0.000 C 
BRANCH  28  29
ATOM     29  C   UNL     1      50.447  65.651  21.626  1.00  0.00    -0.003 C 
ATOM     30  C   UNL     1      51.081  64.311  21.248  1.00  0.00     0.004 C 
ENDBRANCH  28  29
ENDBRANCH  27  28
ENDBRANCH  26  27
ENDBRANCH  25  26
ENDBRANCH  24  25
ENDBRANCH  23  24
ENDBRANCH  22  23
ENDBRANCH  21  22
ENDBRANCH  20  21
ENDBRANCH  19  20
ENDBRANCH  18  19
ENDBRANCH  17  18
ENDBRANCH   1  17
TORSDOF 26
ENDMDL
MODEL 5
REMARK VINA RESULT:    -3.220      3.702      7.191
REMARK INTER + INTRA:          -8.855
REMARK INTER:                  -7.965
REMARK INTRA:                  -0.891
REMARK UNBOUND:                -0.741
REMARK SMILES CCCCCCCCCCCCCCCCCCCCCCCCCCCC(=O)[O-]
REMARK SMILES IDX 15 1 16 2 17 3 18 4 19 5 20 6 21 7 22 8 23 9 24 10 25 11
REMARK SMILES IDX 26 12 27 13 28 14 29 15 30 16 14 17 13 18 12 19 11 20 10 21
REMARK SMILES IDX 9 22 8 23 7 24 6 25 5 26 4 27 3 28 2 29 1 30
REMARK H PARENT
REMARK Flexibility Score: inf
ROOT
ATOM      1  C   UNL     1      42.550  68.437  24.134  1.00  0.00     0.000 C 
ENDROOT
BRANCH   1   2
ATOM      2  C   UNL     1      41.542  68.094  23.027  1.00  0.00     0.000 C 
BRANCH   2   3
ATOM      3  C   UNL     1      42.061  67.018  22.054  1.00  0.00     0.000 C 
BRANCH   3   4
ATOM      4  C   UNL     1      41.005  66.000  21.584  1.00  0.00     0.000 C 
BRANCH   4   5
ATOM      5  C   UNL     1      40.643  64.971  22.667  1.00  0.00     0.000 C 
BRANCH   5   6
ATOM      6  C   UNL     1      41.775  64.824  23.692  1.00  0.00     0.000 C 
BRANCH   6   7
ATOM      7  C   UNL     1      41.735  63.440  24.357  1.00  0.00     0.000 C 
BRANCH   7   8
ATOM      8  C   UNL     1      42.210  63.465  25.819  1.00  0.00     0.000 C 
BRANCH   8   9
ATOM      9  C   UNL     1      42.585  62.069  26.345  1.00  0.00     0.000 C 
BRANCH   9  10
ATOM     10  C   UNL     1      43.854  61.509  25.681  1.00  0.00     0.000 C 
BRANCH  10  11
ATOM     11  C   UNL     1      45.137  62.204  26.165  1.00  0.00     0.000 C 
BRANCH  11  12
ATOM     12  C   UNL     1      46.171  62.293  25.032  1.00  0.00     0.006 C 
BRANCH  12  13
ATOM     13  C   UNL     1      47.352  63.205  25.396  1.00  0.00     0.053 C 
BRANCH  13  14
ATOM     14  C   UNL     1      47.528  63.322  26.878  1.00  0.00     0.041 C 
ATOM     15  O   UNL     1      46.592  63.764  27.594  1.00  0.00    -0.550 OA
ATOM     16  O   UNL     1      48.724  62.935  27.470  1.00  0.00    -0.550 OA
ENDBRANCH  13  14
ENDBRANCH  12  13
ENDBRANCH  11  12
ENDBRANCH  10  11
ENDBRANCH   9  10
ENDBRANCH   8   9
ENDBRANCH   7   8
ENDBRANCH   6   7
ENDBRANCH   5   6
ENDBRANCH   4   5
ENDBRANCH   3   4
ENDBRANCH   2   3
ENDBRANCH   1   2
BRANCH   1  17
ATOM     17  C   UNL     1      41.912  68.285  25.522  1.00  0.00     0.000 C 
BRANCH  17  18
ATOM     18  C   UNL     1      41.170  66.947  25.693  1.00  0.00     0.000 C 
BRANCH  18  19
ATOM     19  C   UNL     1      39.636  67.061  25.817  1.00  0.00     0.000 C 
BRANCH  19  20
ATOM     20  C   UNL     1      38.857  66.853  24.505  1.00  0.00     0.000 C 
BRANCH  20  21
ATOM     21  C   UNL     1      37.484  67.540  24.511  1.00  0.00     0.000 C 
BRANCH  21  22
ATOM     22  C   UNL     1      36.870  67.534  25.920  1.00  0.00    -0.000 C 
BRANCH  22  23
ATOM     23  C   UNL     1      35.356  67.804  25.905  1.00  0.00    -0.000 C 
BRANCH  23  24
ATOM     24  C   UNL     1      34.542  66.630  26.480  1.00  0.00    -0.000 C 
BRANCH  24  25
ATOM     25  C   UNL     1      34.302  65.517  25.447  1.00  0.00    -0.000 C 
BRANCH  25  26
ATOM     26  C   UNL     1      34.709  64.126  25.964  1.00  0.00    -0.000 C 
BRANCH  26  27
ATOM     27  C   UNL     1      35.029  64.120  27.470  1.00  0.00    -0.000 C 
BRANCH  27  28
ATOM     28  C   UNL     1      34.885  62.748  28.160  1.00  0.00    -0.000 C 
BRANCH  28  29
ATOM     29  C   UNL     1      33.600  62.566  28.984  1.00  0.00    -0.003 C 
ATOM     30  C   UNL     1      32.712  61.434  28.466  1.00  0.00     0.004 C 
ENDBRANCH  28  29
ENDBRANCH  27  28
ENDBRANCH  26  27
ENDBRANCH  25  26
ENDBRANCH  24  25
ENDBRANCH  23  24
ENDBRANCH  22  23
ENDBRANCH  21  22
ENDBRANCH  20  21
ENDBRANCH  19  20
ENDBRANCH  18  19
ENDBRANCH  17  18
ENDBRANCH   1  17
TORSDOF 26
ENDMDL
MODEL 6
REMARK VINA RESULT:    -3.144      2.275      4.814
REMARK INTER + INTRA:          -8.664
REMARK INTER:                  -7.274
REMARK INTRA:                  -1.390
REMARK UNBOUND:                -0.741
REMARK SMILES CCCCCCCCCCCCCCCCCCCCCCCCCCCC(=O)[O-]
REMARK SMILES IDX 15 1 16 2 17 3 18 4 19 5 20 6 21 7 22 8 23 9 24 10 25 11
REMARK SMILES IDX 26 12 27 13 28 14 29 15 30 16 14 17 13 18 12 19 11 20 10 21
REMARK SMILES IDX 9 22 8 23 7 24 6 25 5 26 4 27 3 28 2 29 1 30
REMARK H PARENT
REMARK Flexibility Score: inf
ROOT
ATOM      1  C   UNL     1      41.047  66.306  22.129  1.00  0.00     0.000 C 
ENDROOT
BRANCH   1   2
ATOM      2  C   UNL     1      41.327  64.862  22.571  1.00  0.00     0.000 C 
BRANCH   2   3
ATOM      3  C   UNL     1      41.681  64.749  24.066  1.00  0.00     0.000 C 
BRANCH   3   4
ATOM      4  C   UNL     1      41.752  63.310  24.612  1.00  0.00     0.000 C 
BRANCH   4   5
ATOM      5  C   UNL     1      42.654  63.185  25.850  1.00  0.00     0.000 C 
BRANCH   5   6
ATOM      6  C   UNL     1      42.937  61.714  26.182  1.00  0.00     0.000 C 
BRANCH   6   7
ATOM      7  C   UNL     1      44.435  61.491  26.445  1.00  0.00     0.000 C 
BRANCH   7   8
ATOM      8  C   UNL     1      45.324  62.548  25.772  1.00  0.00     0.000 C 
BRANCH   8   9
ATOM      9  C   UNL     1      46.487  63.004  26.669  1.00  0.00     0.000 C 
BRANCH   9  10
ATOM     10  C   UNL     1      47.732  63.409  25.861  1.00  0.00     0.000 C 
BRANCH  10  11
ATOM     11  C   UNL     1      47.444  63.564  24.359  1.00  0.00     0.000 C 
BRANCH  11  12
ATOM     12  C   UNL     1      48.746  63.768  23.571  1.00  0.00     0.006 C 
BRANCH  12  13
ATOM     13  C   UNL     1      48.830  65.167  22.942  1.00  0.00     0.053 C 
BRANCH  13  14
ATOM     14  C   UNL     1      50.036  65.311  22.065  1.00  0.00     0.041 C 
ATOM     15  O   UNL     1      50.380  66.446  21.644  1.00  0.00    -0.550 OA
ATOM     16  O   UNL     1      50.786  64.193  21.722  1.00  0.00    -0.550 OA
ENDBRANCH  13  14
ENDBRANCH  12  13
ENDBRANCH  11  12
ENDBRANCH  10  11
ENDBRANCH   9  10
ENDBRANCH   8   9
ENDBRANCH   7   8
ENDBRANCH   6   7
ENDBRANCH   5   6
ENDBRANCH   4   5
ENDBRANCH   3   4
ENDBRANCH   2   3
ENDBRANCH   1   2
BRANCH   1  17
ATOM     17  C   UNL     1      39.538  66.579  22.071  1.00  0.00     0.000 C 
BRANCH  17  18
ATOM     18  C   UNL     1      39.049  67.473  23.224  1.00  0.00     0.000 C 
BRANCH  18  19
ATOM     19  C   UNL     1      38.706  66.729  24.531  1.00  0.00     0.000 C 
BRANCH  19  20
ATOM     20  C   UNL     1      39.505  67.178  25.768  1.00  0.00     0.000 C 
BRANCH  20  21
ATOM     21  C   UNL     1      41.013  66.918  25.632  1.00  0.00     0.000 C 
BRANCH  21  22
ATOM     22  C   UNL     1      41.780  68.230  25.394  1.00  0.00    -0.000 C 
BRANCH  22  23
ATOM     23  C   UNL     1      42.384  68.311  23.983  1.00  0.00    -0.000 C 
BRANCH  23  24
ATOM     24  C   UNL     1      43.456  69.411  23.864  1.00  0.00    -0.000 C 
BRANCH  24  25
ATOM     25  C   UNL     1      43.580  70.255  25.142  1.00  0.00    -0.000 C 
BRANCH  25  26
ATOM     26  C   UNL     1      44.416  71.531  24.936  1.00  0.00    -0.000 C 
BRANCH  26  27
ATOM     27  C   UNL     1      43.608  72.818  25.179  1.00  0.00    -0.000 C 
BRANCH  27  28
ATOM     28  C   UNL     1      42.468  73.072  24.172  1.00  0.00    -0.000 C 
BRANCH  28  29
ATOM     29  C   UNL     1      41.276  73.871  24.726  1.00  0.00    -0.003 C 
ATOM     30  C   UNL     1      41.247  73.920  26.254  1.00  0.00     0.004 C 
ENDBRANCH  28  29
ENDBRANCH  27  28
ENDBRANCH  26  27
ENDBRANCH  25  26
ENDBRANCH  24  25
ENDBRANCH  23  24
ENDBRANCH  22  23
ENDBRANCH  21  22
ENDBRANCH  20  21
ENDBRANCH  19  20
ENDBRANCH  18  19
ENDBRANCH  17  18
ENDBRANCH   1  17
TORSDOF 26
ENDMDL
MODEL 7
REMARK VINA RESULT:    -2.823      4.845      9.805
REMARK INTER + INTRA:          -7.856
REMARK INTER:                  -6.432
REMARK INTRA:                  -1.423
REMARK UNBOUND:                -0.741
REMARK SMILES CCCCCCCCCCCCCCCCCCCCCCCCCCCC(=O)[O-]
REMARK SMILES IDX 15 1 16 2 17 3 18 4 19 5 20 6 21 7 22 8 23 9 24 10 25 11
REMARK SMILES IDX 26 12 27 13 28 14 29 15 30 16 14 17 13 18 12 19 11 20 10 21
REMARK SMILES IDX 9 22 8 23 7 24 6 25 5 26 4 27 3 28 2 29 1 30
REMARK H PARENT
REMARK Flexibility Score: inf
ROOT
ATOM      1  C   UNL     1      40.938  65.672  21.780  1.00  0.00     0.000 C 
ENDROOT
BRANCH   1   2
ATOM      2  C   UNL     1      40.761  67.133  22.218  1.00  0.00     0.000 C 
BRANCH   2   3
ATOM      3  C   UNL     1      42.101  67.871  22.403  1.00  0.00     0.000 C 
BRANCH   3   4
ATOM      4  C   UNL     1      42.267  68.590  23.755  1.00  0.00     0.000 C 
BRANCH   4   5
ATOM      5  C   UNL     1      43.672  69.182  23.949  1.00  0.00     0.000 C 
BRANCH   5   6
ATOM      6  C   UNL     1      43.708  70.145  25.143  1.00  0.00     0.000 C 
BRANCH   6   7
ATOM      7  C   UNL     1      44.276  71.511  24.728  1.00  0.00     0.000 C 
BRANCH   7   8
ATOM      8  C   UNL     1      43.431  72.689  25.236  1.00  0.00     0.000 C 
BRANCH   8   9
ATOM      9  C   UNL     1      42.464  73.229  24.169  1.00  0.00     0.000 C 
BRANCH   9  10
ATOM     10  C   UNL     1      41.126  73.697  24.768  1.00  0.00     0.000 C 
BRANCH  10  11
ATOM     11  C   UNL     1      40.473  74.828  23.958  1.00  0.00     0.000 C 
BRANCH  11  12
ATOM     12  C   UNL     1      39.268  74.306  23.162  1.00  0.00     0.006 C 
BRANCH  12  13
ATOM     13  C   UNL     1      38.626  75.400  22.297  1.00  0.00     0.053 C 
BRANCH  13  14
ATOM     14  C   UNL     1      37.264  75.002  21.816  1.00  0.00     0.041 C 
ATOM     15  O   UNL     1      36.704  75.649  20.893  1.00  0.00    -0.550 OA
ATOM     16  O   UNL     1      36.618  73.910  22.382  1.00  0.00    -0.550 OA
ENDBRANCH  13  14
ENDBRANCH  12  13
ENDBRANCH  11  12
ENDBRANCH  10  11
ENDBRANCH   9  10
ENDBRANCH   8   9
ENDBRANCH   7   8
ENDBRANCH   6   7
ENDBRANCH   5   6
ENDBRANCH   4   5
ENDBRANCH   3   4
ENDBRANCH   2   3
ENDBRANCH   1   2
BRANCH   1  17
ATOM     17  C   UNL     1      40.761  64.718  22.970  1.00  0.00     0.000 C 
BRANCH  17  18
ATOM     18  C   UNL     1      41.826  64.924  24.062  1.00  0.00     0.000 C 
BRANCH  18  19
ATOM     19  C   UNL     1      41.272  65.235  25.468  1.00  0.00     0.000 C 
BRANCH  19  20
ATOM     20  C   UNL     1      41.004  66.724  25.751  1.00  0.00     0.000 C 
BRANCH  20  21
ATOM     21  C   UNL     1      39.509  67.046  25.890  1.00  0.00     0.000 C 
BRANCH  21  22
ATOM     22  C   UNL     1      38.804  66.996  24.525  1.00  0.00    -0.000 C 
BRANCH  22  23
ATOM     23  C   UNL     1      37.356  67.509  24.590  1.00  0.00    -0.000 C 
BRANCH  23  24
ATOM     24  C   UNL     1      36.817  67.571  26.031  1.00  0.00    -0.000 C 
BRANCH  24  25
ATOM     25  C   UNL     1      35.282  67.633  26.086  1.00  0.00    -0.000 C 
BRANCH  25  26
ATOM     26  C   UNL     1      34.652  66.345  26.644  1.00  0.00    -0.000 C 
BRANCH  26  27
ATOM     27  C   UNL     1      34.577  65.216  25.600  1.00  0.00    -0.000 C 
BRANCH  27  28
ATOM     28  C   UNL     1      34.653  63.789  26.177  1.00  0.00    -0.000 C 
BRANCH  28  29
ATOM     29  C   UNL     1      35.011  63.709  27.671  1.00  0.00    -0.003 C 
ATOM     30  C   UNL     1      34.111  62.751  28.452  1.00  0.00     0.004 C 
ENDBRANCH  28  29
ENDBRANCH  27  28
ENDBRANCH  26  27
ENDBRANCH  25  26
ENDBRANCH  24  25
ENDBRANCH  23  24
ENDBRANCH  22  23
ENDBRANCH  21  22
ENDBRANCH  20  21
ENDBRANCH  19  20
ENDBRANCH  18  19
ENDBRANCH  17  18
ENDBRANCH   1  17
TORSDOF 26
ENDMDL
MODEL 8
REMARK VINA RESULT:    -2.779      4.400      8.755
REMARK INTER + INTRA:          -7.744
REMARK INTER:                  -6.977
REMARK INTRA:                  -0.767
REMARK UNBOUND:                -0.741
REMARK SMILES CCCCCCCCCCCCCCCCCCCCCCCCCCCC(=O)[O-]
REMARK SMILES IDX 15 1 16 2 17 3 18 4 19 5 20 6 21 7 22 8 23 9 24 10 25 11
REMARK SMILES IDX 26 12 27 13 28 14 29 15 30 16 14 17 13 18 12 19 11 20 10 21
REMARK SMILES IDX 9 22 8 23 7 24 6 25 5 26 4 27 3 28 2 29 1 30
REMARK H PARENT
REMARK Flexibility Score: inf
ROOT
ATOM      1  C   UNL     1      41.714  65.084  23.247  1.00  0.00     0.000 C 
ENDROOT
BRANCH   1   2
ATOM      2  C   UNL     1      41.550  63.677  23.839  1.00  0.00     0.000 C 
BRANCH   2   3
ATOM      3  C   UNL     1      42.087  63.564  25.278  1.00  0.00     0.000 C 
BRANCH   3   4
ATOM      4  C   UNL     1      41.909  64.828  26.141  1.00  0.00     0.000 C 
BRANCH   4   5
ATOM      5  C   UNL     1      41.044  65.901  25.460  1.00  0.00     0.000 C 
BRANCH   5   6
ATOM      6  C   UNL     1      40.958  67.169  26.318  1.00  0.00     0.000 C 
BRANCH   6   7
ATOM      7  C   UNL     1      42.029  68.188  25.897  1.00  0.00     0.000 C 
BRANCH   7   8
ATOM      8  C   UNL     1      42.238  68.242  24.376  1.00  0.00     0.000 C 
BRANCH   8   9
ATOM      9  C   UNL     1      42.987  69.507  23.924  1.00  0.00     0.000 C 
BRANCH   9  10
ATOM     10  C   UNL     1      43.889  70.085  25.028  1.00  0.00     0.000 C 
BRANCH  10  11
ATOM     11  C   UNL     1      44.374  71.510  24.717  1.00  0.00     0.000 C 
BRANCH  11  12
ATOM     12  C   UNL     1      43.403  72.554  25.286  1.00  0.00     0.006 C 
BRANCH  12  13
ATOM     13  C   UNL     1      42.536  73.197  24.193  1.00  0.00     0.053 C 
BRANCH  13  14
ATOM     14  C   UNL     1      41.288  73.802  24.758  1.00  0.00     0.041 C 
ATOM     15  O   UNL     1      41.171  73.969  26.000  1.00  0.00    -0.550 OA
ATOM     16  O   UNL     1      40.257  74.191  23.911  1.00  0.00    -0.550 OA
ENDBRANCH  13  14
ENDBRANCH  12  13
ENDBRANCH  11  12
ENDBRANCH  10  11
ENDBRANCH   9  10
ENDBRANCH   8   9
ENDBRANCH   7   8
ENDBRANCH   6   7
ENDBRANCH   5   6
ENDBRANCH   4   5
ENDBRANCH   3   4
ENDBRANCH   2   3
ENDBRANCH   1   2
BRANCH   1  17
ATOM     17  C   UNL     1      41.018  65.189  21.882  1.00  0.00     0.000 C 
BRANCH  17  18
ATOM     18  C   UNL     1      40.847  66.645  21.411  1.00  0.00     0.000 C 
BRANCH  18  19
ATOM     19  C   UNL     1      39.639  67.391  22.015  1.00  0.00     0.000 C 
BRANCH  19  20
ATOM     20  C   UNL     1      39.067  66.773  23.304  1.00  0.00     0.000 C 
BRANCH  20  21
ATOM     21  C   UNL     1      37.977  67.642  23.950  1.00  0.00     0.000 C 
BRANCH  21  22
ATOM     22  C   UNL     1      37.544  67.066  25.308  1.00  0.00    -0.000 C 
BRANCH  22  23
ATOM     23  C   UNL     1      36.511  67.953  26.022  1.00  0.00    -0.000 C 
BRANCH  23  24
ATOM     24  C   UNL     1      35.065  67.487  25.777  1.00  0.00    -0.000 C 
BRANCH  24  25
ATOM     25  C   UNL     1      34.717  66.206  26.553  1.00  0.00    -0.000 C 
BRANCH  25  26
ATOM     26  C   UNL     1      34.596  64.971  25.643  1.00  0.00    -0.000 C 
BRANCH  26  27
ATOM     27  C   UNL     1      34.660  63.646  26.424  1.00  0.00    -0.000 C 
BRANCH  27  28
ATOM     28  C   UNL     1      35.054  63.784  27.908  1.00  0.00    -0.000 C 
BRANCH  28  29
ATOM     29  C   UNL     1      34.011  63.258  28.909  1.00  0.00    -0.003 C 
ATOM     30  C   UNL     1      33.522  61.847  28.579  1.00  0.00     0.004 C 
ENDBRANCH  28  29
ENDBRANCH  27  28
ENDBRANCH  26  27
ENDBRANCH  25  26
ENDBRANCH  24  25
ENDBRANCH  23  24
ENDBRANCH  22  23
ENDBRANCH  21  22
ENDBRANCH  20  21
ENDBRANCH  19  20
ENDBRANCH  18  19
ENDBRANCH  17  18
ENDBRANCH   1  17
TORSDOF 26
ENDMDL
MODEL 9
REMARK VINA RESULT:    -2.020      3.806      5.767
REMARK INTER + INTRA:          -5.831
REMARK INTER:                  -4.800
REMARK INTRA:                  -1.030
REMARK UNBOUND:                -0.741
REMARK SMILES CCCCCCCCCCCCCCCCCCCCCCCCCCCC(=O)[O-]
REMARK SMILES IDX 15 1 16 2 17 3 18 4 19 5 20 6 21 7 22 8 23 9 24 10 25 11
REMARK SMILES IDX 26 12 27 13 28 14 29 15 30 16 14 17 13 18 12 19 11 20 10 21
REMARK SMILES IDX 9 22 8 23 7 24 6 25 5 26 4 27 3 28 2 29 1 30
REMARK H PARENT
REMARK Flexibility Score: inf
ROOT
ATOM      1  C   UNL     1      40.425  66.660  22.070  1.00  0.00     0.000 C 
ENDROOT
BRANCH   1   2
ATOM      2  C   UNL     1      40.690  65.210  22.502  1.00  0.00     0.000 C 
BRANCH   2   3
ATOM      3  C   UNL     1      41.760  65.096  23.603  1.00  0.00     0.000 C 
BRANCH   3   4
ATOM      4  C   UNL     1      41.229  64.682  24.989  1.00  0.00     0.000 C 
BRANCH   4   5
ATOM      5  C   UNL     1      41.380  65.790  26.043  1.00  0.00     0.000 C 
BRANCH   5   6
ATOM      6  C   UNL     1      40.748  67.102  25.563  1.00  0.00     0.000 C 
BRANCH   6   7
ATOM      7  C   UNL     1      39.235  67.110  25.827  1.00  0.00     0.000 C 
BRANCH   7   8
ATOM      8  C   UNL     1      38.403  66.945  24.545  1.00  0.00     0.000 C 
BRANCH   8   9
ATOM      9  C   UNL     1      37.059  67.689  24.609  1.00  0.00     0.000 C 
BRANCH   9  10
ATOM     10  C   UNL     1      36.590  67.937  26.053  1.00  0.00     0.000 C 
BRANCH  10  11
ATOM     11  C   UNL     1      35.064  67.846  26.209  1.00  0.00     0.000 C 
BRANCH  11  12
ATOM     12  C   UNL     1      34.669  66.589  26.998  1.00  0.00     0.006 C 
BRANCH  12  13
ATOM     13  C   UNL     1      34.645  65.333  26.115  1.00  0.00     0.053 C 
BRANCH  13  14
ATOM     14  C   UNL     1      34.871  64.087  26.915  1.00  0.00     0.041 C 
ATOM     15  O   UNL     1      34.953  62.971  26.338  1.00  0.00    -0.550 OA
ATOM     16  O   UNL     1      35.002  64.159  28.296  1.00  0.00    -0.550 OA
ENDBRANCH  13  14
ENDBRANCH  12  13
ENDBRANCH  11  12
ENDBRANCH  10  11
ENDBRANCH   9  10
ENDBRANCH   8   9
ENDBRANCH   7   8
ENDBRANCH   6   7
ENDBRANCH   5   6
ENDBRANCH   4   5
ENDBRANCH   3   4
ENDBRANCH   2   3
ENDBRANCH   1   2
BRANCH   1  17
ATOM     17  C   UNL     1      41.713  67.493  22.131  1.00  0.00     0.000 C 
BRANCH  17  18
ATOM     18  C   UNL     1      41.858  68.271  23.452  1.00  0.00     0.000 C 
BRANCH  18  19
ATOM     19  C   UNL     1      43.228  68.945  23.668  1.00  0.00     0.000 C 
BRANCH  19  20
ATOM     20  C   UNL     1      43.256  70.033  24.758  1.00  0.00     0.000 C 
BRANCH  20  21
ATOM     21  C   UNL     1      44.458  70.980  24.624  1.00  0.00     0.000 C 
BRANCH  21  22
ATOM     22  C   UNL     1      44.107  72.390  25.127  1.00  0.00    -0.000 C 
BRANCH  22  23
ATOM     23  C   UNL     1      42.744  72.878  24.611  1.00  0.00    -0.000 C 
BRANCH  23  24
ATOM     24  C   UNL     1      41.902  73.547  25.713  1.00  0.00    -0.000 C 
BRANCH  24  25
ATOM     25  C   UNL     1      40.708  74.334  25.148  1.00  0.00    -0.000 C 
BRANCH  25  26
ATOM     26  C   UNL     1      40.246  73.815  23.776  1.00  0.00    -0.000 C 
BRANCH  26  27
ATOM     27  C   UNL     1      39.183  74.718  23.124  1.00  0.00    -0.000 C 
BRANCH  27  28
ATOM     28  C   UNL     1      37.880  74.002  22.717  1.00  0.00    -0.000 C 
BRANCH  28  29
ATOM     29  C   UNL     1      37.051  74.721  21.639  1.00  0.00    -0.003 C 
ATOM     30  C   UNL     1      37.568  76.125  21.324  1.00  0.00     0.004 C 
ENDBRANCH  28  29
ENDBRANCH  27  28
ENDBRANCH  26  27
ENDBRANCH  25  26
ENDBRANCH  24  25
ENDBRANCH  23  24
ENDBRANCH  22  23
ENDBRANCH  21  22
ENDBRANCH  20  21
ENDBRANCH  19  20
ENDBRANCH  18  19
ENDBRANCH  17  18
ENDBRANCH   1  17
TORSDOF 26
ENDMDL
