MODEL 1
REMARK VINA RESULT:    -5.008      0.000      0.000
REMARK INTER + INTRA:          -5.787
REMARK INTER:                  -5.740
REMARK INTRA:                  -0.047
REMARK UNBOUND:                -0.047
REMARK SMILES O=C([O-])c1cc(O)c(O)c(O)c1
REMARK SMILES IDX 4 1 5 2 12 3 6 4 10 5 8 6 2 7 1 8 3 9 7 10 11 12 9 14
REMARK H PARENT 7 11 11 13 9 15
REMARK Flexibility Score: inf
ROOT
ATOM      1  C   UNL     1      -4.809  -4.294  28.595  1.00  0.00     0.005 A 
ATOM      2  C   UNL     1      -3.446  -4.368  28.927  1.00  0.00     0.060 A 
ATOM      3  C   UNL     1      -5.382  -3.037  28.338  1.00  0.00     0.060 A 
ATOM      4  C   UNL     1      -2.665  -3.210  29.001  1.00  0.00     0.162 A 
ATOM      5  C   UNL     1      -4.605  -1.872  28.410  1.00  0.00     0.162 A 
ATOM      6  C   UNL     1      -3.243  -1.956  28.743  1.00  0.00     0.200 A 
ENDROOT
BRANCH   1   7
ATOM      7  C   UNL     1      -5.634  -5.520  28.516  1.00  0.00     0.072 C 
ATOM      8  O   UNL     1      -6.297  -5.781  27.477  1.00  0.00    -0.545 OA
ATOM      9  O   UNL     1      -5.690  -6.403  29.589  1.00  0.00    -0.545 OA
ENDBRANCH   1   7
BRANCH   4  10
ATOM     10  O   UNL     1      -1.316  -3.326  29.334  1.00  0.00    -0.504 OA
ATOM     11  H   UNL     1      -0.738  -4.084  28.990  1.00  0.00     0.293 HD
ENDBRANCH   4  10
BRANCH   5  12
ATOM     12  O   UNL     1      -5.185  -0.630  28.153  1.00  0.00    -0.504 OA
ATOM     13  H   UNL     1      -5.909  -0.247  28.752  1.00  0.00     0.293 HD
ENDBRANCH   5  12
BRANCH   6  14
ATOM     14  O   UNL     1      -2.457  -0.806  28.820  1.00  0.00    -0.502 OA
ATOM     15  H   UNL     1      -1.628  -0.679  28.250  1.00  0.00     0.293 HD
ENDBRANCH   6  14
TORSDOF 4
ENDMDL
MODEL 2
REMARK VINA RESULT:    -4.995      0.044      2.429
REMARK INTER + INTRA:          -5.773
REMARK INTER:                  -5.726
REMARK INTRA:                  -0.047
REMARK UNBOUND:                -0.047
REMARK SMILES O=C([O-])c1cc(O)c(O)c(O)c1
REMARK SMILES IDX 4 1 5 2 12 3 6 4 10 5 8 6 2 7 1 8 3 9 7 10 11 12 9 14
REMARK H PARENT 7 11 11 13 9 15
REMARK Flexibility Score: inf
ROOT
ATOM      1  C   UNL     1      -4.822  -4.289  28.603  1.00  0.00     0.005 A 
ATOM      2  C   UNL     1      -5.402  -3.031  28.369  1.00  0.00     0.060 A 
ATOM      3  C   UNL     1      -3.456  -4.361  28.926  1.00  0.00     0.060 A 
ATOM      4  C   UNL     1      -4.636  -1.864  28.454  1.00  0.00     0.162 A 
ATOM      5  C   UNL     1      -2.682  -3.195  29.013  1.00  0.00     0.162 A 
ATOM      6  C   UNL     1      -3.271  -1.942  28.776  1.00  0.00     0.200 A 
ENDROOT
BRANCH   1   7
ATOM      7  C   UNL     1      -5.633  -5.523  28.514  1.00  0.00     0.072 C 
ATOM      8  O   UNL     1      -6.286  -5.786  27.469  1.00  0.00    -0.545 OA
ATOM      9  O   UNL     1      -5.685  -6.412  29.581  1.00  0.00    -0.545 OA
ENDBRANCH   1   7
BRANCH   4  10
ATOM     10  O   UNL     1      -5.249  -0.635  28.212  1.00  0.00    -0.504 OA
ATOM     11  H   UNL     1      -5.885  -0.210  28.876  1.00  0.00     0.293 HD
ENDBRANCH   4  10
BRANCH   5  12
ATOM     12  O   UNL     1      -1.327  -3.280  29.334  1.00  0.00    -0.504 OA
ATOM     13  H   UNL     1      -1.015  -3.627  30.233  1.00  0.00     0.293 HD
ENDBRANCH   5  12
BRANCH   6  14
ATOM     14  O   UNL     1      -2.514  -0.773  28.858  1.00  0.00    -0.502 OA
ATOM     15  H   UNL     1      -1.516  -0.786  29.037  1.00  0.00     0.293 HD
ENDBRANCH   6  14
TORSDOF 4
ENDMDL
MODEL 3
REMARK VINA RESULT:    -4.615      2.112      3.803
REMARK INTER + INTRA:          -5.336
REMARK INTER:                  -5.284
REMARK INTRA:                  -0.052
REMARK UNBOUND:                -0.047
REMARK SMILES O=C([O-])c1cc(O)c(O)c(O)c1
REMARK SMILES IDX 4 1 5 2 12 3 6 4 10 5 8 6 2 7 1 8 3 9 7 10 11 12 9 14
REMARK H PARENT 7 11 11 13 9 15
REMARK Flexibility Score: inf
ROOT
ATOM      1  C   UNL     1      -3.450  -1.966  28.629  1.00  0.00     0.005 A 
ATOM      2  C   UNL     1      -3.006  -0.856  27.891  1.00  0.00     0.060 A 
ATOM      3  C   UNL     1      -2.531  -2.977  28.958  1.00  0.00     0.060 A 
ATOM      4  C   UNL     1      -1.670  -0.753  27.488  1.00  0.00     0.162 A 
ATOM      5  C   UNL     1      -1.191  -2.882  28.558  1.00  0.00     0.162 A 
ATOM      6  C   UNL     1      -0.757  -1.768  27.821  1.00  0.00     0.200 A 
ENDROOT
BRANCH   1   7
ATOM      7  C   UNL     1      -4.863  -2.074  29.055  1.00  0.00     0.072 C 
ATOM      8  O   UNL     1      -5.611  -1.060  29.057  1.00  0.00    -0.545 OA
ATOM      9  O   UNL     1      -5.386  -3.296  29.460  1.00  0.00    -0.545 OA
ENDBRANCH   1   7
BRANCH   4  10
ATOM     10  O   UNL     1      -1.270   0.365  26.757  1.00  0.00    -0.504 OA
ATOM     11  H   UNL     1      -0.608   0.301  25.993  1.00  0.00     0.293 HD
ENDBRANCH   4  10
BRANCH   5  12
ATOM     12  O   UNL     1      -0.290  -3.892  28.891  1.00  0.00    -0.504 OA
ATOM     13  H   UNL     1      -0.346  -4.385  29.775  1.00  0.00     0.293 HD
ENDBRANCH   5  12
BRANCH   6  14
ATOM     14  O   UNL     1       0.573  -1.657  27.414  1.00  0.00    -0.502 OA
ATOM     15  H   UNL     1       0.874  -0.968  26.734  1.00  0.00     0.293 HD
ENDBRANCH   6  14
TORSDOF 4
ENDMDL
MODEL 4
REMARK VINA RESULT:    -4.608      2.130      3.188
REMARK INTER + INTRA:          -5.328
REMARK INTER:                  -5.276
REMARK INTRA:                  -0.052
REMARK UNBOUND:                -0.047
REMARK SMILES O=C([O-])c1cc(O)c(O)c(O)c1
REMARK SMILES IDX 4 1 5 2 12 3 6 4 10 5 8 6 2 7 1 8 3 9 7 10 11 12 9 14
REMARK H PARENT 7 11 11 13 9 15
REMARK Flexibility Score: inf
ROOT
ATOM      1  C   UNL     1      -3.442  -1.956  28.640  1.00  0.00     0.005 A 
ATOM      2  C   UNL     1      -2.528  -2.975  28.956  1.00  0.00     0.060 A 
ATOM      3  C   UNL     1      -2.998  -0.845  27.904  1.00  0.00     0.060 A 
ATOM      4  C   UNL     1      -1.193  -2.890  28.546  1.00  0.00     0.162 A 
ATOM      5  C   UNL     1      -1.662  -0.753  27.489  1.00  0.00     0.162 A 
ATOM      6  C   UNL     1      -0.755  -1.776  27.809  1.00  0.00     0.200 A 
ENDROOT
BRANCH   1   7
ATOM      7  C   UNL     1      -4.854  -2.047  29.075  1.00  0.00     0.072 C 
ATOM      8  O   UNL     1      -5.588  -1.023  29.088  1.00  0.00    -0.545 OA
ATOM      9  O   UNL     1      -5.392  -3.265  29.474  1.00  0.00    -0.545 OA
ENDBRANCH   1   7
BRANCH   4  10
ATOM     10  O   UNL     1      -0.318  -3.922  28.880  1.00  0.00    -0.504 OA
ATOM     11  H   UNL     1      -0.142  -4.191  29.841  1.00  0.00     0.293 HD
ENDBRANCH   4  10
BRANCH   5  12
ATOM     12  O   UNL     1      -1.233   0.355  26.759  1.00  0.00    -0.504 OA
ATOM     13  H   UNL     1      -1.077   0.304  25.758  1.00  0.00     0.293 HD
ENDBRANCH   5  12
BRANCH   6  14
ATOM     14  O   UNL     1       0.578  -1.700  27.405  1.00  0.00    -0.502 OA
ATOM     15  H   UNL     1       1.336  -2.063  27.972  1.00  0.00     0.293 HD
ENDBRANCH   6  14
TORSDOF 4
ENDMDL
MODEL 5
REMARK VINA RESULT:    -4.491      1.833      2.400
REMARK INTER + INTRA:          -5.195
REMARK INTER:                  -5.144
REMARK INTRA:                  -0.051
REMARK UNBOUND:                -0.047
REMARK SMILES O=C([O-])c1cc(O)c(O)c(O)c1
REMARK SMILES IDX 4 1 5 2 12 3 6 4 10 5 8 6 2 7 1 8 3 9 7 10 11 12 9 14
REMARK H PARENT 7 11 11 13 9 15
REMARK Flexibility Score: inf
ROOT
ATOM      1  C   UNL     1      -4.529  -2.183  28.659  1.00  0.00     0.005 A 
ATOM      2  C   UNL     1      -3.152  -1.900  28.680  1.00  0.00     0.060 A 
ATOM      3  C   UNL     1      -5.441  -1.154  28.947  1.00  0.00     0.060 A 
ATOM      4  C   UNL     1      -2.691  -0.615  28.984  1.00  0.00     0.162 A 
ATOM      5  C   UNL     1      -4.986   0.137  29.252  1.00  0.00     0.162 A 
ATOM      6  C   UNL     1      -3.609   0.410  29.271  1.00  0.00     0.200 A 
ENDROOT
BRANCH   1   7
ATOM      7  C   UNL     1      -5.015  -3.543  28.337  1.00  0.00     0.072 C 
ATOM      8  O   UNL     1      -6.173  -3.716  27.872  1.00  0.00    -0.545 OA
ATOM      9  O   UNL     1      -4.200  -4.650  28.543  1.00  0.00    -0.545 OA
ENDBRANCH   1   7
BRANCH   4  10
ATOM     10  O   UNL     1      -1.317  -0.376  28.996  1.00  0.00    -0.504 OA
ATOM     11  H   UNL     1      -0.788  -0.227  28.145  1.00  0.00     0.293 HD
ENDBRANCH   4  10
BRANCH   5  12
ATOM     12  O   UNL     1      -5.901   1.150  29.537  1.00  0.00    -0.504 OA
ATOM     13  H   UNL     1      -6.777   1.232  29.033  1.00  0.00     0.293 HD
ENDBRANCH   5  12
BRANCH   6  14
ATOM     14  O   UNL     1      -3.140   1.688  29.574  1.00  0.00    -0.502 OA
ATOM     15  H   UNL     1      -2.245   2.029  29.239  1.00  0.00     0.293 HD
ENDBRANCH   6  14
TORSDOF 4
ENDMDL
MODEL 6
REMARK VINA RESULT:    -4.459      1.777      3.351
REMARK INTER + INTRA:          -5.158
REMARK INTER:                  -5.106
REMARK INTRA:                  -0.052
REMARK UNBOUND:                -0.047
REMARK SMILES O=C([O-])c1cc(O)c(O)c(O)c1
REMARK SMILES IDX 4 1 5 2 12 3 6 4 10 5 8 6 2 7 1 8 3 9 7 10 11 12 9 14
REMARK H PARENT 7 11 11 13 9 15
REMARK Flexibility Score: inf
ROOT
ATOM      1  C   UNL     1      -4.505  -2.296  28.662  1.00  0.00     0.005 A 
ATOM      2  C   UNL     1      -5.452  -1.286  28.899  1.00  0.00     0.060 A 
ATOM      3  C   UNL     1      -3.138  -1.975  28.716  1.00  0.00     0.060 A 
ATOM      4  C   UNL     1      -5.047   0.022  29.186  1.00  0.00     0.162 A 
ATOM      5  C   UNL     1      -2.724  -0.667  29.003  1.00  0.00     0.162 A 
ATOM      6  C   UNL     1      -3.678   0.336  29.239  1.00  0.00     0.200 A 
ENDROOT
BRANCH   1   7
ATOM      7  C   UNL     1      -4.936  -3.679  28.359  1.00  0.00     0.072 C 
ATOM      8  O   UNL     1      -4.143  -4.645  28.513  1.00  0.00    -0.545 OA
ATOM      9  O   UNL     1      -6.223  -3.931  27.899  1.00  0.00    -0.545 OA
ENDBRANCH   1   7
BRANCH   4  10
ATOM     10  O   UNL     1      -6.019   0.995  29.415  1.00  0.00    -0.504 OA
ATOM     11  H   UNL     1      -6.998   0.838  29.212  1.00  0.00     0.293 HD
ENDBRANCH   4  10
BRANCH   5  12
ATOM     12  O   UNL     1      -1.364  -0.361  29.054  1.00  0.00    -0.504 OA
ATOM     13  H   UNL     1      -0.841  -0.408  29.921  1.00  0.00     0.293 HD
ENDBRANCH   5  12
BRANCH   6  14
ATOM     14  O   UNL     1      -3.283   1.643  29.525  1.00  0.00    -0.502 OA
ATOM     15  H   UNL     1      -3.738   2.201  30.239  1.00  0.00     0.293 HD
ENDBRANCH   6  14
TORSDOF 4
ENDMDL
MODEL 7
REMARK VINA RESULT:    -4.366      2.166      5.316
REMARK INTER + INTRA:          -5.051
REMARK INTER:                  -4.999
REMARK INTRA:                  -0.053
REMARK UNBOUND:                -0.047
REMARK SMILES O=C([O-])c1cc(O)c(O)c(O)c1
REMARK SMILES IDX 4 1 5 2 12 3 6 4 10 5 8 6 2 7 1 8 3 9 7 10 11 12 9 14
REMARK H PARENT 7 11 11 13 9 15
REMARK Flexibility Score: inf
ROOT
ATOM      1  C   UNL     1      -1.596  -1.107  27.887  1.00  0.00     0.005 A 
ATOM      2  C   UNL     1      -2.961  -0.795  27.780  1.00  0.00     0.060 A 
ATOM      3  C   UNL     1      -1.216  -2.292  28.542  1.00  0.00     0.060 A 
ATOM      4  C   UNL     1      -3.934  -1.646  28.315  1.00  0.00     0.162 A 
ATOM      5  C   UNL     1      -2.185  -3.150  29.080  1.00  0.00     0.162 A 
ATOM      6  C   UNL     1      -3.548  -2.829  28.969  1.00  0.00     0.200 A 
ENDROOT
BRANCH   1   7
ATOM      7  C   UNL     1      -0.568  -0.206  27.320  1.00  0.00     0.072 C 
ATOM      8  O   UNL     1      -0.883   0.936  26.892  1.00  0.00    -0.545 OA
ATOM      9  O   UNL     1       0.761  -0.607  27.253  1.00  0.00    -0.545 OA
ENDBRANCH   1   7
BRANCH   4  10
ATOM     10  O   UNL     1      -5.278  -1.299  28.189  1.00  0.00    -0.504 OA
ATOM     11  H   UNL     1      -5.869  -1.685  27.462  1.00  0.00     0.293 HD
ENDBRANCH   4  10
BRANCH   5  12
ATOM     12  O   UNL     1      -1.796  -4.322  29.728  1.00  0.00    -0.504 OA
ATOM     13  H   UNL     1      -2.124  -4.548  30.660  1.00  0.00     0.293 HD
ENDBRANCH   5  12
BRANCH   6  14
ATOM     14  O   UNL     1      -4.524  -3.672  29.500  1.00  0.00    -0.502 OA
ATOM     15  H   UNL     1      -4.292  -4.463  30.090  1.00  0.00     0.293 HD
ENDBRANCH   6  14
TORSDOF 4
ENDMDL
MODEL 8
REMARK VINA RESULT:    -4.340      2.116      4.718
REMARK INTER + INTRA:          -5.021
REMARK INTER:                  -4.969
REMARK INTRA:                  -0.052
REMARK UNBOUND:                -0.047
REMARK SMILES O=C([O-])c1cc(O)c(O)c(O)c1
REMARK SMILES IDX 4 1 5 2 12 3 6 4 10 5 8 6 2 7 1 8 3 9 7 10 11 12 9 14
REMARK H PARENT 7 11 11 13 9 15
REMARK Flexibility Score: inf
ROOT
ATOM      1  C   UNL     1      -1.684  -1.095  27.880  1.00  0.00     0.005 A 
ATOM      2  C   UNL     1      -1.266  -2.265  28.535  1.00  0.00     0.060 A 
ATOM      3  C   UNL     1      -3.060  -0.841  27.748  1.00  0.00     0.060 A 
ATOM      4  C   UNL     1      -2.201  -3.169  29.051  1.00  0.00     0.162 A 
ATOM      5  C   UNL     1      -4.003  -1.742  28.262  1.00  0.00     0.162 A 
ATOM      6  C   UNL     1      -3.575  -2.910  28.915  1.00  0.00     0.200 A 
ENDROOT
BRANCH   1   7
ATOM      7  C   UNL     1      -0.693  -0.139  27.336  1.00  0.00     0.072 C 
ATOM      8  O   UNL     1      -1.046   1.017  26.981  1.00  0.00    -0.545 OA
ATOM      9  O   UNL     1       0.642  -0.504  27.209  1.00  0.00    -0.545 OA
ENDBRANCH   1   7
BRANCH   4  10
ATOM     10  O   UNL     1      -1.745  -4.319  29.693  1.00  0.00    -0.504 OA
ATOM     11  H   UNL     1      -1.996  -5.249  29.378  1.00  0.00     0.293 HD
ENDBRANCH   4  10
BRANCH   5  12
ATOM     12  O   UNL     1      -5.365  -1.480  28.124  1.00  0.00    -0.504 OA
ATOM     13  H   UNL     1      -5.710  -0.546  27.929  1.00  0.00     0.293 HD
ENDBRANCH   5  12
BRANCH   6  14
ATOM     14  O   UNL     1      -4.501  -3.817  29.432  1.00  0.00    -0.502 OA
ATOM     15  H   UNL     1      -4.761  -4.663  28.938  1.00  0.00     0.293 HD
ENDBRANCH   6  14
TORSDOF 4
ENDMDL
MODEL 9
REMARK VINA RESULT:    -4.238      1.838      4.604
REMARK INTER + INTRA:          -4.905
REMARK INTER:                  -4.853
REMARK INTRA:                  -0.052
REMARK UNBOUND:                -0.047
REMARK SMILES O=C([O-])c1cc(O)c(O)c(O)c1
REMARK SMILES IDX 4 1 5 2 12 3 6 4 10 5 8 6 2 7 1 8 3 9 7 10 11 12 9 14
REMARK H PARENT 7 11 11 13 9 15
REMARK Flexibility Score: inf
ROOT
ATOM      1  C   UNL     1      -4.847  -0.655  29.141  1.00  0.00     0.005 A 
ATOM      2  C   UNL     1      -5.688  -1.768  28.975  1.00  0.00     0.060 A 
ATOM      3  C   UNL     1      -3.455  -0.836  29.066  1.00  0.00     0.060 A 
ATOM      4  C   UNL     1      -5.155  -3.039  28.738  1.00  0.00     0.162 A 
ATOM      5  C   UNL     1      -2.912  -2.106  28.829  1.00  0.00     0.162 A 
ATOM      6  C   UNL     1      -3.762  -3.212  28.664  1.00  0.00     0.200 A 
ENDROOT
BRANCH   1   7
ATOM      7  C   UNL     1      -5.413   0.689  29.392  1.00  0.00     0.072 C 
ATOM      8  O   UNL     1      -6.639   0.912  29.211  1.00  0.00    -0.545 OA
ATOM      9  O   UNL     1      -4.598   1.726  29.833  1.00  0.00    -0.545 OA
ENDBRANCH   1   7
BRANCH   4  10
ATOM     10  O   UNL     1      -6.024  -4.117  28.579  1.00  0.00    -0.504 OA
ATOM     11  H   UNL     1      -6.512  -4.293  27.709  1.00  0.00     0.293 HD
ENDBRANCH   4  10
BRANCH   5  12
ATOM     12  O   UNL     1      -1.530  -2.272  28.757  1.00  0.00    -0.504 OA
ATOM     13  H   UNL     1      -0.900  -1.749  29.355  1.00  0.00     0.293 HD
ENDBRANCH   5  12
BRANCH   6  14
ATOM     14  O   UNL     1      -3.238  -4.484  28.427  1.00  0.00    -0.502 OA
ATOM     15  H   UNL     1      -3.740  -5.184  27.892  1.00  0.00     0.293 HD
ENDBRANCH   6  14
TORSDOF 4
ENDMDL
