MODEL 1
REMARK VINA RESULT:    -4.585      0.000      0.000
REMARK INTER + INTRA:          -7.633
REMARK INTER:                  -6.998
REMARK INTRA:                  -0.635
REMARK UNBOUND:                -0.635
REMARK SMILES O=C([O-])CCCCCCCCC(=O)[O-]
REMARK SMILES IDX 7 1 6 2 5 3 4 4 2 5 1 6 3 7 8 8 9 9 10 10 11 11 12 12 13 13
REMARK SMILES IDX 14 14
REMARK H PARENT
REMARK Flexibility Score: inf
ROOT
ATOM      1  C   UNL     1      -4.044  -1.042  28.059  1.00  0.00     0.000 C 
ENDROOT
BRANCH   1   2
ATOM      2  C   UNL     1      -5.307  -1.587  28.744  1.00  0.00     0.000 C 
BRANCH   2   3
ATOM      3  C   UNL     1      -4.959  -2.735  29.702  1.00  0.00     0.006 C 
BRANCH   3   4
ATOM      4  C   UNL     1      -5.819  -3.981  29.452  1.00  0.00     0.053 C 
BRANCH   4   5
ATOM      5  C   UNL     1      -5.164  -4.924  28.489  1.00  0.00     0.041 C 
ATOM      6  O   UNL     1      -3.935  -4.817  28.234  1.00  0.00    -0.550 OA
ATOM      7  O   UNL     1      -5.904  -5.940  27.899  1.00  0.00    -0.550 OA
ENDBRANCH   4   5
ENDBRANCH   3   4
ENDBRANCH   2   3
ENDBRANCH   1   2
BRANCH   1   8
ATOM      8  C   UNL     1      -3.194  -0.165  28.992  1.00  0.00     0.000 C 
BRANCH   8   9
ATOM      9  C   UNL     1      -1.844   0.228  28.367  1.00  0.00     0.000 C 
BRANCH   9  10
ATOM     10  C   UNL     1      -1.575  -0.499  27.040  1.00  0.00     0.006 C 
BRANCH  10  11
ATOM     11  C   UNL     1      -0.265  -1.297  27.056  1.00  0.00     0.053 C 
BRANCH  11  12
ATOM     12  C   UNL     1      -0.185  -2.144  28.287  1.00  0.00     0.041 C 
ATOM     13  O   UNL     1       0.719  -1.938  29.140  1.00  0.00    -0.550 OA
ATOM     14  O   UNL     1      -1.076  -3.194  28.469  1.00  0.00    -0.550 OA
ENDBRANCH  11  12
ENDBRANCH  10  11
ENDBRANCH   9  10
ENDBRANCH   8   9
ENDBRANCH   1   8
TORSDOF 9
ENDMDL
MODEL 2
REMARK VINA RESULT:    -4.452      0.809      5.042
REMARK INTER + INTRA:          -7.430
REMARK INTER:                  -6.920
REMARK INTRA:                  -0.509
REMARK UNBOUND:                -0.635
REMARK SMILES O=C([O-])CCCCCCCCC(=O)[O-]
REMARK SMILES IDX 7 1 6 2 5 3 4 4 2 5 1 6 3 7 8 8 9 9 10 10 11 11 12 12 13 13
REMARK SMILES IDX 14 14
REMARK H PARENT
REMARK Flexibility Score: inf
ROOT
ATOM      1  C   UNL     1      -2.609  -0.478  28.285  1.00  0.00     0.000 C 
ENDROOT
BRANCH   1   2
ATOM      2  C   UNL     1      -1.677  -0.127  27.115  1.00  0.00     0.000 C 
BRANCH   2   3
ATOM      3  C   UNL     1      -0.441  -1.038  27.107  1.00  0.00     0.006 C 
BRANCH   3   4
ATOM      4  C   UNL     1       0.152  -1.227  28.509  1.00  0.00     0.053 C 
BRANCH   4   5
ATOM      5  C   UNL     1       0.382  -2.673  28.825  1.00  0.00     0.041 C 
ATOM      6  O   UNL     1       1.553  -3.113  28.967  1.00  0.00    -0.550 OA
ATOM      7  O   UNL     1      -0.700  -3.528  28.995  1.00  0.00    -0.550 OA
ENDBRANCH   4   5
ENDBRANCH   3   4
ENDBRANCH   2   3
ENDBRANCH   1   2
BRANCH   1   8
ATOM      8  C   UNL     1      -3.981  -0.989  27.818  1.00  0.00     0.000 C 
BRANCH   8   9
ATOM      9  C   UNL     1      -5.019  -1.020  28.954  1.00  0.00     0.000 C 
BRANCH   9  10
ATOM     10  C   UNL     1      -5.375  -2.451  29.388  1.00  0.00     0.006 C 
BRANCH  10  11
ATOM     11  C   UNL     1      -5.724  -3.359  28.203  1.00  0.00     0.053 C 
BRANCH  11  12
ATOM     12  C   UNL     1      -4.959  -4.642  28.284  1.00  0.00     0.041 C 
ATOM     13  O   UNL     1      -3.754  -4.639  28.648  1.00  0.00    -0.550 OA
ATOM     14  O   UNL     1      -5.561  -5.836  27.907  1.00  0.00    -0.550 OA
ENDBRANCH  11  12
ENDBRANCH  10  11
ENDBRANCH   9  10
ENDBRANCH   8   9
ENDBRANCH   1   8
TORSDOF 9
ENDMDL
MODEL 3
REMARK VINA RESULT:    -4.147      2.323      2.744
REMARK INTER + INTRA:          -6.964
REMARK INTER:                  -6.330
REMARK INTRA:                  -0.634
REMARK UNBOUND:                -0.635
REMARK SMILES O=C([O-])CCCCCCCCC(=O)[O-]
REMARK SMILES IDX 7 1 6 2 5 3 4 4 2 5 1 6 3 7 8 8 9 9 10 10 11 11 12 12 13 13
REMARK SMILES IDX 14 14
REMARK H PARENT
REMARK Flexibility Score: inf
ROOT
ATOM      1  C   UNL     1      -3.584  -0.273  28.900  1.00  0.00     0.000 C 
ENDROOT
BRANCH   1   2
ATOM      2  C   UNL     1      -4.946  -0.923  29.188  1.00  0.00     0.000 C 
BRANCH   2   3
ATOM      3  C   UNL     1      -5.222  -2.074  28.209  1.00  0.00     0.006 C 
BRANCH   3   4
ATOM      4  C   UNL     1      -5.735  -3.332  28.922  1.00  0.00     0.053 C 
BRANCH   4   5
ATOM      5  C   UNL     1      -4.959  -4.550  28.525  1.00  0.00     0.041 C 
ATOM      6  O   UNL     1      -3.699  -4.536  28.549  1.00  0.00    -0.550 OA
ATOM      7  O   UNL     1      -5.627  -5.711  28.159  1.00  0.00    -0.550 OA
ENDBRANCH   4   5
ENDBRANCH   3   4
ENDBRANCH   2   3
ENDBRANCH   1   2
BRANCH   1   8
ATOM      8  C   UNL     1      -2.909  -0.840  27.641  1.00  0.00     0.000 C 
BRANCH   8   9
ATOM      9  C   UNL     1      -1.417  -1.150  27.858  1.00  0.00     0.000 C 
BRANCH   9  10
ATOM     10  C   UNL     1      -0.693  -0.044  28.643  1.00  0.00     0.006 C 
BRANCH  10  11
ATOM     11  C   UNL     1       0.075   0.922  27.732  1.00  0.00     0.053 C 
BRANCH  11  12
ATOM     12  C   UNL     1      -0.729   2.160  27.487  1.00  0.00     0.041 C 
ATOM     13  O   UNL     1      -0.594   2.801  26.412  1.00  0.00    -0.550 OA
ATOM     14  O   UNL     1      -1.590   2.635  28.468  1.00  0.00    -0.550 OA
ENDBRANCH  11  12
ENDBRANCH  10  11
ENDBRANCH   9  10
ENDBRANCH   8   9
ENDBRANCH   1   8
TORSDOF 9
ENDMDL
MODEL 4
REMARK VINA RESULT:    -4.146      2.839      3.836
REMARK INTER + INTRA:          -6.962
REMARK INTER:                  -6.125
REMARK INTRA:                  -0.837
REMARK UNBOUND:                -0.635
REMARK SMILES O=C([O-])CCCCCCCCC(=O)[O-]
REMARK SMILES IDX 7 1 6 2 5 3 4 4 2 5 1 6 3 7 8 8 9 9 10 10 11 11 12 12 13 13
REMARK SMILES IDX 14 14
REMARK H PARENT
REMARK Flexibility Score: inf
ROOT
ATOM      1  C   UNL     1      -3.451  -4.079  28.914  1.00  0.00     0.000 C 
ENDROOT
BRANCH   1   2
ATOM      2  C   UNL     1      -4.350  -3.151  29.745  1.00  0.00     0.000 C 
BRANCH   2   3
ATOM      3  C   UNL     1      -5.413  -2.482  28.862  1.00  0.00     0.006 C 
BRANCH   3   4
ATOM      4  C   UNL     1      -4.877  -1.232  28.152  1.00  0.00     0.053 C 
BRANCH   4   5
ATOM      5  C   UNL     1      -4.979  -0.015  29.020  1.00  0.00     0.041 C 
ATOM      6  O   UNL     1      -6.104   0.386  29.420  1.00  0.00    -0.550 OA
ATOM      7  O   UNL     1      -3.830   0.657  29.413  1.00  0.00    -0.550 OA
ENDBRANCH   4   5
ENDBRANCH   3   4
ENDBRANCH   2   3
ENDBRANCH   1   2
BRANCH   1   8
ATOM      8  C   UNL     1      -1.957  -3.896  29.227  1.00  0.00     0.000 C 
BRANCH   8   9
ATOM      9  C   UNL     1      -1.233  -3.040  28.172  1.00  0.00     0.000 C 
BRANCH   9  10
ATOM     10  C   UNL     1      -1.236  -1.544  28.523  1.00  0.00     0.006 C 
BRANCH  10  11
ATOM     11  C   UNL     1      -1.373  -0.646  27.288  1.00  0.00     0.053 C 
BRANCH  11  12
ATOM     12  C   UNL     1      -0.332   0.430  27.305  1.00  0.00     0.041 C 
ATOM     13  O   UNL     1       0.792   0.215  27.830  1.00  0.00    -0.550 OA
ATOM     14  O   UNL     1      -0.622   1.686  26.788  1.00  0.00    -0.550 OA
ENDBRANCH  11  12
ENDBRANCH  10  11
ENDBRANCH   9  10
ENDBRANCH   8   9
ENDBRANCH   1   8
TORSDOF 9
ENDMDL
MODEL 5
REMARK VINA RESULT:    -4.143      1.173      5.350
REMARK INTER + INTRA:          -6.958
REMARK INTER:                  -6.416
REMARK INTRA:                  -0.542
REMARK UNBOUND:                -0.635
REMARK SMILES O=C([O-])CCCCCCCCC(=O)[O-]
REMARK SMILES IDX 7 1 6 2 5 3 4 4 2 5 1 6 3 7 8 8 9 9 10 10 11 11 12 12 13 13
REMARK SMILES IDX 14 14
REMARK H PARENT
REMARK Flexibility Score: inf
ROOT
ATOM      1  C   UNL     1      -4.128  -0.530  28.258  1.00  0.00     0.000 C 
ENDROOT
BRANCH   1   2
ATOM      2  C   UNL     1      -3.125   0.180  29.180  1.00  0.00     0.000 C 
BRANCH   2   3
ATOM      3  C   UNL     1      -1.779   0.386  28.471  1.00  0.00     0.006 C 
BRANCH   3   4
ATOM      4  C   UNL     1      -1.590  -0.575  27.290  1.00  0.00     0.053 C 
BRANCH   4   5
ATOM      5  C   UNL     1      -0.620  -1.669  27.614  1.00  0.00     0.041 C 
ATOM      6  O   UNL     1       0.530  -1.670  27.101  1.00  0.00    -0.550 OA
ATOM      7  O   UNL     1      -0.975  -2.670  28.510  1.00  0.00    -0.550 OA
ENDBRANCH   4   5
ENDBRANCH   3   4
ENDBRANCH   2   3
ENDBRANCH   1   2
BRANCH   1   8
ATOM      8  C   UNL     1      -5.368  -1.041  29.009  1.00  0.00     0.000 C 
BRANCH   8   9
ATOM      9  C   UNL     1      -5.206  -2.489  29.502  1.00  0.00     0.000 C 
BRANCH   9  10
ATOM     10  C   UNL     1      -4.931  -3.475  28.355  1.00  0.00     0.006 C 
BRANCH  10  11
ATOM     11  C   UNL     1      -4.843  -4.930  28.833  1.00  0.00     0.053 C 
BRANCH  11  12
ATOM     12  C   UNL     1      -5.871  -5.770  28.143  1.00  0.00     0.041 C 
ATOM     13  O   UNL     1      -5.999  -6.987  28.440  1.00  0.00    -0.550 OA
ATOM     14  O   UNL     1      -6.654  -5.222  27.135  1.00  0.00    -0.550 OA
ENDBRANCH  11  12
ENDBRANCH  10  11
ENDBRANCH   9  10
ENDBRANCH   8   9
ENDBRANCH   1   8
TORSDOF 9
ENDMDL
MODEL 6
REMARK VINA RESULT:    -4.084      4.497      7.982
REMARK INTER + INTRA:          -6.868
REMARK INTER:                  -6.599
REMARK INTRA:                  -0.269
REMARK UNBOUND:                -0.635
REMARK SMILES O=C([O-])CCCCCCCCC(=O)[O-]
REMARK SMILES IDX 7 1 6 2 5 3 4 4 2 5 1 6 3 7 8 8 9 9 10 10 11 11 12 12 13 13
REMARK SMILES IDX 14 14
REMARK H PARENT
REMARK Flexibility Score: inf
ROOT
ATOM      1  C   UNL     1      -5.945  -7.369  28.624  1.00  0.00     0.000 C 
ENDROOT
BRANCH   1   2
ATOM      2  C   UNL     1      -5.615  -6.028  29.298  1.00  0.00     0.000 C 
BRANCH   2   3
ATOM      3  C   UNL     1      -5.355  -4.937  28.250  1.00  0.00     0.006 C 
BRANCH   3   4
ATOM      4  C   UNL     1      -5.833  -3.556  28.717  1.00  0.00     0.053 C 
BRANCH   4   5
ATOM      5  C   UNL     1      -4.769  -2.514  28.549  1.00  0.00     0.041 C 
ATOM      6  O   UNL     1      -5.070  -1.361  28.141  1.00  0.00    -0.550 OA
ATOM      7  O   UNL     1      -3.452  -2.807  28.876  1.00  0.00    -0.550 OA
ENDBRANCH   4   5
ENDBRANCH   3   4
ENDBRANCH   2   3
ENDBRANCH   1   2
BRANCH   1   8
ATOM      8  C   UNL     1      -6.183  -8.500  29.637  1.00  0.00     0.000 C 
BRANCH   8   9
ATOM      9  C   UNL     1      -5.314  -9.738  29.357  1.00  0.00     0.000 C 
BRANCH   9  10
ATOM     10  C   UNL     1      -5.336 -10.150  27.876  1.00  0.00     0.006 C 
BRANCH  10  11
ATOM     11  C   UNL     1      -4.248 -11.174  27.530  1.00  0.00     0.053 C 
BRANCH  11  12
ATOM     12  C   UNL     1      -4.586 -11.886  26.258  1.00  0.00     0.041 C 
ATOM     13  O   UNL     1      -5.043 -13.059  26.291  1.00  0.00    -0.550 OA
ATOM     14  O   UNL     1      -4.347 -11.274  25.034  1.00  0.00    -0.550 OA
ENDBRANCH  11  12
ENDBRANCH  10  11
ENDBRANCH   9  10
ENDBRANCH   8   9
ENDBRANCH   1   8
TORSDOF 9
ENDMDL
MODEL 7
REMARK VINA RESULT:    -3.902      1.888      6.177
REMARK INTER + INTRA:          -6.589
REMARK INTER:                  -6.092
REMARK INTRA:                  -0.497
REMARK UNBOUND:                -0.635
REMARK SMILES O=C([O-])CCCCCCCCC(=O)[O-]
REMARK SMILES IDX 7 1 6 2 5 3 4 4 2 5 1 6 3 7 8 8 9 9 10 10 11 11 12 12 13 13
REMARK SMILES IDX 14 14
REMARK H PARENT
REMARK Flexibility Score: inf
ROOT
ATOM      1  C   UNL     1      -2.914  -1.365  28.350  1.00  0.00     0.000 C 
ENDROOT
BRANCH   1   2
ATOM      2  C   UNL     1      -1.934  -0.198  28.551  1.00  0.00     0.000 C 
BRANCH   2   3
ATOM      3  C   UNL     1      -0.486  -0.703  28.620  1.00  0.00     0.006 C 
BRANCH   3   4
ATOM      4  C   UNL     1       0.359  -0.207  27.440  1.00  0.00     0.053 C 
BRANCH   4   5
ATOM      5  C   UNL     1       0.685   1.250  27.564  1.00  0.00     0.041 C 
ATOM      6  O   UNL     1       0.343   2.056  26.659  1.00  0.00    -0.550 OA
ATOM      7  O   UNL     1       1.337   1.723  28.695  1.00  0.00    -0.550 OA
ENDBRANCH   4   5
ENDBRANCH   3   4
ENDBRANCH   2   3
ENDBRANCH   1   2
BRANCH   1   8
ATOM      8  C   UNL     1      -4.340  -0.894  28.025  1.00  0.00     0.000 C 
BRANCH   8   9
ATOM      9  C   UNL     1      -5.388  -1.464  28.997  1.00  0.00     0.000 C 
BRANCH   9  10
ATOM     10  C   UNL     1      -4.882  -2.709  29.745  1.00  0.00     0.006 C 
BRANCH  10  11
ATOM     11  C   UNL     1      -5.763  -3.941  29.507  1.00  0.00     0.053 C 
BRANCH  11  12
ATOM     12  C   UNL     1      -5.103  -4.878  28.546  1.00  0.00     0.041 C 
ATOM     13  O   UNL     1      -5.766  -5.800  28.002  1.00  0.00    -0.550 OA
ATOM     14  O   UNL     1      -3.742  -4.766  28.290  1.00  0.00    -0.550 OA
ENDBRANCH  11  12
ENDBRANCH  10  11
ENDBRANCH   9  10
ENDBRANCH   8   9
ENDBRANCH   1   8
TORSDOF 9
ENDMDL
MODEL 8
REMARK VINA RESULT:    -3.831      2.036      2.734
REMARK INTER + INTRA:          -6.482
REMARK INTER:                  -5.934
REMARK INTRA:                  -0.548
REMARK UNBOUND:                -0.635
REMARK SMILES O=C([O-])CCCCCCCCC(=O)[O-]
REMARK SMILES IDX 7 1 6 2 5 3 4 4 2 5 1 6 3 7 8 8 9 9 10 10 11 11 12 12 13 13
REMARK SMILES IDX 14 14
REMARK H PARENT
REMARK Flexibility Score: inf
ROOT
ATOM      1  C   UNL     1      -4.140  -0.957  28.153  1.00  0.00     0.000 C 
ENDROOT
BRANCH   1   2
ATOM      2  C   UNL     1      -3.702  -2.313  28.728  1.00  0.00     0.000 C 
BRANCH   2   3
ATOM      3  C   UNL     1      -4.774  -2.880  29.670  1.00  0.00     0.006 C 
BRANCH   3   4
ATOM      4  C   UNL     1      -5.853  -3.668  28.916  1.00  0.00     0.053 C 
BRANCH   4   5
ATOM      5  C   UNL     1      -5.511  -5.123  28.817  1.00  0.00     0.041 C 
ATOM      6  O   UNL     1      -5.534  -5.851  29.845  1.00  0.00    -0.550 OA
ATOM      7  O   UNL     1      -5.198  -5.681  27.585  1.00  0.00    -0.550 OA
ENDBRANCH   4   5
ENDBRANCH   3   4
ENDBRANCH   2   3
ENDBRANCH   1   2
BRANCH   1   8
ATOM      8  C   UNL     1      -4.926  -0.108  29.164  1.00  0.00     0.000 C 
BRANCH   8   9
ATOM      9  C   UNL     1      -4.155   1.146  29.611  1.00  0.00     0.000 C 
BRANCH   9  10
ATOM     10  C   UNL     1      -2.632   0.938  29.597  1.00  0.00     0.006 C 
BRANCH  10  11
ATOM     11  C   UNL     1      -1.890   2.041  28.831  1.00  0.00     0.053 C 
BRANCH  11  12
ATOM     12  C   UNL     1      -1.068   1.451  27.729  1.00  0.00     0.041 C 
ATOM     13  O   UNL     1      -0.883   0.207  27.674  1.00  0.00    -0.550 OA
ATOM     14  O   UNL     1      -0.464   2.280  26.793  1.00  0.00    -0.550 OA
ENDBRANCH  11  12
ENDBRANCH  10  11
ENDBRANCH   9  10
ENDBRANCH   8   9
ENDBRANCH   1   8
TORSDOF 9
ENDMDL
