MODEL 1
REMARK VINA RESULT:    -1.758      0.000      0.000
REMARK INTER + INTRA:          -1.758
REMARK INTER:                  -1.758
REMARK INTRA:                   0.000
REMARK UNBOUND:                 0.000
REMARK SMILES C=C1CCC[C@@]2(C)CC(=O)C(=C(C)C)C[C@@H]12
REMARK SMILES IDX 13 1 12 2 11 3 15 4 16 5 2 6 1 7 3 8 4 9 5 10 6 11 8 12 9 13
REMARK SMILES IDX 10 14 7 15 14 16
REMARK H PARENT
REMARK Flexibility Score: inf
ROOT
ATOM      1  C   UNL     1     -27.228  -8.205  23.677  1.00  0.00     0.039 C 
ATOM      2  C   UNL     1     -27.288  -9.331  24.681  1.00  0.00    -0.070 C 
ATOM      3  C   UNL     1     -27.642 -10.596  24.310  1.00  0.00    -0.006 C 
ATOM      4  C   UNL     1     -27.990 -10.946  22.877  1.00  0.00     0.047 C 
ATOM      5  C   UNL     1     -29.089 -12.034  22.759  1.00  0.00     0.025 C 
ATOM      6  C   UNL     1     -29.183 -12.476  21.307  1.00  0.00    -0.073 C 
ATOM      7  C   UNL     1     -30.125 -11.968  20.498  1.00  0.00     0.008 C 
ATOM      8  C   UNL     1     -28.099 -13.375  20.749  1.00  0.00     0.031 C 
ATOM      9  C   UNL     1     -27.793 -14.545  21.694  1.00  0.00     0.005 C 
ATOM     10  C   UNL     1     -27.635 -14.101  23.160  1.00  0.00     0.008 C 
ATOM     11  C   UNL     1     -28.851 -13.276  23.677  1.00  0.00    -0.018 C 
ATOM     12  C   UNL     1     -28.606 -12.824  25.141  1.00  0.00     0.088 C 
ATOM     13  C   UNL     1     -27.581 -11.741  25.245  1.00  0.00     0.159 C 
ATOM     14  O   UNL     1     -26.681 -11.823  26.124  1.00  0.00    -0.295 OA
ATOM     15  C   UNL     1     -30.123 -14.166  23.690  1.00  0.00     0.012 C 
ATOM     16  C   UNL     1     -26.978  -8.992  26.121  1.00  0.00     0.039 C 
ENDROOT
TORSDOF 0
ENDMDL
MODEL 2
REMARK VINA RESULT:    -0.754      1.749      4.736
REMARK INTER + INTRA:          -0.754
REMARK INTER:                  -0.754
REMARK INTRA:                   0.000
REMARK UNBOUND:                 0.000
REMARK SMILES C=C1CCC[C@@]2(C)CC(=O)C(=C(C)C)C[C@@H]12
REMARK SMILES IDX 13 1 12 2 11 3 15 4 16 5 2 6 1 7 3 8 4 9 5 10 6 11 8 12 9 13
REMARK SMILES IDX 10 14 7 15 14 16
REMARK H PARENT
REMARK Flexibility Score: inf
ROOT
ATOM      1  C   UNL     1     -29.317 -12.294  19.933  1.00  0.00     0.039 C 
ATOM      2  C   UNL     1     -29.331 -13.208  21.134  1.00  0.00    -0.070 C 
ATOM      3  C   UNL     1     -29.114 -12.730  22.394  1.00  0.00    -0.006 C 
ATOM      4  C   UNL     1     -28.851 -11.261  22.663  1.00  0.00     0.047 C 
ATOM      5  C   UNL     1     -27.867 -11.017  23.836  1.00  0.00     0.025 C 
ATOM      6  C   UNL     1     -27.866  -9.534  24.171  1.00  0.00    -0.073 C 
ATOM      7  C   UNL     1     -26.908  -8.727  23.692  1.00  0.00     0.008 C 
ATOM      8  C   UNL     1     -29.050  -8.958  24.919  1.00  0.00     0.031 C 
ATOM      9  C   UNL     1     -29.434  -9.825  26.125  1.00  0.00     0.005 C 
ATOM     10  C   UNL     1     -29.498 -11.325  25.783  1.00  0.00     0.008 C 
ATOM     11  C   UNL     1     -28.191 -11.850  25.118  1.00  0.00    -0.018 C 
ATOM     12  C   UNL     1     -28.340 -13.353  24.760  1.00  0.00     0.088 C 
ATOM     13  C   UNL     1     -29.252 -13.579  23.597  1.00  0.00     0.159 C 
ATOM     14  O   UNL     1     -30.125 -14.488  23.663  1.00  0.00    -0.295 OA
ATOM     15  C   UNL     1     -27.010 -11.745  26.121  1.00  0.00     0.012 C 
ATOM     16  C   UNL     1     -29.557 -14.681  20.880  1.00  0.00     0.039 C 
ENDROOT
TORSDOF 0
ENDMDL
