MODEL 1
REMARK VINA RESULT:    -2.711      0.000      0.000
REMARK INTER + INTRA:          -3.503
REMARK INTER:                  -3.424
REMARK INTRA:                  -0.079
REMARK UNBOUND:                -0.079
REMARK SMILES CCCCCCO
REMARK SMILES IDX 4 1 3 2 2 3 1 4 5 5 6 6 7 7
REMARK H PARENT 7 8
REMARK Flexibility Score: inf
ROOT
ATOM      1  C   UNL     1     171.710 161.801 172.067  1.00  0.00     0.002 C 
ENDROOT
BRANCH   1   2
ATOM      2  C   UNL     1     170.470 162.475 172.677  1.00  0.00    -0.000 C 
BRANCH   2   3
ATOM      3  C   UNL     1     169.526 163.051 171.612  1.00  0.00    -0.003 C 
ATOM      4  C   UNL     1     169.857 162.502 170.228  1.00  0.00     0.004 C 
ENDBRANCH   2   3
ENDBRANCH   1   2
BRANCH   1   5
ATOM      5  C   UNL     1     173.023 162.311 172.682  1.00  0.00     0.028 C 
BRANCH   5   6
ATOM      6  C   UNL     1     174.234 161.698 171.975  1.00  0.00     0.156 C 
BRANCH   6   7
ATOM      7  O   UNL     1     174.725 162.579 171.002  1.00  0.00    -0.396 OA
ATOM      8  H   UNL     1     174.859 163.454 171.453  1.00  0.00     0.210 HD
ENDBRANCH   6   7
ENDBRANCH   5   6
ENDBRANCH   1   5
TORSDOF 5
ENDMDL
MODEL 2
REMARK VINA RESULT:    -2.711     13.026     14.583
REMARK INTER + INTRA:          -3.503
REMARK INTER:                  -3.397
REMARK INTRA:                  -0.105
REMARK UNBOUND:                -0.079
REMARK SMILES CCCCCCO
REMARK SMILES IDX 4 1 3 2 2 3 1 4 5 5 6 6 7 7
REMARK H PARENT 7 8
REMARK Flexibility Score: inf
ROOT
ATOM      1  C   UNL     1     163.427 174.451 172.760  1.00  0.00     0.002 C 
ENDROOT
BRANCH   1   2
ATOM      2  C   UNL     1     164.590 174.360 171.759  1.00  0.00    -0.000 C 
BRANCH   2   3
ATOM      3  C   UNL     1     165.141 172.933 171.621  1.00  0.00    -0.003 C 
ATOM      4  C   UNL     1     165.637 172.671 170.203  1.00  0.00     0.004 C 
ENDBRANCH   2   3
ENDBRANCH   1   2
BRANCH   1   5
ATOM      5  C   UNL     1     162.485 173.239 172.685  1.00  0.00     0.028 C 
BRANCH   5   6
ATOM      6  C   UNL     1     161.117 173.640 172.128  1.00  0.00     0.156 C 
BRANCH   6   7
ATOM      7  O   UNL     1     160.728 172.757 171.112  1.00  0.00    -0.396 OA
ATOM      8  H   UNL     1     159.830 173.051 170.809  1.00  0.00     0.210 HD
ENDBRANCH   6   7
ENDBRANCH   5   6
ENDBRANCH   1   5
TORSDOF 5
ENDMDL
MODEL 3
REMARK VINA RESULT:    -2.701     10.022     10.353
REMARK INTER + INTRA:          -3.491
REMARK INTER:                  -3.381
REMARK INTRA:                  -0.110
REMARK UNBOUND:                -0.079
REMARK SMILES CCCCCCO
REMARK SMILES IDX 4 1 3 2 2 3 1 4 5 5 6 6 7 7
REMARK H PARENT 7 8
REMARK Flexibility Score: inf
ROOT
ATOM      1  C   UNL     1     174.436 172.067 172.899  1.00  0.00     0.002 C 
ENDROOT
BRANCH   1   2
ATOM      2  C   UNL     1     174.384 170.912 171.886  1.00  0.00    -0.000 C 
BRANCH   2   3
ATOM      3  C   UNL     1     172.970 170.335 171.718  1.00  0.00    -0.003 C 
ATOM      4  C   UNL     1     172.775 169.757 170.320  1.00  0.00     0.004 C 
ENDBRANCH   2   3
ENDBRANCH   1   2
BRANCH   1   5
ATOM      5  C   UNL     1     173.214 172.993 172.802  1.00  0.00     0.028 C 
BRANCH   5   6
ATOM      6  C   UNL     1     173.588 174.330 172.157  1.00  0.00     0.156 C 
BRANCH   6   7
ATOM      7  O   UNL     1     172.700 174.632 171.116  1.00  0.00    -0.396 OA
ATOM      8  H   UNL     1     171.784 174.508 171.479  1.00  0.00     0.210 HD
ENDBRANCH   6   7
ENDBRANCH   5   6
ENDBRANCH   1   5
TORSDOF 5
ENDMDL
MODEL 4
REMARK VINA RESULT:    -2.656     10.000     10.402
REMARK INTER + INTRA:          -3.434
REMARK INTER:                  -3.371
REMARK INTRA:                  -0.063
REMARK UNBOUND:                -0.079
REMARK SMILES CCCCCCO
REMARK SMILES IDX 4 1 3 2 2 3 1 4 5 5 6 6 7 7
REMARK H PARENT 7 8
REMARK Flexibility Score: inf
ROOT
ATOM      1  C   UNL     1     162.050 162.901 172.400  1.00  0.00     0.002 C 
ENDROOT
BRANCH   1   2
ATOM      2  C   UNL     1     161.477 164.280 172.039  1.00  0.00    -0.000 C 
BRANCH   2   3
ATOM      3  C   UNL     1     162.570 165.316 171.740  1.00  0.00    -0.003 C 
ATOM      4  C   UNL     1     162.669 165.594 170.243  1.00  0.00     0.004 C 
ENDBRANCH   2   3
ENDBRANCH   1   2
BRANCH   1   5
ATOM      5  C   UNL     1     160.960 161.826 172.540  1.00  0.00     0.028 C 
BRANCH   5   6
ATOM      6  C   UNL     1     161.380 160.525 171.852  1.00  0.00     0.156 C 
BRANCH   6   7
ATOM      7  O   UNL     1     162.575 160.714 171.145  1.00  0.00    -0.396 OA
ATOM      8  H   UNL     1     162.651 161.689 170.970  1.00  0.00     0.210 HD
ENDBRANCH   6   7
ENDBRANCH   5   6
ENDBRANCH   1   5
TORSDOF 5
ENDMDL
MODEL 5
REMARK VINA RESULT:    -2.618      5.741      7.287
REMARK INTER + INTRA:          -3.386
REMARK INTER:                  -3.321
REMARK INTRA:                  -0.066
REMARK UNBOUND:                -0.079
REMARK SMILES CCCCCCO
REMARK SMILES IDX 4 1 3 2 2 3 1 4 5 5 6 6 7 7
REMARK H PARENT 7 8
REMARK Flexibility Score: inf
ROOT
ATOM      1  C   UNL     1     166.433 165.465 168.396  1.00  0.00     0.002 C 
ENDROOT
BRANCH   1   2
ATOM      2  C   UNL     1     166.053 166.922 168.087  1.00  0.00    -0.000 C 
BRANCH   2   3
ATOM      3  C   UNL     1     164.590 167.239 168.431  1.00  0.00    -0.003 C 
ATOM      4  C   UNL     1     164.100 166.378 169.590  1.00  0.00     0.004 C 
ENDBRANCH   2   3
ENDBRANCH   1   2
BRANCH   1   5
ATOM      5  C   UNL     1     167.836 165.099 167.889  1.00  0.00     0.028 C 
BRANCH   5   6
ATOM      6  C   UNL     1     168.431 163.946 168.702  1.00  0.00     0.156 C 
BRANCH   6   7
ATOM      7  O   UNL     1     168.444 162.771 167.938  1.00  0.00    -0.396 OA
ATOM      8  H   UNL     1     169.394 162.489 167.869  1.00  0.00     0.210 HD
ENDBRANCH   6   7
ENDBRANCH   5   6
ENDBRANCH   1   5
TORSDOF 5
ENDMDL
MODEL 6
REMARK VINA RESULT:    -2.560      5.415      6.710
REMARK INTER + INTRA:          -3.313
REMARK INTER:                  -3.192
REMARK INTRA:                  -0.121
REMARK UNBOUND:                -0.079
REMARK SMILES CCCCCCO
REMARK SMILES IDX 4 1 3 2 2 3 1 4 5 5 6 6 7 7
REMARK H PARENT 7 8
REMARK Flexibility Score: inf
ROOT
ATOM      1  C   UNL     1     168.384 166.455 167.886  1.00  0.00     0.002 C 
ENDROOT
BRANCH   1   2
ATOM      2  C   UNL     1     169.898 166.268 168.068  1.00  0.00    -0.000 C 
BRANCH   2   3
ATOM      3  C   UNL     1     170.641 167.600 168.247  1.00  0.00    -0.003 C 
ATOM      4  C   UNL     1     169.814 168.585 169.067  1.00  0.00     0.004 C 
ENDBRANCH   2   3
ENDBRANCH   1   2
BRANCH   1   5
ATOM      5  C   UNL     1     167.602 165.143 168.055  1.00  0.00     0.028 C 
BRANCH   5   6
ATOM      6  C   UNL     1     168.482 164.055 168.675  1.00  0.00     0.156 C 
BRANCH   6   7
ATOM      7  O   UNL     1     168.463 162.903 167.877  1.00  0.00    -0.396 OA
ATOM      8  H   UNL     1     168.219 162.148 168.474  1.00  0.00     0.210 HD
ENDBRANCH   6   7
ENDBRANCH   5   6
ENDBRANCH   1   5
TORSDOF 5
ENDMDL
MODEL 7
REMARK VINA RESULT:    -2.556      4.243      5.968
REMARK INTER + INTRA:          -3.308
REMARK INTER:                  -3.240
REMARK INTRA:                  -0.067
REMARK UNBOUND:                -0.079
REMARK SMILES CCCCCCO
REMARK SMILES IDX 4 1 3 2 2 3 1 4 5 5 6 6 7 7
REMARK H PARENT 7 8
REMARK Flexibility Score: inf
ROOT
ATOM      1  C   UNL     1     168.825 164.089 169.694  1.00  0.00     0.002 C 
ENDROOT
BRANCH   1   2
ATOM      2  C   UNL     1     169.552 162.736 169.742  1.00  0.00    -0.000 C 
BRANCH   2   3
ATOM      3  C   UNL     1     170.166 162.442 171.119  1.00  0.00    -0.003 C 
ATOM      4  C   UNL     1     169.423 163.188 172.222  1.00  0.00     0.004 C 
ENDBRANCH   2   3
ENDBRANCH   1   2
BRANCH   1   5
ATOM      5  C   UNL     1     168.256 164.405 168.302  1.00  0.00     0.028 C 
BRANCH   5   6
ATOM      6  C   UNL     1     167.090 165.392 168.397  1.00  0.00     0.156 C 
BRANCH   6   7
ATOM      7  O   UNL     1     165.879 164.741 168.126  1.00  0.00    -0.396 OA
ATOM      8  H   UNL     1     165.446 164.570 169.003  1.00  0.00     0.210 HD
ENDBRANCH   6   7
ENDBRANCH   5   6
ENDBRANCH   1   5
TORSDOF 5
ENDMDL
MODEL 8
REMARK VINA RESULT:    -2.538      8.780     10.003
REMARK INTER + INTRA:          -3.285
REMARK INTER:                  -3.215
REMARK INTRA:                  -0.070
REMARK UNBOUND:                -0.079
REMARK SMILES CCCCCCO
REMARK SMILES IDX 4 1 3 2 2 3 1 4 5 5 6 6 7 7
REMARK H PARENT 7 8
REMARK Flexibility Score: inf
ROOT
ATOM      1  C   UNL     1     166.406 168.922 168.865  1.00  0.00     0.002 C 
ENDROOT
BRANCH   1   2
ATOM      2  C   UNL     1     167.152 170.155 168.331  1.00  0.00    -0.000 C 
BRANCH   2   3
ATOM      3  C   UNL     1     168.598 169.841 167.923  1.00  0.00    -0.003 C 
ATOM      4  C   UNL     1     169.353 169.155 169.057  1.00  0.00     0.004 C 
ENDBRANCH   2   3
ENDBRANCH   1   2
BRANCH   1   5
ATOM      5  C   UNL     1     165.344 168.403 167.884  1.00  0.00     0.028 C 
BRANCH   5   6
ATOM      6  C   UNL     1     164.571 167.226 168.483  1.00  0.00     0.156 C 
BRANCH   6   7
ATOM      7  O   UNL     1     163.303 167.127 167.893  1.00  0.00    -0.396 OA
ATOM      8  H   UNL     1     163.439 166.724 166.995  1.00  0.00     0.210 HD
ENDBRANCH   6   7
ENDBRANCH   5   6
ENDBRANCH   1   5
TORSDOF 5
ENDMDL
MODEL 9
REMARK VINA RESULT:    -2.532      9.168      9.876
REMARK INTER + INTRA:          -3.277
REMARK INTER:                  -3.218
REMARK INTRA:                  -0.060
REMARK UNBOUND:                -0.079
REMARK SMILES CCCCCCO
REMARK SMILES IDX 4 1 3 2 2 3 1 4 5 5 6 6 7 7
REMARK H PARENT 7 8
REMARK Flexibility Score: inf
ROOT
ATOM      1  C   UNL     1     166.609 168.787 168.963  1.00  0.00     0.002 C 
ENDROOT
BRANCH   1   2
ATOM      2  C   UNL     1     165.746 168.128 167.875  1.00  0.00    -0.000 C 
BRANCH   2   3
ATOM      3  C   UNL     1     164.495 167.443 168.446  1.00  0.00    -0.003 C 
ATOM      4  C   UNL     1     164.844 166.585 169.658  1.00  0.00     0.004 C 
ENDBRANCH   2   3
ENDBRANCH   1   2
BRANCH   1   5
ATOM      5  C   UNL     1     167.442 169.960 168.425  1.00  0.00     0.028 C 
BRANCH   5   6
ATOM      6  C   UNL     1     166.963 171.290 169.013  1.00  0.00     0.156 C 
BRANCH   6   7
ATOM      7  O   UNL     1     167.006 172.295 168.038  1.00  0.00    -0.396 OA
ATOM      8  H   UNL     1     167.771 172.080 167.443  1.00  0.00     0.210 HD
ENDBRANCH   6   7
ENDBRANCH   5   6
ENDBRANCH   1   5
TORSDOF 5
ENDMDL
