MODEL 1
REMARK VINA RESULT:    -3.824      0.000      0.000
REMARK INTER + INTRA:         -11.418
REMARK INTER:                  -8.296
REMARK INTRA:                  -3.122
REMARK UNBOUND:                -3.122
REMARK SMILES CCCCCCCCCCCCCCCCCCCCCC(=O)[O-]
REMARK SMILES IDX 12 1 11 2 10 3 9 4 8 5 7 6 6 7 5 8 4 9 3 10 2 11 1 12 13 13
REMARK SMILES IDX 14 14 15 15 16 16 17 17 18 18 19 19 20 20 21 21 22 22 23 23
REMARK SMILES IDX 24 24
REMARK H PARENT
REMARK Flexibility Score: inf
ROOT
ATOM      1  C   UNL     1       9.371  64.919   8.585  1.00  0.00     0.000 C 
ENDROOT
BRANCH   1   2
ATOM      2  C   UNL     1      10.541  65.896   8.819  1.00  0.00     0.000 C 
BRANCH   2   3
ATOM      3  C   UNL     1      10.561  67.133   7.898  1.00  0.00     0.000 C 
BRANCH   3   4
ATOM      4  C   UNL     1       9.474  67.153   6.810  1.00  0.00    -0.000 C 
BRANCH   4   5
ATOM      5  C   UNL     1       8.881  68.552   6.587  1.00  0.00    -0.000 C 
BRANCH   5   6
ATOM      6  C   UNL     1       7.406  68.596   7.015  1.00  0.00    -0.000 C 
BRANCH   6   7
ATOM      7  C   UNL     1       6.828  67.187   7.262  1.00  0.00    -0.000 C 
BRANCH   7   8
ATOM      8  C   UNL     1       5.491  66.920   6.539  1.00  0.00    -0.000 C 
BRANCH   8   9
ATOM      9  C   UNL     1       4.342  66.429   7.441  1.00  0.00    -0.000 C 
BRANCH   9  10
ATOM     10  C   UNL     1       4.802  65.937   8.833  1.00  0.00    -0.000 C 
BRANCH  10  11
ATOM     11  C   UNL     1       4.725  64.411   9.000  1.00  0.00    -0.003 C 
ATOM     12  C   UNL     1       5.934  63.688   8.410  1.00  0.00     0.004 C 
ENDBRANCH  10  11
ENDBRANCH   9  10
ENDBRANCH   8   9
ENDBRANCH   7   8
ENDBRANCH   6   7
ENDBRANCH   5   6
ENDBRANCH   4   5
ENDBRANCH   3   4
ENDBRANCH   2   3
ENDBRANCH   1   2
BRANCH   1  13
ATOM     13  C   UNL     1       9.727  63.430   8.751  1.00  0.00     0.000 C 
BRANCH  13  14
ATOM     14  C   UNL     1      11.244  63.183   8.826  1.00  0.00     0.000 C 
BRANCH  14  15
ATOM     15  C   UNL     1      11.717  62.120   7.819  1.00  0.00     0.000 C 
BRANCH  15  16
ATOM     16  C   UNL     1      12.769  62.668   6.838  1.00  0.00     0.000 C 
BRANCH  16  17
ATOM     17  C   UNL     1      13.395  63.986   7.319  1.00  0.00     0.000 C 
BRANCH  17  18
ATOM     18  C   UNL     1      13.185  65.137   6.320  1.00  0.00     0.000 C 
BRANCH  18  19
ATOM     19  C   UNL     1      12.176  64.789   5.213  1.00  0.00     0.000 C 
BRANCH  19  20
ATOM     20  C   UNL     1      12.095  65.850   4.095  1.00  0.00     0.006 C 
BRANCH  20  21
ATOM     21  C   UNL     1      10.707  65.899   3.442  1.00  0.00     0.053 C 
BRANCH  21  22
ATOM     22  C   UNL     1      10.352  67.304   3.068  1.00  0.00     0.041 C 
ATOM     23  O   UNL     1       9.503  67.525   2.162  1.00  0.00    -0.550 OA
ATOM     24  O   UNL     1      10.939  68.371   3.736  1.00  0.00    -0.550 OA
ENDBRANCH  21  22
ENDBRANCH  20  21
ENDBRANCH  19  20
ENDBRANCH  18  19
ENDBRANCH  17  18
ENDBRANCH  16  17
ENDBRANCH  15  16
ENDBRANCH  14  15
ENDBRANCH  13  14
ENDBRANCH   1  13
TORSDOF 20
ENDMDL
MODEL 2
REMARK VINA RESULT:    -3.730      2.421      5.465
REMARK INTER + INTRA:         -11.213
REMARK INTER:                  -8.494
REMARK INTRA:                  -2.718
REMARK UNBOUND:                -3.122
REMARK SMILES CCCCCCCCCCCCCCCCCCCCCC(=O)[O-]
REMARK SMILES IDX 12 1 11 2 10 3 9 4 8 5 7 6 6 7 5 8 4 9 3 10 2 11 1 12 13 13
REMARK SMILES IDX 14 14 15 15 16 16 17 17 18 18 19 19 20 20 21 21 22 22 23 23
REMARK SMILES IDX 24 24
REMARK H PARENT
REMARK Flexibility Score: inf
ROOT
ATOM      1  C   UNL     1      13.429  63.651   7.728  1.00  0.00     0.000 C 
ENDROOT
BRANCH   1   2
ATOM      2  C   UNL     1      13.931  64.825   6.863  1.00  0.00     0.000 C 
BRANCH   2   3
ATOM      3  C   UNL     1      13.011  66.063   6.834  1.00  0.00     0.000 C 
BRANCH   3   4
ATOM      4  C   UNL     1      11.809  65.960   5.881  1.00  0.00    -0.000 C 
BRANCH   4   5
ATOM      5  C   UNL     1      12.083  66.586   4.506  1.00  0.00    -0.000 C 
BRANCH   5   6
ATOM      6  C   UNL     1      11.814  65.577   3.380  1.00  0.00    -0.000 C 
BRANCH   6   7
ATOM      7  C   UNL     1      10.321  65.518   2.994  1.00  0.00    -0.000 C 
BRANCH   7   8
ATOM      8  C   UNL     1       9.692  66.897   2.703  1.00  0.00    -0.000 C 
BRANCH   8   9
ATOM      9  C   UNL     1       8.385  67.197   3.463  1.00  0.00    -0.000 C 
BRANCH   9  10
ATOM     10  C   UNL     1       8.597  67.913   4.817  1.00  0.00    -0.000 C 
BRANCH  10  11
ATOM     11  C   UNL     1       7.486  67.630   5.841  1.00  0.00    -0.003 C 
ATOM     12  C   UNL     1       7.322  68.752   6.864  1.00  0.00     0.004 C 
ENDBRANCH  10  11
ENDBRANCH   9  10
ENDBRANCH   8   9
ENDBRANCH   7   8
ENDBRANCH   6   7
ENDBRANCH   5   6
ENDBRANCH   4   5
ENDBRANCH   3   4
ENDBRANCH   2   3
ENDBRANCH   1   2
BRANCH   1  13
ATOM     13  C   UNL     1      12.701  62.539   6.951  1.00  0.00     0.000 C 
BRANCH  13  14
ATOM     14  C   UNL     1      11.551  61.905   7.752  1.00  0.00     0.000 C 
BRANCH  14  15
ATOM     15  C   UNL     1      11.090  62.790   8.922  1.00  0.00     0.000 C 
BRANCH  15  16
ATOM     16  C   UNL     1       9.822  63.596   8.585  1.00  0.00     0.000 C 
BRANCH  16  17
ATOM     17  C   UNL     1       9.967  65.090   8.912  1.00  0.00     0.000 C 
BRANCH  17  18
ATOM     18  C   UNL     1       8.619  65.832   8.888  1.00  0.00     0.000 C 
BRANCH  18  19
ATOM     19  C   UNL     1       7.418  64.881   8.745  1.00  0.00     0.000 C 
BRANCH  19  20
ATOM     20  C   UNL     1       6.099  65.469   9.289  1.00  0.00     0.006 C 
BRANCH  20  21
ATOM     21  C   UNL     1       4.883  65.023   8.465  1.00  0.00     0.053 C 
BRANCH  21  22
ATOM     22  C   UNL     1       4.331  66.170   7.679  1.00  0.00     0.041 C 
ATOM     23  O   UNL     1       3.814  67.156   8.272  1.00  0.00    -0.550 OA
ATOM     24  O   UNL     1       4.407  66.164   6.292  1.00  0.00    -0.550 OA
ENDBRANCH  21  22
ENDBRANCH  20  21
ENDBRANCH  19  20
ENDBRANCH  18  19
ENDBRANCH  17  18
ENDBRANCH  16  17
ENDBRANCH  15  16
ENDBRANCH  14  15
ENDBRANCH  13  14
ENDBRANCH   1  13
TORSDOF 20
ENDMDL
MODEL 3
REMARK VINA RESULT:    -3.728      2.072      6.642
REMARK INTER + INTRA:         -11.210
REMARK INTER:                  -8.701
REMARK INTRA:                  -2.509
REMARK UNBOUND:                -3.122
REMARK SMILES CCCCCCCCCCCCCCCCCCCCCC(=O)[O-]
REMARK SMILES IDX 12 1 11 2 10 3 9 4 8 5 7 6 6 7 5 8 4 9 3 10 2 11 1 12 13 13
REMARK SMILES IDX 14 14 15 15 16 16 17 17 18 18 19 19 20 20 21 21 22 22 23 23
REMARK SMILES IDX 24 24
REMARK H PARENT
REMARK Flexibility Score: inf
ROOT
ATOM      1  C   UNL     1       9.269  63.451   8.616  1.00  0.00     0.000 C 
ENDROOT
BRANCH   1   2
ATOM      2  C   UNL     1      10.468  62.955   9.449  1.00  0.00     0.000 C 
BRANCH   2   3
ATOM      3  C   UNL     1      11.849  63.127   8.785  1.00  0.00     0.000 C 
BRANCH   3   4
ATOM      4  C   UNL     1      12.008  62.435   7.421  1.00  0.00    -0.000 C 
BRANCH   4   5
ATOM      5  C   UNL     1      13.044  63.123   6.521  1.00  0.00    -0.000 C 
BRANCH   5   6
ATOM      6  C   UNL     1      13.825  64.191   7.302  1.00  0.00    -0.000 C 
BRANCH   6   7
ATOM      7  C   UNL     1      13.640  65.602   6.705  1.00  0.00    -0.000 C 
BRANCH   7   8
ATOM      8  C   UNL     1      12.616  66.476   7.460  1.00  0.00    -0.000 C 
BRANCH   8   9
ATOM      9  C   UNL     1      11.444  67.001   6.608  1.00  0.00    -0.000 C 
BRANCH   9  10
ATOM     10  C   UNL     1      10.857  65.952   5.633  1.00  0.00    -0.000 C 
BRANCH  10  11
ATOM     11  C   UNL     1      11.145  66.259   4.155  1.00  0.00    -0.003 C 
ATOM     12  C   UNL     1      11.953  65.160   3.469  1.00  0.00     0.004 C 
ENDBRANCH  10  11
ENDBRANCH   9  10
ENDBRANCH   8   9
ENDBRANCH   7   8
ENDBRANCH   6   7
ENDBRANCH   5   6
ENDBRANCH   4   5
ENDBRANCH   3   4
ENDBRANCH   2   3
ENDBRANCH   1   2
BRANCH   1  13
ATOM     13  C   UNL     1       8.965  64.954   8.750  1.00  0.00     0.000 C 
BRANCH  13  14
ATOM     14  C   UNL     1       7.460  65.252   8.863  1.00  0.00     0.000 C 
BRANCH  14  15
ATOM     15  C   UNL     1       6.595  63.994   8.679  1.00  0.00     0.000 C 
BRANCH  15  16
ATOM     16  C   UNL     1       5.088  64.302   8.748  1.00  0.00     0.000 C 
BRANCH  16  17
ATOM     17  C   UNL     1       4.798  65.806   8.868  1.00  0.00     0.000 C 
BRANCH  17  18
ATOM     18  C   UNL     1       4.206  66.396   7.576  1.00  0.00     0.000 C 
BRANCH  18  19
ATOM     19  C   UNL     1       5.205  67.286   6.816  1.00  0.00     0.000 C 
BRANCH  19  20
ATOM     20  C   UNL     1       4.536  68.230   5.794  1.00  0.00     0.006 C 
BRANCH  20  21
ATOM     21  C   UNL     1       5.027  67.975   4.363  1.00  0.00     0.053 C 
BRANCH  21  22
ATOM     22  C   UNL     1       4.527  66.657   3.863  1.00  0.00     0.041 C 
ATOM     23  O   UNL     1       5.325  65.827   3.349  1.00  0.00    -0.550 OA
ATOM     24  O   UNL     1       3.181  66.333   3.984  1.00  0.00    -0.550 OA
ENDBRANCH  21  22
ENDBRANCH  20  21
ENDBRANCH  19  20
ENDBRANCH  18  19
ENDBRANCH  17  18
ENDBRANCH  16  17
ENDBRANCH  15  16
ENDBRANCH  14  15
ENDBRANCH  13  14
ENDBRANCH   1  13
TORSDOF 20
ENDMDL
MODEL 4
REMARK VINA RESULT:    -3.695      1.979      6.270
REMARK INTER + INTRA:         -11.137
REMARK INTER:                  -8.196
REMARK INTRA:                  -2.941
REMARK UNBOUND:                -3.122
REMARK SMILES CCCCCCCCCCCCCCCCCCCCCC(=O)[O-]
REMARK SMILES IDX 12 1 11 2 10 3 9 4 8 5 7 6 6 7 5 8 4 9 3 10 2 11 1 12 13 13
REMARK SMILES IDX 14 14 15 15 16 16 17 17 18 18 19 19 20 20 21 21 22 22 23 23
REMARK SMILES IDX 24 24
REMARK H PARENT
REMARK Flexibility Score: inf
ROOT
ATOM      1  C   UNL     1       9.445  63.356   8.747  1.00  0.00     0.000 C 
ENDROOT
BRANCH   1   2
ATOM      2  C   UNL     1      10.927  62.971   8.929  1.00  0.00     0.000 C 
BRANCH   2   3
ATOM      3  C   UNL     1      11.517  62.077   7.819  1.00  0.00     0.000 C 
BRANCH   3   4
ATOM      4  C   UNL     1      12.832  62.585   7.203  1.00  0.00    -0.000 C 
BRANCH   4   5
ATOM      5  C   UNL     1      13.275  63.938   7.778  1.00  0.00    -0.000 C 
BRANCH   5   6
ATOM      6  C   UNL     1      14.005  64.772   6.715  1.00  0.00    -0.000 C 
BRANCH   6   7
ATOM      7  C   UNL     1      13.120  65.904   6.151  1.00  0.00    -0.000 C 
BRANCH   7   8
ATOM      8  C   UNL     1      11.871  65.407   5.393  1.00  0.00    -0.000 C 
BRANCH   8   9
ATOM      9  C   UNL     1      12.040  65.269   3.867  1.00  0.00    -0.000 C 
BRANCH   9  10
ATOM     10  C   UNL     1      10.745  65.538   3.065  1.00  0.00    -0.000 C 
BRANCH  10  11
ATOM     11  C   UNL     1      10.257  66.993   3.157  1.00  0.00    -0.003 C 
ATOM     12  C   UNL     1       8.765  67.098   3.466  1.00  0.00     0.004 C 
ENDBRANCH  10  11
ENDBRANCH   9  10
ENDBRANCH   8   9
ENDBRANCH   7   8
ENDBRANCH   6   7
ENDBRANCH   5   6
ENDBRANCH   4   5
ENDBRANCH   3   4
ENDBRANCH   2   3
ENDBRANCH   1   2
BRANCH   1  13
ATOM     13  C   UNL     1       9.188  64.860   8.537  1.00  0.00     0.000 C 
BRANCH  13  14
ATOM     14  C   UNL     1      10.319  65.744   9.089  1.00  0.00     0.000 C 
BRANCH  14  15
ATOM     15  C   UNL     1      10.392  67.112   8.390  1.00  0.00     0.000 C 
BRANCH  15  16
ATOM     16  C   UNL     1       9.458  67.198   7.170  1.00  0.00     0.000 C 
BRANCH  16  17
ATOM     17  C   UNL     1       8.563  68.446   7.198  1.00  0.00     0.000 C 
BRANCH  17  18
ATOM     18  C   UNL     1       7.144  68.165   6.674  1.00  0.00     0.000 C 
BRANCH  18  19
ATOM     19  C   UNL     1       6.407  67.094   7.496  1.00  0.00     0.000 C 
BRANCH  19  20
ATOM     20  C   UNL     1       5.218  66.453   6.750  1.00  0.00     0.006 C 
BRANCH  20  21
ATOM     21  C   UNL     1       4.786  67.279   5.530  1.00  0.00     0.053 C 
BRANCH  21  22
ATOM     22  C   UNL     1       4.330  66.381   4.423  1.00  0.00     0.041 C 
ATOM     23  O   UNL     1       5.165  65.902   3.609  1.00  0.00    -0.550 OA
ATOM     24  O   UNL     1       2.985  66.055   4.303  1.00  0.00    -0.550 OA
ENDBRANCH  21  22
ENDBRANCH  20  21
ENDBRANCH  19  20
ENDBRANCH  18  19
ENDBRANCH  17  18
ENDBRANCH  16  17
ENDBRANCH  15  16
ENDBRANCH  14  15
ENDBRANCH  13  14
ENDBRANCH   1  13
TORSDOF 20
ENDMDL
MODEL 5
REMARK VINA RESULT:    -3.684      1.438      6.217
REMARK INTER + INTRA:         -11.114
REMARK INTER:                  -8.164
REMARK INTRA:                  -2.951
REMARK UNBOUND:                -3.122
REMARK SMILES CCCCCCCCCCCCCCCCCCCCCC(=O)[O-]
REMARK SMILES IDX 12 1 11 2 10 3 9 4 8 5 7 6 6 7 5 8 4 9 3 10 2 11 1 12 13 13
REMARK SMILES IDX 14 14 15 15 16 16 17 17 18 18 19 19 20 20 21 21 22 22 23 23
REMARK SMILES IDX 24 24
REMARK H PARENT
REMARK Flexibility Score: inf
ROOT
ATOM      1  C   UNL     1       8.958  65.074   8.817  1.00  0.00     0.000 C 
ENDROOT
BRANCH   1   2
ATOM      2  C   UNL     1       9.304  63.602   8.511  1.00  0.00     0.000 C 
BRANCH   2   3
ATOM      3  C   UNL     1      10.692  63.137   8.995  1.00  0.00     0.000 C 
BRANCH   3   4
ATOM      4  C   UNL     1      11.508  62.339   7.964  1.00  0.00    -0.000 C 
BRANCH   4   5
ATOM      5  C   UNL     1      12.916  62.912   7.747  1.00  0.00    -0.000 C 
BRANCH   5   6
ATOM      6  C   UNL     1      13.008  63.645   6.400  1.00  0.00    -0.000 C 
BRANCH   6   7
ATOM      7  C   UNL     1      13.417  65.124   6.567  1.00  0.00    -0.000 C 
BRANCH   7   8
ATOM      8  C   UNL     1      12.240  66.071   6.883  1.00  0.00    -0.000 C 
BRANCH   8   9
ATOM      9  C   UNL     1      10.977  65.859   6.027  1.00  0.00    -0.000 C 
BRANCH   9  10
ATOM     10  C   UNL     1      10.931  66.730   4.749  1.00  0.00    -0.000 C 
BRANCH  10  11
ATOM     11  C   UNL     1      10.785  65.914   3.455  1.00  0.00    -0.003 C 
ATOM     12  C   UNL     1      12.010  65.052   3.157  1.00  0.00     0.004 C 
ENDBRANCH  10  11
ENDBRANCH   9  10
ENDBRANCH   8   9
ENDBRANCH   7   8
ENDBRANCH   6   7
ENDBRANCH   5   6
ENDBRANCH   4   5
ENDBRANCH   3   4
ENDBRANCH   2   3
ENDBRANCH   1   2
BRANCH   1  13
ATOM     13  C   UNL     1       7.457  65.361   9.003  1.00  0.00     0.000 C 
BRANCH  13  14
ATOM     14  C   UNL     1       6.572  64.139   8.706  1.00  0.00     0.000 C 
BRANCH  14  15
ATOM     15  C   UNL     1       5.106  64.523   8.442  1.00  0.00     0.000 C 
BRANCH  15  16
ATOM     16  C   UNL     1       4.935  66.027   8.162  1.00  0.00     0.000 C 
BRANCH  16  17
ATOM     17  C   UNL     1       4.385  66.307   6.755  1.00  0.00     0.000 C 
BRANCH  17  18
ATOM     18  C   UNL     1       4.974  67.587   6.136  1.00  0.00     0.000 C 
BRANCH  18  19
ATOM     19  C   UNL     1       6.339  67.966   6.737  1.00  0.00     0.000 C 
BRANCH  19  20
ATOM     20  C   UNL     1       7.525  67.718   5.780  1.00  0.00     0.006 C 
BRANCH  20  21
ATOM     21  C   UNL     1       7.797  68.924   4.871  1.00  0.00     0.053 C 
BRANCH  21  22
ATOM     22  C   UNL     1       7.559  68.565   3.438  1.00  0.00     0.041 C 
ATOM     23  O   UNL     1       6.388  68.355   3.021  1.00  0.00    -0.550 OA
ATOM     24  O   UNL     1       8.629  68.485   2.555  1.00  0.00    -0.550 OA
ENDBRANCH  21  22
ENDBRANCH  20  21
ENDBRANCH  19  20
ENDBRANCH  18  19
ENDBRANCH  17  18
ENDBRANCH  16  17
ENDBRANCH  15  16
ENDBRANCH  14  15
ENDBRANCH  13  14
ENDBRANCH   1  13
TORSDOF 20
ENDMDL
MODEL 6
REMARK VINA RESULT:    -3.621      1.358      2.042
REMARK INTER + INTRA:         -10.978
REMARK INTER:                  -7.390
REMARK INTRA:                  -3.587
REMARK UNBOUND:                -3.122
REMARK SMILES CCCCCCCCCCCCCCCCCCCCCC(=O)[O-]
REMARK SMILES IDX 12 1 11 2 10 3 9 4 8 5 7 6 6 7 5 8 4 9 3 10 2 11 1 12 13 13
REMARK SMILES IDX 14 14 15 15 16 16 17 17 18 18 19 19 20 20 21 21 22 22 23 23
REMARK SMILES IDX 24 24
REMARK H PARENT
REMARK Flexibility Score: inf
ROOT
ATOM      1  C   UNL     1       9.656  63.358   8.673  1.00  0.00     0.000 C 
ENDROOT
BRANCH   1   2
ATOM      2  C   UNL     1       9.648  64.871   8.377  1.00  0.00     0.000 C 
BRANCH   2   3
ATOM      3  C   UNL     1      10.417  65.746   9.388  1.00  0.00     0.000 C 
BRANCH   3   4
ATOM      4  C   UNL     1       9.714  67.056   9.784  1.00  0.00    -0.000 C 
BRANCH   4   5
ATOM      5  C   UNL     1       8.189  66.908   9.875  1.00  0.00    -0.000 C 
BRANCH   5   6
ATOM      6  C   UNL     1       7.483  68.002   9.059  1.00  0.00    -0.000 C 
BRANCH   6   7
ATOM      7  C   UNL     1       7.932  68.009   7.583  1.00  0.00    -0.000 C 
BRANCH   7   8
ATOM      8  C   UNL     1       6.849  67.531   6.592  1.00  0.00    -0.000 C 
BRANCH   8   9
ATOM      9  C   UNL     1       5.425  67.432   7.173  1.00  0.00    -0.000 C 
BRANCH   9  10
ATOM     10  C   UNL     1       4.802  66.020   7.072  1.00  0.00    -0.000 C 
BRANCH  10  11
ATOM     11  C   UNL     1       4.813  65.248   8.401  1.00  0.00    -0.003 C 
ATOM     12  C   UNL     1       5.921  64.200   8.467  1.00  0.00     0.004 C 
ENDBRANCH  10  11
ENDBRANCH   9  10
ENDBRANCH   8   9
ENDBRANCH   7   8
ENDBRANCH   6   7
ENDBRANCH   5   6
ENDBRANCH   4   5
ENDBRANCH   3   4
ENDBRANCH   2   3
ENDBRANCH   1   2
BRANCH   1  13
ATOM     13  C   UNL     1      11.052  62.750   8.898  1.00  0.00     0.000 C 
BRANCH  13  14
ATOM     14  C   UNL     1      11.699  62.240   7.599  1.00  0.00     0.000 C 
BRANCH  14  15
ATOM     15  C   UNL     1      13.117  62.799   7.390  1.00  0.00     0.000 C 
BRANCH  15  16
ATOM     16  C   UNL     1      13.129  64.051   6.495  1.00  0.00     0.000 C 
BRANCH  16  17
ATOM     17  C   UNL     1      13.504  65.326   7.267  1.00  0.00     0.000 C 
BRANCH  17  18
ATOM     18  C   UNL     1      13.368  66.596   6.410  1.00  0.00     0.000 C 
BRANCH  18  19
ATOM     19  C   UNL     1      12.162  67.461   6.813  1.00  0.00     0.000 C 
BRANCH  19  20
ATOM     20  C   UNL     1      11.196  67.756   5.646  1.00  0.00     0.006 C 
BRANCH  20  21
ATOM     21  C   UNL     1      10.469  66.494   5.164  1.00  0.00     0.053 C 
BRANCH  21  22
ATOM     22  C   UNL     1      10.796  66.214   3.731  1.00  0.00     0.041 C 
ATOM     23  O   UNL     1      11.916  66.550   3.258  1.00  0.00    -0.550 OA
ATOM     24  O   UNL     1       9.875  65.560   2.922  1.00  0.00    -0.550 OA
ENDBRANCH  21  22
ENDBRANCH  20  21
ENDBRANCH  19  20
ENDBRANCH  18  19
ENDBRANCH  17  18
ENDBRANCH  16  17
ENDBRANCH  15  16
ENDBRANCH  14  15
ENDBRANCH  13  14
ENDBRANCH   1  13
TORSDOF 20
ENDMDL
MODEL 7
REMARK VINA RESULT:    -3.606      1.192      2.406
REMARK INTER + INTRA:         -10.945
REMARK INTER:                  -7.911
REMARK INTRA:                  -3.034
REMARK UNBOUND:                -3.122
REMARK SMILES CCCCCCCCCCCCCCCCCCCCCC(=O)[O-]
REMARK SMILES IDX 12 1 11 2 10 3 9 4 8 5 7 6 6 7 5 8 4 9 3 10 2 11 1 12 13 13
REMARK SMILES IDX 14 14 15 15 16 16 17 17 18 18 19 19 20 20 21 21 22 22 23 23
REMARK SMILES IDX 24 24
REMARK H PARENT
REMARK Flexibility Score: inf
ROOT
ATOM      1  C   UNL     1      10.089  64.108   8.313  1.00  0.00     0.000 C 
ENDROOT
BRANCH   1   2
ATOM      2  C   UNL     1      10.323  65.401   9.121  1.00  0.00     0.000 C 
BRANCH   2   3
ATOM      3  C   UNL     1       9.736  66.684   8.497  1.00  0.00     0.000 C 
BRANCH   3   4
ATOM      4  C   UNL     1       8.333  66.527   7.884  1.00  0.00    -0.000 C 
BRANCH   4   5
ATOM      5  C   UNL     1       7.229  66.417   8.946  1.00  0.00    -0.000 C 
BRANCH   5   6
ATOM      6  C   UNL     1       6.568  65.031   8.907  1.00  0.00    -0.000 C 
BRANCH   6   7
ATOM      7  C   UNL     1       5.183  65.065   8.227  1.00  0.00    -0.000 C 
BRANCH   7   8
ATOM      8  C   UNL     1       4.393  66.368   8.473  1.00  0.00    -0.000 C 
BRANCH   8   9
ATOM      9  C   UNL     1       3.943  67.113   7.202  1.00  0.00    -0.000 C 
BRANCH   9  10
ATOM     10  C   UNL     1       4.338  66.405   5.885  1.00  0.00    -0.000 C 
BRANCH  10  11
ATOM     11  C   UNL     1       5.299  67.227   5.011  1.00  0.00    -0.003 C 
ATOM     12  C   UNL     1       5.935  68.393   5.765  1.00  0.00     0.004 C 
ENDBRANCH  10  11
ENDBRANCH   9  10
ENDBRANCH   8   9
ENDBRANCH   7   8
ENDBRANCH   6   7
ENDBRANCH   5   6
ENDBRANCH   4   5
ENDBRANCH   3   4
ENDBRANCH   2   3
ENDBRANCH   1   2
BRANCH   1  13
ATOM     13  C   UNL     1      10.932  62.901   8.764  1.00  0.00     0.000 C 
BRANCH  13  14
ATOM     14  C   UNL     1      11.896  62.404   7.673  1.00  0.00     0.000 C 
BRANCH  14  15
ATOM     15  C   UNL     1      13.253  63.127   7.711  1.00  0.00     0.000 C 
BRANCH  15  16
ATOM     16  C   UNL     1      13.451  64.067   6.509  1.00  0.00     0.000 C 
BRANCH  16  17
ATOM     17  C   UNL     1      13.530  65.545   6.922  1.00  0.00     0.000 C 
BRANCH  17  18
ATOM     18  C   UNL     1      12.618  66.445   6.071  1.00  0.00     0.000 C 
BRANCH  18  19
ATOM     19  C   UNL     1      11.555  65.651   5.294  1.00  0.00     0.000 C 
BRANCH  19  20
ATOM     20  C   UNL     1      11.764  65.670   3.765  1.00  0.00     0.006 C 
BRANCH  20  21
ATOM     21  C   UNL     1      10.435  65.634   2.998  1.00  0.00     0.053 C 
BRANCH  21  22
ATOM     22  C   UNL     1       9.773  66.976   3.029  1.00  0.00     0.041 C 
ATOM     23  O   UNL     1      10.449  68.022   2.834  1.00  0.00    -0.550 OA
ATOM     24  O   UNL     1       8.405  67.071   3.251  1.00  0.00    -0.550 OA
ENDBRANCH  21  22
ENDBRANCH  20  21
ENDBRANCH  19  20
ENDBRANCH  18  19
ENDBRANCH  17  18
ENDBRANCH  16  17
ENDBRANCH  15  16
ENDBRANCH  14  15
ENDBRANCH  13  14
ENDBRANCH   1  13
TORSDOF 20
ENDMDL
MODEL 8
REMARK VINA RESULT:    -3.597      2.744      7.273
REMARK INTER + INTRA:         -10.924
REMARK INTER:                  -8.710
REMARK INTRA:                  -2.214
REMARK UNBOUND:                -3.122
REMARK SMILES CCCCCCCCCCCCCCCCCCCCCC(=O)[O-]
REMARK SMILES IDX 12 1 11 2 10 3 9 4 8 5 7 6 6 7 5 8 4 9 3 10 2 11 1 12 13 13
REMARK SMILES IDX 14 14 15 15 16 16 17 17 18 18 19 19 20 20 21 21 22 22 23 23
REMARK SMILES IDX 24 24
REMARK H PARENT
REMARK Flexibility Score: inf
ROOT
ATOM      1  C   UNL     1       7.490  65.166   9.052  1.00  0.00     0.000 C 
ENDROOT
BRANCH   1   2
ATOM      2  C   UNL     1       8.966  64.954   8.657  1.00  0.00     0.000 C 
BRANCH   2   3
ATOM      3  C   UNL     1       9.400  63.482   8.497  1.00  0.00     0.000 C 
BRANCH   3   4
ATOM      4  C   UNL     1      10.880  63.203   8.807  1.00  0.00    -0.000 C 
BRANCH   4   5
ATOM      5  C   UNL     1      11.449  62.033   7.991  1.00  0.00    -0.000 C 
BRANCH   5   6
ATOM      6  C   UNL     1      12.680  62.475   7.185  1.00  0.00    -0.000 C 
BRANCH   6   7
ATOM      7  C   UNL     1      13.364  63.715   7.798  1.00  0.00    -0.000 C 
BRANCH   7   8
ATOM      8  C   UNL     1      13.870  64.735   6.756  1.00  0.00    -0.000 C 
BRANCH   8   9
ATOM      9  C   UNL     1      12.961  65.959   6.538  1.00  0.00    -0.000 C 
BRANCH   9  10
ATOM     10  C   UNL     1      11.570  65.614   5.956  1.00  0.00    -0.000 C 
BRANCH  10  11
ATOM     11  C   UNL     1      11.391  66.052   4.494  1.00  0.00    -0.003 C 
ATOM     12  C   UNL     1      12.002  65.065   3.501  1.00  0.00     0.004 C 
ENDBRANCH  10  11
ENDBRANCH   9  10
ENDBRANCH   8   9
ENDBRANCH   7   8
ENDBRANCH   6   7
ENDBRANCH   5   6
ENDBRANCH   4   5
ENDBRANCH   3   4
ENDBRANCH   2   3
ENDBRANCH   1   2
BRANCH   1  13
ATOM     13  C   UNL     1       6.528  64.059   8.583  1.00  0.00     0.000 C 
BRANCH  13  14
ATOM     14  C   UNL     1       5.081  64.555   8.415  1.00  0.00     0.000 C 
BRANCH  14  15
ATOM     15  C   UNL     1       4.796  65.826   9.234  1.00  0.00     0.000 C 
BRANCH  15  16
ATOM     16  C   UNL     1       4.221  66.963   8.372  1.00  0.00     0.000 C 
BRANCH  16  17
ATOM     17  C   UNL     1       5.306  67.922   7.858  1.00  0.00     0.000 C 
BRANCH  17  18
ATOM     18  C   UNL     1       5.095  68.317   6.387  1.00  0.00     0.000 C 
BRANCH  18  19
ATOM     19  C   UNL     1       5.858  67.407   5.410  1.00  0.00     0.000 C 
BRANCH  19  20
ATOM     20  C   UNL     1       4.980  66.854   4.267  1.00  0.00     0.006 C 
BRANCH  20  21
ATOM     21  C   UNL     1       3.733  66.131   4.793  1.00  0.00     0.053 C 
BRANCH  21  22
ATOM     22  C   UNL     1       2.495  66.701   4.175  1.00  0.00     0.041 C 
ATOM     23  O   UNL     1       1.544  65.944   3.842  1.00  0.00    -0.550 OA
ATOM     24  O   UNL     1       2.381  68.073   3.987  1.00  0.00    -0.550 OA
ENDBRANCH  21  22
ENDBRANCH  20  21
ENDBRANCH  19  20
ENDBRANCH  18  19
ENDBRANCH  17  18
ENDBRANCH  16  17
ENDBRANCH  15  16
ENDBRANCH  14  15
ENDBRANCH  13  14
ENDBRANCH   1  13
TORSDOF 20
ENDMDL
MODEL 9
REMARK VINA RESULT:    -3.550      1.349      2.991
REMARK INTER + INTRA:         -10.823
REMARK INTER:                  -8.052
REMARK INTRA:                  -2.772
REMARK UNBOUND:                -3.122
REMARK SMILES CCCCCCCCCCCCCCCCCCCCCC(=O)[O-]
REMARK SMILES IDX 12 1 11 2 10 3 9 4 8 5 7 6 6 7 5 8 4 9 3 10 2 11 1 12 13 13
REMARK SMILES IDX 14 14 15 15 16 16 17 17 18 18 19 19 20 20 21 21 22 22 23 23
REMARK SMILES IDX 24 24
REMARK H PARENT
REMARK Flexibility Score: inf
ROOT
ATOM      1  C   UNL     1       9.746  65.517   8.180  1.00  0.00     0.000 C 
ENDROOT
BRANCH   1   2
ATOM      2  C   UNL     1       8.578  66.432   8.599  1.00  0.00     0.000 C 
BRANCH   2   3
ATOM      3  C   UNL     1       7.449  65.740   9.390  1.00  0.00     0.000 C 
BRANCH   3   4
ATOM      4  C   UNL     1       6.954  64.412   8.793  1.00  0.00    -0.000 C 
BRANCH   4   5
ATOM      5  C   UNL     1       5.450  64.422   8.485  1.00  0.00    -0.000 C 
BRANCH   5   6
ATOM      6  C   UNL     1       4.795  65.715   8.994  1.00  0.00    -0.000 C 
BRANCH   6   7
ATOM      7  C   UNL     1       4.259  66.590   7.842  1.00  0.00    -0.000 C 
BRANCH   7   8
ATOM      8  C   UNL     1       4.711  66.129   6.439  1.00  0.00    -0.000 C 
BRANCH   8   9
ATOM      9  C   UNL     1       4.126  66.934   5.263  1.00  0.00    -0.000 C 
BRANCH   9  10
ATOM     10  C   UNL     1       5.192  67.496   4.293  1.00  0.00    -0.000 C 
BRANCH  10  11
ATOM     11  C   UNL     1       6.129  68.527   4.942  1.00  0.00    -0.003 C 
ATOM     12  C   UNL     1       7.467  67.927   5.368  1.00  0.00     0.004 C 
ENDBRANCH  10  11
ENDBRANCH   9  10
ENDBRANCH   8   9
ENDBRANCH   7   8
ENDBRANCH   6   7
ENDBRANCH   5   6
ENDBRANCH   4   5
ENDBRANCH   3   4
ENDBRANCH   2   3
ENDBRANCH   1   2
BRANCH   1  13
ATOM     13  C   UNL     1      10.759  65.207   9.298  1.00  0.00     0.000 C 
BRANCH  13  14
ATOM     14  C   UNL     1      11.112  63.713   9.388  1.00  0.00     0.000 C 
BRANCH  14  15
ATOM     15  C   UNL     1      10.981  62.994   8.034  1.00  0.00     0.000 C 
BRANCH  15  16
ATOM     16  C   UNL     1      12.303  62.348   7.582  1.00  0.00     0.000 C 
BRANCH  16  17
ATOM     17  C   UNL     1      12.971  63.113   6.430  1.00  0.00     0.000 C 
BRANCH  17  18
ATOM     18  C   UNL     1      13.584  64.448   6.887  1.00  0.00     0.000 C 
BRANCH  18  19
ATOM     19  C   UNL     1      13.050  65.652   6.093  1.00  0.00     0.000 C 
BRANCH  19  20
ATOM     20  C   UNL     1      11.886  65.299   5.144  1.00  0.00     0.006 C 
BRANCH  20  21
ATOM     21  C   UNL     1      10.946  66.489   4.910  1.00  0.00     0.053 C 
BRANCH  21  22
ATOM     22  C   UNL     1      10.422  66.479   3.509  1.00  0.00     0.041 C 
ATOM     23  O   UNL     1      10.302  65.390   2.884  1.00  0.00    -0.550 OA
ATOM     24  O   UNL     1      10.044  67.668   2.899  1.00  0.00    -0.550 OA
ENDBRANCH  21  22
ENDBRANCH  20  21
ENDBRANCH  19  20
ENDBRANCH  18  19
ENDBRANCH  17  18
ENDBRANCH  16  17
ENDBRANCH  15  16
ENDBRANCH  14  15
ENDBRANCH  13  14
ENDBRANCH   1  13
TORSDOF 20
ENDMDL
