MODEL 1
REMARK VINA RESULT:    -4.102      0.000      0.000
REMARK INTER + INTRA:          -4.563
REMARK INTER:                  -4.341
REMARK INTRA:                  -0.221
REMARK UNBOUND:                -0.221
REMARK SMILES CC1=CC[C@@H]2[C@H]3[C@H](C(C)C)CC[C@]2(C)[C@@H]13
REMARK SMILES IDX 1 1 2 2 3 3 4 4 5 5 6 6 15 7 13 8 12 9 11 10 7 11 14 12 8 13
REMARK SMILES IDX 9 14 10 15
REMARK H PARENT
REMARK Flexibility Score: inf
ROOT
ATOM      1  C   UNL     1       8.407   8.623  14.996  1.00  0.00     0.039 C 
ATOM      2  C   UNL     1       7.826   7.953  13.787  1.00  0.00    -0.073 C 
ATOM      3  C   UNL     1       8.625   7.435  12.817  1.00  0.00    -0.027 C 
ATOM      4  C   UNL     1       7.975   6.741  11.615  1.00  0.00     0.031 C 
ATOM      5  C   UNL     1       6.416   6.802  11.729  1.00  0.00     0.003 C 
ATOM      6  C   UNL     1       6.032   8.249  12.115  1.00  0.00     0.004 C 
ATOM      7  C   UNL     1       6.314   7.837  13.581  1.00  0.00     0.024 C 
ATOM      8  C   UNL     1       5.939   6.396  13.143  1.00  0.00    -0.022 C 
ATOM      9  C   UNL     1       4.395   6.207  13.111  1.00  0.00     0.008 C 
ATOM     10  C   UNL     1       3.649   7.506  12.713  1.00  0.00     0.005 C 
ATOM     11  C   UNL     1       4.511   8.491  11.854  1.00  0.00    -0.005 C 
ATOM     12  C   UNL     1       6.625   5.201  13.846  1.00  0.00     0.012 C 
ENDROOT
BRANCH  11  13
ATOM     13  C   UNL     1       4.087   9.976  12.094  1.00  0.00    -0.014 C 
ATOM     14  C   UNL     1       4.372  10.873  10.875  1.00  0.00     0.007 C 
ATOM     15  C   UNL     1       2.590  10.079  12.442  1.00  0.00     0.007 C 
ENDBRANCH  11  13
TORSDOF 1
ENDMDL
MODEL 2
REMARK VINA RESULT:    -2.969      1.942      6.165
REMARK INTER + INTRA:          -3.364
REMARK INTER:                  -3.137
REMARK INTRA:                  -0.227
REMARK UNBOUND:                -0.221
REMARK SMILES CC1=CC[C@@H]2[C@H]3[C@H](C(C)C)CC[C@]2(C)[C@@H]13
REMARK SMILES IDX 1 1 2 2 3 3 4 4 5 5 6 6 15 7 13 8 12 9 11 10 7 11 14 12 8 13
REMARK SMILES IDX 9 14 10 15
REMARK H PARENT
REMARK Flexibility Score: inf
ROOT
ATOM      1  C   UNL     1       1.755  12.003  15.365  1.00  0.00     0.039 C 
ATOM      2  C   UNL     1       1.631  11.605  13.925  1.00  0.00    -0.073 C 
ATOM      3  C   UNL     1       0.416  11.478  13.331  1.00  0.00    -0.027 C 
ATOM      4  C   UNL     1       0.352  11.091  11.849  1.00  0.00     0.031 C 
ATOM      5  C   UNL     1       1.793  10.867  11.283  1.00  0.00     0.003 C 
ATOM      6  C   UNL     1       2.563   9.994  12.301  1.00  0.00     0.004 C 
ATOM      7  C   UNL     1       2.862  11.307  13.065  1.00  0.00     0.024 C 
ATOM      8  C   UNL     1       2.743  12.017  11.690  1.00  0.00    -0.022 C 
ATOM      9  C   UNL     1       4.063  11.882  10.877  1.00  0.00     0.008 C 
ATOM     10  C   UNL     1       4.793  10.544  11.154  1.00  0.00     0.005 C 
ATOM     11  C   UNL     1       3.845   9.396  11.637  1.00  0.00    -0.005 C 
ATOM     12  C   UNL     1       2.214  13.470  11.644  1.00  0.00     0.012 C 
ENDROOT
BRANCH  11  13
ATOM     13  C   UNL     1       4.596   8.393  12.572  1.00  0.00    -0.014 C 
ATOM     14  C   UNL     1       4.126   6.940  12.372  1.00  0.00     0.007 C 
ATOM     15  C   UNL     1       6.118   8.453  12.345  1.00  0.00     0.007 C 
ENDBRANCH  11  13
TORSDOF 1
ENDMDL
MODEL 3
REMARK VINA RESULT:    -2.177      3.947      6.353
REMARK INTER + INTRA:          -2.525
REMARK INTER:                  -2.294
REMARK INTRA:                  -0.231
REMARK UNBOUND:                -0.221
REMARK SMILES CC1=CC[C@@H]2[C@H]3[C@H](C(C)C)CC[C@]2(C)[C@@H]13
REMARK SMILES IDX 1 1 2 2 3 3 4 4 5 5 6 6 15 7 13 8 12 9 11 10 7 11 14 12 8 13
REMARK SMILES IDX 9 14 10 15
REMARK H PARENT
REMARK Flexibility Score: inf
ROOT
ATOM      1  C   UNL     1       4.424   9.859  10.882  1.00  0.00     0.039 C 
ATOM      2  C   UNL     1       3.262  10.658  11.388  1.00  0.00    -0.073 C 
ATOM      3  C   UNL     1       2.009  10.472  10.893  1.00  0.00    -0.027 C 
ATOM      4  C   UNL     1       0.855  11.302  11.466  1.00  0.00     0.031 C 
ATOM      5  C   UNL     1       1.385  12.292  12.555  1.00  0.00     0.003 C 
ATOM      6  C   UNL     1       2.651  12.975  11.988  1.00  0.00     0.004 C 
ATOM      7  C   UNL     1       3.431  11.728  12.470  1.00  0.00     0.024 C 
ATOM      8  C   UNL     1       2.329  11.580  13.552  1.00  0.00    -0.022 C 
ATOM      9  C   UNL     1       2.594  12.533  14.752  1.00  0.00     0.008 C 
ATOM     10  C   UNL     1       3.274  13.855  14.317  1.00  0.00     0.005 C 
ATOM     11  C   UNL     1       2.998  14.247  12.827  1.00  0.00    -0.005 C 
ATOM     12  C   UNL     1       1.955  10.162  14.047  1.00  0.00     0.012 C 
ENDROOT
BRANCH  11  13
ATOM     13  C   UNL     1       4.188  15.061  12.222  1.00  0.00    -0.014 C 
ATOM     14  C   UNL     1       4.667  14.488  10.875  1.00  0.00     0.007 C 
ATOM     15  C   UNL     1       3.806  16.539  12.021  1.00  0.00     0.007 C 
ENDBRANCH  11  13
TORSDOF 1
ENDMDL
MODEL 4
REMARK VINA RESULT:    -1.946      2.558      6.259
REMARK INTER + INTRA:          -2.281
REMARK INTER:                  -2.045
REMARK INTRA:                  -0.236
REMARK UNBOUND:                -0.221
REMARK SMILES CC1=CC[C@@H]2[C@H]3[C@H](C(C)C)CC[C@]2(C)[C@@H]13
REMARK SMILES IDX 1 1 2 2 3 3 4 4 5 5 6 6 15 7 13 8 12 9 11 10 7 11 14 12 8 13
REMARK SMILES IDX 9 14 10 15
REMARK H PARENT
REMARK Flexibility Score: inf
ROOT
ATOM      1  C   UNL     1       4.752  14.662  10.939  1.00  0.00     0.039 C 
ATOM      2  C   UNL     1       3.917  13.769  11.806  1.00  0.00    -0.073 C 
ATOM      3  C   UNL     1       3.605  14.118  13.083  1.00  0.00    -0.027 C 
ATOM      4  C   UNL     1       2.728  13.175  13.915  1.00  0.00     0.031 C 
ATOM      5  C   UNL     1       2.371  11.895  13.091  1.00  0.00     0.003 C 
ATOM      6  C   UNL     1       3.673  11.390  12.425  1.00  0.00     0.004 C 
ATOM      7  C   UNL     1       3.393  12.421  11.304  1.00  0.00     0.024 C 
ATOM      8  C   UNL     1       1.893  12.258  11.666  1.00  0.00    -0.022 C 
ATOM      9  C   UNL     1       1.295  10.984  11.003  1.00  0.00     0.008 C 
ATOM     10  C   UNL     1       2.334   9.841  10.877  1.00  0.00     0.005 C 
ATOM     11  C   UNL     1       3.489   9.919  11.930  1.00  0.00    -0.005 C 
ATOM     12  C   UNL     1       0.946  13.468  11.485  1.00  0.00     0.012 C 
ENDROOT
BRANCH  11  13
ATOM     13  C   UNL     1       4.812   9.303  11.371  1.00  0.00    -0.014 C 
ATOM     14  C   UNL     1       5.944   9.295  12.415  1.00  0.00     0.007 C 
ATOM     15  C   UNL     1       4.589   7.861  10.875  1.00  0.00     0.007 C 
ENDBRANCH  11  13
TORSDOF 1
ENDMDL
MODEL 5
REMARK VINA RESULT:    -1.796      1.331      3.300
REMARK INTER + INTRA:          -2.122
REMARK INTER:                  -1.870
REMARK INTRA:                  -0.251
REMARK UNBOUND:                -0.221
REMARK SMILES CC1=CC[C@@H]2[C@H]3[C@H](C(C)C)CC[C@]2(C)[C@@H]13
REMARK SMILES IDX 1 1 2 2 3 3 4 4 5 5 6 6 15 7 13 8 12 9 11 10 7 11 14 12 8 13
REMARK SMILES IDX 9 14 10 15
REMARK H PARENT
REMARK Flexibility Score: inf
ROOT
ATOM      1  C   UNL     1       3.757   4.875  12.017  1.00  0.00     0.039 C 
ATOM      2  C   UNL     1       4.546   6.037  12.541  1.00  0.00    -0.073 C 
ATOM      3  C   UNL     1       5.349   5.910  13.631  1.00  0.00    -0.027 C 
ATOM      4  C   UNL     1       6.150   7.128  14.107  1.00  0.00     0.031 C 
ATOM      5  C   UNL     1       5.838   8.369  13.208  1.00  0.00     0.003 C 
ATOM      6  C   UNL     1       4.303   8.446  13.034  1.00  0.00     0.004 C 
ATOM      7  C   UNL     1       4.473   7.420  11.887  1.00  0.00     0.024 C 
ATOM      8  C   UNL     1       5.898   8.006  11.707  1.00  0.00    -0.022 C 
ATOM      9  C   UNL     1       5.858   9.321  10.876  1.00  0.00     0.008 C 
ATOM     10  C   UNL     1       4.560  10.133  11.117  1.00  0.00     0.005 C 
ATOM     11  C   UNL     1       3.891   9.856  12.505  1.00  0.00    -0.005 C 
ATOM     12  C   UNL     1       7.030   7.076  11.210  1.00  0.00     0.012 C 
ENDROOT
BRANCH  11  13
ATOM     13  C   UNL     1       2.341  10.045  12.437  1.00  0.00    -0.014 C 
ATOM     14  C   UNL     1       1.827  11.064  13.471  1.00  0.00     0.007 C 
ATOM     15  C   UNL     1       1.895  10.500  11.034  1.00  0.00     0.007 C 
ENDBRANCH  11  13
TORSDOF 1
ENDMDL
MODEL 6
REMARK VINA RESULT:    -1.308      1.124      4.242
REMARK INTER + INTRA:          -1.606
REMARK INTER:                  -1.198
REMARK INTRA:                  -0.408
REMARK UNBOUND:                -0.221
REMARK SMILES CC1=CC[C@@H]2[C@H]3[C@H](C(C)C)CC[C@]2(C)[C@@H]13
REMARK SMILES IDX 1 1 2 2 3 3 4 4 5 5 6 6 15 7 13 8 12 9 11 10 7 11 14 12 8 13
REMARK SMILES IDX 9 14 10 15
REMARK H PARENT
REMARK Flexibility Score: inf
ROOT
ATOM      1  C   UNL     1       4.672   9.567  10.875  1.00  0.00     0.039 C 
ATOM      2  C   UNL     1       4.540   8.569  11.985  1.00  0.00    -0.073 C 
ATOM      3  C   UNL     1       3.468   8.581  12.821  1.00  0.00    -0.027 C 
ATOM      4  C   UNL     1       3.376   7.521  13.925  1.00  0.00     0.031 C 
ATOM      5  C   UNL     1       4.636   6.594  13.894  1.00  0.00     0.003 C 
ATOM      6  C   UNL     1       5.881   7.502  13.766  1.00  0.00     0.004 C 
ATOM      7  C   UNL     1       5.610   7.504  12.241  1.00  0.00     0.024 C 
ATOM      8  C   UNL     1       4.949   6.117  12.457  1.00  0.00    -0.022 C 
ATOM      9  C   UNL     1       6.022   4.993  12.530  1.00  0.00     0.008 C 
ATOM     10  C   UNL     1       7.348   5.483  13.167  1.00  0.00     0.005 C 
ATOM     11  C   UNL     1       7.171   6.702  14.133  1.00  0.00    -0.005 C 
ATOM     12  C   UNL     1       3.776   5.698  11.540  1.00  0.00     0.012 C 
ENDROOT
BRANCH  11  13
ATOM     13  C   UNL     1       8.451   7.600  14.155  1.00  0.00    -0.014 C 
ATOM     14  C   UNL     1       9.146   7.666  12.783  1.00  0.00     0.007 C 
ATOM     15  C   UNL     1       8.117   9.034  14.607  1.00  0.00     0.007 C 
ENDBRANCH  11  13
TORSDOF 1
ENDMDL
