MODEL 1
REMARK VINA RESULT:    -5.037      0.000      0.000
REMARK INTER + INTRA:         -12.373
REMARK INTER:                 -10.926
REMARK INTRA:                  -1.447
REMARK UNBOUND:                -1.447
REMARK SMILES CCCCCCCCCCCCCCCCCCCCCC(=O)[O-]
REMARK SMILES IDX 12 1 11 2 10 3 9 4 8 5 7 6 6 7 5 8 4 9 3 10 2 11 1 12 13 13
REMARK SMILES IDX 14 14 15 15 16 16 17 17 18 18 19 19 20 20 21 21 22 22 23 23
REMARK SMILES IDX 24 24
REMARK H PARENT
REMARK Flexibility Score: inf
ROOT
ATOM      1  C   UNL     1      56.140 143.774 -26.618  1.00  0.00     0.000 C 
ENDROOT
BRANCH   1   2
ATOM      2  C   UNL     1      56.620 144.347 -27.959  1.00  0.00     0.000 C 
BRANCH   2   3
ATOM      3  C   UNL     1      55.870 143.719 -29.141  1.00  0.00     0.000 C 
BRANCH   3   4
ATOM      4  C   UNL     1      56.746 143.730 -30.400  1.00  0.00    -0.000 C 
BRANCH   4   5
ATOM      5  C   UNL     1      58.219 144.004 -30.060  1.00  0.00    -0.000 C 
BRANCH   5   6
ATOM      6  C   UNL     1      59.169 143.581 -31.195  1.00  0.00    -0.000 C 
BRANCH   6   7
ATOM      7  C   UNL     1      59.101 144.529 -32.406  1.00  0.00    -0.000 C 
BRANCH   7   8
ATOM      8  C   UNL     1      60.046 144.094 -33.540  1.00  0.00    -0.000 C 
BRANCH   8   9
ATOM      9  C   UNL     1      61.194 145.094 -33.808  1.00  0.00    -0.000 C 
BRANCH   9  10
ATOM     10  C   UNL     1      60.963 145.970 -35.053  1.00  0.00    -0.000 C 
BRANCH  10  11
ATOM     11  C   UNL     1      61.000 147.483 -34.784  1.00  0.00    -0.003 C 
ATOM     12  C   UNL     1      60.184 147.883 -33.556  1.00  0.00     0.004 C 
ENDBRANCH  10  11
ENDBRANCH   9  10
ENDBRANCH   8   9
ENDBRANCH   7   8
ENDBRANCH   6   7
ENDBRANCH   5   6
ENDBRANCH   4   5
ENDBRANCH   3   4
ENDBRANCH   2   3
ENDBRANCH   1   2
BRANCH   1  13
ATOM     13  C   UNL     1      55.138 142.618 -26.798  1.00  0.00     0.000 C 
BRANCH  13  14
ATOM     14  C   UNL     1      55.133 141.598 -25.643  1.00  0.00     0.000 C 
BRANCH  14  15
ATOM     15  C   UNL     1      56.459 141.579 -24.863  1.00  0.00     0.000 C 
BRANCH  15  16
ATOM     16  C   UNL     1      56.239 141.674 -23.337  1.00  0.00     0.000 C 
BRANCH  16  17
ATOM     17  C   UNL     1      57.320 142.483 -22.601  1.00  0.00     0.000 C 
BRANCH  17  18
ATOM     18  C   UNL     1      58.407 141.595 -21.973  1.00  0.00     0.000 C 
BRANCH  18  19
ATOM     19  C   UNL     1      59.821 141.957 -22.457  1.00  0.00     0.000 C 
BRANCH  19  20
ATOM     20  C   UNL     1      59.937 143.433 -22.878  1.00  0.00     0.006 C 
BRANCH  20  21
ATOM     21  C   UNL     1      61.056 144.165 -22.127  1.00  0.00     0.053 C 
BRANCH  21  22
ATOM     22  C   UNL     1      60.568 144.783 -20.849  1.00  0.00     0.041 C 
ATOM     23  O   UNL     1      61.364 144.981 -19.894  1.00  0.00    -0.550 OA
ATOM     24  O   UNL     1      59.229 145.124 -20.711  1.00  0.00    -0.550 OA
ENDBRANCH  21  22
ENDBRANCH  20  21
ENDBRANCH  19  20
ENDBRANCH  18  19
ENDBRANCH  17  18
ENDBRANCH  16  17
ENDBRANCH  15  16
ENDBRANCH  14  15
ENDBRANCH  13  14
ENDBRANCH   1  13
TORSDOF 20
ENDMDL
MODEL 2
REMARK VINA RESULT:    -4.854      4.252     10.734
REMARK INTER + INTRA:         -11.977
REMARK INTER:                 -10.665
REMARK INTRA:                  -1.312
REMARK UNBOUND:                -1.447
REMARK SMILES CCCCCCCCCCCCCCCCCCCCCC(=O)[O-]
REMARK SMILES IDX 12 1 11 2 10 3 9 4 8 5 7 6 6 7 5 8 4 9 3 10 2 11 1 12 13 13
REMARK SMILES IDX 14 14 15 15 16 16 17 17 18 18 19 19 20 20 21 21 22 22 23 23
REMARK SMILES IDX 24 24
REMARK H PARENT
REMARK Flexibility Score: inf
ROOT
ATOM      1  C   UNL     1      56.078 143.769 -25.168  1.00  0.00     0.000 C 
ENDROOT
BRANCH   1   2
ATOM      2  C   UNL     1      55.230 143.502 -23.917  1.00  0.00     0.000 C 
BRANCH   2   3
ATOM      3  C   UNL     1      54.802 142.032 -23.831  1.00  0.00     0.000 C 
BRANCH   3   4
ATOM      4  C   UNL     1      56.028 141.111 -23.872  1.00  0.00    -0.000 C 
BRANCH   4   5
ATOM      5  C   UNL     1      56.854 141.214 -22.581  1.00  0.00    -0.000 C 
BRANCH   5   6
ATOM      6  C   UNL     1      58.358 141.007 -22.831  1.00  0.00    -0.000 C 
BRANCH   6   7
ATOM      7  C   UNL     1      59.217 142.148 -22.255  1.00  0.00    -0.000 C 
BRANCH   7   8
ATOM      8  C   UNL     1      58.388 143.131 -21.409  1.00  0.00    -0.000 C 
BRANCH   8   9
ATOM      9  C   UNL     1      59.140 143.669 -20.170  1.00  0.00    -0.000 C 
BRANCH   9  10
ATOM     10  C   UNL     1      59.077 142.720 -18.958  1.00  0.00    -0.000 C 
BRANCH  10  11
ATOM     11  C   UNL     1      58.226 143.239 -17.787  1.00  0.00    -0.003 C 
ATOM     12  C   UNL     1      57.912 142.153 -16.760  1.00  0.00     0.004 C 
ENDBRANCH  10  11
ENDBRANCH   9  10
ENDBRANCH   8   9
ENDBRANCH   7   8
ENDBRANCH   6   7
ENDBRANCH   5   6
ENDBRANCH   4   5
ENDBRANCH   3   4
ENDBRANCH   2   3
ENDBRANCH   1   2
BRANCH   1  13
ATOM     13  C   UNL     1      55.225 144.207 -26.374  1.00  0.00     0.000 C 
BRANCH  13  14
ATOM     14  C   UNL     1      55.613 143.532 -27.703  1.00  0.00     0.000 C 
BRANCH  14  15
ATOM     15  C   UNL     1      56.679 144.325 -28.481  1.00  0.00     0.000 C 
BRANCH  15  16
ATOM     16  C   UNL     1      56.911 143.755 -29.897  1.00  0.00     0.000 C 
BRANCH  16  17
ATOM     17  C   UNL     1      58.378 143.808 -30.358  1.00  0.00     0.000 C 
BRANCH  17  18
ATOM     18  C   UNL     1      58.530 144.285 -31.812  1.00  0.00     0.000 C 
BRANCH  18  19
ATOM     19  C   UNL     1      59.783 143.711 -32.495  1.00  0.00     0.000 C 
BRANCH  19  20
ATOM     20  C   UNL     1      60.339 144.647 -33.583  1.00  0.00     0.006 C 
BRANCH  20  21
ATOM     21  C   UNL     1      59.360 145.773 -33.937  1.00  0.00     0.053 C 
BRANCH  21  22
ATOM     22  C   UNL     1      59.965 147.131 -33.738  1.00  0.00     0.041 C 
ATOM     23  O   UNL     1      60.007 147.954 -34.690  1.00  0.00    -0.550 OA
ATOM     24  O   UNL     1      60.495 147.480 -32.503  1.00  0.00    -0.550 OA
ENDBRANCH  21  22
ENDBRANCH  20  21
ENDBRANCH  19  20
ENDBRANCH  18  19
ENDBRANCH  17  18
ENDBRANCH  16  17
ENDBRANCH  15  16
ENDBRANCH  14  15
ENDBRANCH  13  14
ENDBRANCH   1  13
TORSDOF 20
ENDMDL
MODEL 3
REMARK VINA RESULT:    -4.802      4.145     10.193
REMARK INTER + INTRA:         -11.864
REMARK INTER:                 -10.302
REMARK INTRA:                  -1.562
REMARK UNBOUND:                -1.447
REMARK SMILES CCCCCCCCCCCCCCCCCCCCCC(=O)[O-]
REMARK SMILES IDX 12 1 11 2 10 3 9 4 8 5 7 6 6 7 5 8 4 9 3 10 2 11 1 12 13 13
REMARK SMILES IDX 14 14 15 15 16 16 17 17 18 18 19 19 20 20 21 21 22 22 23 23
REMARK SMILES IDX 24 24
REMARK H PARENT
REMARK Flexibility Score: inf
ROOT
ATOM      1  C   UNL     1      56.328 143.724 -26.133  1.00  0.00     0.000 C 
ENDROOT
BRANCH   1   2
ATOM      2  C   UNL     1      55.246 144.159 -25.134  1.00  0.00     0.000 C 
BRANCH   2   3
ATOM      3  C   UNL     1      55.360 143.391 -23.811  1.00  0.00     0.000 C 
BRANCH   3   4
ATOM      4  C   UNL     1      54.354 142.233 -23.773  1.00  0.00    -0.000 C 
BRANCH   4   5
ATOM      5  C   UNL     1      55.062 140.877 -23.626  1.00  0.00    -0.000 C 
BRANCH   5   6
ATOM      6  C   UNL     1      55.658 140.382 -24.956  1.00  0.00    -0.000 C 
BRANCH   6   7
ATOM      7  C   UNL     1      57.051 139.750 -24.780  1.00  0.00    -0.000 C 
BRANCH   7   8
ATOM      8  C   UNL     1      57.464 139.652 -23.301  1.00  0.00    -0.000 C 
BRANCH   8   9
ATOM      9  C   UNL     1      58.852 140.264 -23.004  1.00  0.00    -0.000 C 
BRANCH   9  10
ATOM     10  C   UNL     1      58.855 141.210 -21.789  1.00  0.00    -0.000 C 
BRANCH  10  11
ATOM     11  C   UNL     1      58.204 142.579 -22.046  1.00  0.00    -0.003 C 
ATOM     12  C   UNL     1      58.773 143.681 -21.154  1.00  0.00     0.004 C 
ENDBRANCH  10  11
ENDBRANCH   9  10
ENDBRANCH   8   9
ENDBRANCH   7   8
ENDBRANCH   6   7
ENDBRANCH   5   6
ENDBRANCH   4   5
ENDBRANCH   3   4
ENDBRANCH   2   3
ENDBRANCH   1   2
BRANCH   1  13
ATOM     13  C   UNL     1      55.908 143.963 -27.595  1.00  0.00     0.000 C 
BRANCH  13  14
ATOM     14  C   UNL     1      57.028 144.525 -28.492  1.00  0.00     0.000 C 
BRANCH  14  15
ATOM     15  C   UNL     1      57.138 143.784 -29.837  1.00  0.00     0.000 C 
BRANCH  15  16
ATOM     16  C   UNL     1      58.572 143.821 -30.407  1.00  0.00     0.000 C 
BRANCH  16  17
ATOM     17  C   UNL     1      58.654 144.331 -31.856  1.00  0.00     0.000 C 
BRANCH  17  18
ATOM     18  C   UNL     1      59.909 143.834 -32.594  1.00  0.00     0.000 C 
BRANCH  18  19
ATOM     19  C   UNL     1      60.129 144.550 -33.936  1.00  0.00     0.000 C 
BRANCH  19  20
ATOM     20  C   UNL     1      61.356 145.480 -33.912  1.00  0.00     0.006 C 
BRANCH  20  21
ATOM     21  C   UNL     1      61.108 146.788 -34.672  1.00  0.00     0.053 C 
BRANCH  21  22
ATOM     22  C   UNL     1      59.805 147.426 -34.290  1.00  0.00     0.041 C 
ATOM     23  O   UNL     1      58.865 147.501 -35.125  1.00  0.00    -0.550 OA
ATOM     24  O   UNL     1      59.637 147.952 -33.016  1.00  0.00    -0.550 OA
ENDBRANCH  21  22
ENDBRANCH  20  21
ENDBRANCH  19  20
ENDBRANCH  18  19
ENDBRANCH  17  18
ENDBRANCH  16  17
ENDBRANCH  15  16
ENDBRANCH  14  15
ENDBRANCH  13  14
ENDBRANCH   1  13
TORSDOF 20
ENDMDL
MODEL 4
REMARK VINA RESULT:    -4.749      1.239      1.804
REMARK INTER + INTRA:         -11.750
REMARK INTER:                 -10.082
REMARK INTRA:                  -1.668
REMARK UNBOUND:                -1.447
REMARK SMILES CCCCCCCCCCCCCCCCCCCCCC(=O)[O-]
REMARK SMILES IDX 12 1 11 2 10 3 9 4 8 5 7 6 6 7 5 8 4 9 3 10 2 11 1 12 13 13
REMARK SMILES IDX 14 14 15 15 16 16 17 17 18 18 19 19 20 20 21 21 22 22 23 23
REMARK SMILES IDX 24 24
REMARK H PARENT
REMARK Flexibility Score: inf
ROOT
ATOM      1  C   UNL     1      55.388 144.054 -26.432  1.00  0.00     0.000 C 
ENDROOT
BRANCH   1   2
ATOM      2  C   UNL     1      56.162 144.324 -27.730  1.00  0.00     0.000 C 
BRANCH   2   3
ATOM      3  C   UNL     1      55.691 143.410 -28.868  1.00  0.00     0.000 C 
BRANCH   3   4
ATOM      4  C   UNL     1      56.310 143.847 -30.201  1.00  0.00    -0.000 C 
BRANCH   4   5
ATOM      5  C   UNL     1      57.842 143.732 -30.176  1.00  0.00    -0.000 C 
BRANCH   5   6
ATOM      6  C   UNL     1      58.489 144.274 -31.463  1.00  0.00    -0.000 C 
BRANCH   6   7
ATOM      7  C   UNL     1      59.868 143.647 -31.739  1.00  0.00    -0.000 C 
BRANCH   7   8
ATOM      8  C   UNL     1      60.027 143.213 -33.208  1.00  0.00    -0.000 C 
BRANCH   8   9
ATOM      9  C   UNL     1      60.494 144.353 -34.143  1.00  0.00    -0.000 C 
BRANCH   9  10
ATOM     10  C   UNL     1      61.458 145.343 -33.464  1.00  0.00    -0.000 C 
BRANCH  10  11
ATOM     11  C   UNL     1      61.205 146.819 -33.813  1.00  0.00    -0.003 C 
ATOM     12  C   UNL     1      60.159 147.467 -32.907  1.00  0.00     0.004 C 
ENDBRANCH  10  11
ENDBRANCH   9  10
ENDBRANCH   8   9
ENDBRANCH   7   8
ENDBRANCH   6   7
ENDBRANCH   5   6
ENDBRANCH   4   5
ENDBRANCH   3   4
ENDBRANCH   2   3
ENDBRANCH   1   2
BRANCH   1  13
ATOM     13  C   UNL     1      56.304 144.039 -25.194  1.00  0.00     0.000 C 
BRANCH  13  14
ATOM     14  C   UNL     1      55.865 143.055 -24.093  1.00  0.00     0.000 C 
BRANCH  14  15
ATOM     15  C   UNL     1      55.016 141.894 -24.639  1.00  0.00     0.000 C 
BRANCH  15  16
ATOM     16  C   UNL     1      55.498 140.523 -24.117  1.00  0.00     0.000 C 
BRANCH  16  17
ATOM     17  C   UNL     1      56.788 140.020 -24.786  1.00  0.00     0.000 C 
BRANCH  17  18
ATOM     18  C   UNL     1      57.914 139.737 -23.777  1.00  0.00     0.000 C 
BRANCH  18  19
ATOM     19  C   UNL     1      57.656 140.385 -22.407  1.00  0.00     0.000 C 
BRANCH  19  20
ATOM     20  C   UNL     1      58.782 141.350 -21.993  1.00  0.00     0.006 C 
BRANCH  20  21
ATOM     21  C   UNL     1      58.238 142.652 -21.391  1.00  0.00     0.053 C 
BRANCH  21  22
ATOM     22  C   UNL     1      59.308 143.691 -21.232  1.00  0.00     0.041 C 
ATOM     23  O   UNL     1      60.522 143.356 -21.209  1.00  0.00    -0.550 OA
ATOM     24  O   UNL     1      58.961 145.029 -21.092  1.00  0.00    -0.550 OA
ENDBRANCH  21  22
ENDBRANCH  20  21
ENDBRANCH  19  20
ENDBRANCH  18  19
ENDBRANCH  17  18
ENDBRANCH  16  17
ENDBRANCH  15  16
ENDBRANCH  14  15
ENDBRANCH  13  14
ENDBRANCH   1  13
TORSDOF 20
ENDMDL
MODEL 5
REMARK VINA RESULT:    -4.617      4.057      5.694
REMARK INTER + INTRA:         -11.462
REMARK INTER:                 -10.280
REMARK INTRA:                  -1.182
REMARK UNBOUND:                -1.447
REMARK SMILES CCCCCCCCCCCCCCCCCCCCCC(=O)[O-]
REMARK SMILES IDX 12 1 11 2 10 3 9 4 8 5 7 6 6 7 5 8 4 9 3 10 2 11 1 12 13 13
REMARK SMILES IDX 14 14 15 15 16 16 17 17 18 18 19 19 20 20 21 21 22 22 23 23
REMARK SMILES IDX 24 24
REMARK H PARENT
REMARK Flexibility Score: inf
ROOT
ATOM      1  C   UNL     1      55.475 143.934 -25.713  1.00  0.00     0.000 C 
ENDROOT
BRANCH   1   2
ATOM      2  C   UNL     1      56.287 143.723 -26.998  1.00  0.00     0.000 C 
BRANCH   2   3
ATOM      3  C   UNL     1      55.416 143.159 -28.128  1.00  0.00     0.000 C 
BRANCH   3   4
ATOM      4  C   UNL     1      55.872 143.710 -29.485  1.00  0.00    -0.000 C 
BRANCH   4   5
ATOM      5  C   UNL     1      57.395 143.910 -29.529  1.00  0.00    -0.000 C 
BRANCH   5   6
ATOM      6  C   UNL     1      57.923 144.058 -30.967  1.00  0.00    -0.000 C 
BRANCH   6   7
ATOM      7  C   UNL     1      59.247 143.305 -31.191  1.00  0.00    -0.000 C 
BRANCH   7   8
ATOM      8  C   UNL     1      59.805 143.518 -32.610  1.00  0.00    -0.000 C 
BRANCH   8   9
ATOM      9  C   UNL     1      59.872 145.003 -33.033  1.00  0.00    -0.000 C 
BRANCH   9  10
ATOM     10  C   UNL     1      61.101 145.337 -33.898  1.00  0.00    -0.000 C 
BRANCH  10  11
ATOM     11  C   UNL     1      61.062 146.730 -34.549  1.00  0.00    -0.003 C 
ATOM     12  C   UNL     1      60.397 147.778 -33.659  1.00  0.00     0.004 C 
ENDBRANCH  10  11
ENDBRANCH   9  10
ENDBRANCH   8   9
ENDBRANCH   7   8
ENDBRANCH   6   7
ENDBRANCH   5   6
ENDBRANCH   4   5
ENDBRANCH   3   4
ENDBRANCH   2   3
ENDBRANCH   1   2
BRANCH   1  13
ATOM     13  C   UNL     1      56.298 143.644 -24.444  1.00  0.00     0.000 C 
BRANCH  13  14
ATOM     14  C   UNL     1      55.852 142.387 -23.672  1.00  0.00     0.000 C 
BRANCH  14  15
ATOM     15  C   UNL     1      54.362 142.062 -23.879  1.00  0.00     0.000 C 
BRANCH  15  16
ATOM     16  C   UNL     1      54.155 140.805 -24.750  1.00  0.00     0.000 C 
BRANCH  16  17
ATOM     17  C   UNL     1      53.911 139.519 -23.941  1.00  0.00     0.000 C 
BRANCH  17  18
ATOM     18  C   UNL     1      52.586 139.547 -23.160  1.00  0.00     0.000 C 
BRANCH  18  19
ATOM     19  C   UNL     1      51.432 140.154 -23.974  1.00  0.00     0.000 C 
BRANCH  19  20
ATOM     20  C   UNL     1      50.371 140.823 -23.081  1.00  0.00     0.006 C 
BRANCH  20  21
ATOM     21  C   UNL     1      50.957 141.310 -21.750  1.00  0.00     0.053 C 
BRANCH  21  22
ATOM     22  C   UNL     1      50.065 140.985 -20.588  1.00  0.00     0.041 C 
ATOM     23  O   UNL     1      50.519 141.007 -19.413  1.00  0.00    -0.550 OA
ATOM     24  O   UNL     1      48.738 140.642 -20.806  1.00  0.00    -0.550 OA
ENDBRANCH  21  22
ENDBRANCH  20  21
ENDBRANCH  19  20
ENDBRANCH  18  19
ENDBRANCH  17  18
ENDBRANCH  16  17
ENDBRANCH  15  16
ENDBRANCH  14  15
ENDBRANCH  13  14
ENDBRANCH   1  13
TORSDOF 20
ENDMDL
MODEL 6
REMARK VINA RESULT:    -4.571      3.576      4.730
REMARK INTER + INTRA:         -11.361
REMARK INTER:                  -9.693
REMARK INTRA:                  -1.669
REMARK UNBOUND:                -1.447
REMARK SMILES CCCCCCCCCCCCCCCCCCCCCC(=O)[O-]
REMARK SMILES IDX 12 1 11 2 10 3 9 4 8 5 7 6 6 7 5 8 4 9 3 10 2 11 1 12 13 13
REMARK SMILES IDX 14 14 15 15 16 16 17 17 18 18 19 19 20 20 21 21 22 22 23 23
REMARK SMILES IDX 24 24
REMARK H PARENT
REMARK Flexibility Score: inf
ROOT
ATOM      1  C   UNL     1      57.094 144.538 -27.074  1.00  0.00     0.000 C 
ENDROOT
BRANCH   1   2
ATOM      2  C   UNL     1      57.583 144.591 -28.528  1.00  0.00     0.000 C 
BRANCH   2   3
ATOM      3  C   UNL     1      56.698 143.745 -29.451  1.00  0.00     0.000 C 
BRANCH   3   4
ATOM      4  C   UNL     1      57.235 143.775 -30.887  1.00  0.00    -0.000 C 
BRANCH   4   5
ATOM      5  C   UNL     1      58.705 144.222 -30.929  1.00  0.00    -0.000 C 
BRANCH   5   6
ATOM      6  C   UNL     1      59.649 143.086 -31.359  1.00  0.00    -0.000 C 
BRANCH   6   7
ATOM      7  C   UNL     1      59.993 143.138 -32.859  1.00  0.00    -0.000 C 
BRANCH   7   8
ATOM      8  C   UNL     1      60.009 144.578 -33.404  1.00  0.00    -0.000 C 
BRANCH   8   9
ATOM      9  C   UNL     1      60.891 144.755 -34.661  1.00  0.00    -0.000 C 
BRANCH   9  10
ATOM     10  C   UNL     1      61.069 146.226 -35.080  1.00  0.00    -0.000 C 
BRANCH  10  11
ATOM     11  C   UNL     1      60.126 147.209 -34.367  1.00  0.00    -0.003 C 
ATOM     12  C   UNL     1      60.513 148.669 -34.598  1.00  0.00     0.004 C 
ENDBRANCH  10  11
ENDBRANCH   9  10
ENDBRANCH   8   9
ENDBRANCH   7   8
ENDBRANCH   6   7
ENDBRANCH   5   6
ENDBRANCH   4   5
ENDBRANCH   3   4
ENDBRANCH   2   3
ENDBRANCH   1   2
BRANCH   1  13
ATOM     13  C   UNL     1      55.652 144.008 -26.958  1.00  0.00     0.000 C 
BRANCH  13  14
ATOM     14  C   UNL     1      55.482 142.849 -25.958  1.00  0.00     0.000 C 
BRANCH  14  15
ATOM     15  C   UNL     1      55.239 143.337 -24.518  1.00  0.00     0.000 C 
BRANCH  15  16
ATOM     16  C   UNL     1      56.265 142.752 -23.524  1.00  0.00     0.000 C 
BRANCH  16  17
ATOM     17  C   UNL     1      56.666 141.298 -23.826  1.00  0.00     0.000 C 
BRANCH  17  18
ATOM     18  C   UNL     1      55.646 140.275 -23.298  1.00  0.00     0.000 C 
BRANCH  18  19
ATOM     19  C   UNL     1      54.909 139.537 -24.428  1.00  0.00     0.000 C 
BRANCH  19  20
ATOM     20  C   UNL     1      53.379 139.671 -24.316  1.00  0.00     0.006 C 
BRANCH  20  21
ATOM     21  C   UNL     1      52.962 140.750 -23.309  1.00  0.00     0.053 C 
BRANCH  21  22
ATOM     22  C   UNL     1      51.578 141.264 -23.573  1.00  0.00     0.041 C 
ATOM     23  O   UNL     1      51.106 142.204 -22.880  1.00  0.00    -0.550 OA
ATOM     24  O   UNL     1      50.804 140.693 -24.574  1.00  0.00    -0.550 OA
ENDBRANCH  21  22
ENDBRANCH  20  21
ENDBRANCH  19  20
ENDBRANCH  18  19
ENDBRANCH  17  18
ENDBRANCH  16  17
ENDBRANCH  15  16
ENDBRANCH  14  15
ENDBRANCH  13  14
ENDBRANCH   1  13
TORSDOF 20
ENDMDL
MODEL 7
REMARK VINA RESULT:    -4.523     12.605     14.195
REMARK INTER + INTRA:         -11.259
REMARK INTER:                  -8.664
REMARK INTRA:                  -2.595
REMARK UNBOUND:                -1.447
REMARK SMILES CCCCCCCCCCCCCCCCCCCCCC(=O)[O-]
REMARK SMILES IDX 12 1 11 2 10 3 9 4 8 5 7 6 6 7 5 8 4 9 3 10 2 11 1 12 13 13
REMARK SMILES IDX 14 14 15 15 16 16 17 17 18 18 19 19 20 20 21 21 22 22 23 23
REMARK SMILES IDX 24 24
REMARK H PARENT
REMARK Flexibility Score: inf
ROOT
ATOM      1  C   UNL     1      48.992 155.398 -26.426  1.00  0.00     0.000 C 
ENDROOT
BRANCH   1   2
ATOM      2  C   UNL     1      49.475 155.602 -27.869  1.00  0.00     0.000 C 
BRANCH   2   3
ATOM      3  C   UNL     1      49.867 154.272 -28.525  1.00  0.00     0.000 C 
BRANCH   3   4
ATOM      4  C   UNL     1      49.558 154.301 -30.027  1.00  0.00    -0.000 C 
BRANCH   4   5
ATOM      5  C   UNL     1      48.051 154.158 -30.294  1.00  0.00    -0.000 C 
BRANCH   5   6
ATOM      6  C   UNL     1      47.744 153.897 -31.780  1.00  0.00    -0.000 C 
BRANCH   6   7
ATOM      7  C   UNL     1      48.879 153.140 -32.494  1.00  0.00    -0.000 C 
BRANCH   7   8
ATOM      8  C   UNL     1      48.969 153.499 -33.988  1.00  0.00    -0.000 C 
BRANCH   8   9
ATOM      9  C   UNL     1      50.346 154.064 -34.407  1.00  0.00    -0.000 C 
BRANCH   9  10
ATOM     10  C   UNL     1      50.836 155.211 -33.504  1.00  0.00    -0.000 C 
BRANCH  10  11
ATOM     11  C   UNL     1      52.353 155.454 -33.551  1.00  0.00    -0.003 C 
ATOM     12  C   UNL     1      53.162 154.195 -33.246  1.00  0.00     0.004 C 
ENDBRANCH  10  11
ENDBRANCH   9  10
ENDBRANCH   8   9
ENDBRANCH   7   8
ENDBRANCH   6   7
ENDBRANCH   5   6
ENDBRANCH   4   5
ENDBRANCH   3   4
ENDBRANCH   2   3
ENDBRANCH   1   2
BRANCH   1  13
ATOM     13  C   UNL     1      48.432 156.691 -25.805  1.00  0.00     0.000 C 
BRANCH  13  14
ATOM     14  C   UNL     1      49.348 157.920 -25.967  1.00  0.00     0.000 C 
BRANCH  14  15
ATOM     15  C   UNL     1      50.645 157.806 -25.146  1.00  0.00     0.000 C 
BRANCH  15  16
ATOM     16  C   UNL     1      51.903 158.056 -26.006  1.00  0.00     0.000 C 
BRANCH  16  17
ATOM     17  C   UNL     1      52.730 156.789 -26.282  1.00  0.00     0.000 C 
BRANCH  17  18
ATOM     18  C   UNL     1      52.460 155.665 -25.267  1.00  0.00     0.000 C 
BRANCH  18  19
ATOM     19  C   UNL     1      52.566 154.265 -25.892  1.00  0.00     0.000 C 
BRANCH  19  20
ATOM     20  C   UNL     1      51.908 153.181 -25.019  1.00  0.00     0.006 C 
BRANCH  20  21
ATOM     21  C   UNL     1      51.373 153.745 -23.697  1.00  0.00     0.053 C 
BRANCH  21  22
ATOM     22  C   UNL     1      50.297 152.881 -23.108  1.00  0.00     0.041 C 
ATOM     23  O   UNL     1      50.501 152.256 -22.034  1.00  0.00    -0.550 OA
ATOM     24  O   UNL     1      49.076 152.754 -23.757  1.00  0.00    -0.550 OA
ENDBRANCH  21  22
ENDBRANCH  20  21
ENDBRANCH  19  20
ENDBRANCH  18  19
ENDBRANCH  17  18
ENDBRANCH  16  17
ENDBRANCH  15  16
ENDBRANCH  14  15
ENDBRANCH  13  14
ENDBRANCH   1  13
TORSDOF 20
ENDMDL
MODEL 8
REMARK VINA RESULT:    -4.477      6.405     11.303
REMARK INTER + INTRA:         -11.158
REMARK INTER:                  -8.168
REMARK INTRA:                  -2.990
REMARK UNBOUND:                -1.447
REMARK SMILES CCCCCCCCCCCCCCCCCCCCCC(=O)[O-]
REMARK SMILES IDX 12 1 11 2 10 3 9 4 8 5 7 6 6 7 5 8 4 9 3 10 2 11 1 12 13 13
REMARK SMILES IDX 14 14 15 15 16 16 17 17 18 18 19 19 20 20 21 21 22 22 23 23
REMARK SMILES IDX 24 24
REMARK H PARENT
REMARK Flexibility Score: inf
ROOT
ATOM      1  C   UNL     1      59.142 144.129 -19.471  1.00  0.00     0.000 C 
ENDROOT
BRANCH   1   2
ATOM      2  C   UNL     1      58.682 142.798 -18.859  1.00  0.00     0.000 C 
BRANCH   2   3
ATOM      3  C   UNL     1      58.029 143.006 -17.486  1.00  0.00     0.000 C 
BRANCH   3   4
ATOM      4  C   UNL     1      58.781 142.216 -16.408  1.00  0.00    -0.000 C 
BRANCH   4   5
ATOM      5  C   UNL     1      59.836 143.084 -15.706  1.00  0.00    -0.000 C 
BRANCH   5   6
ATOM      6  C   UNL     1      61.256 142.825 -16.241  1.00  0.00    -0.000 C 
BRANCH   6   7
ATOM      7  C   UNL     1      61.997 144.124 -16.607  1.00  0.00    -0.000 C 
BRANCH   7   8
ATOM      8  C   UNL     1      61.763 145.240 -15.572  1.00  0.00    -0.000 C 
BRANCH   8   9
ATOM      9  C   UNL     1      61.484 146.622 -16.205  1.00  0.00    -0.000 C 
BRANCH   9  10
ATOM     10  C   UNL     1      60.147 146.687 -16.967  1.00  0.00    -0.000 C 
BRANCH  10  11
ATOM     11  C   UNL     1      60.146 147.645 -18.170  1.00  0.00    -0.003 C 
ATOM     12  C   UNL     1      61.424 147.549 -19.001  1.00  0.00     0.004 C 
ENDBRANCH  10  11
ENDBRANCH   9  10
ENDBRANCH   8   9
ENDBRANCH   7   8
ENDBRANCH   6   7
ENDBRANCH   5   6
ENDBRANCH   4   5
ENDBRANCH   3   4
ENDBRANCH   2   3
ENDBRANCH   1   2
BRANCH   1  13
ATOM     13  C   UNL     1      60.562 144.045 -20.062  1.00  0.00     0.000 C 
BRANCH  13  14
ATOM     14  C   UNL     1      60.714 144.712 -21.442  1.00  0.00     0.000 C 
BRANCH  14  15
ATOM     15  C   UNL     1      60.216 143.819 -22.591  1.00  0.00     0.000 C 
BRANCH  15  16
ATOM     16  C   UNL     1      60.487 142.322 -22.325  1.00  0.00     0.000 C 
BRANCH  16  17
ATOM     17  C   UNL     1      59.228 141.440 -22.392  1.00  0.00     0.000 C 
BRANCH  17  18
ATOM     18  C   UNL     1      57.957 142.237 -22.730  1.00  0.00     0.000 C 
BRANCH  18  19
ATOM     19  C   UNL     1      56.835 141.350 -23.292  1.00  0.00     0.000 C 
BRANCH  19  20
ATOM     20  C   UNL     1      55.543 142.141 -23.568  1.00  0.00     0.006 C 
BRANCH  20  21
ATOM     21  C   UNL     1      55.815 143.631 -23.810  1.00  0.00     0.053 C 
BRANCH  21  22
ATOM     22  C   UNL     1      54.987 144.182 -24.933  1.00  0.00     0.041 C 
ATOM     23  O   UNL     1      54.326 145.243 -24.774  1.00  0.00    -0.550 OA
ATOM     24  O   UNL     1      54.933 143.513 -26.148  1.00  0.00    -0.550 OA
ENDBRANCH  21  22
ENDBRANCH  20  21
ENDBRANCH  19  20
ENDBRANCH  18  19
ENDBRANCH  17  18
ENDBRANCH  16  17
ENDBRANCH  15  16
ENDBRANCH  14  15
ENDBRANCH  13  14
ENDBRANCH   1  13
TORSDOF 20
ENDMDL
MODEL 9
REMARK VINA RESULT:    -4.458     13.420     15.091
REMARK INTER + INTRA:         -11.118
REMARK INTER:                  -7.697
REMARK INTRA:                  -3.421
REMARK UNBOUND:                -1.447
REMARK SMILES CCCCCCCCCCCCCCCCCCCCCC(=O)[O-]
REMARK SMILES IDX 12 1 11 2 10 3 9 4 8 5 7 6 6 7 5 8 4 9 3 10 2 11 1 12 13 13
REMARK SMILES IDX 14 14 15 15 16 16 17 17 18 18 19 19 20 20 21 21 22 22 23 23
REMARK SMILES IDX 24 24
REMARK H PARENT
REMARK Flexibility Score: inf
ROOT
ATOM      1  C   UNL     1      48.748 156.582 -28.761  1.00  0.00     0.000 C 
ENDROOT
BRANCH   1   2
ATOM      2  C   UNL     1      47.533 156.834 -29.665  1.00  0.00     0.000 C 
BRANCH   2   3
ATOM      3  C   UNL     1      46.449 155.768 -29.460  1.00  0.00     0.000 C 
BRANCH   3   4
ATOM      4  C   UNL     1      46.198 155.000 -30.764  1.00  0.00    -0.000 C 
BRANCH   4   5
ATOM      5  C   UNL     1      46.341 153.483 -30.561  1.00  0.00    -0.000 C 
BRANCH   5   6
ATOM      6  C   UNL     1      47.492 153.129 -29.602  1.00  0.00    -0.000 C 
BRANCH   6   7
ATOM      7  C   UNL     1      48.695 152.501 -30.330  1.00  0.00    -0.000 C 
BRANCH   7   8
ATOM      8  C   UNL     1      49.876 153.481 -30.457  1.00  0.00    -0.000 C 
BRANCH   8   9
ATOM      9  C   UNL     1      49.735 154.470 -31.637  1.00  0.00    -0.000 C 
BRANCH   9  10
ATOM     10  C   UNL     1      50.314 153.930 -32.958  1.00  0.00    -0.000 C 
BRANCH  10  11
ATOM     11  C   UNL     1      49.270 153.324 -33.910  1.00  0.00    -0.003 C 
ATOM     12  C   UNL     1      48.082 154.254 -34.152  1.00  0.00     0.004 C 
ENDBRANCH  10  11
ENDBRANCH   9  10
ENDBRANCH   8   9
ENDBRANCH   7   8
ENDBRANCH   6   7
ENDBRANCH   5   6
ENDBRANCH   4   5
ENDBRANCH   3   4
ENDBRANCH   2   3
ENDBRANCH   1   2
BRANCH   1  13
ATOM     13  C   UNL     1      48.356 155.956 -27.409  1.00  0.00     0.000 C 
BRANCH  13  14
ATOM     14  C   UNL     1      48.066 156.981 -26.296  1.00  0.00     0.000 C 
BRANCH  14  15
ATOM     15  C   UNL     1      49.063 158.154 -26.296  1.00  0.00     0.000 C 
BRANCH  15  16
ATOM     16  C   UNL     1      49.955 158.159 -25.035  1.00  0.00     0.000 C 
BRANCH  16  17
ATOM     17  C   UNL     1      51.462 158.222 -25.339  1.00  0.00     0.000 C 
BRANCH  17  18
ATOM     18  C   UNL     1      51.880 157.285 -26.484  1.00  0.00     0.000 C 
BRANCH  18  19
ATOM     19  C   UNL     1      52.552 155.997 -25.981  1.00  0.00     0.000 C 
BRANCH  19  20
ATOM     20  C   UNL     1      51.619 154.776 -26.066  1.00  0.00     0.006 C 
BRANCH  20  21
ATOM     21  C   UNL     1      50.846 154.544 -24.762  1.00  0.00     0.053 C 
BRANCH  21  22
ATOM     22  C   UNL     1      51.133 153.196 -24.168  1.00  0.00     0.041 C 
ATOM     23  O   UNL     1      51.474 152.235 -24.907  1.00  0.00    -0.550 OA
ATOM     24  O   UNL     1      51.007 153.001 -22.799  1.00  0.00    -0.550 OA
ENDBRANCH  21  22
ENDBRANCH  20  21
ENDBRANCH  19  20
ENDBRANCH  18  19
ENDBRANCH  17  18
ENDBRANCH  16  17
ENDBRANCH  15  16
ENDBRANCH  14  15
ENDBRANCH  13  14
ENDBRANCH   1  13
TORSDOF 20
ENDMDL
