MODEL 1
REMARK VINA RESULT:    -8.253      0.000      0.000
REMARK INTER + INTRA:         -10.096
REMARK INTER:                  -9.942
REMARK INTRA:                  -0.155
REMARK UNBOUND:                -0.155
REMARK SMILES O=c1c(O)c(-c2ccc(O)c(O)c2)oc2cc(O)cc(O)c12
REMARK SMILES IDX 5 1 3 2 2 3 1 4 22 5 20 6 19 7 17 8 16 9 15 10 14 11 6 12
REMARK SMILES IDX 7 13 8 14 9 15 13 16 11 17 10 18 12 20 4 22 21 24 18 26
REMARK H PARENT 10 19 12 21 4 23 21 25 18 27
REMARK Flexibility Score: inf
ROOT
ATOM      1  C   UNL     1      51.404  60.400   7.316  1.00  0.00     0.180 A 
ATOM      2  C   UNL     1      52.056  61.170   8.294  1.00  0.00     0.208 A 
ATOM      3  C   UNL     1      53.353  60.811   8.691  1.00  0.00     0.238 A 
ATOM      4  O   UNL     1      53.910  61.472   9.606  1.00  0.00    -0.285 OA
ATOM      5  C   UNL     1      53.990  59.696   8.093  1.00  0.00     0.111 A 
ATOM      6  C   UNL     1      55.318  59.266   8.389  1.00  0.00     0.134 A 
ATOM      7  C   UNL     1      55.797  58.074   7.833  1.00  0.00     0.093 A 
ATOM      8  C   UNL     1      55.023  57.332   6.942  1.00  0.00     0.123 A 
ATOM      9  C   UNL     1      53.746  57.775   6.599  1.00  0.00     0.094 A 
ATOM     10  C   UNL     1      53.226  58.941   7.166  1.00  0.00     0.146 A 
ATOM     11  O   UNL     1      52.001  59.323   6.821  1.00  0.00    -0.452 OA
ENDROOT
BRANCH   1  12
ATOM     12  C   UNL     1      50.045  60.732   6.828  1.00  0.00     0.025 A 
ATOM     13  C   UNL     1      49.774  61.955   6.194  1.00  0.00     0.016 A 
ATOM     14  C   UNL     1      48.490  62.234   5.722  1.00  0.00     0.051 A 
ATOM     15  C   UNL     1      47.459  61.300   5.859  1.00  0.00     0.157 A 
ATOM     16  C   UNL     1      49.017  59.784   6.948  1.00  0.00     0.062 A 
ATOM     17  C   UNL     1      47.726  60.056   6.477  1.00  0.00     0.158 A 
BRANCH  15  18
ATOM     18  O   UNL     1      46.197  61.644   5.370  1.00  0.00    -0.504 OA
ATOM     19  H   UNL     1      45.396  61.029   5.391  1.00  0.00     0.293 HD
ENDBRANCH  15  18
BRANCH  17  20
ATOM     20  O   UNL     1      46.751  59.070   6.642  1.00  0.00    -0.504 OA
ATOM     21  H   UNL     1      45.883  59.211   7.138  1.00  0.00     0.293 HD
ENDBRANCH  17  20
ENDBRANCH   1  12
BRANCH   2  22
ATOM     22  O   UNL     1      51.401  62.254   8.887  1.00  0.00    -0.502 OA
ATOM     23  H   UNL     1      51.729  63.207   8.789  1.00  0.00     0.293 HD
ENDBRANCH   2  22
BRANCH   6  24
ATOM     24  O   UNL     1      56.209  59.982   9.194  1.00  0.00    -0.507 OA
ATOM     25  H   UNL     1      55.973  60.813   9.715  1.00  0.00     0.293 HD
ENDBRANCH   6  24
BRANCH   8  26
ATOM     26  O   UNL     1      55.539  56.158   6.397  1.00  0.00    -0.508 OA
ATOM     27  H   UNL     1      54.962  55.334   6.274  1.00  0.00     0.293 HD
ENDBRANCH   8  26
TORSDOF 6
ENDMDL
MODEL 2
REMARK VINA RESULT:    -7.948      6.809      8.161
REMARK INTER + INTRA:          -9.728
REMARK INTER:                  -9.448
REMARK INTRA:                  -0.280
REMARK UNBOUND:                -0.155
REMARK SMILES O=c1c(O)c(-c2ccc(O)c(O)c2)oc2cc(O)cc(O)c12
REMARK SMILES IDX 5 1 3 2 2 3 1 4 22 5 20 6 19 7 17 8 16 9 15 10 14 11 6 12
REMARK SMILES IDX 7 13 8 14 9 15 13 16 11 17 10 18 12 20 4 22 21 24 18 26
REMARK H PARENT 10 19 12 21 4 23 21 25 18 27
REMARK Flexibility Score: inf
ROOT
ATOM      1  C   UNL     1      51.354  60.617  -0.212  1.00  0.00     0.180 A 
ATOM      2  C   UNL     1      50.887  59.772  -1.233  1.00  0.00     0.208 A 
ATOM      3  C   UNL     1      51.701  58.714  -1.667  1.00  0.00     0.238 A 
ATOM      4  O   UNL     1      51.301  57.994  -2.619  1.00  0.00    -0.285 OA
ATOM      5  C   UNL     1      52.965  58.504  -1.064  1.00  0.00     0.111 A 
ATOM      6  C   UNL     1      53.855  57.439  -1.397  1.00  0.00     0.134 A 
ATOM      7  C   UNL     1      55.134  57.405  -0.828  1.00  0.00     0.093 A 
ATOM      8  C   UNL     1      55.532  58.358   0.109  1.00  0.00     0.123 A 
ATOM      9  C   UNL     1      54.648  59.369   0.487  1.00  0.00     0.094 A 
ATOM     10  C   UNL     1      53.378  59.451  -0.090  1.00  0.00     0.146 A 
ATOM     11  O   UNL     1      52.570  60.434   0.289  1.00  0.00    -0.452 OA
ENDROOT
BRANCH   1  12
ATOM     12  C   UNL     1      50.543  61.738   0.316  1.00  0.00     0.025 A 
ATOM     13  C   UNL     1      50.770  63.062  -0.092  1.00  0.00     0.016 A 
ATOM     14  C   UNL     1      49.977  64.098   0.403  1.00  0.00     0.051 A 
ATOM     15  C   UNL     1      48.936  63.837   1.299  1.00  0.00     0.157 A 
ATOM     16  C   UNL     1      49.486  61.470   1.199  1.00  0.00     0.062 A 
ATOM     17  C   UNL     1      48.684  62.503   1.700  1.00  0.00     0.158 A 
BRANCH  15  18
ATOM     18  O   UNL     1      48.182  64.918   1.759  1.00  0.00    -0.504 OA
ATOM     19  H   UNL     1      47.321  64.827   2.278  1.00  0.00     0.293 HD
ENDBRANCH  15  18
BRANCH  17  20
ATOM     20  O   UNL     1      47.658  62.163   2.585  1.00  0.00    -0.504 OA
ATOM     21  H   UNL     1      47.217  61.254   2.615  1.00  0.00     0.293 HD
ENDBRANCH  17  20
ENDBRANCH   1  12
BRANCH   2  22
ATOM     22  O   UNL     1      49.646  60.009  -1.829  1.00  0.00    -0.502 OA
ATOM     23  H   UNL     1      49.296  60.943  -2.004  1.00  0.00     0.293 HD
ENDBRANCH   2  22
BRANCH   6  24
ATOM     24  O   UNL     1      53.525  56.384  -2.252  1.00  0.00    -0.507 OA
ATOM     25  H   UNL     1      54.097  56.065  -3.019  1.00  0.00     0.293 HD
ENDBRANCH   6  24
BRANCH   8  26
ATOM     26  O   UNL     1      56.807  58.285   0.666  1.00  0.00    -0.508 OA
ATOM     27  H   UNL     1      57.632  58.178   0.088  1.00  0.00     0.293 HD
ENDBRANCH   8  26
TORSDOF 6
ENDMDL
MODEL 3
REMARK VINA RESULT:    -7.944      4.390      4.849
REMARK INTER + INTRA:          -9.725
REMARK INTER:                  -9.462
REMARK INTRA:                  -0.263
REMARK UNBOUND:                -0.155
REMARK SMILES O=c1c(O)c(-c2ccc(O)c(O)c2)oc2cc(O)cc(O)c12
REMARK SMILES IDX 5 1 3 2 2 3 1 4 22 5 20 6 19 7 17 8 16 9 15 10 14 11 6 12
REMARK SMILES IDX 7 13 8 14 9 15 13 16 11 17 10 18 12 20 4 22 21 24 18 26
REMARK H PARENT 10 19 12 21 4 23 21 25 18 27
REMARK Flexibility Score: inf
ROOT
ATOM      1  C   UNL     1      52.719  60.005   3.706  1.00  0.00     0.180 A 
ATOM      2  C   UNL     1      52.246  61.124   4.411  1.00  0.00     0.208 A 
ATOM      3  C   UNL     1      52.606  61.282   5.758  1.00  0.00     0.238 A 
ATOM      4  O   UNL     1      52.134  62.258   6.400  1.00  0.00    -0.285 OA
ATOM      5  C   UNL     1      53.447  60.328   6.380  1.00  0.00     0.111 A 
ATOM      6  C   UNL     1      53.908  60.409   7.728  1.00  0.00     0.134 A 
ATOM      7  C   UNL     1      54.630  59.343   8.277  1.00  0.00     0.093 A 
ATOM      8  C   UNL     1      54.964  58.228   7.508  1.00  0.00     0.123 A 
ATOM      9  C   UNL     1      54.570  58.165   6.172  1.00  0.00     0.094 A 
ATOM     10  C   UNL     1      53.818  59.197   5.606  1.00  0.00     0.146 A 
ATOM     11  O   UNL     1      53.454  59.094   4.333  1.00  0.00    -0.452 OA
ENDROOT
BRANCH   1  12
ATOM     12  C   UNL     1      52.404  59.783   2.276  1.00  0.00     0.025 A 
ATOM     13  C   UNL     1      53.366  59.990   1.274  1.00  0.00     0.016 A 
ATOM     14  C   UNL     1      53.051  59.752  -0.065  1.00  0.00     0.051 A 
ATOM     15  C   UNL     1      51.783  59.291  -0.431  1.00  0.00     0.157 A 
ATOM     16  C   UNL     1      51.137  59.301   1.914  1.00  0.00     0.062 A 
ATOM     17  C   UNL     1      50.813  59.059   0.572  1.00  0.00     0.158 A 
BRANCH  15  18
ATOM     18  O   UNL     1      51.531  59.078  -1.788  1.00  0.00    -0.504 OA
ATOM     19  H   UNL     1      50.610  59.092  -2.201  1.00  0.00     0.293 HD
ENDBRANCH  15  18
BRANCH  17  20
ATOM     20  O   UNL     1      49.528  58.591   0.286  1.00  0.00    -0.504 OA
ATOM     21  H   UNL     1      49.060  58.732  -0.597  1.00  0.00     0.293 HD
ENDBRANCH  17  20
ENDBRANCH   1  12
BRANCH   2  22
ATOM     22  O   UNL     1      51.399  62.043   3.785  1.00  0.00    -0.502 OA
ATOM     23  H   UNL     1      50.591  62.441   4.248  1.00  0.00     0.293 HD
ENDBRANCH   2  22
BRANCH   6  24
ATOM     24  O   UNL     1      53.709  61.518   8.556  1.00  0.00    -0.507 OA
ATOM     25  H   UNL     1      52.916  61.644   9.168  1.00  0.00     0.293 HD
ENDBRANCH   6  24
BRANCH   8  26
ATOM     26  O   UNL     1      55.696  57.191   8.083  1.00  0.00    -0.508 OA
ATOM     27  H   UNL     1      55.550  56.226   7.812  1.00  0.00     0.293 HD
ENDBRANCH   8  26
TORSDOF 6
ENDMDL
MODEL 4
REMARK VINA RESULT:    -7.909      5.076      6.725
REMARK INTER + INTRA:          -9.681
REMARK INTER:                  -9.397
REMARK INTRA:                  -0.284
REMARK UNBOUND:                -0.155
REMARK SMILES O=c1c(O)c(-c2ccc(O)c(O)c2)oc2cc(O)cc(O)c12
REMARK SMILES IDX 5 1 3 2 2 3 1 4 22 5 20 6 19 7 17 8 16 9 15 10 14 11 6 12
REMARK SMILES IDX 7 13 8 14 9 15 13 16 11 17 10 18 12 20 4 22 21 24 18 26
REMARK H PARENT 10 19 12 21 4 23 21 25 18 27
REMARK Flexibility Score: inf
ROOT
ATOM      1  C   UNL     1      52.276  59.708   3.260  1.00  0.00     0.180 A 
ATOM      2  C   UNL     1      51.103  59.675   2.487  1.00  0.00     0.208 A 
ATOM      3  C   UNL     1      51.161  59.164   1.182  1.00  0.00     0.238 A 
ATOM      4  O   UNL     1      50.119  59.188   0.476  1.00  0.00    -0.285 OA
ATOM      5  C   UNL     1      52.389  58.678   0.669  1.00  0.00     0.111 A 
ATOM      6  C   UNL     1      52.555  58.102  -0.626  1.00  0.00     0.134 A 
ATOM      7  C   UNL     1      53.839  57.775  -1.076  1.00  0.00     0.093 A 
ATOM      8  C   UNL     1      54.955  57.941  -0.256  1.00  0.00     0.123 A 
ATOM      9  C   UNL     1      54.796  58.448   1.034  1.00  0.00     0.094 A 
ATOM     10  C   UNL     1      53.531  58.817   1.499  1.00  0.00     0.146 A 
ATOM     11  O   UNL     1      53.425  59.305   2.729  1.00  0.00    -0.452 OA
ENDROOT
BRANCH   1  12
ATOM     12  C   UNL     1      52.288  60.208   4.654  1.00  0.00     0.025 A 
ATOM     13  C   UNL     1      52.276  61.584   4.938  1.00  0.00     0.016 A 
ATOM     14  C   UNL     1      52.265  62.030   6.260  1.00  0.00     0.051 A 
ATOM     15  C   UNL     1      52.250  61.120   7.322  1.00  0.00     0.157 A 
ATOM     16  C   UNL     1      52.253  59.293   5.717  1.00  0.00     0.062 A 
ATOM     17  C   UNL     1      52.241  59.732   7.047  1.00  0.00     0.158 A 
BRANCH  15  18
ATOM     18  O   UNL     1      52.244  61.632   8.621  1.00  0.00    -0.504 OA
ATOM     19  H   UNL     1      52.028  62.591   8.849  1.00  0.00     0.293 HD
ENDBRANCH  15  18
BRANCH  17  20
ATOM     20  O   UNL     1      52.218  58.764   8.053  1.00  0.00    -0.504 OA
ATOM     21  H   UNL     1      52.902  58.702   8.793  1.00  0.00     0.293 HD
ENDBRANCH  17  20
ENDBRANCH   1  12
BRANCH   2  22
ATOM     22  O   UNL     1      49.906  60.179   3.005  1.00  0.00    -0.502 OA
ATOM     23  H   UNL     1      49.385  59.705   3.732  1.00  0.00     0.293 HD
ENDBRANCH   2  22
BRANCH   6  24
ATOM     24  O   UNL     1      51.497  57.808  -1.491  1.00  0.00    -0.507 OA
ATOM     25  H   UNL     1      51.571  57.226  -2.313  1.00  0.00     0.293 HD
ENDBRANCH   6  24
BRANCH   8  26
ATOM     26  O   UNL     1      56.216  57.590  -0.731  1.00  0.00    -0.508 OA
ATOM     27  H   UNL     1      56.878  57.084  -0.154  1.00  0.00     0.293 HD
ENDBRANCH   8  26
TORSDOF 6
ENDMDL
MODEL 5
REMARK VINA RESULT:    -7.822      6.633      9.261
REMARK INTER + INTRA:          -9.577
REMARK INTER:                  -9.344
REMARK INTRA:                  -0.233
REMARK UNBOUND:                -0.155
REMARK SMILES O=c1c(O)c(-c2ccc(O)c(O)c2)oc2cc(O)cc(O)c12
REMARK SMILES IDX 5 1 3 2 2 3 1 4 22 5 20 6 19 7 17 8 16 9 15 10 14 11 6 12
REMARK SMILES IDX 7 13 8 14 9 15 13 16 11 17 10 18 12 20 4 22 21 24 18 26
REMARK H PARENT 10 19 12 21 4 23 21 25 18 27
REMARK Flexibility Score: inf
ROOT
ATOM      1  C   UNL     1      50.381  61.197   0.479  1.00  0.00     0.180 A 
ATOM      2  C   UNL     1      50.735  62.531   0.215  1.00  0.00     0.208 A 
ATOM      3  C   UNL     1      50.067  63.560   0.897  1.00  0.00     0.238 A 
ATOM      4  O   UNL     1      50.350  64.754   0.616  1.00  0.00    -0.285 OA
ATOM      5  C   UNL     1      49.065  63.243   1.847  1.00  0.00     0.111 A 
ATOM      6  C   UNL     1      48.352  64.203   2.625  1.00  0.00     0.134 A 
ATOM      7  C   UNL     1      47.293  63.783   3.438  1.00  0.00     0.093 A 
ATOM      8  C   UNL     1      46.962  62.433   3.551  1.00  0.00     0.123 A 
ATOM      9  C   UNL     1      47.692  61.480   2.841  1.00  0.00     0.094 A 
ATOM     10  C   UNL     1      48.731  61.871   1.993  1.00  0.00     0.146 A 
ATOM     11  O   UNL     1      49.394  60.933   1.327  1.00  0.00    -0.452 OA
ENDROOT
BRANCH   1  12
ATOM     12  C   UNL     1      51.058  60.057  -0.181  1.00  0.00     0.025 A 
ATOM     13  C   UNL     1      51.922  59.208   0.529  1.00  0.00     0.016 A 
ATOM     14  C   UNL     1      52.530  58.126  -0.110  1.00  0.00     0.051 A 
ATOM     15  C   UNL     1      52.280  57.861  -1.461  1.00  0.00     0.157 A 
ATOM     16  C   UNL     1      50.789  59.781  -1.531  1.00  0.00     0.062 A 
ATOM     17  C   UNL     1      51.395  58.697  -2.180  1.00  0.00     0.158 A 
BRANCH  15  18
ATOM     18  O   UNL     1      52.923  56.766  -2.041  1.00  0.00    -0.504 OA
ATOM     19  H   UNL     1      53.206  56.725  -3.010  1.00  0.00     0.293 HD
ENDBRANCH  15  18
BRANCH  17  20
ATOM     20  O   UNL     1      51.089  58.491  -3.527  1.00  0.00    -0.504 OA
ATOM     21  H   UNL     1      50.368  57.864  -3.853  1.00  0.00     0.293 HD
ENDBRANCH  17  20
ENDBRANCH   1  12
BRANCH   2  22
ATOM     22  O   UNL     1      51.711  62.824  -0.741  1.00  0.00    -0.502 OA
ATOM     23  H   UNL     1      51.853  62.254  -1.566  1.00  0.00     0.293 HD
ENDBRANCH   2  22
BRANCH   6  24
ATOM     24  O   UNL     1      48.661  65.566   2.656  1.00  0.00    -0.507 OA
ATOM     25  H   UNL     1      49.589  65.943   2.775  1.00  0.00     0.293 HD
ENDBRANCH   6  24
BRANCH   8  26
ATOM     26  O   UNL     1      45.911  62.050   4.382  1.00  0.00    -0.508 OA
ATOM     27  H   UNL     1      45.673  62.579   5.212  1.00  0.00     0.293 HD
ENDBRANCH   8  26
TORSDOF 6
ENDMDL
MODEL 6
REMARK VINA RESULT:    -7.796      2.057      3.728
REMARK INTER + INTRA:          -9.546
REMARK INTER:                  -9.237
REMARK INTRA:                  -0.309
REMARK UNBOUND:                -0.155
REMARK SMILES O=c1c(O)c(-c2ccc(O)c(O)c2)oc2cc(O)cc(O)c12
REMARK SMILES IDX 5 1 3 2 2 3 1 4 22 5 20 6 19 7 17 8 16 9 15 10 14 11 6 12
REMARK SMILES IDX 7 13 8 14 9 15 13 16 11 17 10 18 12 20 4 22 21 24 18 26
REMARK H PARENT 10 19 12 21 4 23 21 25 18 27
REMARK Flexibility Score: inf
ROOT
ATOM      1  C   UNL     1      49.885  61.516   5.558  1.00  0.00     0.180 A 
ATOM      2  C   UNL     1      50.769  60.907   4.652  1.00  0.00     0.208 A 
ATOM      3  C   UNL     1      52.012  60.450   5.115  1.00  0.00     0.238 A 
ATOM      4  O   UNL     1      52.821  59.955   4.287  1.00  0.00    -0.285 OA
ATOM      5  C   UNL     1      52.350  60.592   6.483  1.00  0.00     0.111 A 
ATOM      6  C   UNL     1      53.566  60.129   7.070  1.00  0.00     0.134 A 
ATOM      7  C   UNL     1      53.849  60.439   8.405  1.00  0.00     0.093 A 
ATOM      8  C   UNL     1      52.935  61.139   9.193  1.00  0.00     0.123 A 
ATOM      9  C   UNL     1      51.718  61.544   8.645  1.00  0.00     0.094 A 
ATOM     10  C   UNL     1      51.421  61.281   7.306  1.00  0.00     0.146 A 
ATOM     11  O   UNL     1      50.256  61.693   6.821  1.00  0.00    -0.452 OA
ENDROOT
BRANCH   1  12
ATOM     12  C   UNL     1      48.546  62.000   5.150  1.00  0.00     0.025 A 
ATOM     13  C   UNL     1      48.331  63.340   4.788  1.00  0.00     0.016 A 
ATOM     14  C   UNL     1      47.065  63.766   4.385  1.00  0.00     0.051 A 
ATOM     15  C   UNL     1      45.995  62.869   4.319  1.00  0.00     0.157 A 
ATOM     16  C   UNL     1      47.479  61.092   5.065  1.00  0.00     0.062 A 
ATOM     17  C   UNL     1      46.205  61.512   4.660  1.00  0.00     0.158 A 
BRANCH  15  18
ATOM     18  O   UNL     1      44.753  63.360   3.911  1.00  0.00    -0.504 OA
ATOM     19  H   UNL     1      43.869  63.023   4.262  1.00  0.00     0.293 HD
ENDBRANCH  15  18
BRANCH  17  20
ATOM     20  O   UNL     1      45.189  60.555   4.611  1.00  0.00    -0.504 OA
ATOM     21  H   UNL     1      45.269  59.626   4.999  1.00  0.00     0.293 HD
ENDBRANCH  17  20
ENDBRANCH   1  12
BRANCH   2  22
ATOM     22  O   UNL     1      50.425  60.796   3.301  1.00  0.00    -0.502 OA
ATOM     23  H   UNL     1      49.967  61.542   2.793  1.00  0.00     0.293 HD
ENDBRANCH   2  22
BRANCH   6  24
ATOM     24  O   UNL     1      54.507  59.343   6.399  1.00  0.00    -0.507 OA
ATOM     25  H   UNL     1      54.376  58.373   6.154  1.00  0.00     0.293 HD
ENDBRANCH   6  24
BRANCH   8  26
ATOM     26  O   UNL     1      53.245  61.417  10.522  1.00  0.00    -0.508 OA
ATOM     27  H   UNL     1      53.677  62.292  10.793  1.00  0.00     0.293 HD
ENDBRANCH   8  26
TORSDOF 6
ENDMDL
MODEL 7
REMARK VINA RESULT:    -7.764      5.151      6.946
REMARK INTER + INTRA:          -9.508
REMARK INTER:                  -9.213
REMARK INTRA:                  -0.295
REMARK UNBOUND:                -0.155
REMARK SMILES O=c1c(O)c(-c2ccc(O)c(O)c2)oc2cc(O)cc(O)c12
REMARK SMILES IDX 5 1 3 2 2 3 1 4 22 5 20 6 19 7 17 8 16 9 15 10 14 11 6 12
REMARK SMILES IDX 7 13 8 14 9 15 13 16 11 17 10 18 12 20 4 22 21 24 18 26
REMARK H PARENT 10 19 12 21 4 23 21 25 18 27
REMARK Flexibility Score: inf
ROOT
ATOM      1  C   UNL     1      52.279  59.592   3.285  1.00  0.00     0.180 A 
ATOM      2  C   UNL     1      51.112  59.716   2.513  1.00  0.00     0.208 A 
ATOM      3  C   UNL     1      51.151  59.359   1.156  1.00  0.00     0.238 A 
ATOM      4  O   UNL     1      50.117  59.524   0.458  1.00  0.00    -0.285 OA
ATOM      5  C   UNL     1      52.353  58.867   0.591  1.00  0.00     0.111 A 
ATOM      6  C   UNL     1      52.496  58.437  -0.762  1.00  0.00     0.134 A 
ATOM      7  C   UNL     1      53.763  58.092  -1.246  1.00  0.00     0.093 A 
ATOM      8  C   UNL     1      54.880  58.097  -0.411  1.00  0.00     0.123 A 
ATOM      9  C   UNL     1      54.740  58.458   0.929  1.00  0.00     0.094 A 
ATOM     10  C   UNL     1      53.495  58.842   1.433  1.00  0.00     0.146 A 
ATOM     11  O   UNL     1      53.407  59.189   2.712  1.00  0.00    -0.452 OA
ENDROOT
BRANCH   1  12
ATOM     12  C   UNL     1      52.309  59.924   4.728  1.00  0.00     0.025 A 
ATOM     13  C   UNL     1      52.255  58.922   5.711  1.00  0.00     0.016 A 
ATOM     14  C   UNL     1      52.307  59.259   7.064  1.00  0.00     0.051 A 
ATOM     15  C   UNL     1      52.431  60.594   7.465  1.00  0.00     0.157 A 
ATOM     16  C   UNL     1      52.454  61.262   5.127  1.00  0.00     0.062 A 
ATOM     17  C   UNL     1      52.509  61.609   6.483  1.00  0.00     0.158 A 
BRANCH  15  18
ATOM     18  O   UNL     1      52.474  60.863   8.834  1.00  0.00    -0.504 OA
ATOM     19  H   UNL     1      53.258  61.296   9.300  1.00  0.00     0.293 HD
ENDBRANCH  15  18
BRANCH  17  20
ATOM     20  O   UNL     1      52.641  62.962   6.804  1.00  0.00    -0.504 OA
ATOM     21  H   UNL     1      52.660  63.705   6.121  1.00  0.00     0.293 HD
ENDBRANCH  17  20
ENDBRANCH   1  12
BRANCH   2  22
ATOM     22  O   UNL     1      49.942  60.224   3.085  1.00  0.00    -0.502 OA
ATOM     23  H   UNL     1      49.497  59.794   3.886  1.00  0.00     0.293 HD
ENDBRANCH   2  22
BRANCH   6  24
ATOM     24  O   UNL     1      51.429  58.307  -1.656  1.00  0.00    -0.507 OA
ATOM     25  H   UNL     1      50.961  57.439  -1.870  1.00  0.00     0.293 HD
ENDBRANCH   6  24
BRANCH   8  26
ATOM     26  O   UNL     1      56.123  57.732  -0.923  1.00  0.00    -0.508 OA
ATOM     27  H   UNL     1      56.985  58.052  -0.498  1.00  0.00     0.293 HD
ENDBRANCH   8  26
TORSDOF 6
ENDMDL
MODEL 8
REMARK VINA RESULT:    -7.618      2.870      8.597
REMARK INTER + INTRA:          -9.331
REMARK INTER:                  -9.160
REMARK INTRA:                  -0.171
REMARK UNBOUND:                -0.155
REMARK SMILES O=c1c(O)c(-c2ccc(O)c(O)c2)oc2cc(O)cc(O)c12
REMARK SMILES IDX 5 1 3 2 2 3 1 4 22 5 20 6 19 7 17 8 16 9 15 10 14 11 6 12
REMARK SMILES IDX 7 13 8 14 9 15 13 16 11 17 10 18 12 20 4 22 21 24 18 26
REMARK H PARENT 10 19 12 21 4 23 21 25 18 27
REMARK Flexibility Score: inf
ROOT
ATOM      1  C   UNL     1      48.604  62.237   5.160  1.00  0.00     0.180 A 
ATOM      2  C   UNL     1      47.518  61.347   5.204  1.00  0.00     0.208 A 
ATOM      3  C   UNL     1      46.261  61.783   4.757  1.00  0.00     0.238 A 
ATOM      4  O   UNL     1      45.280  61.000   4.850  1.00  0.00    -0.285 OA
ATOM      5  C   UNL     1      46.109  63.100   4.257  1.00  0.00     0.111 A 
ATOM      6  C   UNL     1      44.891  63.635   3.741  1.00  0.00     0.134 A 
ATOM      7  C   UNL     1      44.825  64.989   3.393  1.00  0.00     0.093 A 
ATOM      8  C   UNL     1      45.948  65.812   3.482  1.00  0.00     0.123 A 
ATOM      9  C   UNL     1      47.159  65.284   3.928  1.00  0.00     0.094 A 
ATOM     10  C   UNL     1      47.247  63.945   4.316  1.00  0.00     0.146 A 
ATOM     11  O   UNL     1      48.416  63.484   4.746  1.00  0.00    -0.452 OA
ENDROOT
BRANCH   1  12
ATOM     12  C   UNL     1      49.965  61.841   5.589  1.00  0.00     0.025 A 
ATOM     13  C   UNL     1      51.032  61.783   4.678  1.00  0.00     0.016 A 
ATOM     14  C   UNL     1      52.311  61.429   5.112  1.00  0.00     0.051 A 
ATOM     15  C   UNL     1      52.555  61.141   6.458  1.00  0.00     0.157 A 
ATOM     16  C   UNL     1      50.212  61.573   6.945  1.00  0.00     0.062 A 
ATOM     17  C   UNL     1      51.492  61.217   7.389  1.00  0.00     0.158 A 
BRANCH  15  18
ATOM     18  O   UNL     1      53.856  60.790   6.826  1.00  0.00    -0.504 OA
ATOM     19  H   UNL     1      54.684  61.262   6.493  1.00  0.00     0.293 HD
ENDBRANCH  15  18
BRANCH  17  20
ATOM     20  O   UNL     1      51.660  60.953   8.750  1.00  0.00    -0.504 OA
ATOM     21  H   UNL     1      51.862  61.660   9.442  1.00  0.00     0.293 HD
ENDBRANCH  17  20
ENDBRANCH   1  12
BRANCH   2  22
ATOM     22  O   UNL     1      47.684  60.059   5.722  1.00  0.00    -0.502 OA
ATOM     23  H   UNL     1      46.981  59.607   6.293  1.00  0.00     0.293 HD
ENDBRANCH   2  22
BRANCH   6  24
ATOM     24  O   UNL     1      43.735  62.879   3.525  1.00  0.00    -0.507 OA
ATOM     25  H   UNL     1      43.622  61.912   3.792  1.00  0.00     0.293 HD
ENDBRANCH   6  24
BRANCH   8  26
ATOM     26  O   UNL     1      45.849  67.152   3.113  1.00  0.00    -0.508 OA
ATOM     27  H   UNL     1      45.449  67.844   3.735  1.00  0.00     0.293 HD
ENDBRANCH   8  26
TORSDOF 6
ENDMDL
MODEL 9
REMARK VINA RESULT:    -7.550      5.751      7.267
REMARK INTER + INTRA:          -9.249
REMARK INTER:                  -8.927
REMARK INTRA:                  -0.322
REMARK UNBOUND:                -0.155
REMARK SMILES O=c1c(O)c(-c2ccc(O)c(O)c2)oc2cc(O)cc(O)c12
REMARK SMILES IDX 5 1 3 2 2 3 1 4 22 5 20 6 19 7 17 8 16 9 15 10 14 11 6 12
REMARK SMILES IDX 7 13 8 14 9 15 13 16 11 17 10 18 12 20 4 22 21 24 18 26
REMARK H PARENT 10 19 12 21 4 23 21 25 18 27
REMARK Flexibility Score: inf
ROOT
ATOM      1  C   UNL     1      49.708  61.682   1.711  1.00  0.00     0.180 A 
ATOM      2  C   UNL     1      50.543  61.054   2.651  1.00  0.00     0.208 A 
ATOM      3  C   UNL     1      51.428  60.056   2.216  1.00  0.00     0.238 A 
ATOM      4  O   UNL     1      52.134  59.460   3.071  1.00  0.00    -0.285 OA
ATOM      5  C   UNL     1      51.480  59.709   0.843  1.00  0.00     0.111 A 
ATOM      6  C   UNL     1      52.368  58.741   0.286  1.00  0.00     0.134 A 
ATOM      7  C   UNL     1      52.242  58.385  -1.062  1.00  0.00     0.093 A 
ATOM      8  C   UNL     1      51.306  59.008  -1.888  1.00  0.00     0.123 A 
ATOM      9  C   UNL     1      50.474  59.999  -1.367  1.00  0.00     0.094 A 
ATOM     10  C   UNL     1      50.551  60.350  -0.017  1.00  0.00     0.146 A 
ATOM     11  O   UNL     1      49.733  61.290   0.442  1.00  0.00    -0.452 OA
ENDROOT
BRANCH   1  12
ATOM     12  C   UNL     1      48.767  62.761   2.089  1.00  0.00     0.025 A 
ATOM     13  C   UNL     1      47.445  62.479   2.471  1.00  0.00     0.016 A 
ATOM     14  C   UNL     1      46.584  63.511   2.845  1.00  0.00     0.051 A 
ATOM     15  C   UNL     1      47.023  64.839   2.862  1.00  0.00     0.157 A 
ATOM     16  C   UNL     1      49.216  64.090   2.125  1.00  0.00     0.062 A 
ATOM     17  C   UNL     1      48.359  65.132   2.500  1.00  0.00     0.158 A 
BRANCH  15  18
ATOM     18  O   UNL     1      46.110  65.824   3.242  1.00  0.00    -0.504 OA
ATOM     19  H   UNL     1      46.130  66.775   2.902  1.00  0.00     0.293 HD
ENDBRANCH  15  18
BRANCH  17  20
ATOM     20  O   UNL     1      48.872  66.431   2.500  1.00  0.00    -0.504 OA
ATOM     21  H   UNL     1      48.349  67.245   2.787  1.00  0.00     0.293 HD
ENDBRANCH  17  20
ENDBRANCH   1  12
BRANCH   2  22
ATOM     22  O   UNL     1      50.460  61.397   4.003  1.00  0.00    -0.502 OA
ATOM     23  H   UNL     1      50.143  60.746   4.711  1.00  0.00     0.293 HD
ENDBRANCH   2  22
BRANCH   6  24
ATOM     24  O   UNL     1      53.400  58.125   0.999  1.00  0.00    -0.507 OA
ATOM     25  H   UNL     1      53.345  57.852   1.969  1.00  0.00     0.293 HD
ENDBRANCH   6  24
BRANCH   8  26
ATOM     26  O   UNL     1      51.219  58.639  -3.229  1.00  0.00    -0.508 OA
ATOM     27  H   UNL     1      52.023  58.290  -3.735  1.00  0.00     0.293 HD
ENDBRANCH   8  26
TORSDOF 6
ENDMDL
