MODEL 1
REMARK VINA RESULT:    -8.086      0.000      0.000
REMARK INTER + INTRA:          -9.774
REMARK INTER:                  -9.504
REMARK INTRA:                  -0.270
REMARK UNBOUND:                -0.270
REMARK SMILES O=c1cc(-c2ccc(O)c(O)c2)oc2cc(O)cc(O)c12
REMARK SMILES IDX 4 1 3 2 2 3 1 4 21 5 19 6 18 7 16 8 15 9 14 10 13 11 5 12
REMARK SMILES IDX 6 13 7 14 8 15 12 16 10 17 9 18 11 20 20 22 17 24
REMARK H PARENT 9 19 11 21 20 23 17 25
REMARK Flexibility Score: inf
ROOT
ATOM      1  C   UNL     1     -11.656 -66.357 -32.829  1.00  0.00     0.138 A 
ATOM      2  C   UNL     1     -11.129 -67.057 -31.734  1.00  0.00     0.100 A 
ATOM      3  C   UNL     1      -9.778 -66.920 -31.413  1.00  0.00     0.197 A 
ATOM      4  O   UNL     1      -9.349 -67.510 -30.388  1.00  0.00    -0.289 OA
ATOM      5  C   UNL     1      -8.944 -66.104 -32.214  1.00  0.00     0.107 A 
ATOM      6  C   UNL     1      -7.544 -65.923 -32.006  1.00  0.00     0.134 A 
ATOM      7  C   UNL     1      -6.844 -64.999 -32.791  1.00  0.00     0.093 A 
ATOM      8  C   UNL     1      -7.480 -64.295 -33.817  1.00  0.00     0.123 A 
ATOM      9  C   UNL     1      -8.836 -64.505 -34.063  1.00  0.00     0.094 A 
ATOM     10  C   UNL     1      -9.569 -65.394 -33.273  1.00  0.00     0.146 A 
ATOM     11  O   UNL     1     -10.863 -65.554 -33.531  1.00  0.00    -0.456 OA
ENDROOT
BRANCH   1  12
ATOM     12  C   UNL     1     -13.086 -66.467 -33.216  1.00  0.00     0.021 A 
ATOM     13  C   UNL     1     -14.115 -65.973 -32.393  1.00  0.00     0.016 A 
ATOM     14  C   UNL     1     -15.452 -66.100 -32.777  1.00  0.00     0.051 A 
ATOM     15  C   UNL     1     -15.787 -66.725 -33.981  1.00  0.00     0.157 A 
ATOM     16  C   UNL     1     -13.429 -67.107 -34.420  1.00  0.00     0.062 A 
ATOM     17  C   UNL     1     -14.772 -67.233 -34.807  1.00  0.00     0.158 A 
BRANCH  15  18
ATOM     18  O   UNL     1     -17.130 -66.835 -34.337  1.00  0.00    -0.504 OA
ATOM     19  H   UNL     1     -17.450 -67.493 -35.038  1.00  0.00     0.293 HD
ENDBRANCH  15  18
BRANCH  17  20
ATOM     20  O   UNL     1     -15.099 -67.862 -36.008  1.00  0.00    -0.504 OA
ATOM     21  H   UNL     1     -15.986 -68.335 -36.135  1.00  0.00     0.293 HD
ENDBRANCH  17  20
ENDBRANCH   1  12
BRANCH   6  22
ATOM     22  O   UNL     1      -6.795 -66.637 -31.066  1.00  0.00    -0.507 OA
ATOM     23  H   UNL     1      -7.160 -67.364 -30.470  1.00  0.00     0.293 HD
ENDBRANCH   6  22
BRANCH   8  24
ATOM     24  O   UNL     1      -6.773 -63.388 -34.603  1.00  0.00    -0.508 OA
ATOM     25  H   UNL     1      -6.356 -63.665 -35.484  1.00  0.00     0.293 HD
ENDBRANCH   8  24
TORSDOF 5
ENDMDL
MODEL 2
REMARK VINA RESULT:    -7.965      1.469      6.908
REMARK INTER + INTRA:          -9.632
REMARK INTER:                  -9.361
REMARK INTRA:                  -0.271
REMARK UNBOUND:                -0.270
REMARK SMILES O=c1cc(-c2ccc(O)c(O)c2)oc2cc(O)cc(O)c12
REMARK SMILES IDX 4 1 3 2 2 3 1 4 21 5 19 6 18 7 16 8 15 9 14 10 13 11 5 12
REMARK SMILES IDX 6 13 7 14 8 15 12 16 10 17 9 18 11 20 20 22 17 24
REMARK H PARENT 9 19 11 21 20 23 17 25
REMARK Flexibility Score: inf
ROOT
ATOM      1  C   UNL     1     -11.268 -66.452 -32.914  1.00  0.00     0.138 A 
ATOM      2  C   UNL     1     -12.391 -66.127 -32.140  1.00  0.00     0.100 A 
ATOM      3  C   UNL     1     -13.665 -66.201 -32.706  1.00  0.00     0.197 A 
ATOM      4  O   UNL     1     -14.656 -65.964 -31.969  1.00  0.00    -0.289 OA
ATOM      5  C   UNL     1     -13.810 -66.569 -34.064  1.00  0.00     0.107 A 
ATOM      6  C   UNL     1     -15.055 -66.638 -34.758  1.00  0.00     0.134 A 
ATOM      7  C   UNL     1     -15.089 -67.129 -36.069  1.00  0.00     0.093 A 
ATOM      8  C   UNL     1     -13.914 -67.496 -36.732  1.00  0.00     0.123 A 
ATOM      9  C   UNL     1     -12.688 -67.382 -36.081  1.00  0.00     0.094 A 
ATOM     10  C   UNL     1     -12.626 -66.929 -34.761  1.00  0.00     0.146 A 
ATOM     11  O   UNL     1     -11.438 -66.849 -34.172  1.00  0.00    -0.456 OA
ENDROOT
BRANCH   1  12
ATOM     12  C   UNL     1      -9.891 -66.390 -32.363  1.00  0.00     0.021 A 
ATOM     13  C   UNL     1      -9.465 -67.255 -31.337  1.00  0.00     0.016 A 
ATOM     14  C   UNL     1      -8.166 -67.167 -30.830  1.00  0.00     0.051 A 
ATOM     15  C   UNL     1      -7.274 -66.215 -31.330  1.00  0.00     0.157 A 
ATOM     16  C   UNL     1      -8.993 -65.426 -32.853  1.00  0.00     0.062 A 
ATOM     17  C   UNL     1      -7.688 -65.338 -32.345  1.00  0.00     0.158 A 
BRANCH  15  18
ATOM     18  O   UNL     1      -5.984 -66.153 -30.804  1.00  0.00    -0.504 OA
ATOM     19  H   UNL     1      -5.734 -65.507 -30.065  1.00  0.00     0.293 HD
ENDBRANCH  15  18
BRANCH  17  20
ATOM     20  O   UNL     1      -6.803 -64.384 -32.846  1.00  0.00    -0.504 OA
ATOM     21  H   UNL     1      -5.863 -64.289 -32.482  1.00  0.00     0.293 HD
ENDBRANCH  17  20
ENDBRANCH   1  12
BRANCH   6  22
ATOM     22  O   UNL     1     -16.274 -66.216 -34.219  1.00  0.00    -0.507 OA
ATOM     23  H   UNL     1     -16.854 -65.487 -34.606  1.00  0.00     0.293 HD
ENDBRANCH   6  22
BRANCH   8  24
ATOM     24  O   UNL     1     -13.955 -67.970 -38.041  1.00  0.00    -0.508 OA
ATOM     25  H   UNL     1     -14.429 -68.834 -38.277  1.00  0.00     0.293 HD
ENDBRANCH   8  24
TORSDOF 5
ENDMDL
MODEL 3
REMARK VINA RESULT:    -7.818      1.377      3.240
REMARK INTER + INTRA:          -9.459
REMARK INTER:                  -9.190
REMARK INTRA:                  -0.269
REMARK UNBOUND:                -0.270
REMARK SMILES O=c1cc(-c2ccc(O)c(O)c2)oc2cc(O)cc(O)c12
REMARK SMILES IDX 4 1 3 2 2 3 1 4 21 5 19 6 18 7 16 8 15 9 14 10 13 11 5 12
REMARK SMILES IDX 6 13 7 14 8 15 12 16 10 17 9 18 11 20 20 22 17 24
REMARK H PARENT 9 19 11 21 20 23 17 25
REMARK Flexibility Score: inf
ROOT
ATOM      1  C   UNL     1     -11.208 -66.518 -33.450  1.00  0.00     0.138 A 
ATOM      2  C   UNL     1     -10.306 -65.598 -34.004  1.00  0.00     0.100 A 
ATOM      3  C   UNL     1      -9.097 -65.343 -33.356  1.00  0.00     0.197 A 
ATOM      4  O   UNL     1      -8.281 -64.561 -33.910  1.00  0.00    -0.289 OA
ATOM      5  C   UNL     1      -8.806 -65.986 -32.130  1.00  0.00     0.107 A 
ATOM      6  C   UNL     1      -7.623 -65.772 -31.361  1.00  0.00     0.134 A 
ATOM      7  C   UNL     1      -7.389 -66.553 -30.222  1.00  0.00     0.093 A 
ATOM      8  C   UNL     1      -8.324 -67.498 -29.792  1.00  0.00     0.123 A 
ATOM      9  C   UNL     1      -9.506 -67.677 -30.506  1.00  0.00     0.094 A 
ATOM     10  C   UNL     1      -9.752 -66.938 -31.665  1.00  0.00     0.146 A 
ATOM     11  O   UNL     1     -10.886 -67.150 -32.326  1.00  0.00    -0.456 OA
ENDROOT
BRANCH   1  12
ATOM     12  C   UNL     1     -12.509 -66.826 -34.096  1.00  0.00     0.021 A 
ATOM     13  C   UNL     1     -12.581 -67.515 -35.322  1.00  0.00     0.016 A 
ATOM     14  C   UNL     1     -13.819 -67.782 -35.912  1.00  0.00     0.051 A 
ATOM     15  C   UNL     1     -15.002 -67.364 -35.297  1.00  0.00     0.157 A 
ATOM     16  C   UNL     1     -13.703 -66.397 -33.489  1.00  0.00     0.062 A 
ATOM     17  C   UNL     1     -14.946 -66.667 -34.080  1.00  0.00     0.158 A 
BRANCH  15  18
ATOM     18  O   UNL     1     -16.221 -67.648 -35.911  1.00  0.00    -0.504 OA
ATOM     19  H   UNL     1     -16.708 -66.967 -36.482  1.00  0.00     0.293 HD
ENDBRANCH  15  18
BRANCH  17  20
ATOM     20  O   UNL     1     -16.122 -66.244 -33.463  1.00  0.00    -0.504 OA
ATOM     21  H   UNL     1     -16.108 -65.727 -32.592  1.00  0.00     0.293 HD
ENDBRANCH  17  20
ENDBRANCH   1  12
BRANCH   6  22
ATOM     22  O   UNL     1      -6.666 -64.796 -31.655  1.00  0.00    -0.507 OA
ATOM     23  H   UNL     1      -5.934 -64.894 -32.341  1.00  0.00     0.293 HD
ENDBRANCH   6  22
BRANCH   8  24
ATOM     24  O   UNL     1      -8.090 -68.261 -28.649  1.00  0.00    -0.508 OA
ATOM     25  H   UNL     1      -8.843 -68.737 -28.168  1.00  0.00     0.293 HD
ENDBRANCH   8  24
TORSDOF 5
ENDMDL
MODEL 4
REMARK VINA RESULT:    -7.579      1.415      7.215
REMARK INTER + INTRA:          -9.179
REMARK INTER:                  -8.914
REMARK INTRA:                  -0.265
REMARK UNBOUND:                -0.270
REMARK SMILES O=c1cc(-c2ccc(O)c(O)c2)oc2cc(O)cc(O)c12
REMARK SMILES IDX 4 1 3 2 2 3 1 4 21 5 19 6 18 7 16 8 15 9 14 10 13 11 5 12
REMARK SMILES IDX 6 13 7 14 8 15 12 16 10 17 9 18 11 20 20 22 17 24
REMARK H PARENT 9 19 11 21 20 23 17 25
REMARK Flexibility Score: inf
ROOT
ATOM      1  C   UNL     1     -11.333 -66.270 -33.581  1.00  0.00     0.138 A 
ATOM      2  C   UNL     1     -11.612 -66.852 -34.826  1.00  0.00     0.100 A 
ATOM      3  C   UNL     1     -12.920 -67.230 -35.134  1.00  0.00     0.197 A 
ATOM      4  O   UNL     1     -13.150 -67.691 -36.281  1.00  0.00    -0.289 OA
ATOM      5  C   UNL     1     -13.946 -67.055 -34.175  1.00  0.00     0.107 A 
ATOM      6  C   UNL     1     -15.307 -67.442 -34.363  1.00  0.00     0.134 A 
ATOM      7  C   UNL     1     -16.258 -67.113 -33.390  1.00  0.00     0.093 A 
ATOM      8  C   UNL     1     -15.888 -66.464 -32.209  1.00  0.00     0.123 A 
ATOM      9  C   UNL     1     -14.552 -66.130 -31.992  1.00  0.00     0.094 A 
ATOM     10  C   UNL     1     -13.586 -66.414 -32.960  1.00  0.00     0.146 A 
ATOM     11  O   UNL     1     -12.326 -66.066 -32.721  1.00  0.00    -0.456 OA
ENDROOT
BRANCH   1  12
ATOM     12  C   UNL     1      -9.960 -65.850 -33.202  1.00  0.00     0.021 A 
ATOM     13  C   UNL     1      -9.276 -66.442 -32.125  1.00  0.00     0.016 A 
ATOM     14  C   UNL     1      -7.989 -66.019 -31.784  1.00  0.00     0.051 A 
ATOM     15  C   UNL     1      -7.365 -64.997 -32.505  1.00  0.00     0.157 A 
ATOM     16  C   UNL     1      -9.333 -64.812 -33.915  1.00  0.00     0.062 A 
ATOM     17  C   UNL     1      -8.040 -64.389 -33.575  1.00  0.00     0.158 A 
BRANCH  15  18
ATOM     18  O   UNL     1      -6.080 -64.599 -32.141  1.00  0.00    -0.504 OA
ATOM     19  H   UNL     1      -5.324 -65.263 -32.020  1.00  0.00     0.293 HD
ENDBRANCH  15  18
BRANCH  17  20
ATOM     20  O   UNL     1      -7.425 -63.366 -34.296  1.00  0.00    -0.504 OA
ATOM     21  H   UNL     1      -7.192 -63.473 -35.276  1.00  0.00     0.293 HD
ENDBRANCH  17  20
ENDBRANCH   1  12
BRANCH   6  22
ATOM     22  O   UNL     1     -15.768 -68.167 -35.465  1.00  0.00    -0.507 OA
ATOM     23  H   UNL     1     -15.411 -69.065 -35.755  1.00  0.00     0.293 HD
ENDBRANCH   6  22
BRANCH   8  24
ATOM     24  O   UNL     1     -16.838 -66.153 -31.239  1.00  0.00    -0.508 OA
ATOM     25  H   UNL     1     -16.630 -66.230 -30.250  1.00  0.00     0.293 HD
ENDBRANCH   8  24
TORSDOF 5
ENDMDL
MODEL 5
REMARK VINA RESULT:    -7.470      4.097      6.405
REMARK INTER + INTRA:          -9.050
REMARK INTER:                  -8.766
REMARK INTRA:                  -0.284
REMARK UNBOUND:                -0.270
REMARK SMILES O=c1cc(-c2ccc(O)c(O)c2)oc2cc(O)cc(O)c12
REMARK SMILES IDX 4 1 3 2 2 3 1 4 21 5 19 6 18 7 16 8 15 9 14 10 13 11 5 12
REMARK SMILES IDX 6 13 7 14 8 15 12 16 10 17 9 18 11 20 20 22 17 24
REMARK H PARENT 9 19 11 21 20 23 17 25
REMARK Flexibility Score: inf
ROOT
ATOM      1  C   UNL     1      -7.575 -65.066 -32.890  1.00  0.00     0.138 A 
ATOM      2  C   UNL     1      -6.483 -64.905 -32.025  1.00  0.00     0.100 A 
ATOM      3  C   UNL     1      -6.468 -65.573 -30.800  1.00  0.00     0.197 A 
ATOM      4  O   UNL     1      -5.448 -65.458 -30.074  1.00  0.00    -0.289 OA
ATOM      5  C   UNL     1      -7.568 -66.381 -30.427  1.00  0.00     0.107 A 
ATOM      6  C   UNL     1      -7.681 -67.076 -29.186  1.00  0.00     0.134 A 
ATOM      7  C   UNL     1      -8.763 -67.940 -28.975  1.00  0.00     0.093 A 
ATOM      8  C   UNL     1      -9.767 -68.087 -29.935  1.00  0.00     0.123 A 
ATOM      9  C   UNL     1      -9.694 -67.372 -31.129  1.00  0.00     0.094 A 
ATOM     10  C   UNL     1      -8.609 -66.529 -31.383  1.00  0.00     0.146 A 
ATOM     11  O   UNL     1      -8.569 -65.875 -32.539  1.00  0.00    -0.456 OA
ENDROOT
BRANCH   1  12
ATOM     12  C   UNL     1      -7.642 -64.378 -34.205  1.00  0.00     0.021 A 
ATOM     13  C   UNL     1      -8.869 -63.987 -34.773  1.00  0.00     0.016 A 
ATOM     14  C   UNL     1      -8.903 -63.351 -36.016  1.00  0.00     0.051 A 
ATOM     15  C   UNL     1      -7.720 -63.099 -36.715  1.00  0.00     0.157 A 
ATOM     16  C   UNL     1      -6.456 -64.134 -34.919  1.00  0.00     0.062 A 
ATOM     17  C   UNL     1      -6.489 -63.493 -36.167  1.00  0.00     0.158 A 
BRANCH  15  18
ATOM     18  O   UNL     1      -7.787 -62.460 -37.953  1.00  0.00    -0.504 OA
ATOM     19  H   UNL     1      -8.478 -62.710 -38.651  1.00  0.00     0.293 HD
ENDBRANCH  15  18
BRANCH  17  20
ATOM     20  O   UNL     1      -5.305 -63.248 -36.861  1.00  0.00    -0.504 OA
ATOM     21  H   UNL     1      -4.707 -62.463 -36.631  1.00  0.00     0.293 HD
ENDBRANCH  17  20
ENDBRANCH   1  12
BRANCH   6  22
ATOM     22  O   UNL     1      -6.780 -66.936 -28.127  1.00  0.00    -0.507 OA
ATOM     23  H   UNL     1      -6.869 -66.265 -27.379  1.00  0.00     0.293 HD
ENDBRANCH   6  22
BRANCH   8  24
ATOM     24  O   UNL     1     -10.847 -68.938 -29.711  1.00  0.00    -0.508 OA
ATOM     25  H   UNL     1     -10.802 -69.681 -29.024  1.00  0.00     0.293 HD
ENDBRANCH   8  24
TORSDOF 5
ENDMDL
MODEL 6
REMARK VINA RESULT:    -7.366      3.392      6.354
REMARK INTER + INTRA:          -8.928
REMARK INTER:                  -8.654
REMARK INTRA:                  -0.274
REMARK UNBOUND:                -0.270
REMARK SMILES O=c1cc(-c2ccc(O)c(O)c2)oc2cc(O)cc(O)c12
REMARK SMILES IDX 4 1 3 2 2 3 1 4 21 5 19 6 18 7 16 8 15 9 14 10 13 11 5 12
REMARK SMILES IDX 6 13 7 14 8 15 12 16 10 17 9 18 11 20 20 22 17 24
REMARK H PARENT 9 19 11 21 20 23 17 25
REMARK Flexibility Score: inf
ROOT
ATOM      1  C   UNL     1      -9.300 -67.993 -29.916  1.00  0.00     0.138 A 
ATOM      2  C   UNL     1     -10.395 -67.777 -30.765  1.00  0.00     0.100 A 
ATOM      3  C   UNL     1     -10.275 -66.888 -31.834  1.00  0.00     0.197 A 
ATOM      4  O   UNL     1     -11.254 -66.763 -32.614  1.00  0.00    -0.289 OA
ATOM      5  C   UNL     1      -9.062 -66.187 -32.032  1.00  0.00     0.107 A 
ATOM      6  C   UNL     1      -8.839 -65.226 -33.063  1.00  0.00     0.134 A 
ATOM      7  C   UNL     1      -7.560 -64.681 -33.234  1.00  0.00     0.093 A 
ATOM      8  C   UNL     1      -6.512 -65.018 -32.374  1.00  0.00     0.123 A 
ATOM      9  C   UNL     1      -6.733 -65.915 -31.331  1.00  0.00     0.094 A 
ATOM     10  C   UNL     1      -7.989 -66.501 -31.156  1.00  0.00     0.146 A 
ATOM     11  O   UNL     1      -8.155 -67.363 -30.158  1.00  0.00    -0.456 OA
ENDROOT
BRANCH   1  12
ATOM     12  C   UNL     1      -9.373 -68.927 -28.764  1.00  0.00     0.021 A 
ATOM     13  C   UNL     1     -10.204 -68.673 -27.657  1.00  0.00     0.016 A 
ATOM     14  C   UNL     1     -10.245 -69.564 -26.582  1.00  0.00     0.051 A 
ATOM     15  C   UNL     1      -9.456 -70.717 -26.588  1.00  0.00     0.157 A 
ATOM     16  C   UNL     1      -8.571 -70.082 -28.758  1.00  0.00     0.062 A 
ATOM     17  C   UNL     1      -8.613 -70.978 -27.679  1.00  0.00     0.158 A 
BRANCH  15  18
ATOM     18  O   UNL     1      -9.520 -71.588 -25.501  1.00  0.00    -0.504 OA
ATOM     19  H   UNL     1      -9.025 -71.406 -24.635  1.00  0.00     0.293 HD
ENDBRANCH  15  18
BRANCH  17  20
ATOM     20  O   UNL     1      -7.820 -72.125 -27.690  1.00  0.00    -0.504 OA
ATOM     21  H   UNL     1      -8.225 -73.050 -27.770  1.00  0.00     0.293 HD
ENDBRANCH  17  20
ENDBRANCH   1  12
BRANCH   6  22
ATOM     22  O   UNL     1      -9.837 -64.756 -33.923  1.00  0.00    -0.507 OA
ATOM     23  H   UNL     1     -10.103 -65.195 -34.791  1.00  0.00     0.293 HD
ENDBRANCH   6  22
BRANCH   8  24
ATOM     24  O   UNL     1      -5.246 -64.461 -32.543  1.00  0.00    -0.508 OA
ATOM     25  H   UNL     1      -4.503 -64.968 -33.007  1.00  0.00     0.293 HD
ENDBRANCH   8  24
TORSDOF 5
ENDMDL
MODEL 7
REMARK VINA RESULT:    -7.246      4.371      5.843
REMARK INTER + INTRA:          -8.787
REMARK INTER:                  -8.488
REMARK INTRA:                  -0.299
REMARK UNBOUND:                -0.270
REMARK SMILES O=c1cc(-c2ccc(O)c(O)c2)oc2cc(O)cc(O)c12
REMARK SMILES IDX 4 1 3 2 2 3 1 4 21 5 19 6 18 7 16 8 15 9 14 10 13 11 5 12
REMARK SMILES IDX 6 13 7 14 8 15 12 16 10 17 9 18 11 20 20 22 17 24
REMARK H PARENT 9 19 11 21 20 23 17 25
REMARK Flexibility Score: inf
ROOT
ATOM      1  C   UNL     1      -7.500 -66.061 -31.265  1.00  0.00     0.138 A 
ATOM      2  C   UNL     1      -6.118 -65.869 -31.406  1.00  0.00     0.100 A 
ATOM      3  C   UNL     1      -5.624 -65.211 -32.533  1.00  0.00     0.197 A 
ATOM      4  O   UNL     1      -4.387 -64.998 -32.601  1.00  0.00    -0.289 OA
ATOM      5  C   UNL     1      -6.518 -64.773 -33.539  1.00  0.00     0.107 A 
ATOM      6  C   UNL     1      -6.124 -64.128 -34.750  1.00  0.00     0.134 A 
ATOM      7  C   UNL     1      -7.105 -63.633 -35.619  1.00  0.00     0.093 A 
ATOM      8  C   UNL     1      -8.464 -63.815 -35.350  1.00  0.00     0.123 A 
ATOM      9  C   UNL     1      -8.858 -64.490 -34.197  1.00  0.00     0.094 A 
ATOM     10  C   UNL     1      -7.904 -64.964 -33.294  1.00  0.00     0.146 A 
ATOM     11  O   UNL     1      -8.321 -65.591 -32.199  1.00  0.00    -0.456 OA
ENDROOT
BRANCH   1  12
ATOM     12  C   UNL     1      -8.079 -66.756 -30.087  1.00  0.00     0.021 A 
ATOM     13  C   UNL     1      -7.543 -66.594 -28.796  1.00  0.00     0.016 A 
ATOM     14  C   UNL     1      -8.102 -67.268 -27.707  1.00  0.00     0.051 A 
ATOM     15  C   UNL     1      -9.196 -68.118 -27.887  1.00  0.00     0.157 A 
ATOM     16  C   UNL     1      -9.172 -67.623 -30.263  1.00  0.00     0.062 A 
ATOM     17  C   UNL     1      -9.734 -68.298 -29.170  1.00  0.00     0.158 A 
BRANCH  15  18
ATOM     18  O   UNL     1      -9.732 -68.775 -26.780  1.00  0.00    -0.504 OA
ATOM     19  H   UNL     1     -10.678 -68.605 -26.458  1.00  0.00     0.293 HD
ENDBRANCH  15  18
BRANCH  17  20
ATOM     20  O   UNL     1     -10.824 -69.148 -29.357  1.00  0.00    -0.504 OA
ATOM     21  H   UNL     1     -10.701 -70.136 -29.548  1.00  0.00     0.293 HD
ENDBRANCH  17  20
ENDBRANCH   1  12
BRANCH   6  22
ATOM     22  O   UNL     1      -4.796 -63.970 -35.156  1.00  0.00    -0.507 OA
ATOM     23  H   UNL     1      -4.004 -63.922 -34.532  1.00  0.00     0.293 HD
ENDBRANCH   6  22
BRANCH   8  24
ATOM     24  O   UNL     1      -9.434 -63.332 -36.227  1.00  0.00    -0.508 OA
ATOM     25  H   UNL     1      -9.502 -62.346 -36.449  1.00  0.00     0.293 HD
ENDBRANCH   8  24
TORSDOF 5
ENDMDL
MODEL 8
REMARK VINA RESULT:    -7.145      6.637      8.480
REMARK INTER + INTRA:          -8.669
REMARK INTER:                  -8.404
REMARK INTRA:                  -0.265
REMARK UNBOUND:                -0.270
REMARK SMILES O=c1cc(-c2ccc(O)c(O)c2)oc2cc(O)cc(O)c12
REMARK SMILES IDX 4 1 3 2 2 3 1 4 21 5 19 6 18 7 16 8 15 9 14 10 13 11 5 12
REMARK SMILES IDX 6 13 7 14 8 15 12 16 10 17 9 18 11 20 20 22 17 24
REMARK H PARENT 9 19 11 21 20 23 17 25
REMARK Flexibility Score: inf
ROOT
ATOM      1  C   UNL     1     -10.530 -66.755 -25.281  1.00  0.00     0.138 A 
ATOM      2  C   UNL     1     -10.746 -67.839 -26.145  1.00  0.00     0.100 A 
ATOM      3  C   UNL     1      -9.879 -68.050 -27.217  1.00  0.00     0.197 A 
ATOM      4  O   UNL     1     -10.061 -69.065 -27.936  1.00  0.00    -0.289 OA
ATOM      5  C   UNL     1      -8.810 -67.151 -27.445  1.00  0.00     0.107 A 
ATOM      6  C   UNL     1      -7.888 -67.243 -28.530  1.00  0.00     0.134 A 
ATOM      7  C   UNL     1      -6.799 -66.364 -28.588  1.00  0.00     0.093 A 
ATOM      8  C   UNL     1      -6.633 -65.358 -27.632  1.00  0.00     0.123 A 
ATOM      9  C   UNL     1      -7.558 -65.226 -26.599  1.00  0.00     0.094 A 
ATOM     10  C   UNL     1      -8.635 -66.109 -26.495  1.00  0.00     0.146 A 
ATOM     11  O   UNL     1      -9.486 -65.958 -25.486  1.00  0.00    -0.456 OA
ENDROOT
BRANCH   1  12
ATOM     12  C   UNL     1     -11.422 -66.484 -24.125  1.00  0.00     0.021 A 
ATOM     13  C   UNL     1     -10.944 -66.502 -22.802  1.00  0.00     0.016 A 
ATOM     14  C   UNL     1     -11.809 -66.253 -21.733  1.00  0.00     0.051 A 
ATOM     15  C   UNL     1     -13.162 -65.990 -21.963  1.00  0.00     0.157 A 
ATOM     16  C   UNL     1     -12.787 -66.231 -24.350  1.00  0.00     0.062 A 
ATOM     17  C   UNL     1     -13.656 -65.979 -23.277  1.00  0.00     0.158 A 
BRANCH  15  18
ATOM     18  O   UNL     1     -13.999 -65.744 -20.876  1.00  0.00    -0.504 OA
ATOM     19  H   UNL     1     -14.740 -65.053 -20.911  1.00  0.00     0.293 HD
ENDBRANCH  15  18
BRANCH  17  20
ATOM     20  O   UNL     1     -15.005 -65.721 -23.514  1.00  0.00    -0.504 OA
ATOM     21  H   UNL     1     -15.620 -66.425 -23.906  1.00  0.00     0.293 HD
ENDBRANCH  17  20
ENDBRANCH   1  12
BRANCH   6  22
ATOM     22  O   UNL     1      -8.009 -68.155 -29.583  1.00  0.00    -0.507 OA
ATOM     23  H   UNL     1      -8.334 -67.927 -30.509  1.00  0.00     0.293 HD
ENDBRANCH   6  22
BRANCH   8  24
ATOM     24  O   UNL     1      -5.555 -64.478 -27.705  1.00  0.00    -0.508 OA
ATOM     25  H   UNL     1      -5.434 -63.733 -27.029  1.00  0.00     0.293 HD
ENDBRANCH   8  24
TORSDOF 5
ENDMDL
MODEL 9
REMARK VINA RESULT:    -7.061      4.453      7.135
REMARK INTER + INTRA:          -8.570
REMARK INTER:                  -8.297
REMARK INTRA:                  -0.273
REMARK UNBOUND:                -0.270
REMARK SMILES O=c1cc(-c2ccc(O)c(O)c2)oc2cc(O)cc(O)c12
REMARK SMILES IDX 4 1 3 2 2 3 1 4 21 5 19 6 18 7 16 8 15 9 14 10 13 11 5 12
REMARK SMILES IDX 6 13 7 14 8 15 12 16 10 17 9 18 11 20 20 22 17 24
REMARK H PARENT 9 19 11 21 20 23 17 25
REMARK Flexibility Score: inf
ROOT
ATOM      1  C   UNL     1      -8.028 -66.653 -30.340  1.00  0.00     0.138 A 
ATOM      2  C   UNL     1      -9.072 -67.586 -30.415  1.00  0.00     0.100 A 
ATOM      3  C   UNL     1      -9.525 -68.211 -29.252  1.00  0.00     0.197 A 
ATOM      4  O   UNL     1     -10.504 -68.995 -29.343  1.00  0.00    -0.289 OA
ATOM      5  C   UNL     1      -8.906 -67.922 -28.013  1.00  0.00     0.107 A 
ATOM      6  C   UNL     1      -9.257 -68.529 -26.770  1.00  0.00     0.134 A 
ATOM      7  C   UNL     1      -8.654 -68.079 -25.588  1.00  0.00     0.093 A 
ATOM      8  C   UNL     1      -7.670 -67.088 -25.613  1.00  0.00     0.123 A 
ATOM      9  C   UNL     1      -7.282 -66.527 -26.828  1.00  0.00     0.094 A 
ATOM     10  C   UNL     1      -7.890 -66.930 -28.019  1.00  0.00     0.146 A 
ATOM     11  O   UNL     1      -7.502 -66.360 -29.155  1.00  0.00    -0.456 OA
ENDROOT
BRANCH   1  12
ATOM     12  C   UNL     1      -7.507 -65.961 -31.546  1.00  0.00     0.021 A 
ATOM     13  C   UNL     1      -6.127 -65.868 -31.808  1.00  0.00     0.016 A 
ATOM     14  C   UNL     1      -5.665 -65.201 -32.945  1.00  0.00     0.051 A 
ATOM     15  C   UNL     1      -6.566 -64.611 -33.835  1.00  0.00     0.157 A 
ATOM     16  C   UNL     1      -8.408 -65.353 -32.438  1.00  0.00     0.062 A 
ATOM     17  C   UNL     1      -7.945 -64.685 -33.581  1.00  0.00     0.158 A 
BRANCH  15  18
ATOM     18  O   UNL     1      -6.073 -63.954 -34.962  1.00  0.00    -0.504 OA
ATOM     19  H   UNL     1      -6.437 -63.058 -35.265  1.00  0.00     0.293 HD
ENDBRANCH  15  18
BRANCH  17  20
ATOM     20  O   UNL     1      -8.849 -64.095 -34.463  1.00  0.00    -0.504 OA
ATOM     21  H   UNL     1      -8.910 -63.089 -34.567  1.00  0.00     0.293 HD
ENDBRANCH  17  20
ENDBRANCH   1  12
BRANCH   6  22
ATOM     22  O   UNL     1     -10.164 -69.585 -26.643  1.00  0.00    -0.507 OA
ATOM     23  H   UNL     1     -10.225 -70.200 -25.847  1.00  0.00     0.293 HD
ENDBRANCH   6  22
BRANCH   8  24
ATOM     24  O   UNL     1      -7.065 -66.656 -24.434  1.00  0.00    -0.508 OA
ATOM     25  H   UNL     1      -6.067 -66.490 -24.382  1.00  0.00     0.293 HD
ENDBRANCH   8  24
TORSDOF 5
ENDMDL
