MODEL 1
REMARK VINA RESULT:    25.043      0.000      0.000
REMARK INTER + INTRA:          31.235
REMARK INTER:                  30.899
REMARK INTRA:                   0.336
REMARK UNBOUND:                 0.336
REMARK SMILES Oc1cc(O)c2cc(O)c(-c3cc(O)c(O)c(O)c3)[o+]c2c1
REMARK SMILES IDX 10 1 20 2 21 3 22 4 2 5 3 6 4 7 6 8 7 9 8 10 11 11 12 12
REMARK SMILES IDX 13 13 19 14 15 15 17 16 14 17 16 19 18 21 9 23 1 25 5 27
REMARK H PARENT 14 18 16 20 18 22 9 24 1 26 5 28
REMARK Flexibility Score: inf
ROOT
ATOM      1  C   UNL     1      10.988  26.621  13.284  1.00  0.00     0.402 A 
ATOM      2  O   UNL     1      12.051  27.335  13.644  1.00  0.00    -0.202 OA
ATOM      3  C   UNL     1      13.219  27.276  13.012  1.00  0.00     0.368 A 
ATOM      4  C   UNL     1      14.278  28.068  13.464  1.00  0.00     0.162 A 
ATOM      5  C   UNL     1      15.517  28.027  12.817  1.00  0.00     0.128 A 
ATOM      6  C   UNL     1      15.696  27.190  11.713  1.00  0.00     0.093 A 
ATOM      7  C   UNL     1      14.650  26.386  11.240  1.00  0.00     0.136 A 
ATOM      8  C   UNL     1      13.393  26.423  11.895  1.00  0.00     0.125 A 
ATOM      9  C   UNL     1      12.293  25.643  11.500  1.00  0.00     0.078 A 
ATOM     10  C   UNL     1      11.085  25.729  12.199  1.00  0.00     0.223 A 
ENDROOT
BRANCH   1  11
ATOM     11  C   UNL     1       9.739  26.784  14.061  1.00  0.00     0.091 A 
ATOM     12  C   UNL     1       9.500  27.938  14.830  1.00  0.00     0.068 A 
ATOM     13  C   UNL     1       8.321  28.064  15.577  1.00  0.00     0.162 A 
ATOM     14  C   UNL     1       8.797  25.745  14.079  1.00  0.00     0.068 A 
ATOM     15  C   UNL     1       7.373  27.026  15.569  1.00  0.00     0.200 A 
ATOM     16  C   UNL     1       7.615  25.867  14.823  1.00  0.00     0.162 A 
BRANCH  13  17
ATOM     17  O   UNL     1       8.091  29.214  16.331  1.00  0.00    -0.504 OA
ATOM     18  H   UNL     1       8.050  30.131  15.901  1.00  0.00     0.293 HD
ENDBRANCH  13  17
BRANCH  15  19
ATOM     19  O   UNL     1       6.190  27.131  16.302  1.00  0.00    -0.502 OA
ATOM     20  H   UNL     1       5.557  27.915  16.193  1.00  0.00     0.293 HD
ENDBRANCH  15  19
BRANCH  16  21
ATOM     21  O   UNL     1       6.675  24.836  14.826  1.00  0.00    -0.504 OA
ATOM     22  H   UNL     1       5.939  24.793  15.521  1.00  0.00     0.293 HD
ENDBRANCH  16  21
ENDBRANCH   1  11
BRANCH  10  23
ATOM     23  O   UNL     1      10.008  24.919  11.838  1.00  0.00    -0.500 OA
ATOM     24  H   UNL     1       9.496  25.069  10.977  1.00  0.00     0.294 HD
ENDBRANCH  10  23
BRANCH   5  25
ATOM     25  O   UNL     1      16.577  28.814  13.262  1.00  0.00    -0.507 OA
ATOM     26  H   UNL     1      17.210  29.266  12.612  1.00  0.00     0.293 HD
ENDBRANCH   5  25
BRANCH   7  27
ATOM     27  O   UNL     1      14.911  25.580  10.129  1.00  0.00    -0.507 OA
ATOM     28  H   UNL     1      14.890  24.570  10.139  1.00  0.00     0.293 HD
ENDBRANCH   7  27
TORSDOF 7
ENDMDL
