MODEL 1
REMARK VINA RESULT:    -3.351      0.000      0.000
REMARK INTER + INTRA:          -2.652
REMARK INTER:                  -3.645
REMARK INTRA:                   0.992
REMARK UNBOUND:                 0.992
REMARK SMILES C[C@@H]1[C@H]2C3=CC[C@@H]4[C@@]5(C)CC[C@@H](O)C(C)(C)[C@@H]5CC[C@@]4(C)[C@]3(C)CC[C@@]2(C(=O)[O-])CC[C@@H]1C
REMARK SMILES IDX 26 1 30 2 25 3 3 4 31 5 24 6 4 7 2 8 32 9 22 10 5 11 1 12
REMARK SMILES IDX 33 13 23 14 20 15 6 16 7 17 19 18 21 19 8 20 18 21 17 22
REMARK SMILES IDX 10 23 9 24 14 25 11 26 12 27 15 28 16 29 27 30 28 31 29 32
REMARK SMILES IDX 13 33
REMARK H PARENT 13 34
REMARK Flexibility Score: inf
ROOT
ATOM      1  C   UNL     1     -34.141  12.369  57.256  1.00  0.00     0.017 C 
ATOM      2  C   UNL     1     -35.015  11.082  57.347  1.00  0.00     0.014 C 
ATOM      3  C   UNL     1     -34.164  13.143  58.622  1.00  0.00     0.014 C 
ATOM      4  C   UNL     1     -34.619  13.263  56.062  1.00  0.00     0.030 C 
ATOM      5  C   UNL     1     -36.525  11.355  57.329  1.00  0.00     0.004 C 
ATOM      6  C   UNL     1     -34.359  14.679  58.578  1.00  0.00     0.013 C 
ATOM      7  C   UNL     1     -33.848  14.583  56.076  1.00  0.00    -0.063 C 
ATOM      8  C   UNL     1     -36.165  13.475  55.998  1.00  0.00    -0.003 C 
ATOM      9  C   UNL     1     -36.952  12.139  56.081  1.00  0.00    -0.011 C 
ATOM     10  C   UNL     1     -33.828  15.475  57.322  1.00  0.00    -0.006 C 
ATOM     11  C   UNL     1     -33.154  14.935  54.969  1.00  0.00    -0.027 C 
ATOM     12  C   UNL     1     -36.576  14.286  54.752  1.00  0.00     0.008 C 
ATOM     13  C   UNL     1     -36.869  11.269  54.809  1.00  0.00     0.008 C 
ATOM     14  C   UNL     1     -34.881  16.606  57.051  1.00  0.00     0.017 C 
ATOM     15  C   UNL     1     -32.336  16.069  57.515  1.00  0.00    -0.020 C 
ATOM     16  C   UNL     1     -32.159  16.066  54.899  1.00  0.00     0.032 C 
ATOM     17  C   UNL     1     -31.954  16.880  56.214  1.00  0.00     0.006 C 
ATOM     18  C   UNL     1     -32.233  17.035  58.748  1.00  0.00     0.008 C 
ATOM     19  C   UNL     1     -31.344  14.894  57.749  1.00  0.00     0.012 C 
ATOM     20  C   UNL     1     -30.611  17.736  56.252  1.00  0.00    -0.025 C 
ATOM     21  C   UNL     1     -30.927  17.842  58.820  1.00  0.00     0.005 C 
ATOM     22  C   UNL     1     -30.666  18.656  57.528  1.00  0.00     0.003 C 
ATOM     23  C   UNL     1     -30.582  18.654  54.970  1.00  0.00     0.010 C 
ATOM     24  C   UNL     1     -29.333  16.831  56.241  1.00  0.00     0.012 C 
ATOM     25  C   UNL     1     -29.501  19.734  57.663  1.00  0.00    -0.006 C 
ATOM     26  C   UNL     1     -29.964  20.053  55.158  1.00  0.00     0.033 C 
ATOM     27  C   UNL     1     -28.899  20.096  56.260  1.00  0.00     0.120 C 
ATOM     28  C   UNL     1     -28.333  19.264  58.571  1.00  0.00     0.014 C 
ATOM     29  C   UNL     1     -30.096  21.012  58.325  1.00  0.00     0.014 C 
ENDROOT
BRANCH   1  30
ATOM     30  C   UNL     1     -32.715  11.871  57.001  1.00  0.00     0.048 C 
ATOM     31  O   UNL     1     -32.521  10.875  56.253  1.00  0.00    -0.550 OA
ATOM     32  O   UNL     1     -31.608  12.549  57.499  1.00  0.00    -0.550 OA
ENDBRANCH   1  30
BRANCH  27  33
ATOM     33  O   UNL     1     -28.300  21.370  56.285  1.00  0.00    -0.393 OA
ATOM     34  H   UNL     1     -28.758  21.925  55.600  1.00  0.00     0.210 HD
ENDBRANCH  27  33
TORSDOF 2
ENDMDL
MODEL 2
REMARK VINA RESULT:    -2.369      1.676      8.190
REMARK INTER + INTRA:          -1.585
REMARK INTER:                  -1.396
REMARK INTRA:                  -0.188
REMARK UNBOUND:                 0.992
REMARK SMILES C[C@@H]1[C@H]2C3=CC[C@@H]4[C@@]5(C)CC[C@@H](O)C(C)(C)[C@@H]5CC[C@@]4(C)[C@]3(C)CC[C@@]2(C(=O)[O-])CC[C@@H]1C
REMARK SMILES IDX 26 1 30 2 25 3 3 4 31 5 24 6 4 7 2 8 32 9 22 10 5 11 1 12
REMARK SMILES IDX 33 13 23 14 20 15 6 16 7 17 19 18 21 19 8 20 18 21 17 22
REMARK SMILES IDX 10 23 9 24 14 25 11 26 12 27 15 28 16 29 27 30 28 31 29 32
REMARK SMILES IDX 13 33
REMARK H PARENT 13 34
REMARK Flexibility Score: inf
ROOT
ATOM      1  C   UNL     1     -29.237  19.590  55.969  1.00  0.00     0.017 C 
ATOM      2  C   UNL     1     -28.287  20.824  55.897  1.00  0.00     0.014 C 
ATOM      3  C   UNL     1     -30.694  20.044  56.339  1.00  0.00     0.014 C 
ATOM      4  C   UNL     1     -28.673  18.533  56.977  1.00  0.00     0.030 C 
ATOM      5  C   UNL     1     -27.912  21.399  57.270  1.00  0.00     0.004 C 
ATOM      6  C   UNL     1     -31.454  19.224  57.411  1.00  0.00     0.013 C 
ATOM      7  C   UNL     1     -29.685  17.399  57.143  1.00  0.00    -0.063 C 
ATOM      8  C   UNL     1     -28.216  19.130  58.346  1.00  0.00    -0.003 C 
ATOM      9  C   UNL     1     -27.263  20.344  58.176  1.00  0.00    -0.011 C 
ATOM     10  C   UNL     1     -31.133  17.684  57.558  1.00  0.00    -0.006 C 
ATOM     11  C   UNL     1     -29.283  16.134  56.884  1.00  0.00    -0.027 C 
ATOM     12  C   UNL     1     -27.589  18.054  59.255  1.00  0.00     0.008 C 
ATOM     13  C   UNL     1     -25.843  19.978  57.693  1.00  0.00     0.008 C 
ATOM     14  C   UNL     1     -31.202  17.374  59.095  1.00  0.00     0.017 C 
ATOM     15  C   UNL     1     -32.120  16.732  56.701  1.00  0.00    -0.020 C 
ATOM     16  C   UNL     1     -30.202  14.944  56.764  1.00  0.00     0.032 C 
ATOM     17  C   UNL     1     -31.721  15.228  56.980  1.00  0.00     0.006 C 
ATOM     18  C   UNL     1     -33.626  16.925  57.094  1.00  0.00     0.008 C 
ATOM     19  C   UNL     1     -31.976  17.074  55.190  1.00  0.00     0.012 C 
ATOM     20  C   UNL     1     -32.686  14.097  56.410  1.00  0.00    -0.025 C 
ATOM     21  C   UNL     1     -34.577  15.863  56.523  1.00  0.00     0.005 C 
ATOM     22  C   UNL     1     -34.147  14.422  56.900  1.00  0.00     0.003 C 
ATOM     23  C   UNL     1     -32.243  12.718  57.034  1.00  0.00     0.010 C 
ATOM     24  C   UNL     1     -32.608  13.983  54.851  1.00  0.00     0.012 C 
ATOM     25  C   UNL     1     -35.249  13.313  56.597  1.00  0.00    -0.006 C 
ATOM     26  C   UNL     1     -33.379  11.728  57.355  1.00  0.00     0.033 C 
ATOM     27  C   UNL     1     -34.598  11.895  56.441  1.00  0.00     0.120 C 
ATOM     28  C   UNL     1     -36.070  13.601  55.310  1.00  0.00     0.014 C 
ATOM     29  C   UNL     1     -36.262  13.300  57.779  1.00  0.00     0.014 C 
ENDROOT
BRANCH   1  30
ATOM     30  C   UNL     1     -29.251  19.009  54.551  1.00  0.00     0.048 C 
ATOM     31  O   UNL     1     -30.044  19.475  53.689  1.00  0.00    -0.550 OA
ATOM     32  O   UNL     1     -28.340  18.038  54.154  1.00  0.00    -0.550 OA
ENDBRANCH   1  30
BRANCH  27  33
ATOM     33  O   UNL     1     -35.535  10.880  56.716  1.00  0.00    -0.393 OA
ATOM     34  H   UNL     1     -36.177  11.244  57.380  1.00  0.00     0.210 HD
ENDBRANCH  27  33
TORSDOF 2
ENDMDL
MODEL 3
REMARK VINA RESULT:    -2.266      1.758      3.204
REMARK INTER + INTRA:          -1.472
REMARK INTER:                  -2.316
REMARK INTRA:                   0.844
REMARK UNBOUND:                 0.992
REMARK SMILES C[C@@H]1[C@H]2C3=CC[C@@H]4[C@@]5(C)CC[C@@H](O)C(C)(C)[C@@H]5CC[C@@]4(C)[C@]3(C)CC[C@@]2(C(=O)[O-])CC[C@@H]1C
REMARK SMILES IDX 26 1 30 2 25 3 3 4 31 5 24 6 4 7 2 8 32 9 22 10 5 11 1 12
REMARK SMILES IDX 33 13 23 14 20 15 6 16 7 17 19 18 21 19 8 20 18 21 17 22
REMARK SMILES IDX 10 23 9 24 14 25 11 26 12 27 15 28 16 29 27 30 28 31 29 32
REMARK SMILES IDX 13 33
REMARK H PARENT 13 34
REMARK Flexibility Score: inf
ROOT
ATOM      1  C   UNL     1     -34.407  13.251  55.845  1.00  0.00     0.017 C 
ATOM      2  C   UNL     1     -35.424  12.116  55.517  1.00  0.00     0.014 C 
ATOM      3  C   UNL     1     -32.945  12.792  55.500  1.00  0.00     0.014 C 
ATOM      4  C   UNL     1     -34.552  13.689  57.342  1.00  0.00     0.030 C 
ATOM      5  C   UNL     1     -35.401  10.954  56.519  1.00  0.00     0.004 C 
ATOM      6  C   UNL     1     -31.833  13.091  56.535  1.00  0.00     0.013 C 
ATOM      7  C   UNL     1     -33.454  14.698  57.685  1.00  0.00    -0.063 C 
ATOM      8  C   UNL     1     -34.609  12.502  58.356  1.00  0.00    -0.003 C 
ATOM      9  C   UNL     1     -35.657  11.429  57.956  1.00  0.00    -0.011 C 
ATOM     10  C   UNL     1     -31.975  14.365  57.457  1.00  0.00    -0.006 C 
ATOM     11  C   UNL     1     -33.819  15.907  58.166  1.00  0.00    -0.027 C 
ATOM     12  C   UNL     1     -34.842  12.998  59.797  1.00  0.00     0.008 C 
ATOM     13  C   UNL     1     -37.125  11.865  58.155  1.00  0.00     0.008 C 
ATOM     14  C   UNL     1     -31.413  13.949  58.861  1.00  0.00     0.017 C 
ATOM     15  C   UNL     1     -31.230  15.676  56.869  1.00  0.00    -0.020 C 
ATOM     16  C   UNL     1     -32.894  17.088  58.324  1.00  0.00     0.032 C 
ATOM     17  C   UNL     1     -31.408  16.853  57.908  1.00  0.00     0.006 C 
ATOM     18  C   UNL     1     -29.695  15.440  56.646  1.00  0.00     0.008 C 
ATOM     19  C   UNL     1     -31.857  16.047  55.494  1.00  0.00     0.012 C 
ATOM     20  C   UNL     1     -30.582  18.190  57.648  1.00  0.00    -0.025 C 
ATOM     21  C   UNL     1     -28.888  16.715  56.358  1.00  0.00     0.005 C 
ATOM     22  C   UNL     1     -29.071  17.789  57.460  1.00  0.00     0.003 C 
ATOM     23  C   UNL     1     -30.706  19.096  58.932  1.00  0.00     0.010 C 
ATOM     24  C   UNL     1     -31.127  18.993  56.420  1.00  0.00     0.012 C 
ATOM     25  C   UNL     1     -28.034  18.995  57.371  1.00  0.00    -0.006 C 
ATOM     26  C   UNL     1     -29.454  19.916  59.300  1.00  0.00     0.033 C 
ATOM     27  C   UNL     1     -28.592  20.276  58.085  1.00  0.00     0.120 C 
ATOM     28  C   UNL     1     -27.673  19.387  55.912  1.00  0.00     0.014 C 
ATOM     29  C   UNL     1     -26.709  18.548  58.055  1.00  0.00     0.014 C 
ENDROOT
BRANCH   1  30
ATOM     30  C   UNL     1     -34.785  14.412  54.919  1.00  0.00     0.048 C 
ATOM     31  O   UNL     1     -33.884  15.141  54.425  1.00  0.00    -0.550 OA
ATOM     32  O   UNL     1     -36.101  14.629  54.526  1.00  0.00    -0.550 OA
ENDBRANCH   1  30
BRANCH  27  33
ATOM     33  O   UNL     1     -27.542  21.123  58.488  1.00  0.00    -0.393 OA
ATOM     34  H   UNL     1     -27.616  21.958  57.955  1.00  0.00     0.210 HD
ENDBRANCH  27  33
TORSDOF 2
ENDMDL
MODEL 4
REMARK VINA RESULT:    -2.037      1.967      8.066
REMARK INTER + INTRA:          -1.223
REMARK INTER:                  -1.026
REMARK INTRA:                  -0.197
REMARK UNBOUND:                 0.992
REMARK SMILES C[C@@H]1[C@H]2C3=CC[C@@H]4[C@@]5(C)CC[C@@H](O)C(C)(C)[C@@H]5CC[C@@]4(C)[C@]3(C)CC[C@@]2(C(=O)[O-])CC[C@@H]1C
REMARK SMILES IDX 26 1 30 2 25 3 3 4 31 5 24 6 4 7 2 8 32 9 22 10 5 11 1 12
REMARK SMILES IDX 33 13 23 14 20 15 6 16 7 17 19 18 21 19 8 20 18 21 17 22
REMARK SMILES IDX 10 23 9 24 14 25 11 26 12 27 15 28 16 29 27 30 28 31 29 32
REMARK SMILES IDX 13 33
REMARK H PARENT 13 34
REMARK Flexibility Score: inf
ROOT
ATOM      1  C   UNL     1     -28.136  18.330  56.825  1.00  0.00     0.017 C 
ATOM      2  C   UNL     1     -26.965  19.347  56.667  1.00  0.00     0.014 C 
ATOM      3  C   UNL     1     -28.439  17.630  55.452  1.00  0.00     0.014 C 
ATOM      4  C   UNL     1     -29.397  19.045  57.415  1.00  0.00     0.030 C 
ATOM      5  C   UNL     1     -27.359  20.637  55.936  1.00  0.00     0.004 C 
ATOM      6  C   UNL     1     -29.921  17.490  55.026  1.00  0.00     0.013 C 
ATOM      7  C   UNL     1     -30.575  18.070  57.427  1.00  0.00    -0.063 C 
ATOM      8  C   UNL     1     -29.751  20.399  56.722  1.00  0.00    -0.003 C 
ATOM      9  C   UNL     1     -28.530  21.353  56.623  1.00  0.00    -0.011 C 
ATOM     10  C   UNL     1     -31.025  17.355  56.148  1.00  0.00    -0.006 C 
ATOM     11  C   UNL     1     -31.197  17.825  58.603  1.00  0.00    -0.027 C 
ATOM     12  C   UNL     1     -30.945  21.094  57.408  1.00  0.00     0.008 C 
ATOM     13  C   UNL     1     -28.101  21.982  57.966  1.00  0.00     0.008 C 
ATOM     14  C   UNL     1     -32.269  18.157  55.629  1.00  0.00     0.017 C 
ATOM     15  C   UNL     1     -31.397  15.823  56.509  1.00  0.00    -0.020 C 
ATOM     16  C   UNL     1     -32.202  16.726  58.836  1.00  0.00     0.032 C 
ATOM     17  C   UNL     1     -32.540  15.836  57.599  1.00  0.00     0.006 C 
ATOM     18  C   UNL     1     -31.912  15.024  55.260  1.00  0.00     0.008 C 
ATOM     19  C   UNL     1     -30.127  15.100  57.043  1.00  0.00     0.012 C 
ATOM     20  C   UNL     1     -33.222  14.443  57.962  1.00  0.00    -0.025 C 
ATOM     21  C   UNL     1     -32.540  13.661  55.589  1.00  0.00     0.005 C 
ATOM     22  C   UNL     1     -33.695  13.776  56.616  1.00  0.00     0.003 C 
ATOM     23  C   UNL     1     -34.491  14.738  58.850  1.00  0.00     0.010 C 
ATOM     24  C   UNL     1     -32.260  13.506  58.768  1.00  0.00     0.012 C 
ATOM     25  C   UNL     1     -34.571  12.454  56.761  1.00  0.00    -0.006 C 
ATOM     26  C   UNL     1     -35.700  13.810  58.625  1.00  0.00     0.033 C 
ATOM     27  C   UNL     1     -35.303  12.409  58.148  1.00  0.00     0.120 C 
ATOM     28  C   UNL     1     -33.740  11.150  56.623  1.00  0.00     0.014 C 
ATOM     29  C   UNL     1     -35.621  12.439  55.612  1.00  0.00     0.014 C 
ENDROOT
BRANCH   1  30
ATOM     30  C   UNL     1     -27.622  17.273  57.808  1.00  0.00     0.048 C 
ATOM     31  O   UNL     1     -27.001  16.264  57.379  1.00  0.00    -0.550 OA
ATOM     32  O   UNL     1     -27.738  17.442  59.183  1.00  0.00    -0.550 OA
ENDBRANCH   1  30
BRANCH  27  33
ATOM     33  O   UNL     1     -36.448  11.591  58.084  1.00  0.00    -0.393 OA
ATOM     34  H   UNL     1     -36.575  11.192  58.985  1.00  0.00     0.210 HD
ENDBRANCH  27  33
TORSDOF 2
ENDMDL
MODEL 5
REMARK VINA RESULT:    -1.923      1.743      8.147
REMARK INTER + INTRA:          -1.099
REMARK INTER:                  -0.903
REMARK INTRA:                  -0.196
REMARK UNBOUND:                 0.992
REMARK SMILES C[C@@H]1[C@H]2C3=CC[C@@H]4[C@@]5(C)CC[C@@H](O)C(C)(C)[C@@H]5CC[C@@]4(C)[C@]3(C)CC[C@@]2(C(=O)[O-])CC[C@@H]1C
REMARK SMILES IDX 26 1 30 2 25 3 3 4 31 5 24 6 4 7 2 8 32 9 22 10 5 11 1 12
REMARK SMILES IDX 33 13 23 14 20 15 6 16 7 17 19 18 21 19 8 20 18 21 17 22
REMARK SMILES IDX 10 23 9 24 14 25 11 26 12 27 15 28 16 29 27 30 28 31 29 32
REMARK SMILES IDX 13 33
REMARK H PARENT 13 34
REMARK Flexibility Score: inf
ROOT
ATOM      1  C   UNL     1     -29.075  19.688  58.021  1.00  0.00     0.017 C 
ATOM      2  C   UNL     1     -27.993  20.789  58.235  1.00  0.00     0.014 C 
ATOM      3  C   UNL     1     -28.818  18.476  58.987  1.00  0.00     0.014 C 
ATOM      4  C   UNL     1     -29.109  19.249  56.519  1.00  0.00     0.030 C 
ATOM      5  C   UNL     1     -26.620  20.431  57.651  1.00  0.00     0.004 C 
ATOM      6  C   UNL     1     -28.921  17.048  58.396  1.00  0.00     0.013 C 
ATOM      7  C   UNL     1     -30.070  18.071  56.355  1.00  0.00    -0.063 C 
ATOM      8  C   UNL     1     -27.703  18.962  55.901  1.00  0.00    -0.003 C 
ATOM      9  C   UNL     1     -26.698  20.118  56.151  1.00  0.00    -0.011 C 
ATOM     10  C   UNL     1     -29.909  16.795  57.189  1.00  0.00    -0.006 C 
ATOM     11  C   UNL     1     -31.091  18.190  55.476  1.00  0.00    -0.027 C 
ATOM     12  C   UNL     1     -27.801  18.624  54.399  1.00  0.00     0.008 C 
ATOM     13  C   UNL     1     -26.968  21.390  55.319  1.00  0.00     0.008 C 
ATOM     14  C   UNL     1     -29.190  15.763  56.252  1.00  0.00     0.017 C 
ATOM     15  C   UNL     1     -31.373  16.282  57.648  1.00  0.00    -0.020 C 
ATOM     16  C   UNL     1     -32.254  17.236  55.369  1.00  0.00     0.032 C 
ATOM     17  C   UNL     1     -32.234  16.021  56.349  1.00  0.00     0.006 C 
ATOM     18  C   UNL     1     -31.306  14.949  58.473  1.00  0.00     0.008 C 
ATOM     19  C   UNL     1     -32.036  17.364  58.547  1.00  0.00     0.012 C 
ATOM     20  C   UNL     1     -33.646  15.309  56.538  1.00  0.00    -0.025 C 
ATOM     21  C   UNL     1     -32.665  14.267  58.696  1.00  0.00     0.005 C 
ATOM     22  C   UNL     1     -33.410  13.991  57.366  1.00  0.00     0.003 C 
ATOM     23  C   UNL     1     -34.188  14.915  55.110  1.00  0.00     0.010 C 
ATOM     24  C   UNL     1     -34.695  16.247  57.224  1.00  0.00     0.012 C 
ATOM     25  C   UNL     1     -34.668  13.024  57.514  1.00  0.00    -0.006 C 
ATOM     26  C   UNL     1     -34.972  13.591  55.029  1.00  0.00     0.033 C 
ATOM     27  C   UNL     1     -35.684  13.234  56.338  1.00  0.00     0.120 C 
ATOM     28  C   UNL     1     -35.439  13.221  58.847  1.00  0.00     0.014 C 
ATOM     29  C   UNL     1     -34.153  11.554  57.508  1.00  0.00     0.014 C 
ENDROOT
BRANCH   1  30
ATOM     30  C   UNL     1     -30.403  20.346  58.407  1.00  0.00     0.048 C 
ATOM     31  O   UNL     1     -30.783  20.338  59.609  1.00  0.00    -0.550 OA
ATOM     32  O   UNL     1     -31.165  21.045  57.477  1.00  0.00    -0.550 OA
ENDBRANCH   1  30
BRANCH  27  33
ATOM     33  O   UNL     1     -36.472  12.082  56.145  1.00  0.00    -0.393 OA
ATOM     34  H   UNL     1     -37.276  12.358  55.631  1.00  0.00     0.210 HD
ENDBRANCH  27  33
TORSDOF 2
ENDMDL
MODEL 6
REMARK VINA RESULT:    -1.033      1.716      2.728
REMARK INTER + INTRA:          -0.131
REMARK INTER:                  -0.273
REMARK INTRA:                   0.143
REMARK UNBOUND:                 0.992
REMARK SMILES C[C@@H]1[C@H]2C3=CC[C@@H]4[C@@]5(C)CC[C@@H](O)C(C)(C)[C@@H]5CC[C@@]4(C)[C@]3(C)CC[C@@]2(C(=O)[O-])CC[C@@H]1C
REMARK SMILES IDX 26 1 30 2 25 3 3 4 31 5 24 6 4 7 2 8 32 9 22 10 5 11 1 12
REMARK SMILES IDX 33 13 23 14 20 15 6 16 7 17 19 18 21 19 8 20 18 21 17 22
REMARK SMILES IDX 10 23 9 24 14 25 11 26 12 27 15 28 16 29 27 30 28 31 29 32
REMARK SMILES IDX 13 33
REMARK H PARENT 13 34
REMARK Flexibility Score: inf
ROOT
ATOM      1  C   UNL     1     -34.757  14.390  58.417  1.00  0.00     0.017 C 
ATOM      2  C   UNL     1     -36.015  13.525  58.729  1.00  0.00     0.014 C 
ATOM      3  C   UNL     1     -35.186  15.829  57.956  1.00  0.00     0.014 C 
ATOM      4  C   UNL     1     -33.859  13.673  57.354  1.00  0.00     0.030 C 
ATOM      5  C   UNL     1     -36.770  13.053  57.479  1.00  0.00     0.004 C 
ATOM      6  C   UNL     1     -34.470  16.435  56.723  1.00  0.00     0.013 C 
ATOM      7  C   UNL     1     -32.708  14.598  56.954  1.00  0.00    -0.063 C 
ATOM      8  C   UNL     1     -34.639  13.122  56.119  1.00  0.00    -0.003 C 
ATOM      9  C   UNL     1     -35.865  12.261  56.526  1.00  0.00    -0.011 C 
ATOM     10  C   UNL     1     -32.977  16.013  56.429  1.00  0.00    -0.006 C 
ATOM     11  C   UNL     1     -31.441  14.150  57.102  1.00  0.00    -0.027 C 
ATOM     12  C   UNL     1     -33.712  12.350  55.158  1.00  0.00     0.008 C 
ATOM     13  C   UNL     1     -35.508  10.875  57.105  1.00  0.00     0.008 C 
ATOM     14  C   UNL     1     -32.854  15.917  54.868  1.00  0.00     0.017 C 
ATOM     15  C   UNL     1     -31.882  17.021  57.064  1.00  0.00    -0.020 C 
ATOM     16  C   UNL     1     -30.205  15.006  56.987  1.00  0.00     0.032 C 
ATOM     17  C   UNL     1     -30.444  16.511  56.652  1.00  0.00     0.006 C 
ATOM     18  C   UNL     1     -32.054  18.491  56.544  1.00  0.00     0.008 C 
ATOM     19  C   UNL     1     -32.043  17.043  58.611  1.00  0.00     0.012 C 
ATOM     20  C   UNL     1     -29.209  17.460  56.984  1.00  0.00    -0.025 C 
ATOM     21  C   UNL     1     -30.887  19.430  56.887  1.00  0.00     0.005 C 
ATOM     22  C   UNL     1     -29.525  18.884  56.389  1.00  0.00     0.003 C 
ATOM     23  C   UNL     1     -27.939  16.881  56.251  1.00  0.00     0.010 C 
ATOM     24  C   UNL     1     -28.908  17.525  58.519  1.00  0.00     0.012 C 
ATOM     25  C   UNL     1     -28.338  19.944  56.446  1.00  0.00    -0.006 C 
ATOM     26  C   UNL     1     -26.944  17.922  55.702  1.00  0.00     0.033 C 
ATOM     27  C   UNL     1     -26.943  19.231  56.500  1.00  0.00     0.120 C 
ATOM     28  C   UNL     1     -28.428  20.900  57.667  1.00  0.00     0.014 C 
ATOM     29  C   UNL     1     -28.423  20.837  55.173  1.00  0.00     0.014 C 
ENDROOT
BRANCH   1  30
ATOM     30  C   UNL     1     -34.007  14.507  59.747  1.00  0.00     0.048 C 
ATOM     31  O   UNL     1     -32.915  13.899  59.909  1.00  0.00    -0.550 OA
ATOM     32  O   UNL     1     -34.450  15.350  60.761  1.00  0.00    -0.550 OA
ENDBRANCH   1  30
BRANCH  27  33
ATOM     33  O   UNL     1     -25.927  20.077  56.013  1.00  0.00    -0.393 OA
ATOM     34  H   UNL     1     -26.279  20.521  55.198  1.00  0.00     0.210 HD
ENDBRANCH  27  33
TORSDOF 2
ENDMDL
