MODEL 1
REMARK VINA RESULT:    -6.222      0.000      0.000
REMARK INTER + INTRA:          -7.554
REMARK INTER:                  -7.313
REMARK INTRA:                  -0.240
REMARK UNBOUND:                -0.240
REMARK SMILES O=c1c(O)c(-c2ccc(O)cc2)oc2cc(O)cc(O)c12
REMARK SMILES IDX 5 1 3 2 2 3 1 4 21 5 19 6 18 7 16 8 15 9 14 10 13 11 6 12
REMARK SMILES IDX 7 13 8 14 9 15 12 16 11 17 10 18 4 20 20 22 17 24
REMARK H PARENT 10 19 4 21 20 23 17 25
REMARK Flexibility Score: inf
ROOT
ATOM      1  C   UNL     1      18.736  -1.444 -17.291  1.00  0.00     0.180 A 
ATOM      2  C   UNL     1      18.220  -0.647 -16.254  1.00  0.00     0.208 A 
ATOM      3  C   UNL     1      17.549  -1.268 -15.189  1.00  0.00     0.238 A 
ATOM      4  O   UNL     1      17.042  -0.545 -14.291  1.00  0.00    -0.285 OA
ATOM      5  C   UNL     1      17.417  -2.677 -15.164  1.00  0.00     0.111 A 
ATOM      6  C   UNL     1      16.792  -3.414 -14.114  1.00  0.00     0.134 A 
ATOM      7  C   UNL     1      16.602  -4.794 -14.257  1.00  0.00     0.093 A 
ATOM      8  C   UNL     1      17.072  -5.473 -15.384  1.00  0.00     0.123 A 
ATOM      9  C   UNL     1      17.737  -4.771 -16.387  1.00  0.00     0.094 A 
ATOM     10  C   UNL     1      17.909  -3.389 -16.289  1.00  0.00     0.146 A 
ATOM     11  O   UNL     1      18.538  -2.756 -17.272  1.00  0.00    -0.452 OA
ENDROOT
BRANCH   1  12
ATOM     12  C   UNL     1      19.477  -0.865 -18.435  1.00  0.00     0.021 A 
ATOM     13  C   UNL     1      18.878  -0.841 -19.706  1.00  0.00     0.016 A 
ATOM     14  C   UNL     1      19.569  -0.320 -20.804  1.00  0.00     0.047 A 
ATOM     15  C   UNL     1      20.869   0.169 -20.651  1.00  0.00     0.115 A 
ATOM     16  C   UNL     1      20.794  -0.390 -18.291  1.00  0.00     0.016 A 
ATOM     17  C   UNL     1      21.482   0.130 -19.392  1.00  0.00     0.047 A 
BRANCH  15  18
ATOM     18  O   UNL     1      21.545   0.686 -21.754  1.00  0.00    -0.508 OA
ATOM     19  H   UNL     1      22.374   0.238 -22.125  1.00  0.00     0.293 HD
ENDBRANCH  15  18
ENDBRANCH   1  12
BRANCH   2  20
ATOM     20  O   UNL     1      18.342   0.744 -16.309  1.00  0.00    -0.502 OA
ATOM     21  H   UNL     1      17.585   1.345 -16.614  1.00  0.00     0.293 HD
ENDBRANCH   2  20
BRANCH   6  22
ATOM     22  O   UNL     1      16.368  -2.848 -12.908  1.00  0.00    -0.507 OA
ATOM     23  H   UNL     1      16.443  -3.295 -12.007  1.00  0.00     0.293 HD
ENDBRANCH   6  22
BRANCH   8  24
ATOM     24  O   UNL     1      16.893  -6.849 -15.511  1.00  0.00    -0.508 OA
ATOM     25  H   UNL     1      16.770  -7.445 -14.701  1.00  0.00     0.293 HD
ENDBRANCH   8  24
TORSDOF 5
ENDMDL
MODEL 2
REMARK VINA RESULT:    -6.103      9.261     13.057
REMARK INTER + INTRA:          -7.414
REMARK INTER:                  -7.907
REMARK INTRA:                   0.494
REMARK UNBOUND:                -0.240
REMARK SMILES O=c1c(O)c(-c2ccc(O)cc2)oc2cc(O)cc(O)c12
REMARK SMILES IDX 5 1 3 2 2 3 1 4 21 5 19 6 18 7 16 8 15 9 14 10 13 11 6 12
REMARK SMILES IDX 7 13 8 14 9 15 12 16 11 17 10 18 4 20 20 22 17 24
REMARK H PARENT 10 19 4 21 20 23 17 25
REMARK Flexibility Score: inf
ROOT
ATOM      1  C   UNL     1      10.922  -7.207  -9.107  1.00  0.00     0.180 A 
ATOM      2  C   UNL     1      10.209  -8.418  -9.112  1.00  0.00     0.208 A 
ATOM      3  C   UNL     1       9.191  -8.612  -8.165  1.00  0.00     0.238 A 
ATOM      4  O   UNL     1       8.592  -9.719  -8.139  1.00  0.00    -0.285 OA
ATOM      5  C   UNL     1       8.887  -7.587  -7.238  1.00  0.00     0.111 A 
ATOM      6  C   UNL     1       7.849  -7.660  -6.261  1.00  0.00     0.134 A 
ATOM      7  C   UNL     1       7.723  -6.640  -5.309  1.00  0.00     0.093 A 
ATOM      8  C   UNL     1       8.557  -5.520  -5.340  1.00  0.00     0.123 A 
ATOM      9  C   UNL     1       9.535  -5.412  -6.326  1.00  0.00     0.094 A 
ATOM     10  C   UNL     1       9.708  -6.429  -7.267  1.00  0.00     0.146 A 
ATOM     11  O   UNL     1      10.658  -6.292  -8.183  1.00  0.00    -0.452 OA
ENDROOT
BRANCH   1  12
ATOM     12  C   UNL     1      11.993  -6.919 -10.089  1.00  0.00     0.021 A 
ATOM     13  C   UNL     1      12.707  -5.713 -10.001  1.00  0.00     0.016 A 
ATOM     14  C   UNL     1      13.706  -5.411 -10.932  1.00  0.00     0.047 A 
ATOM     15  C   UNL     1      13.994  -6.303 -11.969  1.00  0.00     0.115 A 
ATOM     16  C   UNL     1      12.274  -7.804 -11.148  1.00  0.00     0.016 A 
ATOM     17  C   UNL     1      13.273  -7.499 -12.077  1.00  0.00     0.047 A 
BRANCH  15  18
ATOM     18  O   UNL     1      14.993  -5.989 -12.888  1.00  0.00    -0.508 OA
ATOM     19  H   UNL     1      15.173  -6.576 -13.695  1.00  0.00     0.293 HD
ENDBRANCH  15  18
ENDBRANCH   1  12
BRANCH   2  20
ATOM     20  O   UNL     1      10.540  -9.426 -10.023  1.00  0.00    -0.502 OA
ATOM     21  H   UNL     1      10.046  -9.552 -10.898  1.00  0.00     0.293 HD
ENDBRANCH   2  20
BRANCH   6  22
ATOM     22  O   UNL     1       6.905  -8.689  -6.200  1.00  0.00    -0.507 OA
ATOM     23  H   UNL     1       5.947  -8.573  -5.908  1.00  0.00     0.293 HD
ENDBRANCH   6  22
BRANCH   8  24
ATOM     24  O   UNL     1       8.415  -4.501  -4.399  1.00  0.00    -0.508 OA
ATOM     25  H   UNL     1       9.216  -3.992  -4.045  1.00  0.00     0.293 HD
ENDBRANCH   8  24
TORSDOF 5
ENDMDL
MODEL 3
REMARK VINA RESULT:    -5.988     11.802     14.705
REMARK INTER + INTRA:          -7.278
REMARK INTER:                  -7.220
REMARK INTRA:                  -0.058
REMARK UNBOUND:                -0.240
REMARK SMILES O=c1c(O)c(-c2ccc(O)cc2)oc2cc(O)cc(O)c12
REMARK SMILES IDX 5 1 3 2 2 3 1 4 21 5 19 6 18 7 16 8 15 9 14 10 13 11 6 12
REMARK SMILES IDX 7 13 8 14 9 15 12 16 11 17 10 18 4 20 20 22 17 24
REMARK H PARENT 10 19 4 21 20 23 17 25
REMARK Flexibility Score: inf
ROOT
ATOM      1  C   UNL     1       9.309  -7.298  -8.380  1.00  0.00     0.180 A 
ATOM      2  C   UNL     1      10.652  -7.473  -8.757  1.00  0.00     0.208 A 
ATOM      3  C   UNL     1      10.943  -7.884 -10.067  1.00  0.00     0.238 A 
ATOM      4  O   UNL     1      12.144  -8.091 -10.382  1.00  0.00    -0.285 OA
ATOM      5  C   UNL     1       9.891  -8.098 -10.989  1.00  0.00     0.111 A 
ATOM      6  C   UNL     1      10.072  -8.477 -12.353  1.00  0.00     0.134 A 
ATOM      7  C   UNL     1       8.956  -8.789 -13.138  1.00  0.00     0.093 A 
ATOM      8  C   UNL     1       7.661  -8.673 -12.626  1.00  0.00     0.123 A 
ATOM      9  C   UNL     1       7.471  -8.247 -11.314  1.00  0.00     0.094 A 
ATOM     10  C   UNL     1       8.566  -7.963 -10.495  1.00  0.00     0.146 A 
ATOM     11  O   UNL     1       8.342  -7.570  -9.248  1.00  0.00    -0.452 OA
ENDROOT
BRANCH   1  12
ATOM     12  C   UNL     1       8.923  -6.843  -7.025  1.00  0.00     0.021 A 
ATOM     13  C   UNL     1       9.413  -5.619  -6.540  1.00  0.00     0.016 A 
ATOM     14  C   UNL     1       9.080  -5.182  -5.254  1.00  0.00     0.047 A 
ATOM     15  C   UNL     1       8.266  -5.967  -4.432  1.00  0.00     0.115 A 
ATOM     16  C   UNL     1       8.121  -7.639  -6.185  1.00  0.00     0.016 A 
ATOM     17  C   UNL     1       7.790  -7.199  -4.900  1.00  0.00     0.047 A 
BRANCH  15  18
ATOM     18  O   UNL     1       7.941  -5.518  -3.154  1.00  0.00    -0.508 OA
ATOM     19  H   UNL     1       8.657  -5.254  -2.488  1.00  0.00     0.293 HD
ENDBRANCH  15  18
ENDBRANCH   1  12
BRANCH   2  20
ATOM     20  O   UNL     1      11.675  -7.277  -7.824  1.00  0.00    -0.502 OA
ATOM     21  H   UNL     1      11.527  -7.373  -6.827  1.00  0.00     0.293 HD
ENDBRANCH   2  20
BRANCH   6  22
ATOM     22  O   UNL     1      11.317  -8.534 -12.988  1.00  0.00    -0.507 OA
ATOM     23  H   UNL     1      12.157  -8.094 -12.645  1.00  0.00     0.293 HD
ENDBRANCH   6  22
BRANCH   8  24
ATOM     24  O   UNL     1       6.554  -8.970 -13.419  1.00  0.00    -0.508 OA
ATOM     25  H   UNL     1       6.631  -9.053 -14.426  1.00  0.00     0.293 HD
ENDBRANCH   8  24
TORSDOF 5
ENDMDL
MODEL 4
REMARK VINA RESULT:    -5.938      1.228      3.108
REMARK INTER + INTRA:          -7.220
REMARK INTER:                  -6.991
REMARK INTRA:                  -0.229
REMARK UNBOUND:                -0.240
REMARK SMILES O=c1c(O)c(-c2ccc(O)cc2)oc2cc(O)cc(O)c12
REMARK SMILES IDX 5 1 3 2 2 3 1 4 21 5 19 6 18 7 16 8 15 9 14 10 13 11 6 12
REMARK SMILES IDX 7 13 8 14 9 15 12 16 11 17 10 18 4 20 20 22 17 24
REMARK H PARENT 10 19 4 21 20 23 17 25
REMARK Flexibility Score: inf
ROOT
ATOM      1  C   UNL     1      18.661  -2.296 -17.509  1.00  0.00     0.180 A 
ATOM      2  C   UNL     1      18.521  -3.683 -17.691  1.00  0.00     0.208 A 
ATOM      3  C   UNL     1      17.842  -4.432 -16.717  1.00  0.00     0.238 A 
ATOM      4  O   UNL     1      17.768  -5.681 -16.860  1.00  0.00    -0.285 OA
ATOM      5  C   UNL     1      17.297  -3.785 -15.584  1.00  0.00     0.111 A 
ATOM      6  C   UNL     1      16.555  -4.439 -14.555  1.00  0.00     0.134 A 
ATOM      7  C   UNL     1      16.175  -3.722 -13.414  1.00  0.00     0.093 A 
ATOM      8  C   UNL     1      16.454  -2.359 -13.294  1.00  0.00     0.123 A 
ATOM      9  C   UNL     1      17.126  -1.697 -14.320  1.00  0.00     0.094 A 
ATOM     10  C   UNL     1      17.549  -2.394 -15.454  1.00  0.00     0.146 A 
ATOM     11  O   UNL     1      18.196  -1.728 -16.403  1.00  0.00    -0.452 OA
ENDROOT
BRANCH   1  12
ATOM     12  C   UNL     1      19.342  -1.435 -18.503  1.00  0.00     0.021 A 
ATOM     13  C   UNL     1      20.584  -0.860 -18.185  1.00  0.00     0.016 A 
ATOM     14  C   UNL     1      21.233  -0.026 -19.100  1.00  0.00     0.047 A 
ATOM     15  C   UNL     1      20.645   0.256 -20.336  1.00  0.00     0.115 A 
ATOM     16  C   UNL     1      18.745  -1.130 -19.741  1.00  0.00     0.016 A 
ATOM     17  C   UNL     1      19.397  -0.296 -20.653  1.00  0.00     0.047 A 
BRANCH  15  18
ATOM     18  O   UNL     1      21.304   1.088 -21.238  1.00  0.00    -0.508 OA
ATOM     19  H   UNL     1      21.937   1.814 -20.924  1.00  0.00     0.293 HD
ENDBRANCH  15  18
ENDBRANCH   1  12
BRANCH   2  20
ATOM     20  O   UNL     1      19.087  -4.306 -18.807  1.00  0.00    -0.502 OA
ATOM     21  H   UNL     1      19.887  -3.922 -19.297  1.00  0.00     0.293 HD
ENDBRANCH   2  20
BRANCH   6  22
ATOM     22  O   UNL     1      16.144  -5.775 -14.618  1.00  0.00    -0.507 OA
ATOM     23  H   UNL     1      16.762  -6.559 -14.759  1.00  0.00     0.293 HD
ENDBRANCH   6  22
BRANCH   8  24
ATOM     24  O   UNL     1      16.058  -1.648 -12.162  1.00  0.00    -0.508 OA
ATOM     25  H   UNL     1      15.948  -0.641 -12.181  1.00  0.00     0.293 HD
ENDBRANCH   8  24
TORSDOF 5
ENDMDL
MODEL 5
REMARK VINA RESULT:    -5.921      7.920     11.265
REMARK INTER + INTRA:          -7.200
REMARK INTER:                  -6.931
REMARK INTRA:                  -0.269
REMARK UNBOUND:                -0.240
REMARK SMILES O=c1c(O)c(-c2ccc(O)cc2)oc2cc(O)cc(O)c12
REMARK SMILES IDX 5 1 3 2 2 3 1 4 21 5 19 6 18 7 16 8 15 9 14 10 13 11 6 12
REMARK SMILES IDX 7 13 8 14 9 15 12 16 11 17 10 18 4 20 20 22 17 24
REMARK H PARENT 10 19 4 21 20 23 17 25
REMARK Flexibility Score: inf
ROOT
ATOM      1  C   UNL     1      11.139  -6.275 -10.858  1.00  0.00     0.180 A 
ATOM      2  C   UNL     1      10.895  -6.542  -9.500  1.00  0.00     0.208 A 
ATOM      3  C   UNL     1       9.776  -7.313  -9.148  1.00  0.00     0.238 A 
ATOM      4  O   UNL     1       9.533  -7.503  -7.927  1.00  0.00    -0.285 OA
ATOM      5  C   UNL     1       8.925  -7.822 -10.158  1.00  0.00     0.111 A 
ATOM      6  C   UNL     1       7.785  -8.647  -9.918  1.00  0.00     0.134 A 
ATOM      7  C   UNL     1       6.940  -8.984 -10.982  1.00  0.00     0.093 A 
ATOM      8  C   UNL     1       7.229  -8.579 -12.287  1.00  0.00     0.123 A 
ATOM      9  C   UNL     1       8.370  -7.822 -12.540  1.00  0.00     0.094 A 
ATOM     10  C   UNL     1       9.214  -7.440 -11.495  1.00  0.00     0.146 A 
ATOM     11  O   UNL     1      10.285  -6.710 -11.777  1.00  0.00    -0.452 OA
ENDROOT
BRANCH   1  12
ATOM     12  C   UNL     1      12.311  -5.491 -11.310  1.00  0.00     0.021 A 
ATOM     13  C   UNL     1      12.135  -4.163 -11.731  1.00  0.00     0.016 A 
ATOM     14  C   UNL     1      13.225  -3.412 -12.182  1.00  0.00     0.047 A 
ATOM     15  C   UNL     1      14.500  -3.982 -12.232  1.00  0.00     0.115 A 
ATOM     16  C   UNL     1      13.594  -6.066 -11.382  1.00  0.00     0.016 A 
ATOM     17  C   UNL     1      14.682  -5.313 -11.834  1.00  0.00     0.047 A 
BRANCH  15  18
ATOM     18  O   UNL     1      15.577  -3.222 -12.683  1.00  0.00    -0.508 OA
ATOM     19  H   UNL     1      15.457  -2.263 -12.987  1.00  0.00     0.293 HD
ENDBRANCH  15  18
ENDBRANCH   1  12
BRANCH   2  20
ATOM     20  O   UNL     1      11.736  -6.012  -8.517  1.00  0.00    -0.502 OA
ATOM     21  H   UNL     1      12.399  -5.271  -8.711  1.00  0.00     0.293 HD
ENDBRANCH   2  20
BRANCH   6  22
ATOM     22  O   UNL     1       7.458  -9.182  -8.668  1.00  0.00    -0.507 OA
ATOM     23  H   UNL     1       6.902 -10.011  -8.526  1.00  0.00     0.293 HD
ENDBRANCH   6  22
BRANCH   8  24
ATOM     24  O   UNL     1       6.391  -8.932 -13.344  1.00  0.00    -0.508 OA
ATOM     25  H   UNL     1       6.739  -9.013 -14.292  1.00  0.00     0.293 HD
ENDBRANCH   8  24
TORSDOF 5
ENDMDL
MODEL 6
REMARK VINA RESULT:    -5.663      8.139     10.377
REMARK INTER + INTRA:          -6.897
REMARK INTER:                  -6.716
REMARK INTRA:                  -0.181
REMARK UNBOUND:                -0.240
REMARK SMILES O=c1c(O)c(-c2ccc(O)cc2)oc2cc(O)cc(O)c12
REMARK SMILES IDX 5 1 3 2 2 3 1 4 21 5 19 6 18 7 16 8 15 9 14 10 13 11 6 12
REMARK SMILES IDX 7 13 8 14 9 15 12 16 11 17 10 18 4 20 20 22 17 24
REMARK H PARENT 10 19 4 21 20 23 17 25
REMARK Flexibility Score: inf
ROOT
ATOM      1  C   UNL     1      18.542  -1.778  -8.135  1.00  0.00     0.180 A 
ATOM      2  C   UNL     1      17.594  -2.646  -8.705  1.00  0.00     0.208 A 
ATOM      3  C   UNL     1      16.514  -2.101  -9.416  1.00  0.00     0.238 A 
ATOM      4  O   UNL     1      15.639  -2.881  -9.878  1.00  0.00    -0.285 OA
ATOM      5  C   UNL     1      16.403  -0.698  -9.563  1.00  0.00     0.111 A 
ATOM      6  C   UNL     1      15.371  -0.039 -10.296  1.00  0.00     0.134 A 
ATOM      7  C   UNL     1      15.286   1.359 -10.266  1.00  0.00     0.093 A 
ATOM      8  C   UNL     1      16.233   2.123  -9.580  1.00  0.00     0.123 A 
ATOM      9  C   UNL     1      17.278   1.491  -8.910  1.00  0.00     0.094 A 
ATOM     10  C   UNL     1      17.369   0.097  -8.893  1.00  0.00     0.146 A 
ATOM     11  O   UNL     1      18.374  -0.465  -8.234  1.00  0.00    -0.452 OA
ENDROOT
BRANCH   1  12
ATOM     12  C   UNL     1      19.721  -2.278  -7.392  1.00  0.00     0.021 A 
ATOM     13  C   UNL     1      19.547  -2.850  -6.121  1.00  0.00     0.016 A 
ATOM     14  C   UNL     1      20.650  -3.307  -5.393  1.00  0.00     0.047 A 
ATOM     15  C   UNL     1      21.940  -3.185  -5.918  1.00  0.00     0.115 A 
ATOM     16  C   UNL     1      21.025  -2.139  -7.906  1.00  0.00     0.016 A 
ATOM     17  C   UNL     1      22.125  -2.597  -7.175  1.00  0.00     0.047 A 
BRANCH  15  18
ATOM     18  O   UNL     1      23.029  -3.647  -5.182  1.00  0.00    -0.508 OA
ATOM     19  H   UNL     1      23.449  -4.550  -5.367  1.00  0.00     0.293 HD
ENDBRANCH  15  18
ENDBRANCH   1  12
BRANCH   2  20
ATOM     20  O   UNL     1      17.711  -4.028  -8.529  1.00  0.00    -0.502 OA
ATOM     21  H   UNL     1      18.562  -4.464  -8.195  1.00  0.00     0.293 HD
ENDBRANCH   2  20
BRANCH   6  22
ATOM     22  O   UNL     1      14.430  -0.703 -11.089  1.00  0.00    -0.507 OA
ATOM     23  H   UNL     1      14.198  -0.452 -12.038  1.00  0.00     0.293 HD
ENDBRANCH   6  22
BRANCH   8  24
ATOM     24  O   UNL     1      16.151   3.514  -9.567  1.00  0.00    -0.508 OA
ATOM     25  H   UNL     1      15.294   3.992  -9.312  1.00  0.00     0.293 HD
ENDBRANCH   8  24
TORSDOF 5
ENDMDL
MODEL 7
REMARK VINA RESULT:    -5.652      6.491      8.912
REMARK INTER + INTRA:          -6.884
REMARK INTER:                  -6.603
REMARK INTRA:                  -0.281
REMARK UNBOUND:                -0.240
REMARK SMILES O=c1c(O)c(-c2ccc(O)cc2)oc2cc(O)cc(O)c12
REMARK SMILES IDX 5 1 3 2 2 3 1 4 21 5 19 6 18 7 16 8 15 9 14 10 13 11 6 12
REMARK SMILES IDX 7 13 8 14 9 15 12 16 11 17 10 18 4 20 20 22 17 24
REMARK H PARENT 10 19 4 21 20 23 17 25
REMARK Flexibility Score: inf
ROOT
ATOM      1  C   UNL     1      17.959  -2.225  -9.084  1.00  0.00     0.180 A 
ATOM      2  C   UNL     1      17.195  -1.045  -9.100  1.00  0.00     0.208 A 
ATOM      3  C   UNL     1      16.154  -0.922 -10.034  1.00  0.00     0.238 A 
ATOM      4  O   UNL     1      15.508   0.159 -10.079  1.00  0.00    -0.285 OA
ATOM      5  C   UNL     1      15.880  -1.983 -10.928  1.00  0.00     0.111 A 
ATOM      6  C   UNL     1      14.825  -1.982 -11.888  1.00  0.00     0.134 A 
ATOM      7  C   UNL     1      14.727  -3.032 -12.810  1.00  0.00     0.093 A 
ATOM      8  C   UNL     1      15.609  -4.115 -12.763  1.00  0.00     0.123 A 
ATOM      9  C   UNL     1      16.606  -4.154 -11.792  1.00  0.00     0.094 A 
ATOM     10  C   UNL     1      16.751  -3.104 -10.882  1.00  0.00     0.146 A 
ATOM     11  O   UNL     1      17.720  -3.175  -9.979  1.00  0.00    -0.452 OA
ENDROOT
BRANCH   1  12
ATOM     12  C   UNL     1      19.057  -2.439  -8.113  1.00  0.00     0.021 A 
ATOM     13  C   UNL     1      20.389  -2.276  -8.527  1.00  0.00     0.016 A 
ATOM     14  C   UNL     1      21.441  -2.495  -7.633  1.00  0.00     0.047 A 
ATOM     15  C   UNL     1      21.177  -2.896  -6.320  1.00  0.00     0.115 A 
ATOM     16  C   UNL     1      18.798  -2.862  -6.795  1.00  0.00     0.016 A 
ATOM     17  C   UNL     1      19.852  -3.082  -5.904  1.00  0.00     0.047 A 
BRANCH  15  18
ATOM     18  O   UNL     1      22.235  -3.110  -5.439  1.00  0.00    -0.508 OA
ATOM     19  H   UNL     1      22.376  -2.520  -4.627  1.00  0.00     0.293 HD
ENDBRANCH  15  18
ENDBRANCH   1  12
BRANCH   2  20
ATOM     20  O   UNL     1      17.497   0.001  -8.223  1.00  0.00    -0.502 OA
ATOM     21  H   UNL     1      18.423   0.133  -7.833  1.00  0.00     0.293 HD
ENDBRANCH   2  20
BRANCH   6  22
ATOM     22  O   UNL     1      13.836  -0.996 -11.961  1.00  0.00    -0.507 OA
ATOM     23  H   UNL     1      13.442  -0.639 -12.818  1.00  0.00     0.293 HD
ENDBRANCH   6  22
BRANCH   8  24
ATOM     24  O   UNL     1      15.496  -5.164 -13.674  1.00  0.00    -0.508 OA
ATOM     25  H   UNL     1      15.129  -5.018 -14.607  1.00  0.00     0.293 HD
ENDBRANCH   8  24
TORSDOF 5
ENDMDL
MODEL 8
REMARK VINA RESULT:    -5.568     10.766     12.705
REMARK INTER + INTRA:          -6.785
REMARK INTER:                  -6.509
REMARK INTRA:                  -0.275
REMARK UNBOUND:                -0.240
REMARK SMILES O=c1c(O)c(-c2ccc(O)cc2)oc2cc(O)cc(O)c12
REMARK SMILES IDX 5 1 3 2 2 3 1 4 21 5 19 6 18 7 16 8 15 9 14 10 13 11 6 12
REMARK SMILES IDX 7 13 8 14 9 15 12 16 11 17 10 18 4 20 20 22 17 24
REMARK H PARENT 10 19 4 21 20 23 17 25
REMARK Flexibility Score: inf
ROOT
ATOM      1  C   UNL     1       8.130   3.444 -17.976  1.00  0.00     0.180 A 
ATOM      2  C   UNL     1       7.851   4.817 -17.857  1.00  0.00     0.208 A 
ATOM      3  C   UNL     1       8.918   5.721 -17.746  1.00  0.00     0.238 A 
ATOM      4  O   UNL     1       8.661   6.943 -17.586  1.00  0.00    -0.285 OA
ATOM      5  C   UNL     1      10.251   5.245 -17.772  1.00  0.00     0.111 A 
ATOM      6  C   UNL     1      11.410   6.075 -17.706  1.00  0.00     0.134 A 
ATOM      7  C   UNL     1      12.676   5.487 -17.607  1.00  0.00     0.093 A 
ATOM      8  C   UNL     1      12.830   4.099 -17.636  1.00  0.00     0.123 A 
ATOM      9  C   UNL     1      11.709   3.281 -17.760  1.00  0.00     0.094 A 
ATOM     10  C   UNL     1      10.430   3.837 -17.824  1.00  0.00     0.146 A 
ATOM     11  O   UNL     1       9.388   3.023 -17.930  1.00  0.00    -0.452 OA
ENDROOT
BRANCH   1  12
ATOM     12  C   UNL     1       7.059   2.431 -18.122  1.00  0.00     0.021 A 
ATOM     13  C   UNL     1       6.695   1.644 -17.017  1.00  0.00     0.016 A 
ATOM     14  C   UNL     1       5.703   0.667 -17.139  1.00  0.00     0.047 A 
ATOM     15  C   UNL     1       5.072   0.454 -18.369  1.00  0.00     0.115 A 
ATOM     16  C   UNL     1       6.435   2.198 -19.362  1.00  0.00     0.016 A 
ATOM     17  C   UNL     1       5.443   1.220 -19.481  1.00  0.00     0.047 A 
BRANCH  15  18
ATOM     18  O   UNL     1       4.084  -0.522 -18.475  1.00  0.00    -0.508 OA
ATOM     19  H   UNL     1       3.329  -0.440 -19.147  1.00  0.00     0.293 HD
ENDBRANCH  15  18
ENDBRANCH   1  12
BRANCH   2  20
ATOM     20  O   UNL     1       6.527   5.263 -17.812  1.00  0.00    -0.502 OA
ATOM     21  H   UNL     1       6.186   5.882 -17.085  1.00  0.00     0.293 HD
ENDBRANCH   2  20
BRANCH   6  22
ATOM     22  O   UNL     1      11.373   7.472 -17.763  1.00  0.00    -0.507 OA
ATOM     23  H   UNL     1      11.368   8.080 -16.959  1.00  0.00     0.293 HD
ENDBRANCH   6  22
BRANCH   8  24
ATOM     24  O   UNL     1      14.096   3.521 -17.554  1.00  0.00    -0.508 OA
ATOM     25  H   UNL     1      14.703   3.457 -18.363  1.00  0.00     0.293 HD
ENDBRANCH   8  24
TORSDOF 5
ENDMDL
MODEL 9
REMARK VINA RESULT:    -5.533      5.657      7.750
REMARK INTER + INTRA:          -6.744
REMARK INTER:                  -6.493
REMARK INTRA:                  -0.250
REMARK UNBOUND:                -0.240
REMARK SMILES O=c1c(O)c(-c2ccc(O)cc2)oc2cc(O)cc(O)c12
REMARK SMILES IDX 5 1 3 2 2 3 1 4 21 5 19 6 18 7 16 8 15 9 14 10 13 11 6 12
REMARK SMILES IDX 7 13 8 14 9 15 12 16 11 17 10 18 4 20 20 22 17 24
REMARK H PARENT 10 19 4 21 20 23 17 25
REMARK Flexibility Score: inf
ROOT
ATOM      1  C   UNL     1      15.724  -1.353 -11.601  1.00  0.00     0.180 A 
ATOM      2  C   UNL     1      15.648  -2.731 -11.333  1.00  0.00     0.208 A 
ATOM      3  C   UNL     1      16.356  -3.251 -10.238  1.00  0.00     0.238 A 
ATOM      4  O   UNL     1      16.327  -4.494 -10.036  1.00  0.00    -0.285 OA
ATOM      5  C   UNL     1      17.116  -2.387  -9.415  1.00  0.00     0.111 A 
ATOM      6  C   UNL     1      17.840  -2.800  -8.257  1.00  0.00     0.134 A 
ATOM      7  C   UNL     1      18.663  -1.882  -7.593  1.00  0.00     0.093 A 
ATOM      8  C   UNL     1      18.739  -0.550  -8.008  1.00  0.00     0.123 A 
ATOM      9  C   UNL     1      17.990  -0.124  -9.103  1.00  0.00     0.094 A 
ATOM     10  C   UNL     1      17.187  -1.024  -9.807  1.00  0.00     0.146 A 
ATOM     11  O   UNL     1      16.498  -0.579 -10.850  1.00  0.00    -0.452 OA
ENDROOT
BRANCH   1  12
ATOM     12  C   UNL     1      14.987  -0.726 -12.722  1.00  0.00     0.021 A 
ATOM     13  C   UNL     1      15.692  -0.293 -13.858  1.00  0.00     0.016 A 
ATOM     14  C   UNL     1      15.019   0.322 -14.917  1.00  0.00     0.047 A 
ATOM     15  C   UNL     1      13.637   0.526 -14.850  1.00  0.00     0.115 A 
ATOM     16  C   UNL     1      13.599  -0.499 -12.651  1.00  0.00     0.016 A 
ATOM     17  C   UNL     1      12.929   0.117 -13.713  1.00  0.00     0.047 A 
BRANCH  15  18
ATOM     18  O   UNL     1      12.979   1.139 -15.914  1.00  0.00    -0.508 OA
ATOM     19  H   UNL     1      13.486   1.663 -16.618  1.00  0.00     0.293 HD
ENDBRANCH  15  18
ENDBRANCH   1  12
BRANCH   2  20
ATOM     20  O   UNL     1      14.909  -3.570 -12.172  1.00  0.00    -0.502 OA
ATOM     21  H   UNL     1      15.071  -4.569 -12.221  1.00  0.00     0.293 HD
ENDBRANCH   2  20
BRANCH   6  22
ATOM     22  O   UNL     1      17.763  -4.082  -7.704  1.00  0.00    -0.507 OA
ATOM     23  H   UNL     1      17.212  -4.326  -6.895  1.00  0.00     0.293 HD
ENDBRANCH   6  22
BRANCH   8  24
ATOM     24  O   UNL     1      19.549   0.361  -7.333  1.00  0.00    -0.508 OA
ATOM     25  H   UNL     1      19.438   1.360  -7.456  1.00  0.00     0.293 HD
ENDBRANCH   8  24
TORSDOF 5
ENDMDL
