MODEL 1
REMARK VINA RESULT:    -5.387      0.000      0.000
REMARK INTER + INTRA:          -8.590
REMARK INTER:                  -7.434
REMARK INTRA:                  -1.157
REMARK UNBOUND:                -1.157
REMARK SMILES CC[C@H](CC[C@@H](C)[C@H]1CC[C@@H]2[C@H]3CC=C4C[C@H](O)CC[C@@]4(C)[C@H]3CC[C@@]21C)C(C)C
REMARK SMILES IDX 5 1 4 2 3 3 2 4 1 5 28 6 29 7 30 8 6 9 7 10 8 11 9 12 26 13
REMARK SMILES IDX 10 14 11 15 25 16 27 17 12 18 24 19 23 20 13 21 21 22 14 23
REMARK SMILES IDX 15 24 20 25 22 26 16 27 19 28 17 29 18 30
REMARK H PARENT 18 31
REMARK Flexibility Score: inf
ROOT
ATOM      1  C   UNL     1      -6.534  20.742  -8.884  1.00  0.00     0.004 C 
ENDROOT
BRANCH   1   2
ATOM      2  C   UNL     1      -6.498  22.273  -8.709  1.00  0.00     0.004 C 
BRANCH   2   3
ATOM      3  C   UNL     1      -7.914  22.907  -8.765  1.00  0.00    -0.009 C 
BRANCH   3   4
ATOM      4  C   UNL     1      -8.961  22.193  -7.855  1.00  0.00     0.000 C 
ATOM      5  C   UNL     1     -10.187  21.600  -8.563  1.00  0.00     0.004 C 
ENDBRANCH   3   4
BRANCH   3   6
ATOM      6  C   UNL     1      -7.856  24.464  -8.611  1.00  0.00    -0.014 C 
ATOM      7  C   UNL     1      -6.486  25.038  -9.013  1.00  0.00     0.007 C 
ATOM      8  C   UNL     1      -8.975  25.214  -9.344  1.00  0.00     0.007 C 
ENDBRANCH   3   6
ENDBRANCH   2   3
ENDBRANCH   1   2
BRANCH   1   9
ATOM      9  C   UNL     1      -5.276  20.038  -8.304  1.00  0.00    -0.011 C 
ATOM     10  C   UNL     1      -4.173  21.075  -8.010  1.00  0.00     0.008 C 
BRANCH   9  11
ATOM     11  C   UNL     1      -5.562  19.161  -7.024  1.00  0.00    -0.002 C 
ATOM     12  C   UNL     1      -6.404  19.904  -5.980  1.00  0.00     0.005 C 
ATOM     13  C   UNL     1      -6.269  17.763  -7.223  1.00  0.00    -0.026 C 
ATOM     14  C   UNL     1      -7.818  19.371  -6.109  1.00  0.00     0.005 C 
ATOM     15  C   UNL     1      -7.715  17.929  -6.646  1.00  0.00    -0.001 C 
ATOM     16  C   UNL     1      -5.478  16.653  -6.463  1.00  0.00     0.007 C 
ATOM     17  C   UNL     1      -6.328  17.301  -8.707  1.00  0.00     0.012 C 
ATOM     18  C   UNL     1      -8.106  16.898  -5.541  1.00  0.00     0.000 C 
ATOM     19  C   UNL     1      -5.601  16.703  -4.934  1.00  0.00     0.005 C 
ATOM     20  C   UNL     1      -7.061  16.849  -4.388  1.00  0.00     0.003 C 
ATOM     21  C   UNL     1      -8.465  15.488  -6.109  1.00  0.00     0.031 C 
ATOM     22  C   UNL     1      -7.464  15.750  -3.340  1.00  0.00    -0.008 C 
ATOM     23  C   UNL     1      -7.916  14.311  -5.323  1.00  0.00    -0.027 C 
ATOM     24  C   UNL     1      -7.467  14.408  -4.053  1.00  0.00    -0.065 C 
ATOM     25  C   UNL     1      -6.476  15.732  -2.131  1.00  0.00     0.014 C 
ATOM     26  C   UNL     1      -8.889  16.031  -2.780  1.00  0.00     0.016 C 
ATOM     27  C   UNL     1      -6.794  13.221  -3.400  1.00  0.00     0.063 C 
ATOM     28  C   UNL     1      -6.665  14.525  -1.184  1.00  0.00     0.033 C 
ATOM     29  C   UNL     1      -7.058  13.199  -1.889  1.00  0.00     0.118 C 
BRANCH  29  30
ATOM     30  O   UNL     1      -8.416  12.912  -1.669  1.00  0.00    -0.393 OA
ATOM     31  H   UNL     1      -8.892  13.782  -1.627  1.00  0.00     0.210 HD
ENDBRANCH  29  30
ENDBRANCH   9  11
ENDBRANCH   1   9
TORSDOF 7
ENDMDL
MODEL 2
REMARK VINA RESULT:    -5.013      2.781      8.465
REMARK INTER + INTRA:          -8.075
REMARK INTER:                  -6.084
REMARK INTRA:                  -1.991
REMARK UNBOUND:                -1.157
REMARK SMILES CC[C@H](CC[C@@H](C)[C@H]1CC[C@@H]2[C@H]3CC=C4C[C@H](O)CC[C@@]4(C)[C@H]3CC[C@@]21C)C(C)C
REMARK SMILES IDX 5 1 4 2 3 3 2 4 1 5 28 6 29 7 30 8 6 9 7 10 8 11 9 12 26 13
REMARK SMILES IDX 10 14 11 15 25 16 27 17 12 18 24 19 23 20 13 21 21 22 14 23
REMARK SMILES IDX 15 24 20 25 22 26 16 27 19 28 17 29 18 30
REMARK H PARENT 18 31
REMARK Flexibility Score: inf
ROOT
ATOM      1  C   UNL     1      -7.315  13.506  -4.517  1.00  0.00     0.004 C 
ENDROOT
BRANCH   1   2
ATOM      2  C   UNL     1      -6.525  12.997  -3.295  1.00  0.00     0.004 C 
BRANCH   2   3
ATOM      3  C   UNL     1      -6.879  13.773  -1.998  1.00  0.00    -0.009 C 
BRANCH   3   4
ATOM      4  C   UNL     1      -6.281  15.214  -1.942  1.00  0.00     0.000 C 
ATOM      5  C   UNL     1      -4.872  15.390  -2.526  1.00  0.00     0.004 C 
ENDBRANCH   3   4
BRANCH   3   6
ATOM      6  C   UNL     1      -8.405  13.677  -1.666  1.00  0.00    -0.014 C 
ATOM      7  C   UNL     1      -8.661  13.073  -0.273  1.00  0.00     0.007 C 
ATOM      8  C   UNL     1      -9.169  14.999  -1.813  1.00  0.00     0.007 C 
ENDBRANCH   3   6
ENDBRANCH   2   3
ENDBRANCH   1   2
BRANCH   1   9
ATOM      9  C   UNL     1      -6.396  14.001  -5.667  1.00  0.00    -0.011 C 
ATOM     10  C   UNL     1      -6.210  12.889  -6.718  1.00  0.00     0.008 C 
BRANCH   9  11
ATOM     11  C   UNL     1      -6.887  15.333  -6.356  1.00  0.00    -0.002 C 
ATOM     12  C   UNL     1      -8.152  15.900  -5.701  1.00  0.00     0.005 C 
ATOM     13  C   UNL     1      -5.875  16.542  -6.444  1.00  0.00    -0.026 C 
ATOM     14  C   UNL     1      -7.702  17.051  -4.822  1.00  0.00     0.005 C 
ATOM     15  C   UNL     1      -6.410  17.620  -5.441  1.00  0.00    -0.001 C 
ATOM     16  C   UNL     1      -5.831  17.096  -7.902  1.00  0.00     0.007 C 
ATOM     17  C   UNL     1      -4.410  16.155  -6.093  1.00  0.00     0.012 C 
ATOM     18  C   UNL     1      -6.667  19.028  -6.062  1.00  0.00     0.000 C 
ATOM     19  C   UNL     1      -7.082  17.873  -8.337  1.00  0.00     0.005 C 
ATOM     20  C   UNL     1      -7.578  18.956  -7.322  1.00  0.00     0.003 C 
ATOM     21  C   UNL     1      -5.360  19.852  -6.293  1.00  0.00     0.031 C 
ATOM     22  C   UNL     1      -7.749  20.387  -7.948  1.00  0.00    -0.008 C 
ATOM     23  C   UNL     1      -5.292  20.610  -7.606  1.00  0.00    -0.027 C 
ATOM     24  C   UNL     1      -6.374  20.876  -8.370  1.00  0.00    -0.065 C 
ATOM     25  C   UNL     1      -8.724  20.358  -9.168  1.00  0.00     0.014 C 
ATOM     26  C   UNL     1      -8.339  21.372  -6.898  1.00  0.00     0.016 C 
ATOM     27  C   UNL     1      -6.196  21.500  -9.736  1.00  0.00     0.063 C 
ATOM     28  C   UNL     1      -8.753  21.673  -9.980  1.00  0.00     0.033 C 
ATOM     29  C   UNL     1      -7.386  22.400 -10.091  1.00  0.00     0.118 C 
BRANCH  29  30
ATOM     30  O   UNL     1      -7.364  23.532  -9.258  1.00  0.00    -0.393 OA
ATOM     31  H   UNL     1      -6.792  23.305  -8.479  1.00  0.00     0.210 HD
ENDBRANCH  29  30
ENDBRANCH   9  11
ENDBRANCH   1   9
TORSDOF 7
ENDMDL
MODEL 3
REMARK VINA RESULT:    -4.964      3.178      6.115
REMARK INTER + INTRA:          -8.007
REMARK INTER:                  -6.995
REMARK INTRA:                  -1.011
REMARK UNBOUND:                -1.157
REMARK SMILES CC[C@H](CC[C@@H](C)[C@H]1CC[C@@H]2[C@H]3CC=C4C[C@H](O)CC[C@@]4(C)[C@H]3CC[C@@]21C)C(C)C
REMARK SMILES IDX 5 1 4 2 3 3 2 4 1 5 28 6 29 7 30 8 6 9 7 10 8 11 9 12 26 13
REMARK SMILES IDX 10 14 11 15 25 16 27 17 12 18 24 19 23 20 13 21 21 22 14 23
REMARK SMILES IDX 15 24 20 25 22 26 16 27 19 28 17 29 18 30
REMARK H PARENT 18 31
REMARK Flexibility Score: inf
ROOT
ATOM      1  C   UNL     1     -12.014  23.928  -9.940  1.00  0.00     0.004 C 
ENDROOT
BRANCH   1   2
ATOM      2  C   UNL     1     -13.126  24.437  -9.002  1.00  0.00     0.004 C 
BRANCH   2   3
ATOM      3  C   UNL     1     -14.483  23.726  -9.255  1.00  0.00    -0.009 C 
BRANCH   3   4
ATOM      4  C   UNL     1     -14.562  22.286  -8.659  1.00  0.00     0.000 C 
ATOM      5  C   UNL     1     -14.578  21.130  -9.670  1.00  0.00     0.004 C 
ENDBRANCH   3   4
BRANCH   3   6
ATOM      6  C   UNL     1     -15.695  24.653  -8.907  1.00  0.00    -0.014 C 
ATOM      7  C   UNL     1     -17.047  23.955  -9.137  1.00  0.00     0.007 C 
ATOM      8  C   UNL     1     -15.647  25.253  -7.496  1.00  0.00     0.007 C 
ENDBRANCH   3   6
ENDBRANCH   2   3
ENDBRANCH   1   2
BRANCH   1   9
ATOM      9  C   UNL     1     -10.591  24.096  -9.337  1.00  0.00    -0.011 C 
ATOM     10  C   UNL     1     -10.562  25.296  -8.369  1.00  0.00     0.008 C 
BRANCH   9  11
ATOM     11  C   UNL     1     -10.037  22.802  -8.626  1.00  0.00    -0.002 C 
ATOM     12  C   UNL     1     -10.607  21.512  -9.227  1.00  0.00     0.005 C 
ATOM     13  C   UNL     1      -8.472  22.592  -8.578  1.00  0.00    -0.026 C 
ATOM     14  C   UNL     1      -9.525  20.939 -10.122  1.00  0.00     0.005 C 
ATOM     15  C   UNL     1      -8.169  21.407  -9.556  1.00  0.00    -0.001 C 
ATOM     16  C   UNL     1      -8.023  22.256  -7.122  1.00  0.00     0.007 C 
ATOM     17  C   UNL     1      -7.662  23.854  -8.990  1.00  0.00     0.012 C 
ATOM     18  C   UNL     1      -7.392  20.212  -8.923  1.00  0.00     0.000 C 
ATOM     19  C   UNL     1      -8.410  20.852  -6.634  1.00  0.00     0.005 C 
ATOM     20  C   UNL     1      -8.076  19.688  -7.626  1.00  0.00     0.003 C 
ATOM     21  C   UNL     1      -5.865  20.490  -8.745  1.00  0.00     0.031 C 
ATOM     22  C   UNL     1      -7.219  18.534  -6.992  1.00  0.00    -0.008 C 
ATOM     23  C   UNL     1      -5.265  20.014  -7.434  1.00  0.00    -0.027 C 
ATOM     24  C   UNL     1      -5.862  19.111  -6.626  1.00  0.00    -0.065 C 
ATOM     25  C   UNL     1      -7.922  17.934  -5.733  1.00  0.00     0.014 C 
ATOM     26  C   UNL     1      -7.021  17.378  -8.015  1.00  0.00     0.016 C 
ATOM     27  C   UNL     1      -5.270  18.810  -5.268  1.00  0.00     0.063 C 
ATOM     28  C   UNL     1      -7.033  16.967  -4.918  1.00  0.00     0.033 C 
ATOM     29  C   UNL     1      -5.531  17.353  -4.862  1.00  0.00     0.118 C 
BRANCH  29  30
ATOM     30  O   UNL     1      -4.776  16.508  -5.694  1.00  0.00    -0.393 OA
ATOM     31  H   UNL     1      -3.820  16.683  -5.491  1.00  0.00     0.210 HD
ENDBRANCH  29  30
ENDBRANCH   9  11
ENDBRANCH   1   9
TORSDOF 7
ENDMDL
MODEL 4
REMARK VINA RESULT:    -4.923      1.280      2.367
REMARK INTER + INTRA:          -7.951
REMARK INTER:                  -7.283
REMARK INTRA:                  -0.668
REMARK UNBOUND:                -1.157
REMARK SMILES CC[C@H](CC[C@@H](C)[C@H]1CC[C@@H]2[C@H]3CC=C4C[C@H](O)CC[C@@]4(C)[C@H]3CC[C@@]21C)C(C)C
REMARK SMILES IDX 5 1 4 2 3 3 2 4 1 5 28 6 29 7 30 8 6 9 7 10 8 11 9 12 26 13
REMARK SMILES IDX 10 14 11 15 25 16 27 17 12 18 24 19 23 20 13 21 21 22 14 23
REMARK SMILES IDX 15 24 20 25 22 26 16 27 19 28 17 29 18 30
REMARK H PARENT 18 31
REMARK Flexibility Score: inf
ROOT
ATOM      1  C   UNL     1      -5.889  21.769  -8.572  1.00  0.00     0.004 C 
ENDROOT
BRANCH   1   2
ATOM      2  C   UNL     1      -6.673  22.606  -9.603  1.00  0.00     0.004 C 
BRANCH   2   3
ATOM      3  C   UNL     1      -7.314  23.871  -8.971  1.00  0.00    -0.009 C 
BRANCH   3   4
ATOM      4  C   UNL     1      -7.135  25.163  -9.828  1.00  0.00     0.000 C 
ATOM      5  C   UNL     1      -5.892  26.013  -9.527  1.00  0.00     0.004 C 
ENDBRANCH   3   4
BRANCH   3   6
ATOM      6  C   UNL     1      -8.776  23.596  -8.485  1.00  0.00    -0.014 C 
ATOM      7  C   UNL     1      -9.555  24.897  -8.217  1.00  0.00     0.007 C 
ATOM      8  C   UNL     1      -9.588  22.679  -9.409  1.00  0.00     0.007 C 
ENDBRANCH   3   6
ENDBRANCH   2   3
ENDBRANCH   1   2
BRANCH   1   9
ATOM      9  C   UNL     1      -5.370  20.425  -9.154  1.00  0.00    -0.011 C 
ATOM     10  C   UNL     1      -3.919  20.584  -9.649  1.00  0.00     0.008 C 
BRANCH   9  11
ATOM     11  C   UNL     1      -5.482  19.206  -8.159  1.00  0.00    -0.002 C 
ATOM     12  C   UNL     1      -4.541  19.342  -6.956  1.00  0.00     0.005 C 
ATOM     13  C   UNL     1      -6.901  18.870  -7.552  1.00  0.00    -0.026 C 
ATOM     14  C   UNL     1      -5.398  19.795  -5.789  1.00  0.00     0.005 C 
ATOM     15  C   UNL     1      -6.826  19.271  -6.041  1.00  0.00    -0.001 C 
ATOM     16  C   UNL     1      -7.206  17.349  -7.722  1.00  0.00     0.007 C 
ATOM     17  C   UNL     1      -8.072  19.617  -8.254  1.00  0.00     0.012 C 
ATOM     18  C   UNL     1      -7.182  18.131  -5.037  1.00  0.00     0.000 C 
ATOM     19  C   UNL     1      -6.393  16.421  -6.808  1.00  0.00     0.005 C 
ATOM     20  C   UNL     1      -6.354  16.839  -5.300  1.00  0.00     0.003 C 
ATOM     21  C   UNL     1      -8.716  17.866  -4.918  1.00  0.00     0.031 C 
ATOM     22  C   UNL     1      -6.798  15.702  -4.310  1.00  0.00    -0.008 C 
ATOM     23  C   UNL     1      -9.123  16.404  -4.864  1.00  0.00    -0.027 C 
ATOM     24  C   UNL     1      -8.264  15.402  -4.575  1.00  0.00    -0.065 C 
ATOM     25  C   UNL     1      -5.929  14.418  -4.498  1.00  0.00     0.014 C 
ATOM     26  C   UNL     1      -6.633  16.170  -2.836  1.00  0.00     0.016 C 
ATOM     27  C   UNL     1      -8.717  13.965  -4.695  1.00  0.00     0.063 C 
ATOM     28  C   UNL     1      -6.460  13.183  -3.734  1.00  0.00     0.033 C 
ATOM     29  C   UNL     1      -8.007  13.074  -3.667  1.00  0.00     0.118 C 
BRANCH  29  30
ATOM     30  O   UNL     1      -8.466  13.410  -2.382  1.00  0.00    -0.393 OA
ATOM     31  H   UNL     1      -8.792  14.347  -2.428  1.00  0.00     0.210 HD
ENDBRANCH  29  30
ENDBRANCH   9  11
ENDBRANCH   1   9
TORSDOF 7
ENDMDL
MODEL 5
REMARK VINA RESULT:    -4.907      2.781      8.218
REMARK INTER + INTRA:          -7.928
REMARK INTER:                  -5.635
REMARK INTRA:                  -2.293
REMARK UNBOUND:                -1.157
REMARK SMILES CC[C@H](CC[C@@H](C)[C@H]1CC[C@@H]2[C@H]3CC=C4C[C@H](O)CC[C@@]4(C)[C@H]3CC[C@@]21C)C(C)C
REMARK SMILES IDX 5 1 4 2 3 3 2 4 1 5 28 6 29 7 30 8 6 9 7 10 8 11 9 12 26 13
REMARK SMILES IDX 10 14 11 15 25 16 27 17 12 18 24 19 23 20 13 21 21 22 14 23
REMARK SMILES IDX 15 24 20 25 22 26 16 27 19 28 17 29 18 30
REMARK H PARENT 18 31
REMARK Flexibility Score: inf
ROOT
ATOM      1  C   UNL     1      -4.549  14.619  -4.833  1.00  0.00     0.004 C 
ENDROOT
BRANCH   1   2
ATOM      2  C   UNL     1      -5.540  13.788  -3.993  1.00  0.00     0.004 C 
BRANCH   2   3
ATOM      3  C   UNL     1      -6.993  14.329  -4.089  1.00  0.00    -0.009 C 
BRANCH   3   4
ATOM      4  C   UNL     1      -7.846  13.649  -5.205  1.00  0.00     0.000 C 
ATOM      5  C   UNL     1      -9.084  14.423  -5.682  1.00  0.00     0.004 C 
ENDBRANCH   3   4
BRANCH   3   6
ATOM      6  C   UNL     1      -7.677  14.398  -2.683  1.00  0.00    -0.014 C 
ATOM      7  C   UNL     1      -8.269  13.043  -2.256  1.00  0.00     0.007 C 
ATOM      8  C   UNL     1      -6.781  14.954  -1.570  1.00  0.00     0.007 C 
ENDBRANCH   3   6
ENDBRANCH   2   3
ENDBRANCH   1   2
BRANCH   1   9
ATOM      9  C   UNL     1      -4.403  16.080  -4.324  1.00  0.00    -0.011 C 
ATOM     10  C   UNL     1      -2.985  16.310  -3.765  1.00  0.00     0.008 C 
BRANCH   9  11
ATOM     11  C   UNL     1      -4.753  17.175  -5.404  1.00  0.00    -0.002 C 
ATOM     12  C   UNL     1      -4.907  16.584  -6.811  1.00  0.00     0.005 C 
ATOM     13  C   UNL     1      -6.040  18.062  -5.174  1.00  0.00    -0.026 C 
ATOM     14  C   UNL     1      -6.396  16.489  -7.078  1.00  0.00     0.005 C 
ATOM     15  C   UNL     1      -7.080  17.592  -6.245  1.00  0.00    -0.001 C 
ATOM     16  C   UNL     1      -5.685  19.571  -5.350  1.00  0.00     0.007 C 
ATOM     17  C   UNL     1      -6.638  17.932  -3.744  1.00  0.00     0.012 C 
ATOM     18  C   UNL     1      -7.631  18.722  -7.170  1.00  0.00     0.000 C 
ATOM     19  C   UNL     1      -5.420  20.008  -6.798  1.00  0.00     0.005 C 
ATOM     20  C   UNL     1      -6.489  19.539  -7.841  1.00  0.00     0.003 C 
ATOM     21  C   UNL     1      -8.707  19.619  -6.479  1.00  0.00     0.031 C 
ATOM     22  C   UNL     1      -7.093  20.705  -8.704  1.00  0.00    -0.008 C 
ATOM     23  C   UNL     1      -8.585  21.108  -6.750  1.00  0.00    -0.027 C 
ATOM     24  C   UNL     1      -7.864  21.623  -7.769  1.00  0.00    -0.065 C 
ATOM     25  C   UNL     1      -5.973  21.494  -9.454  1.00  0.00     0.014 C 
ATOM     26  C   UNL     1      -8.068  20.138  -9.776  1.00  0.00     0.016 C 
ATOM     27  C   UNL     1      -7.670  23.118  -7.874  1.00  0.00     0.063 C 
ATOM     28  C   UNL     1      -6.464  22.796 -10.125  1.00  0.00     0.033 C 
ATOM     29  C   UNL     1      -7.563  23.561  -9.339  1.00  0.00     0.118 C 
BRANCH  29  30
ATOM     30  O   UNL     1      -8.814  23.393  -9.957  1.00  0.00    -0.393 OA
ATOM     31  H   UNL     1      -8.893  22.431 -10.190  1.00  0.00     0.210 HD
ENDBRANCH  29  30
ENDBRANCH   9  11
ENDBRANCH   1   9
TORSDOF 7
ENDMDL
MODEL 6
REMARK VINA RESULT:    -4.731      1.200      2.644
REMARK INTER + INTRA:          -7.685
REMARK INTER:                  -7.178
REMARK INTRA:                  -0.507
REMARK UNBOUND:                -1.157
REMARK SMILES CC[C@H](CC[C@@H](C)[C@H]1CC[C@@H]2[C@H]3CC=C4C[C@H](O)CC[C@@]4(C)[C@H]3CC[C@@]21C)C(C)C
REMARK SMILES IDX 5 1 4 2 3 3 2 4 1 5 28 6 29 7 30 8 6 9 7 10 8 11 9 12 26 13
REMARK SMILES IDX 10 14 11 15 25 16 27 17 12 18 24 19 23 20 13 21 21 22 14 23
REMARK SMILES IDX 15 24 20 25 22 26 16 27 19 28 17 29 18 30
REMARK H PARENT 18 31
REMARK Flexibility Score: inf
ROOT
ATOM      1  C   UNL     1      -5.744  21.440  -8.532  1.00  0.00     0.004 C 
ENDROOT
BRANCH   1   2
ATOM      2  C   UNL     1      -6.741  21.993  -9.569  1.00  0.00     0.004 C 
BRANCH   2   3
ATOM      3  C   UNL     1      -8.069  22.465  -8.918  1.00  0.00    -0.009 C 
BRANCH   3   4
ATOM      4  C   UNL     1      -8.275  21.947  -7.460  1.00  0.00     0.000 C 
ATOM      5  C   UNL     1      -9.346  20.863  -7.267  1.00  0.00     0.004 C 
ENDBRANCH   3   4
BRANCH   3   6
ATOM      6  C   UNL     1      -8.294  24.001  -9.112  1.00  0.00    -0.014 C 
ATOM      7  C   UNL     1      -9.525  24.512  -8.341  1.00  0.00     0.007 C 
ATOM      8  C   UNL     1      -7.071  24.867  -8.782  1.00  0.00     0.007 C 
ENDBRANCH   3   6
ENDBRANCH   2   3
ENDBRANCH   1   2
BRANCH   1   9
ATOM      9  C   UNL     1      -5.158  20.058  -8.935  1.00  0.00    -0.011 C 
ATOM     10  C   UNL     1      -3.629  20.047  -8.736  1.00  0.00     0.008 C 
BRANCH   9  11
ATOM     11  C   UNL     1      -5.819  18.836  -8.188  1.00  0.00    -0.002 C 
ATOM     12  C   UNL     1      -5.404  17.487  -8.787  1.00  0.00     0.005 C 
ATOM     13  C   UNL     1      -5.583  18.700  -6.632  1.00  0.00    -0.026 C 
ATOM     14  C   UNL     1      -4.353  16.909  -7.858  1.00  0.00     0.005 C 
ATOM     15  C   UNL     1      -4.630  17.472  -6.450  1.00  0.00    -0.001 C 
ATOM     16  C   UNL     1      -6.945  18.475  -5.904  1.00  0.00     0.007 C 
ATOM     17  C   UNL     1      -4.962  19.970  -5.983  1.00  0.00     0.012 C 
ATOM     18  C   UNL     1      -5.167  16.354  -5.503  1.00  0.00     0.000 C 
ATOM     19  C   UNL     1      -7.569  17.088  -6.115  1.00  0.00     0.005 C 
ATOM     20  C   UNL     1      -6.595  15.881  -5.905  1.00  0.00     0.003 C 
ATOM     21  C   UNL     1      -5.041  16.712  -3.988  1.00  0.00     0.031 C 
ATOM     22  C   UNL     1      -7.117  14.808  -4.883  1.00  0.00    -0.008 C 
ATOM     23  C   UNL     1      -6.239  16.345  -3.130  1.00  0.00    -0.027 C 
ATOM     24  C   UNL     1      -7.191  15.467  -3.516  1.00  0.00    -0.065 C 
ATOM     25  C   UNL     1      -8.515  14.257  -5.307  1.00  0.00     0.014 C 
ATOM     26  C   UNL     1      -6.136  13.602  -4.814  1.00  0.00     0.016 C 
ATOM     27  C   UNL     1      -8.428  15.278  -2.668  1.00  0.00     0.063 C 
ATOM     28  C   UNL     1      -9.198  13.383  -4.231  1.00  0.00     0.033 C 
ATOM     29  C   UNL     1      -8.951  13.839  -2.768  1.00  0.00     0.118 C 
BRANCH  29  30
ATOM     30  O   UNL     1      -8.038  12.979  -2.134  1.00  0.00    -0.393 OA
ATOM     31  H   UNL     1      -8.509  12.583  -1.355  1.00  0.00     0.210 HD
ENDBRANCH  29  30
ENDBRANCH   9  11
ENDBRANCH   1   9
TORSDOF 7
ENDMDL
MODEL 7
REMARK VINA RESULT:    -4.627      9.292     14.050
REMARK INTER + INTRA:          -7.542
REMARK INTER:                  -6.882
REMARK INTRA:                  -0.660
REMARK UNBOUND:                -1.157
REMARK SMILES CC[C@H](CC[C@@H](C)[C@H]1CC[C@@H]2[C@H]3CC=C4C[C@H](O)CC[C@@]4(C)[C@H]3CC[C@@]21C)C(C)C
REMARK SMILES IDX 5 1 4 2 3 3 2 4 1 5 28 6 29 7 30 8 6 9 7 10 8 11 9 12 26 13
REMARK SMILES IDX 10 14 11 15 25 16 27 17 12 18 24 19 23 20 13 21 21 22 14 23
REMARK SMILES IDX 15 24 20 25 22 26 16 27 19 28 17 29 18 30
REMARK H PARENT 18 31
REMARK Flexibility Score: inf
ROOT
ATOM      1  C   UNL     1     -13.596  22.661  -8.188  1.00  0.00     0.004 C 
ENDROOT
BRANCH   1   2
ATOM      2  C   UNL     1     -12.538  22.239  -9.227  1.00  0.00     0.004 C 
BRANCH   2   3
ATOM      3  C   UNL     1     -11.371  23.258  -9.327  1.00  0.00    -0.009 C 
BRANCH   3   4
ATOM      4  C   UNL     1     -11.684  24.642  -8.676  1.00  0.00     0.000 C 
ATOM      5  C   UNL     1     -12.207  25.735  -9.619  1.00  0.00     0.004 C 
ENDBRANCH   3   4
BRANCH   3   6
ATOM      6  C   UNL     1     -10.007  22.620  -8.900  1.00  0.00    -0.014 C 
ATOM      7  C   UNL     1      -9.015  23.669  -8.367  1.00  0.00     0.007 C 
ATOM      8  C   UNL     1     -10.136  21.463  -7.901  1.00  0.00     0.007 C 
ENDBRANCH   3   6
ENDBRANCH   2   3
ENDBRANCH   1   2
BRANCH   1   9
ATOM      9  C   UNL     1     -15.051  22.501  -8.709  1.00  0.00    -0.011 C 
ATOM     10  C   UNL     1     -15.614  21.123  -8.306  1.00  0.00     0.008 C 
BRANCH   9  11
ATOM     11  C   UNL     1     -16.029  23.651  -8.250  1.00  0.00    -0.002 C 
ATOM     12  C   UNL     1     -15.421  25.047  -8.434  1.00  0.00     0.005 C 
ATOM     13  C   UNL     1     -17.460  23.720  -8.915  1.00  0.00    -0.026 C 
ATOM     14  C   UNL     1     -16.048  25.627  -9.687  1.00  0.00     0.005 C 
ATOM     15  C   UNL     1     -17.440  24.982  -9.842  1.00  0.00    -0.001 C 
ATOM     16  C   UNL     1     -18.555  23.843  -7.811  1.00  0.00     0.007 C 
ATOM     17  C   UNL     1     -17.827  22.451  -9.736  1.00  0.00     0.012 C 
ATOM     18  C   UNL     1     -18.567  26.024  -9.561  1.00  0.00     0.000 C 
ATOM     19  C   UNL     1     -18.615  25.206  -7.108  1.00  0.00     0.005 C 
ATOM     20  C   UNL     1     -18.614  26.447  -8.063  1.00  0.00     0.003 C 
ATOM     21  C   UNL     1     -19.960  25.598 -10.125  1.00  0.00     0.031 C 
ATOM     22  C   UNL     1     -19.806  27.441  -7.820  1.00  0.00    -0.008 C 
ATOM     23  C   UNL     1     -21.142  25.863  -9.210  1.00  0.00    -0.027 C 
ATOM     24  C   UNL     1     -21.095  26.712  -8.160  1.00  0.00    -0.065 C 
ATOM     25  C   UNL     1     -19.830  27.945  -6.342  1.00  0.00     0.014 C 
ATOM     26  C   UNL     1     -19.670  28.688  -8.740  1.00  0.00     0.016 C 
ATOM     27  C   UNL     1     -22.269  26.799  -7.211  1.00  0.00     0.063 C 
ATOM     28  C   UNL     1     -21.107  28.731  -5.967  1.00  0.00     0.033 C 
ATOM     29  C   UNL     1     -22.410  28.215  -6.635  1.00  0.00     0.118 C 
BRANCH  29  30
ATOM     30  O   UNL     1     -22.811  29.085  -7.663  1.00  0.00    -0.393 OA
ATOM     31  H   UNL     1     -23.426  28.572  -8.250  1.00  0.00     0.210 HD
ENDBRANCH  29  30
ENDBRANCH   9  11
ENDBRANCH   1   9
TORSDOF 7
ENDMDL
MODEL 8
REMARK VINA RESULT:    -4.549      2.124      4.026
REMARK INTER + INTRA:          -7.434
REMARK INTER:                  -7.410
REMARK INTRA:                  -0.024
REMARK UNBOUND:                -1.157
REMARK SMILES CC[C@H](CC[C@@H](C)[C@H]1CC[C@@H]2[C@H]3CC=C4C[C@H](O)CC[C@@]4(C)[C@H]3CC[C@@]21C)C(C)C
REMARK SMILES IDX 5 1 4 2 3 3 2 4 1 5 28 6 29 7 30 8 6 9 7 10 8 11 9 12 26 13
REMARK SMILES IDX 10 14 11 15 25 16 27 17 12 18 24 19 23 20 13 21 21 22 14 23
REMARK SMILES IDX 15 24 20 25 22 26 16 27 19 28 17 29 18 30
REMARK H PARENT 18 31
REMARK Flexibility Score: inf
ROOT
ATOM      1  C   UNL     1      -9.938  21.128  -8.592  1.00  0.00     0.004 C 
ENDROOT
BRANCH   1   2
ATOM      2  C   UNL     1     -10.675  22.164  -9.464  1.00  0.00     0.004 C 
BRANCH   2   3
ATOM      3  C   UNL     1     -11.075  23.432  -8.663  1.00  0.00    -0.009 C 
BRANCH   3   4
ATOM      4  C   UNL     1     -10.273  24.710  -9.062  1.00  0.00     0.000 C 
ATOM      5  C   UNL     1      -8.887  24.872  -8.422  1.00  0.00     0.004 C 
ENDBRANCH   3   4
BRANCH   3   6
ATOM      6  C   UNL     1     -12.628  23.616  -8.610  1.00  0.00    -0.014 C 
ATOM      7  C   UNL     1     -13.335  22.414  -7.957  1.00  0.00     0.007 C 
ATOM      8  C   UNL     1     -13.089  24.920  -7.947  1.00  0.00     0.007 C 
ENDBRANCH   3   6
ENDBRANCH   2   3
ENDBRANCH   1   2
BRANCH   1   9
ATOM      9  C   UNL     1      -8.661  20.563  -9.275  1.00  0.00    -0.011 C 
ATOM     10  C   UNL     1      -7.716  21.715  -9.673  1.00  0.00     0.008 C 
BRANCH   9  11
ATOM     11  C   UNL     1      -7.890  19.492  -8.411  1.00  0.00    -0.002 C 
ATOM     12  C   UNL     1      -6.593  19.021  -9.082  1.00  0.00     0.005 C 
ATOM     13  C   UNL     1      -7.488  19.877  -6.934  1.00  0.00    -0.026 C 
ATOM     14  C   UNL     1      -5.459  19.744  -8.380  1.00  0.00     0.005 C 
ATOM     15  C   UNL     1      -5.932  20.049  -6.944  1.00  0.00    -0.001 C 
ATOM     16  C   UNL     1      -7.928  18.749  -5.950  1.00  0.00     0.007 C 
ATOM     17  C   UNL     1      -8.173  21.176  -6.421  1.00  0.00     0.012 C 
ATOM     18  C   UNL     1      -5.163  19.169  -5.910  1.00  0.00     0.000 C 
ATOM     19  C   UNL     1      -7.099  17.459  -6.033  1.00  0.00     0.005 C 
ATOM     20  C   UNL     1      -5.547  17.664  -6.022  1.00  0.00     0.003 C 
ATOM     21  C   UNL     1      -5.241  19.718  -4.450  1.00  0.00     0.031 C 
ATOM     22  C   UNL     1      -4.801  16.833  -4.917  1.00  0.00    -0.008 C 
ATOM     23  C   UNL     1      -5.462  18.672  -3.372  1.00  0.00    -0.027 C 
ATOM     24  C   UNL     1      -5.254  17.351  -3.562  1.00  0.00    -0.065 C 
ATOM     25  C   UNL     1      -5.105  15.307  -5.055  1.00  0.00     0.014 C 
ATOM     26  C   UNL     1      -3.261  17.020  -5.044  1.00  0.00     0.016 C 
ATOM     27  C   UNL     1      -5.646  16.365  -2.485  1.00  0.00     0.063 C 
ATOM     28  C   UNL     1      -4.605  14.458  -3.865  1.00  0.00     0.033 C 
ATOM     29  C   UNL     1      -4.709  15.150  -2.480  1.00  0.00     0.118 C 
BRANCH  29  30
ATOM     30  O   UNL     1      -3.438  15.560  -2.040  1.00  0.00    -0.393 OA
ATOM     31  H   UNL     1      -2.798  14.851  -2.309  1.00  0.00     0.210 HD
ENDBRANCH  29  30
ENDBRANCH   9  11
ENDBRANCH   1   9
TORSDOF 7
ENDMDL
MODEL 9
REMARK VINA RESULT:    -4.462      1.173      2.602
REMARK INTER + INTRA:          -7.315
REMARK INTER:                  -7.437
REMARK INTRA:                   0.123
REMARK UNBOUND:                -1.157
REMARK SMILES CC[C@H](CC[C@@H](C)[C@H]1CC[C@@H]2[C@H]3CC=C4C[C@H](O)CC[C@@]4(C)[C@H]3CC[C@@]21C)C(C)C
REMARK SMILES IDX 5 1 4 2 3 3 2 4 1 5 28 6 29 7 30 8 6 9 7 10 8 11 9 12 26 13
REMARK SMILES IDX 10 14 11 15 25 16 27 17 12 18 24 19 23 20 13 21 21 22 14 23
REMARK SMILES IDX 15 24 20 25 22 26 16 27 19 28 17 29 18 30
REMARK H PARENT 18 31
REMARK Flexibility Score: inf
ROOT
ATOM      1  C   UNL     1      -8.045  21.151  -8.221  1.00  0.00     0.004 C 
ENDROOT
BRANCH   1   2
ATOM      2  C   UNL     1      -8.088  22.182  -9.367  1.00  0.00     0.004 C 
BRANCH   2   3
ATOM      3  C   UNL     1      -9.408  23.000  -9.376  1.00  0.00    -0.009 C 
BRANCH   3   4
ATOM      4  C   UNL     1     -10.527  22.400  -8.469  1.00  0.00     0.000 C 
ATOM      5  C   UNL     1     -11.787  21.895  -9.186  1.00  0.00     0.004 C 
ENDBRANCH   3   4
BRANCH   3   6
ATOM      6  C   UNL     1      -9.141  24.529  -9.175  1.00  0.00    -0.014 C 
ATOM      7  C   UNL     1     -10.219  25.198  -8.303  1.00  0.00     0.007 C 
ATOM      8  C   UNL     1      -7.746  24.862  -8.632  1.00  0.00     0.007 C 
ENDBRANCH   3   6
ENDBRANCH   2   3
ENDBRANCH   1   2
BRANCH   1   9
ATOM      9  C   UNL     1      -7.162  19.916  -8.554  1.00  0.00    -0.011 C 
ATOM     10  C   UNL     1      -5.669  20.296  -8.493  1.00  0.00     0.008 C 
BRANCH   9  11
ATOM     11  C   UNL     1      -7.447  18.658  -7.645  1.00  0.00    -0.002 C 
ATOM     12  C   UNL     1      -7.008  17.346  -8.306  1.00  0.00     0.005 C 
ATOM     13  C   UNL     1      -6.825  18.633  -6.194  1.00  0.00    -0.026 C 
ATOM     14  C   UNL     1      -5.694  16.956  -7.656  1.00  0.00     0.005 C 
ATOM     15  C   UNL     1      -5.696  17.549  -6.232  1.00  0.00    -0.001 C 
ATOM     16  C   UNL     1      -7.926  18.270  -5.149  1.00  0.00     0.007 C 
ATOM     17  C   UNL     1      -6.246  20.003  -5.740  1.00  0.00     0.012 C 
ATOM     18  C   UNL     1      -5.829  16.420  -5.163  1.00  0.00     0.000 C 
ATOM     19  C   UNL     1      -8.385  16.806  -5.176  1.00  0.00     0.005 C 
ATOM     20  C   UNL     1      -7.232  15.747  -5.193  1.00  0.00     0.003 C 
ATOM     21  C   UNL     1      -5.390  16.866  -3.732  1.00  0.00     0.031 C 
ATOM     22  C   UNL     1      -7.338  14.668  -4.056  1.00  0.00    -0.008 C 
ATOM     23  C   UNL     1      -6.282  16.391  -2.600  1.00  0.00    -0.027 C 
ATOM     24  C   UNL     1      -7.169  15.380  -2.724  1.00  0.00    -0.065 C 
ATOM     25  C   UNL     1      -8.708  13.920  -4.112  1.00  0.00     0.014 C 
ATOM     26  C   UNL     1      -6.214  13.603  -4.210  1.00  0.00     0.016 C 
ATOM     27  C   UNL     1      -8.125  15.075  -1.593  1.00  0.00     0.063 C 
ATOM     28  C   UNL     1      -8.983  13.020  -2.885  1.00  0.00     0.033 C 
ATOM     29  C   UNL     1      -8.454  13.577  -1.537  1.00  0.00     0.118 C 
BRANCH  29  30
ATOM     30  O   UNL     1      -7.305  12.875  -1.133  1.00  0.00    -0.393 OA
ATOM     31  H   UNL     1      -6.704  13.534  -0.697  1.00  0.00     0.210 HD
ENDBRANCH  29  30
ENDBRANCH   9  11
ENDBRANCH   1   9
TORSDOF 7
ENDMDL
