MODEL 1
REMARK VINA RESULT:    -4.942      0.000      0.000
REMARK INTER + INTRA:          -5.624
REMARK INTER:                  -5.520
REMARK INTRA:                  -0.104
REMARK UNBOUND:                -0.104
REMARK SMILES CCc1ccc(O)cc1O
REMARK SMILES IDX 3 1 9 2 8 3 6 4 5 5 4 6 2 7 1 8 10 9 7 11
REMARK H PARENT 10 10 7 12
REMARK Flexibility Score: inf
ROOT
ATOM      1  C   UNL     1      -6.300  -5.485  13.875  1.00  0.00    -0.006 A 
ATOM      2  C   UNL     1      -5.820  -5.145  12.594  1.00  0.00     0.122 A 
ATOM      3  C   UNL     1      -4.583  -4.498  12.460  1.00  0.00     0.092 A 
ATOM      4  C   UNL     1      -3.826  -4.178  13.590  1.00  0.00     0.119 A 
ATOM      5  C   UNL     1      -4.308  -4.502  14.865  1.00  0.00     0.047 A 
ATOM      6  C   UNL     1      -5.538  -5.146  15.007  1.00  0.00     0.011 A 
ENDROOT
BRANCH   1   7
ATOM      7  C   UNL     1      -7.640  -6.153  14.050  1.00  0.00     0.036 C 
ATOM      8  C   UNL     1      -7.482  -7.668  14.143  1.00  0.00     0.009 C 
ENDBRANCH   1   7
BRANCH   2   9
ATOM      9  O   UNL     1      -6.574  -5.448  11.459  1.00  0.00    -0.508 OA
ATOM     10  H   UNL     1      -7.279  -6.175  11.469  1.00  0.00     0.293 HD
ENDBRANCH   2   9
BRANCH   4  11
ATOM     11  O   UNL     1      -2.599  -3.536  13.437  1.00  0.00    -0.508 OA
ATOM     12  H   UNL     1      -1.818  -3.987  12.976  1.00  0.00     0.293 HD
ENDBRANCH   4  11
TORSDOF 3
ENDMDL
MODEL 2
REMARK VINA RESULT:    -4.914      1.099      3.505
REMARK INTER + INTRA:          -5.593
REMARK INTER:                  -5.489
REMARK INTRA:                  -0.104
REMARK UNBOUND:                -0.104
REMARK SMILES CCc1ccc(O)cc1O
REMARK SMILES IDX 3 1 9 2 8 3 6 4 5 5 4 6 2 7 1 8 10 9 7 11
REMARK H PARENT 10 10 7 12
REMARK Flexibility Score: inf
ROOT
ATOM      1  C   UNL     1      -5.035  -4.645  14.987  1.00  0.00    -0.006 A 
ATOM      2  C   UNL     1      -4.242  -4.276  13.883  1.00  0.00     0.122 A 
ATOM      3  C   UNL     1      -4.717  -4.486  12.579  1.00  0.00     0.092 A 
ATOM      4  C   UNL     1      -5.968  -5.071  12.368  1.00  0.00     0.119 A 
ATOM      5  C   UNL     1      -6.751  -5.452  13.464  1.00  0.00     0.047 A 
ATOM      6  C   UNL     1      -6.286  -5.246  14.765  1.00  0.00     0.011 A 
ENDROOT
BRANCH   1   7
ATOM      7  C   UNL     1      -4.537  -4.459  16.398  1.00  0.00     0.036 C 
ATOM      8  C   UNL     1      -5.107  -3.183  17.009  1.00  0.00     0.009 C 
ENDBRANCH   1   7
BRANCH   2   9
ATOM      9  O   UNL     1      -2.985  -3.703  14.081  1.00  0.00    -0.508 OA
ATOM     10  H   UNL     1      -2.414  -3.394  13.304  1.00  0.00     0.293 HD
ENDBRANCH   2   9
BRANCH   4  11
ATOM     11  O   UNL     1      -6.423  -5.272  11.067  1.00  0.00    -0.508 OA
ATOM     12  H   UNL     1      -6.335  -4.553  10.357  1.00  0.00     0.293 HD
ENDBRANCH   4  11
TORSDOF 3
ENDMDL
MODEL 3
REMARK VINA RESULT:    -4.913      1.732      2.284
REMARK INTER + INTRA:          -5.592
REMARK INTER:                  -5.495
REMARK INTRA:                  -0.097
REMARK UNBOUND:                -0.104
REMARK SMILES CCc1ccc(O)cc1O
REMARK SMILES IDX 3 1 9 2 8 3 6 4 5 5 4 6 2 7 1 8 10 9 7 11
REMARK H PARENT 10 10 7 12
REMARK Flexibility Score: inf
ROOT
ATOM      1  C   UNL     1      -6.154  -6.150  13.625  1.00  0.00    -0.006 A 
ATOM      2  C   UNL     1      -5.344  -5.337  14.443  1.00  0.00     0.122 A 
ATOM      3  C   UNL     1      -4.070  -4.950  14.001  1.00  0.00     0.092 A 
ATOM      4  C   UNL     1      -3.593  -5.376  12.759  1.00  0.00     0.119 A 
ATOM      5  C   UNL     1      -4.390  -6.197  11.952  1.00  0.00     0.047 A 
ATOM      6  C   UNL     1      -5.660  -6.586  12.384  1.00  0.00     0.011 A 
ENDROOT
BRANCH   1   7
ATOM      7  C   UNL     1      -7.515  -6.606  14.088  1.00  0.00     0.036 C 
ATOM      8  C   UNL     1      -7.591  -8.129  14.128  1.00  0.00     0.009 C 
ENDBRANCH   1   7
BRANCH   2   9
ATOM      9  O   UNL     1      -5.805  -4.916  15.691  1.00  0.00    -0.508 OA
ATOM     10  H   UNL     1      -6.697  -5.225  16.059  1.00  0.00     0.293 HD
ENDBRANCH   2   9
BRANCH   4  11
ATOM     11  O   UNL     1      -2.325  -4.982  12.337  1.00  0.00    -0.508 OA
ATOM     12  H   UNL     1      -1.501  -5.154  12.902  1.00  0.00     0.293 HD
ENDBRANCH   4  11
TORSDOF 3
ENDMDL
MODEL 4
REMARK VINA RESULT:    -4.724      2.056      4.232
REMARK INTER + INTRA:          -5.380
REMARK INTER:                  -5.276
REMARK INTRA:                  -0.104
REMARK UNBOUND:                -0.104
REMARK SMILES CCc1ccc(O)cc1O
REMARK SMILES IDX 3 1 9 2 8 3 6 4 5 5 4 6 2 7 1 8 10 9 7 11
REMARK H PARENT 10 10 7 12
REMARK Flexibility Score: inf
ROOT
ATOM      1  C   UNL     1      -5.591  -6.326  12.546  1.00  0.00    -0.006 A 
ATOM      2  C   UNL     1      -6.406  -5.456  13.297  1.00  0.00     0.122 A 
ATOM      3  C   UNL     1      -7.392  -5.980  14.146  1.00  0.00     0.092 A 
ATOM      4  C   UNL     1      -7.580  -7.361  14.245  1.00  0.00     0.119 A 
ATOM      5  C   UNL     1      -6.781  -8.227  13.488  1.00  0.00     0.047 A 
ATOM      6  C   UNL     1      -5.797  -7.714  12.640  1.00  0.00     0.011 A 
ENDROOT
BRANCH   1   7
ATOM      7  C   UNL     1      -4.544  -5.790  11.603  1.00  0.00     0.036 C 
ATOM      8  C   UNL     1      -3.180  -5.732  12.285  1.00  0.00     0.009 C 
ENDBRANCH   1   7
BRANCH   2   9
ATOM      9  O   UNL     1      -6.236  -4.074  13.197  1.00  0.00    -0.508 OA
ATOM     10  H   UNL     1      -6.412  -3.460  13.983  1.00  0.00     0.293 HD
ENDBRANCH   2   9
BRANCH   4  11
ATOM     11  O   UNL     1      -8.564  -7.863  15.093  1.00  0.00    -0.508 OA
ATOM     12  H   UNL     1      -8.748  -8.857  15.162  1.00  0.00     0.293 HD
ENDBRANCH   4  11
TORSDOF 3
ENDMDL
MODEL 5
REMARK VINA RESULT:    -4.595      1.703      4.198
REMARK INTER + INTRA:          -5.236
REMARK INTER:                  -5.140
REMARK INTRA:                  -0.096
REMARK UNBOUND:                -0.104
REMARK SMILES CCc1ccc(O)cc1O
REMARK SMILES IDX 3 1 9 2 8 3 6 4 5 5 4 6 2 7 1 8 10 9 7 11
REMARK H PARENT 10 10 7 12
REMARK Flexibility Score: inf
ROOT
ATOM      1  C   UNL     1      -4.314  -4.926  12.968  1.00  0.00    -0.006 A 
ATOM      2  C   UNL     1      -4.611  -4.864  14.345  1.00  0.00     0.122 A 
ATOM      3  C   UNL     1      -5.867  -5.281  14.809  1.00  0.00     0.092 A 
ATOM      4  C   UNL     1      -6.833  -5.748  13.913  1.00  0.00     0.119 A 
ATOM      5  C   UNL     1      -6.545  -5.797  12.543  1.00  0.00     0.047 A 
ATOM      6  C   UNL     1      -5.297  -5.384  12.073  1.00  0.00     0.011 A 
ENDROOT
BRANCH   1   7
ATOM      7  C   UNL     1      -2.983  -4.456  12.439  1.00  0.00     0.036 C 
ATOM      8  C   UNL     1      -2.196  -5.619  11.844  1.00  0.00     0.009 C 
ENDBRANCH   1   7
BRANCH   2   9
ATOM      9  O   UNL     1      -3.659  -4.387  15.247  1.00  0.00    -0.508 OA
ATOM     10  H   UNL     1      -3.547  -4.797  16.166  1.00  0.00     0.293 HD
ENDBRANCH   2   9
BRANCH   4  11
ATOM     11  O   UNL     1      -8.075  -6.158  14.392  1.00  0.00    -0.508 OA
ATOM     12  H   UNL     1      -8.163  -6.922  15.052  1.00  0.00     0.293 HD
ENDBRANCH   4  11
TORSDOF 3
ENDMDL
MODEL 6
REMARK VINA RESULT:    -4.411      1.839      2.563
REMARK INTER + INTRA:          -5.031
REMARK INTER:                  -4.925
REMARK INTRA:                  -0.105
REMARK UNBOUND:                -0.104
REMARK SMILES CCc1ccc(O)cc1O
REMARK SMILES IDX 3 1 9 2 8 3 6 4 5 5 4 6 2 7 1 8 10 9 7 11
REMARK H PARENT 10 10 7 12
REMARK Flexibility Score: inf
ROOT
ATOM      1  C   UNL     1      -5.608  -5.050  13.103  1.00  0.00    -0.006 A 
ATOM      2  C   UNL     1      -6.154  -5.254  14.386  1.00  0.00     0.122 A 
ATOM      3  C   UNL     1      -5.483  -4.762  15.517  1.00  0.00     0.092 A 
ATOM      4  C   UNL     1      -4.271  -4.082  15.380  1.00  0.00     0.119 A 
ATOM      5  C   UNL     1      -3.720  -3.892  14.106  1.00  0.00     0.047 A 
ATOM      6  C   UNL     1      -4.381  -4.377  12.976  1.00  0.00     0.011 A 
ENDROOT
BRANCH   1   7
ATOM      7  C   UNL     1      -6.292  -5.594  11.874  1.00  0.00     0.036 C 
ATOM      8  C   UNL     1      -5.542  -6.806  11.329  1.00  0.00     0.009 C 
ENDBRANCH   1   7
BRANCH   2   9
ATOM      9  O   UNL     1      -7.358  -5.943  14.536  1.00  0.00    -0.508 OA
ATOM     10  H   UNL     1      -7.731  -6.166  15.451  1.00  0.00     0.293 HD
ENDBRANCH   2   9
BRANCH   4  11
ATOM     11  O   UNL     1      -3.619  -3.601  16.513  1.00  0.00    -0.508 OA
ATOM     12  H   UNL     1      -3.847  -2.698  16.913  1.00  0.00     0.293 HD
ENDBRANCH   4  11
TORSDOF 3
ENDMDL
MODEL 7
REMARK VINA RESULT:    -4.249     10.346     11.554
REMARK INTER + INTRA:          -4.850
REMARK INTER:                  -4.746
REMARK INTRA:                  -0.104
REMARK UNBOUND:                -0.104
REMARK SMILES CCc1ccc(O)cc1O
REMARK SMILES IDX 3 1 9 2 8 3 6 4 5 5 4 6 2 7 1 8 10 9 7 11
REMARK H PARENT 10 10 7 12
REMARK Flexibility Score: inf
ROOT
ATOM      1  C   UNL     1      -2.315  -5.648   2.550  1.00  0.00    -0.006 A 
ATOM      2  C   UNL     1      -3.696  -5.484   2.327  1.00  0.00     0.122 A 
ATOM      3  C   UNL     1      -4.610  -6.370   2.916  1.00  0.00     0.092 A 
ATOM      4  C   UNL     1      -4.159  -7.424   3.716  1.00  0.00     0.119 A 
ATOM      5  C   UNL     1      -2.785  -7.598   3.926  1.00  0.00     0.047 A 
ATOM      6  C   UNL     1      -1.869  -6.720   3.343  1.00  0.00     0.011 A 
ENDROOT
BRANCH   1   7
ATOM      7  C   UNL     1      -1.309  -4.729   1.905  1.00  0.00     0.036 C 
ATOM      8  C   UNL     1      -0.860  -3.646   2.882  1.00  0.00     0.009 C 
ENDBRANCH   1   7
BRANCH   2   9
ATOM      9  O   UNL     1      -4.158  -4.443   1.520  1.00  0.00    -0.508 OA
ATOM     10  H   UNL     1      -3.569  -4.016   0.816  1.00  0.00     0.293 HD
ENDBRANCH   2   9
BRANCH   4  11
ATOM     11  O   UNL     1      -5.081  -8.294   4.292  1.00  0.00    -0.508 OA
ATOM     12  H   UNL     1      -4.928  -9.296   4.306  1.00  0.00     0.293 HD
ENDBRANCH   4  11
TORSDOF 3
ENDMDL
MODEL 8
REMARK VINA RESULT:    -4.235      9.989     11.275
REMARK INTER + INTRA:          -4.835
REMARK INTER:                  -4.731
REMARK INTRA:                  -0.103
REMARK UNBOUND:                -0.104
REMARK SMILES CCc1ccc(O)cc1O
REMARK SMILES IDX 3 1 9 2 8 3 6 4 5 5 4 6 2 7 1 8 10 9 7 11
REMARK H PARENT 10 10 7 12
REMARK Flexibility Score: inf
ROOT
ATOM      1  C   UNL     1      -6.539  -4.229   2.859  1.00  0.00    -0.006 A 
ATOM      2  C   UNL     1      -5.889  -3.342   3.740  1.00  0.00     0.122 A 
ATOM      3  C   UNL     1      -5.531  -2.058   3.302  1.00  0.00     0.092 A 
ATOM      4  C   UNL     1      -5.804  -1.656   1.992  1.00  0.00     0.119 A 
ATOM      5  C   UNL     1      -6.436  -2.541   1.110  1.00  0.00     0.047 A 
ATOM      6  C   UNL     1      -6.796  -3.821   1.538  1.00  0.00     0.011 A 
ENDROOT
BRANCH   1   7
ATOM      7  C   UNL     1      -6.908  -5.624   3.293  1.00  0.00     0.036 C 
ATOM      8  C   UNL     1      -5.778  -6.603   2.988  1.00  0.00     0.009 C 
ENDBRANCH   1   7
BRANCH   2   9
ATOM      9  O   UNL     1      -5.600  -3.737   5.047  1.00  0.00    -0.508 OA
ATOM     10  H   UNL     1      -6.189  -3.468   5.826  1.00  0.00     0.293 HD
ENDBRANCH   2   9
BRANCH   4  11
ATOM     11  O   UNL     1      -5.440  -0.377   1.575  1.00  0.00    -0.508 OA
ATOM     12  H   UNL     1      -4.476  -0.139   1.376  1.00  0.00     0.293 HD
ENDBRANCH   4  11
TORSDOF 3
ENDMDL
MODEL 9
REMARK VINA RESULT:    -4.167     14.772     16.205
REMARK INTER + INTRA:          -4.758
REMARK INTER:                  -4.668
REMARK INTRA:                  -0.090
REMARK UNBOUND:                -0.104
REMARK SMILES CCc1ccc(O)cc1O
REMARK SMILES IDX 3 1 9 2 8 3 6 4 5 5 4 6 2 7 1 8 10 9 7 11
REMARK H PARENT 10 10 7 12
REMARK Flexibility Score: inf
ROOT
ATOM      1  C   UNL     1      -1.784   5.101   2.104  1.00  0.00    -0.006 A 
ATOM      2  C   UNL     1      -0.459   4.913   1.660  1.00  0.00     0.122 A 
ATOM      3  C   UNL     1       0.532   5.843   2.007  1.00  0.00     0.092 A 
ATOM      4  C   UNL     1       0.214   6.961   2.782  1.00  0.00     0.119 A 
ATOM      5  C   UNL     1      -1.105   7.157   3.211  1.00  0.00     0.047 A 
ATOM      6  C   UNL     1      -2.098   6.237   2.870  1.00  0.00     0.011 A 
ENDROOT
BRANCH   1   7
ATOM      7  C   UNL     1      -2.875   4.134   1.720  1.00  0.00     0.036 C 
ATOM      8  C   UNL     1      -2.969   2.995   2.731  1.00  0.00     0.009 C 
ENDBRANCH   1   7
BRANCH   2   9
ATOM      9  O   UNL     1      -0.132   3.807   0.876  1.00  0.00    -0.508 OA
ATOM     10  H   UNL     1      -0.675   3.556   0.058  1.00  0.00     0.293 HD
ENDBRANCH   2   9
BRANCH   4  11
ATOM     11  O   UNL     1       1.212   7.874   3.117  1.00  0.00    -0.508 OA
ATOM     12  H   UNL     1       0.993   8.764   3.549  1.00  0.00     0.293 HD
ENDBRANCH   4  11
TORSDOF 3
ENDMDL
