MODEL 1
REMARK VINA RESULT:    -4.113      0.000      0.000
REMARK INTER + INTRA:          -7.795
REMARK INTER:                  -6.517
REMARK INTRA:                  -1.278
REMARK UNBOUND:                -1.278
REMARK SMILES CCCCCCCCCCCC(=O)[O-]
REMARK SMILES IDX 7 1 8 2 9 3 10 4 11 5 12 6 13 7 14 8 6 9 5 10 4 11 3 12 2 13
REMARK SMILES IDX 1 14
REMARK H PARENT
REMARK Flexibility Score: inf
ROOT
ATOM      1  C   UNL     1     -38.698  22.147 -28.542  1.00  0.00     0.000 C 
ENDROOT
BRANCH   1   2
ATOM      2  C   UNL     1     -39.708  21.270 -29.299  1.00  0.00     0.000 C 
BRANCH   2   3
ATOM      3  C   UNL     1     -39.985  19.935 -28.584  1.00  0.00     0.000 C 
BRANCH   3   4
ATOM      4  C   UNL     1     -38.876  18.897 -28.823  1.00  0.00     0.006 C 
BRANCH   4   5
ATOM      5  C   UNL     1     -38.604  18.654 -30.313  1.00  0.00     0.053 C 
BRANCH   5   6
ATOM      6  C   UNL     1     -38.595  17.188 -30.609  1.00  0.00     0.041 C 
ATOM      7  O   UNL     1     -39.468  16.689 -31.367  1.00  0.00    -0.550 OA
ATOM      8  O   UNL     1     -37.592  16.379 -30.089  1.00  0.00    -0.550 OA
ENDBRANCH   5   6
ENDBRANCH   4   5
ENDBRANCH   3   4
ENDBRANCH   2   3
ENDBRANCH   1   2
BRANCH   1   9
ATOM      9  C   UNL     1     -37.357  22.281 -29.280  1.00  0.00     0.000 C 
BRANCH   9  10
ATOM     10  C   UNL     1     -36.181  22.240 -28.294  1.00  0.00    -0.000 C 
BRANCH  10  11
ATOM     11  C   UNL     1     -35.199  21.117 -28.658  1.00  0.00    -0.000 C 
BRANCH  11  12
ATOM     12  C   UNL     1     -35.410  19.843 -27.820  1.00  0.00    -0.000 C 
BRANCH  12  13
ATOM     13  C   UNL     1     -35.309  18.525 -28.609  1.00  0.00    -0.003 C 
ATOM     14  C   UNL     1     -34.898  18.731 -30.067  1.00  0.00     0.004 C 
ENDBRANCH  12  13
ENDBRANCH  11  12
ENDBRANCH  10  11
ENDBRANCH   9  10
ENDBRANCH   1   9
TORSDOF 10
ENDMDL
MODEL 2
REMARK VINA RESULT:    -4.107      2.319      3.886
REMARK INTER + INTRA:          -7.786
REMARK INTER:                  -6.232
REMARK INTRA:                  -1.554
REMARK UNBOUND:                -1.278
REMARK SMILES CCCCCCCCCCCC(=O)[O-]
REMARK SMILES IDX 7 1 8 2 9 3 10 4 11 5 12 6 13 7 14 8 6 9 5 10 4 11 3 12 2 13
REMARK SMILES IDX 1 14
REMARK H PARENT
REMARK Flexibility Score: inf
ROOT
ATOM      1  C   UNL     1     -34.814  20.650 -29.785  1.00  0.00     0.000 C 
ENDROOT
BRANCH   1   2
ATOM      2  C   UNL     1     -35.902  21.557 -30.383  1.00  0.00     0.000 C 
BRANCH   2   3
ATOM      3  C   UNL     1     -36.749  20.839 -31.448  1.00  0.00     0.000 C 
BRANCH   3   4
ATOM      4  C   UNL     1     -38.216  20.670 -31.019  1.00  0.00     0.006 C 
BRANCH   4   5
ATOM      5  C   UNL     1     -38.474  21.159 -29.588  1.00  0.00     0.053 C 
BRANCH   5   6
ATOM      6  C   UNL     1     -39.890  20.889 -29.191  1.00  0.00     0.041 C 
ATOM      7  O   UNL     1     -40.803  21.697 -29.507  1.00  0.00    -0.550 OA
ATOM      8  O   UNL     1     -40.213  19.718 -28.516  1.00  0.00    -0.550 OA
ENDBRANCH   5   6
ENDBRANCH   4   5
ENDBRANCH   3   4
ENDBRANCH   2   3
ENDBRANCH   1   2
BRANCH   1   9
ATOM      9  C   UNL     1     -35.136  20.204 -28.350  1.00  0.00     0.000 C 
BRANCH   9  10
ATOM     10  C   UNL     1     -35.927  18.889 -28.348  1.00  0.00    -0.000 C 
BRANCH  10  11
ATOM     11  C   UNL     1     -35.314  17.878 -29.328  1.00  0.00    -0.000 C 
BRANCH  11  12
ATOM     12  C   UNL     1     -36.364  17.215 -30.239  1.00  0.00    -0.000 C 
BRANCH  12  13
ATOM     13  C   UNL     1     -37.794  17.195 -29.669  1.00  0.00    -0.003 C 
ATOM     14  C   UNL     1     -38.870  17.147 -30.753  1.00  0.00     0.004 C 
ENDBRANCH  12  13
ENDBRANCH  11  12
ENDBRANCH  10  11
ENDBRANCH   9  10
ENDBRANCH   1   9
TORSDOF 10
ENDMDL
MODEL 3
REMARK VINA RESULT:    -4.100     13.648     15.130
REMARK INTER + INTRA:          -7.774
REMARK INTER:                  -6.630
REMARK INTRA:                  -1.144
REMARK UNBOUND:                -1.278
REMARK SMILES CCCCCCCCCCCC(=O)[O-]
REMARK SMILES IDX 7 1 8 2 9 3 10 4 11 5 12 6 13 7 14 8 6 9 5 10 4 11 3 12 2 13
REMARK SMILES IDX 1 14
REMARK H PARENT
REMARK Flexibility Score: inf
ROOT
ATOM      1  C   UNL     1     -51.490  16.018 -31.827  1.00  0.00     0.000 C 
ENDROOT
BRANCH   1   2
ATOM      2  C   UNL     1     -50.401  15.973 -30.743  1.00  0.00     0.000 C 
BRANCH   2   3
ATOM      3  C   UNL     1     -50.019  14.535 -30.350  1.00  0.00     0.000 C 
BRANCH   3   4
ATOM      4  C   UNL     1     -50.660  14.096 -29.023  1.00  0.00     0.006 C 
BRANCH   4   5
ATOM      5  C   UNL     1     -51.146  12.641 -29.052  1.00  0.00     0.053 C 
BRANCH   5   6
ATOM      6  C   UNL     1     -50.033  11.728 -29.459  1.00  0.00     0.041 C 
ATOM      7  O   UNL     1     -50.104  11.084 -30.539  1.00  0.00    -0.550 OA
ATOM      8  O   UNL     1     -48.893  11.626 -28.672  1.00  0.00    -0.550 OA
ENDBRANCH   5   6
ENDBRANCH   4   5
ENDBRANCH   3   4
ENDBRANCH   2   3
ENDBRANCH   1   2
BRANCH   1   9
ATOM      9  C   UNL     1     -52.676  16.915 -31.439  1.00  0.00     0.000 C 
BRANCH   9  10
ATOM     10  C   UNL     1     -52.202  18.141 -30.648  1.00  0.00    -0.000 C 
BRANCH  10  11
ATOM     11  C   UNL     1     -52.955  18.260 -29.315  1.00  0.00    -0.000 C 
BRANCH  11  12
ATOM     12  C   UNL     1     -53.982  17.132 -29.105  1.00  0.00    -0.000 C 
BRANCH  12  13
ATOM     13  C   UNL     1     -53.854  16.381 -27.768  1.00  0.00    -0.003 C 
ATOM     14  C   UNL     1     -52.542  16.673 -27.041  1.00  0.00     0.004 C 
ENDBRANCH  12  13
ENDBRANCH  11  12
ENDBRANCH  10  11
ENDBRANCH   9  10
ENDBRANCH   1   9
TORSDOF 10
ENDMDL
MODEL 4
REMARK VINA RESULT:    -4.076      2.037      3.819
REMARK INTER + INTRA:          -7.736
REMARK INTER:                  -6.285
REMARK INTRA:                  -1.451
REMARK UNBOUND:                -1.278
REMARK SMILES CCCCCCCCCCCC(=O)[O-]
REMARK SMILES IDX 7 1 8 2 9 3 10 4 11 5 12 6 13 7 14 8 6 9 5 10 4 11 3 12 2 13
REMARK SMILES IDX 1 14
REMARK H PARENT
REMARK Flexibility Score: inf
ROOT
ATOM      1  C   UNL     1     -35.746  18.136 -30.116  1.00  0.00     0.000 C 
ENDROOT
BRANCH   1   2
ATOM      2  C   UNL     1     -36.680  16.918 -30.026  1.00  0.00     0.000 C 
BRANCH   2   3
ATOM      3  C   UNL     1     -38.144  17.271 -30.343  1.00  0.00     0.000 C 
BRANCH   3   4
ATOM      4  C   UNL     1     -38.476  18.740 -30.034  1.00  0.00     0.006 C 
BRANCH   4   5
ATOM      5  C   UNL     1     -38.942  18.950 -28.588  1.00  0.00     0.053 C 
BRANCH   5   6
ATOM      6  C   UNL     1     -40.220  19.726 -28.559  1.00  0.00     0.041 C 
ATOM      7  O   UNL     1     -41.235  19.255 -27.979  1.00  0.00    -0.550 OA
ATOM      8  O   UNL     1     -40.280  20.991 -29.129  1.00  0.00    -0.550 OA
ENDBRANCH   5   6
ENDBRANCH   4   5
ENDBRANCH   3   4
ENDBRANCH   2   3
ENDBRANCH   1   2
BRANCH   1   9
ATOM      9  C   UNL     1     -34.806  18.252 -28.906  1.00  0.00     0.000 C 
BRANCH   9  10
ATOM     10  C   UNL     1     -35.290  19.339 -27.938  1.00  0.00    -0.000 C 
BRANCH  10  11
ATOM     11  C   UNL     1     -35.129  20.737 -28.554  1.00  0.00    -0.000 C 
BRANCH  11  12
ATOM     12  C   UNL     1     -36.375  21.622 -28.362  1.00  0.00    -0.000 C 
BRANCH  12  13
ATOM     13  C   UNL     1     -36.897  22.290 -29.646  1.00  0.00    -0.003 C 
ATOM     14  C   UNL     1     -36.321  21.673 -30.920  1.00  0.00     0.004 C 
ENDBRANCH  12  13
ENDBRANCH  11  12
ENDBRANCH  10  11
ENDBRANCH   9  10
ENDBRANCH   1   9
TORSDOF 10
ENDMDL
MODEL 5
REMARK VINA RESULT:    -4.059      2.468      4.161
REMARK INTER + INTRA:          -7.710
REMARK INTER:                  -6.520
REMARK INTRA:                  -1.190
REMARK UNBOUND:                -1.278
REMARK SMILES CCCCCCCCCCCC(=O)[O-]
REMARK SMILES IDX 7 1 8 2 9 3 10 4 11 5 12 6 13 7 14 8 6 9 5 10 4 11 3 12 2 13
REMARK SMILES IDX 1 14
REMARK H PARENT
REMARK Flexibility Score: inf
ROOT
ATOM      1  C   UNL     1     -38.246  18.002 -30.459  1.00  0.00     0.000 C 
ENDROOT
BRANCH   1   2
ATOM      2  C   UNL     1     -39.534  18.268 -29.663  1.00  0.00     0.000 C 
BRANCH   2   3
ATOM      3  C   UNL     1     -39.379  19.424 -28.658  1.00  0.00     0.000 C 
BRANCH   3   4
ATOM      4  C   UNL     1     -39.579  20.802 -29.309  1.00  0.00     0.006 C 
BRANCH   4   5
ATOM      5  C   UNL     1     -38.782  21.910 -28.608  1.00  0.00     0.053 C 
BRANCH   5   6
ATOM      6  C   UNL     1     -37.425  22.043 -29.221  1.00  0.00     0.041 C 
ATOM      7  O   UNL     1     -37.153  21.446 -30.296  1.00  0.00    -0.550 OA
ATOM      8  O   UNL     1     -36.473  22.867 -28.632  1.00  0.00    -0.550 OA
ENDBRANCH   5   6
ENDBRANCH   4   5
ENDBRANCH   3   4
ENDBRANCH   2   3
ENDBRANCH   1   2
BRANCH   1   9
ATOM      9  C   UNL     1     -37.569  16.679 -30.069  1.00  0.00     0.000 C 
BRANCH   9  10
ATOM     10  C   UNL     1     -36.048  16.765 -30.254  1.00  0.00    -0.000 C 
BRANCH  10  11
ATOM     11  C   UNL     1     -35.567  18.221 -30.184  1.00  0.00    -0.000 C 
BRANCH  11  12
ATOM     12  C   UNL     1     -34.461  18.436 -29.135  1.00  0.00    -0.000 C 
BRANCH  12  13
ATOM     13  C   UNL     1     -34.858  19.334 -27.950  1.00  0.00    -0.003 C 
ATOM     14  C   UNL     1     -36.128  18.864 -27.242  1.00  0.00     0.004 C 
ENDBRANCH  12  13
ENDBRANCH  11  12
ENDBRANCH  10  11
ENDBRANCH   9  10
ENDBRANCH   1   9
TORSDOF 10
ENDMDL
MODEL 6
REMARK VINA RESULT:    -4.053      2.513      5.209
REMARK INTER + INTRA:          -7.700
REMARK INTER:                  -6.325
REMARK INTRA:                  -1.375
REMARK UNBOUND:                -1.278
REMARK SMILES CCCCCCCCCCCC(=O)[O-]
REMARK SMILES IDX 7 1 8 2 9 3 10 4 11 5 12 6 13 7 14 8 6 9 5 10 4 11 3 12 2 13
REMARK SMILES IDX 1 14
REMARK H PARENT
REMARK Flexibility Score: inf
ROOT
ATOM      1  C   UNL     1     -36.085  17.703 -30.369  1.00  0.00     0.000 C 
ENDROOT
BRANCH   1   2
ATOM      2  C   UNL     1     -35.133  18.086 -29.225  1.00  0.00     0.000 C 
BRANCH   2   3
ATOM      3  C   UNL     1     -35.873  18.680 -28.014  1.00  0.00     0.000 C 
BRANCH   3   4
ATOM      4  C   UNL     1     -35.502  20.151 -27.760  1.00  0.00     0.006 C 
BRANCH   4   5
ATOM      5  C   UNL     1     -35.064  20.880 -29.037  1.00  0.00     0.053 C 
BRANCH   5   6
ATOM      6  C   UNL     1     -36.101  21.875 -29.451  1.00  0.00     0.041 C 
ATOM      7  O   UNL     1     -36.369  22.042 -30.671  1.00  0.00    -0.550 OA
ATOM      8  O   UNL     1     -36.810  22.583 -28.488  1.00  0.00    -0.550 OA
ENDBRANCH   5   6
ENDBRANCH   4   5
ENDBRANCH   3   4
ENDBRANCH   2   3
ENDBRANCH   1   2
BRANCH   1   9
ATOM      9  C   UNL     1     -37.314  16.920 -29.882  1.00  0.00     0.000 C 
BRANCH   9  10
ATOM     10  C   UNL     1     -38.612  17.570 -30.379  1.00  0.00    -0.000 C 
BRANCH  10  11
ATOM     11  C   UNL     1     -38.413  19.072 -30.630  1.00  0.00    -0.000 C 
BRANCH  11  12
ATOM     12  C   UNL     1     -39.175  19.953 -29.623  1.00  0.00    -0.000 C 
BRANCH  12  13
ATOM     13  C   UNL     1     -39.502  19.270 -28.284  1.00  0.00    -0.003 C 
ATOM     14  C   UNL     1     -41.002  19.191 -28.002  1.00  0.00     0.004 C 
ENDBRANCH  12  13
ENDBRANCH  11  12
ENDBRANCH  10  11
ENDBRANCH   9  10
ENDBRANCH   1   9
TORSDOF 10
ENDMDL
MODEL 7
REMARK VINA RESULT:    -4.043      2.674      4.175
REMARK INTER + INTRA:          -7.684
REMARK INTER:                  -6.058
REMARK INTRA:                  -1.626
REMARK UNBOUND:                -1.278
REMARK SMILES CCCCCCCCCCCC(=O)[O-]
REMARK SMILES IDX 7 1 8 2 9 3 10 4 11 5 12 6 13 7 14 8 6 9 5 10 4 11 3 12 2 13
REMARK SMILES IDX 1 14
REMARK H PARENT
REMARK Flexibility Score: inf
ROOT
ATOM      1  C   UNL     1     -39.866  19.994 -28.786  1.00  0.00     0.000 C 
ENDROOT
BRANCH   1   2
ATOM      2  C   UNL     1     -39.037  20.935 -29.675  1.00  0.00     0.000 C 
BRANCH   2   3
ATOM      3  C   UNL     1     -38.164  21.903 -28.858  1.00  0.00     0.000 C 
BRANCH   3   4
ATOM      4  C   UNL     1     -36.893  22.328 -29.611  1.00  0.00     0.006 C 
BRANCH   4   5
ATOM      5  C   UNL     1     -36.646  21.494 -30.875  1.00  0.00     0.053 C 
BRANCH   5   6
ATOM      6  C   UNL     1     -35.237  21.666 -31.347  1.00  0.00     0.041 C 
ATOM      7  O   UNL     1     -34.798  22.814 -31.626  1.00  0.00    -0.550 OA
ATOM      8  O   UNL     1     -34.391  20.567 -31.431  1.00  0.00    -0.550 OA
ENDBRANCH   5   6
ENDBRANCH   4   5
ENDBRANCH   3   4
ENDBRANCH   2   3
ENDBRANCH   1   2
BRANCH   1   9
ATOM      9  C   UNL     1     -39.761  18.523 -29.218  1.00  0.00     0.000 C 
BRANCH   9  10
ATOM     10  C   UNL     1     -38.681  18.343 -30.293  1.00  0.00    -0.000 C 
BRANCH  10  11
ATOM     11  C   UNL     1     -37.578  17.389 -29.810  1.00  0.00    -0.000 C 
BRANCH  11  12
ATOM     12  C   UNL     1     -36.297  18.126 -29.378  1.00  0.00    -0.000 C 
BRANCH  12  13
ATOM     13  C   UNL     1     -36.331  18.700 -27.951  1.00  0.00    -0.003 C 
ATOM     14  C   UNL     1     -35.182  19.667 -27.667  1.00  0.00     0.004 C 
ENDBRANCH  12  13
ENDBRANCH  11  12
ENDBRANCH  10  11
ENDBRANCH   9  10
ENDBRANCH   1   9
TORSDOF 10
ENDMDL
MODEL 8
REMARK VINA RESULT:    -4.039     13.685     15.407
REMARK INTER + INTRA:          -7.678
REMARK INTER:                  -6.187
REMARK INTRA:                  -1.491
REMARK UNBOUND:                -1.278
REMARK SMILES CCCCCCCCCCCC(=O)[O-]
REMARK SMILES IDX 7 1 8 2 9 3 10 4 11 5 12 6 13 7 14 8 6 9 5 10 4 11 3 12 2 13
REMARK SMILES IDX 1 14
REMARK H PARENT
REMARK Flexibility Score: inf
ROOT
ATOM      1  C   UNL     1     -53.024  14.517 -28.514  1.00  0.00     0.000 C 
ENDROOT
BRANCH   1   2
ATOM      2  C   UNL     1     -53.153  14.169 -30.006  1.00  0.00     0.000 C 
BRANCH   2   3
ATOM      3  C   UNL     1     -51.870  14.478 -30.798  1.00  0.00     0.000 C 
BRANCH   3   4
ATOM      4  C   UNL     1     -50.661  14.735 -29.884  1.00  0.00     0.006 C 
BRANCH   4   5
ATOM      5  C   UNL     1     -49.484  13.796 -30.180  1.00  0.00     0.053 C 
BRANCH   5   6
ATOM      6  C   UNL     1     -49.763  12.426 -29.648  1.00  0.00     0.041 C 
ATOM      7  O   UNL     1     -49.988  11.472 -30.439  1.00  0.00    -0.550 OA
ATOM      8  O   UNL     1     -49.725  12.190 -28.279  1.00  0.00    -0.550 OA
ENDBRANCH   5   6
ENDBRANCH   4   5
ENDBRANCH   3   4
ENDBRANCH   2   3
ENDBRANCH   1   2
BRANCH   1   9
ATOM      9  C   UNL     1     -53.861  15.744 -28.117  1.00  0.00     0.000 C 
BRANCH   9  10
ATOM     10  C   UNL     1     -52.965  16.871 -27.587  1.00  0.00    -0.000 C 
BRANCH  10  11
ATOM     11  C   UNL     1     -53.012  18.093 -28.515  1.00  0.00    -0.000 C 
BRANCH  11  12
ATOM     12  C   UNL     1     -51.979  18.020 -29.655  1.00  0.00    -0.000 C 
BRANCH  12  13
ATOM     13  C   UNL     1     -52.526  18.379 -31.048  1.00  0.00    -0.003 C 
ATOM     14  C   UNL     1     -53.794  17.607 -31.411  1.00  0.00     0.004 C 
ENDBRANCH  12  13
ENDBRANCH  11  12
ENDBRANCH  10  11
ENDBRANCH   9  10
ENDBRANCH   1   9
TORSDOF 10
ENDMDL
MODEL 9
REMARK VINA RESULT:    -4.010     14.210     15.131
REMARK INTER + INTRA:          -7.633
REMARK INTER:                  -6.627
REMARK INTRA:                  -1.006
REMARK UNBOUND:                -1.278
REMARK SMILES CCCCCCCCCCCC(=O)[O-]
REMARK SMILES IDX 7 1 8 2 9 3 10 4 11 5 12 6 13 7 14 8 6 9 5 10 4 11 3 12 2 13
REMARK SMILES IDX 1 14
REMARK H PARENT
REMARK Flexibility Score: inf
ROOT
ATOM      1  C   UNL     1     -51.466  15.982 -31.924  1.00  0.00     0.000 C 
ENDROOT
BRANCH   1   2
ATOM      2  C   UNL     1     -52.215  17.207 -31.375  1.00  0.00     0.000 C 
BRANCH   2   3
ATOM      3  C   UNL     1     -51.541  17.801 -30.125  1.00  0.00     0.000 C 
BRANCH   3   4
ATOM      4  C   UNL     1     -52.553  18.174 -29.030  1.00  0.00     0.006 C 
BRANCH   4   5
ATOM      5  C   UNL     1     -53.660  17.124 -28.864  1.00  0.00     0.053 C 
BRANCH   5   6
ATOM      6  C   UNL     1     -53.291  16.142 -27.798  1.00  0.00     0.041 C 
ATOM      7  O   UNL     1     -53.655  14.939 -27.889  1.00  0.00    -0.550 OA
ATOM      8  O   UNL     1     -52.501  16.541 -26.727  1.00  0.00    -0.550 OA
ENDBRANCH   5   6
ENDBRANCH   4   5
ENDBRANCH   3   4
ENDBRANCH   2   3
ENDBRANCH   1   2
BRANCH   1   9
ATOM      9  C   UNL     1     -51.621  14.741 -31.030  1.00  0.00     0.000 C 
BRANCH   9  10
ATOM     10  C   UNL     1     -50.275  14.336 -30.415  1.00  0.00    -0.000 C 
BRANCH  10  11
ATOM     11  C   UNL     1     -50.409  14.104 -28.903  1.00  0.00    -0.000 C 
BRANCH  11  12
ATOM     12  C   UNL     1     -50.387  12.612 -28.522  1.00  0.00    -0.000 C 
BRANCH  12  13
ATOM     13  C   UNL     1     -49.582  11.713 -29.476  1.00  0.00    -0.003 C 
ATOM     14  C   UNL     1     -48.406  11.015 -28.793  1.00  0.00     0.004 C 
ENDBRANCH  12  13
ENDBRANCH  11  12
ENDBRANCH  10  11
ENDBRANCH   9  10
ENDBRANCH   1   9
TORSDOF 10
ENDMDL
