MODEL 1
REMARK VINA RESULT:    -5.587      0.000      0.000
REMARK INTER + INTRA:         -12.494
REMARK INTER:                 -10.813
REMARK INTRA:                  -1.681
REMARK UNBOUND:                -1.681
REMARK SMILES CCCCCCCCCCCCCCCCCC(=O)[O-]
REMARK SMILES IDX 10 1 11 2 12 3 13 4 14 5 15 6 16 7 17 8 18 9 19 10 20 11
REMARK SMILES IDX 9 12 8 13 7 14 6 15 5 16 4 17 3 18 2 19 1 20
REMARK H PARENT
REMARK Flexibility Score: inf
ROOT
ATOM      1  C   UNL     1     -10.360 -15.231  26.105  1.00  0.00     0.000 C 
ENDROOT
BRANCH   1   2
ATOM      2  C   UNL     1      -9.075 -14.412  26.297  1.00  0.00     0.000 C 
BRANCH   2   3
ATOM      3  C   UNL     1      -7.982 -15.260  26.966  1.00  0.00     0.000 C 
BRANCH   3   4
ATOM      4  C   UNL     1      -6.755 -14.430  27.378  1.00  0.00     0.000 C 
BRANCH   4   5
ATOM      5  C   UNL     1      -6.442 -14.544  28.879  1.00  0.00     0.000 C 
BRANCH   5   6
ATOM      6  C   UNL     1      -7.150 -13.469  29.724  1.00  0.00     0.000 C 
BRANCH   6   7
ATOM      7  C   UNL     1      -6.958 -13.601  31.246  1.00  0.00     0.006 C 
BRANCH   7   8
ATOM      8  C   UNL     1      -6.433 -12.316  31.897  1.00  0.00     0.053 C 
BRANCH   8   9
ATOM      9  C   UNL     1      -4.999 -12.478  32.291  1.00  0.00     0.041 C 
ATOM     10  O   UNL     1      -4.424 -11.588  32.973  1.00  0.00    -0.550 OA
ATOM     11  O   UNL     1      -4.311 -13.634  31.949  1.00  0.00    -0.550 OA
ENDBRANCH   8   9
ENDBRANCH   7   8
ENDBRANCH   6   7
ENDBRANCH   5   6
ENDBRANCH   4   5
ENDBRANCH   3   4
ENDBRANCH   2   3
ENDBRANCH   1   2
BRANCH   1  12
ATOM     12  C   UNL     1     -10.866 -15.868  27.411  1.00  0.00     0.000 C 
BRANCH  12  13
ATOM     13  C   UNL     1     -12.374 -16.190  27.442  1.00  0.00    -0.000 C 
BRANCH  13  14
ATOM     14  C   UNL     1     -13.000 -16.247  28.847  1.00  0.00    -0.000 C 
BRANCH  14  15
ATOM     15  C   UNL     1     -12.976 -17.657  29.454  1.00  0.00    -0.000 C 
BRANCH  15  16
ATOM     16  C   UNL     1     -12.641 -17.605  30.949  1.00  0.00    -0.000 C 
BRANCH  16  17
ATOM     17  C   UNL     1     -11.402 -18.456  31.266  1.00  0.00    -0.000 C 
BRANCH  17  18
ATOM     18  C   UNL     1     -10.219 -18.165  30.326  1.00  0.00    -0.000 C 
BRANCH  18  19
ATOM     19  C   UNL     1      -9.535 -16.804  30.550  1.00  0.00    -0.003 C 
ATOM     20  C   UNL     1      -8.432 -16.856  31.605  1.00  0.00     0.004 C 
ENDBRANCH  18  19
ENDBRANCH  17  18
ENDBRANCH  16  17
ENDBRANCH  15  16
ENDBRANCH  14  15
ENDBRANCH  13  14
ENDBRANCH  12  13
ENDBRANCH   1  12
TORSDOF 16
ENDMDL
MODEL 2
REMARK VINA RESULT:    -5.539      2.505      6.519
REMARK INTER + INTRA:         -12.401
REMARK INTER:                 -11.132
REMARK INTRA:                  -1.269
REMARK UNBOUND:                -1.681
REMARK SMILES CCCCCCCCCCCCCCCCCC(=O)[O-]
REMARK SMILES IDX 10 1 11 2 12 3 13 4 14 5 15 6 16 7 17 8 18 9 19 10 20 11
REMARK SMILES IDX 9 12 8 13 7 14 6 15 5 16 4 17 3 18 2 19 1 20
REMARK H PARENT
REMARK Flexibility Score: inf
ROOT
ATOM      1  C   UNL     1      -9.322 -14.843  25.866  1.00  0.00     0.000 C 
ENDROOT
BRANCH   1   2
ATOM      2  C   UNL     1     -10.757 -15.179  26.301  1.00  0.00     0.000 C 
BRANCH   2   3
ATOM      3  C   UNL     1     -10.756 -16.014  27.590  1.00  0.00     0.000 C 
BRANCH   3   4
ATOM      4  C   UNL     1     -12.043 -16.836  27.768  1.00  0.00     0.000 C 
BRANCH   4   5
ATOM      5  C   UNL     1     -12.894 -16.352  28.954  1.00  0.00     0.000 C 
BRANCH   5   6
ATOM      6  C   UNL     1     -13.256 -17.482  29.934  1.00  0.00     0.000 C 
BRANCH   6   7
ATOM      7  C   UNL     1     -12.472 -17.474  31.259  1.00  0.00     0.006 C 
BRANCH   7   8
ATOM      8  C   UNL     1     -11.534 -18.679  31.407  1.00  0.00     0.053 C 
BRANCH   8   9
ATOM      9  C   UNL     1     -10.308 -18.491  30.572  1.00  0.00     0.041 C 
ATOM     10  O   UNL     1     -10.142 -19.172  29.526  1.00  0.00    -0.550 OA
ATOM     11  O   UNL     1      -9.370 -17.527  30.921  1.00  0.00    -0.550 OA
ENDBRANCH   8   9
ENDBRANCH   7   8
ENDBRANCH   6   7
ENDBRANCH   5   6
ENDBRANCH   4   5
ENDBRANCH   3   4
ENDBRANCH   2   3
ENDBRANCH   1   2
BRANCH   1  12
ATOM     12  C   UNL     1      -8.265 -15.297  26.888  1.00  0.00     0.000 C 
BRANCH  12  13
ATOM     13  C   UNL     1      -6.984 -14.439  26.929  1.00  0.00    -0.000 C 
BRANCH  13  14
ATOM     14  C   UNL     1      -6.545 -13.987  28.334  1.00  0.00    -0.000 C 
BRANCH  14  15
ATOM     15  C   UNL     1      -7.434 -14.557  29.448  1.00  0.00    -0.000 C 
BRANCH  15  16
ATOM     16  C   UNL     1      -6.974 -14.062  30.825  1.00  0.00    -0.000 C 
BRANCH  16  17
ATOM     17  C   UNL     1      -5.498 -14.409  31.071  1.00  0.00    -0.000 C 
BRANCH  17  18
ATOM     18  C   UNL     1      -4.595 -13.165  31.150  1.00  0.00    -0.000 C 
BRANCH  18  19
ATOM     19  C   UNL     1      -4.713 -12.362  32.457  1.00  0.00    -0.003 C 
ATOM     20  C   UNL     1      -3.424 -11.630  32.828  1.00  0.00     0.004 C 
ENDBRANCH  18  19
ENDBRANCH  17  18
ENDBRANCH  16  17
ENDBRANCH  15  16
ENDBRANCH  14  15
ENDBRANCH  13  14
ENDBRANCH  12  13
ENDBRANCH   1  12
TORSDOF 16
ENDMDL
MODEL 3
REMARK VINA RESULT:    -5.530      2.727      6.509
REMARK INTER + INTRA:         -12.383
REMARK INTER:                 -10.887
REMARK INTRA:                  -1.496
REMARK UNBOUND:                -1.681
REMARK SMILES CCCCCCCCCCCCCCCCCC(=O)[O-]
REMARK SMILES IDX 10 1 11 2 12 3 13 4 14 5 15 6 16 7 17 8 18 9 19 10 20 11
REMARK SMILES IDX 9 12 8 13 7 14 6 15 5 16 4 17 3 18 2 19 1 20
REMARK H PARENT
REMARK Flexibility Score: inf
ROOT
ATOM      1  C   UNL     1      -8.211 -13.890  26.451  1.00  0.00     0.000 C 
ENDROOT
BRANCH   1   2
ATOM      2  C   UNL     1      -9.529 -14.454  25.898  1.00  0.00     0.000 C 
BRANCH   2   3
ATOM      3  C   UNL     1     -10.095 -15.534  26.832  1.00  0.00     0.000 C 
BRANCH   3   4
ATOM      4  C   UNL     1     -11.631 -15.615  26.786  1.00  0.00     0.000 C 
BRANCH   4   5
ATOM      5  C   UNL     1     -12.189 -16.749  27.661  1.00  0.00     0.000 C 
BRANCH   5   6
ATOM      6  C   UNL     1     -12.730 -16.253  29.014  1.00  0.00     0.000 C 
BRANCH   6   7
ATOM      7  C   UNL     1     -12.349 -17.120  30.228  1.00  0.00     0.006 C 
BRANCH   7   8
ATOM      8  C   UNL     1     -10.880 -16.963  30.639  1.00  0.00     0.053 C 
BRANCH   8   9
ATOM      9  C   UNL     1     -10.155 -18.264  30.493  1.00  0.00     0.041 C 
ATOM     10  O   UNL     1     -10.398 -19.019  29.515  1.00  0.00    -0.550 OA
ATOM     11  O   UNL     1      -9.175 -18.620  31.410  1.00  0.00    -0.550 OA
ENDBRANCH   8   9
ENDBRANCH   7   8
ENDBRANCH   6   7
ENDBRANCH   5   6
ENDBRANCH   4   5
ENDBRANCH   3   4
ENDBRANCH   2   3
ENDBRANCH   1   2
BRANCH   1  12
ATOM     12  C   UNL     1      -7.359 -14.953  27.167  1.00  0.00     0.000 C 
BRANCH  12  13
ATOM     13  C   UNL     1      -6.404 -14.406  28.247  1.00  0.00    -0.000 C 
BRANCH  13  14
ATOM     14  C   UNL     1      -6.946 -14.462  29.686  1.00  0.00    -0.000 C 
BRANCH  14  15
ATOM     15  C   UNL     1      -5.860 -14.793  30.720  1.00  0.00    -0.000 C 
BRANCH  15  16
ATOM     16  C   UNL     1      -6.073 -13.996  32.014  1.00  0.00    -0.000 C 
BRANCH  16  17
ATOM     17  C   UNL     1      -6.836 -12.692  31.738  1.00  0.00    -0.000 C 
BRANCH  17  18
ATOM     18  C   UNL     1      -5.940 -11.444  31.819  1.00  0.00    -0.000 C 
BRANCH  18  19
ATOM     19  C   UNL     1      -5.775 -10.679  30.493  1.00  0.00    -0.003 C 
ATOM     20  C   UNL     1      -4.747 -11.315  29.559  1.00  0.00     0.004 C 
ENDBRANCH  18  19
ENDBRANCH  17  18
ENDBRANCH  16  17
ENDBRANCH  15  16
ENDBRANCH  14  15
ENDBRANCH  13  14
ENDBRANCH  12  13
ENDBRANCH   1  12
TORSDOF 16
ENDMDL
MODEL 4
REMARK VINA RESULT:    -5.509      1.407      3.937
REMARK INTER + INTRA:         -12.342
REMARK INTER:                 -10.468
REMARK INTRA:                  -1.874
REMARK UNBOUND:                -1.681
REMARK SMILES CCCCCCCCCCCCCCCCCC(=O)[O-]
REMARK SMILES IDX 10 1 11 2 12 3 13 4 14 5 15 6 16 7 17 8 18 9 19 10 20 11
REMARK SMILES IDX 9 12 8 13 7 14 6 15 5 16 4 17 3 18 2 19 1 20
REMARK H PARENT
REMARK Flexibility Score: inf
ROOT
ATOM      1  C   UNL     1     -11.374 -17.279  30.809  1.00  0.00     0.000 C 
ENDROOT
BRANCH   1   2
ATOM      2  C   UNL     1      -9.859 -17.538  30.816  1.00  0.00     0.000 C 
BRANCH   2   3
ATOM      3  C   UNL     1      -9.080 -16.231  30.608  1.00  0.00     0.000 C 
BRANCH   3   4
ATOM      4  C   UNL     1      -7.898 -16.082  31.582  1.00  0.00     0.000 C 
BRANCH   4   5
ATOM      5  C   UNL     1      -6.828 -15.106  31.066  1.00  0.00     0.000 C 
BRANCH   5   6
ATOM      6  C   UNL     1      -7.292 -13.638  31.088  1.00  0.00     0.000 C 
BRANCH   6   7
ATOM      7  C   UNL     1      -6.250 -12.631  31.607  1.00  0.00     0.006 C 
BRANCH   7   8
ATOM      8  C   UNL     1      -5.926 -11.528  30.591  1.00  0.00     0.053 C 
BRANCH   8   9
ATOM      9  C   UNL     1      -4.671 -11.855  29.846  1.00  0.00     0.041 C 
ATOM     10  O   UNL     1      -4.102 -10.977  29.145  1.00  0.00    -0.550 OA
ATOM     11  O   UNL     1      -4.101 -13.116  29.966  1.00  0.00    -0.550 OA
ENDBRANCH   8   9
ENDBRANCH   7   8
ENDBRANCH   6   7
ENDBRANCH   5   6
ENDBRANCH   4   5
ENDBRANCH   3   4
ENDBRANCH   2   3
ENDBRANCH   1   2
BRANCH   1  12
ATOM     12  C   UNL     1     -11.769 -16.069  29.944  1.00  0.00     0.000 C 
BRANCH  12  13
ATOM     13  C   UNL     1     -12.914 -16.326  28.942  1.00  0.00    -0.000 C 
BRANCH  13  14
ATOM     14  C   UNL     1     -12.496 -16.332  27.461  1.00  0.00    -0.000 C 
BRANCH  14  15
ATOM     15  C   UNL     1     -11.018 -15.971  27.257  1.00  0.00    -0.000 C 
BRANCH  15  16
ATOM     16  C   UNL     1     -10.858 -14.920  26.151  1.00  0.00    -0.000 C 
BRANCH  16  17
ATOM     17  C   UNL     1      -9.374 -14.651  25.858  1.00  0.00    -0.000 C 
BRANCH  17  18
ATOM     18  C   UNL     1      -8.436 -15.243  26.924  1.00  0.00    -0.000 C 
BRANCH  18  19
ATOM     19  C   UNL     1      -7.481 -14.230  27.582  1.00  0.00    -0.003 C 
ATOM     20  C   UNL     1      -6.009 -14.525  27.300  1.00  0.00     0.004 C 
ENDBRANCH  18  19
ENDBRANCH  17  18
ENDBRANCH  16  17
ENDBRANCH  15  16
ENDBRANCH  14  15
ENDBRANCH  13  14
ENDBRANCH  12  13
ENDBRANCH   1  12
TORSDOF 16
ENDMDL
MODEL 5
REMARK VINA RESULT:    -5.422      2.738      6.795
REMARK INTER + INTRA:         -12.174
REMARK INTER:                 -10.697
REMARK INTRA:                  -1.476
REMARK UNBOUND:                -1.681
REMARK SMILES CCCCCCCCCCCCCCCCCC(=O)[O-]
REMARK SMILES IDX 10 1 11 2 12 3 13 4 14 5 15 6 16 7 17 8 18 9 19 10 20 11
REMARK SMILES IDX 9 12 8 13 7 14 6 15 5 16 4 17 3 18 2 19 1 20
REMARK H PARENT
REMARK Flexibility Score: inf
ROOT
ATOM      1  C   UNL     1      -6.800 -14.468  26.686  1.00  0.00     0.000 C 
ENDROOT
BRANCH   1   2
ATOM      2  C   UNL     1      -8.161 -15.093  27.028  1.00  0.00     0.000 C 
BRANCH   2   3
ATOM      3  C   UNL     1      -9.280 -14.461  26.186  1.00  0.00     0.000 C 
BRANCH   3   4
ATOM      4  C   UNL     1     -10.604 -15.238  26.277  1.00  0.00     0.000 C 
BRANCH   4   5
ATOM      5  C   UNL     1     -10.757 -15.989  27.610  1.00  0.00     0.000 C 
BRANCH   5   6
ATOM      6  C   UNL     1     -12.177 -16.542  27.828  1.00  0.00     0.000 C 
BRANCH   6   7
ATOM      7  C   UNL     1     -12.295 -17.635  28.906  1.00  0.00     0.006 C 
BRANCH   7   8
ATOM      8  C   UNL     1     -10.981 -18.391  29.138  1.00  0.00     0.053 C 
BRANCH   8   9
ATOM      9  C   UNL     1     -10.444 -18.097  30.503  1.00  0.00     0.041 C 
ATOM     10  O   UNL     1     -10.707 -17.001  31.066  1.00  0.00    -0.550 OA
ATOM     11  O   UNL     1      -9.694 -19.053  31.175  1.00  0.00    -0.550 OA
ENDBRANCH   8   9
ENDBRANCH   7   8
ENDBRANCH   6   7
ENDBRANCH   5   6
ENDBRANCH   4   5
ENDBRANCH   3   4
ENDBRANCH   2   3
ENDBRANCH   1   2
BRANCH   1  12
ATOM     12  C   UNL     1      -5.803 -14.528  27.857  1.00  0.00     0.000 C 
BRANCH  12  13
ATOM     13  C   UNL     1      -5.852 -13.325  28.820  1.00  0.00    -0.000 C 
BRANCH  13  14
ATOM     14  C   UNL     1      -6.723 -13.527  30.073  1.00  0.00    -0.000 C 
BRANCH  14  15
ATOM     15  C   UNL     1      -6.054 -14.421  31.127  1.00  0.00    -0.000 C 
BRANCH  15  16
ATOM     16  C   UNL     1      -6.181 -13.807  32.527  1.00  0.00    -0.000 C 
BRANCH  16  17
ATOM     17  C   UNL     1      -5.261 -12.586  32.679  1.00  0.00    -0.000 C 
BRANCH  17  18
ATOM     18  C   UNL     1      -3.810 -12.873  32.254  1.00  0.00    -0.000 C 
BRANCH  18  19
ATOM     19  C   UNL     1      -3.224 -11.875  31.239  1.00  0.00    -0.003 C 
ATOM     20  C   UNL     1      -4.164 -10.709  30.935  1.00  0.00     0.004 C 
ENDBRANCH  18  19
ENDBRANCH  17  18
ENDBRANCH  16  17
ENDBRANCH  15  16
ENDBRANCH  14  15
ENDBRANCH  13  14
ENDBRANCH  12  13
ENDBRANCH   1  12
TORSDOF 16
ENDMDL
MODEL 6
REMARK VINA RESULT:    -5.401      1.920      3.086
REMARK INTER + INTRA:         -12.134
REMARK INTER:                 -11.203
REMARK INTRA:                  -0.931
REMARK UNBOUND:                -1.681
REMARK SMILES CCCCCCCCCCCCCCCCCC(=O)[O-]
REMARK SMILES IDX 10 1 11 2 12 3 13 4 14 5 15 6 16 7 17 8 18 9 19 10 20 11
REMARK SMILES IDX 9 12 8 13 7 14 6 15 5 16 4 17 3 18 2 19 1 20
REMARK H PARENT
REMARK Flexibility Score: inf
ROOT
ATOM      1  C   UNL     1     -10.761 -15.996  27.636  1.00  0.00     0.000 C 
ENDROOT
BRANCH   1   2
ATOM      2  C   UNL     1     -10.646 -15.233  26.308  1.00  0.00     0.000 C 
BRANCH   2   3
ATOM      3  C   UNL     1      -9.330 -14.443  26.243  1.00  0.00     0.000 C 
BRANCH   3   4
ATOM      4  C   UNL     1      -8.107 -15.293  26.627  1.00  0.00     0.000 C 
BRANCH   4   5
ATOM      5  C   UNL     1      -6.801 -14.481  26.628  1.00  0.00     0.000 C 
BRANCH   5   6
ATOM      6  C   UNL     1      -6.055 -14.544  27.973  1.00  0.00     0.000 C 
BRANCH   6   7
ATOM      7  C   UNL     1      -6.927 -14.290  29.216  1.00  0.00     0.006 C 
BRANCH   7   8
ATOM      8  C   UNL     1      -6.458 -13.084  30.039  1.00  0.00     0.053 C 
BRANCH   8   9
ATOM      9  C   UNL     1      -6.680 -13.329  31.498  1.00  0.00     0.041 C 
ATOM     10  O   UNL     1      -6.730 -12.361  32.303  1.00  0.00    -0.550 OA
ATOM     11  O   UNL     1      -6.882 -14.622  31.963  1.00  0.00    -0.550 OA
ENDBRANCH   8   9
ENDBRANCH   7   8
ENDBRANCH   6   7
ENDBRANCH   5   6
ENDBRANCH   4   5
ENDBRANCH   3   4
ENDBRANCH   2   3
ENDBRANCH   1   2
BRANCH   1  12
ATOM     12  C   UNL     1     -12.030 -16.863  27.720  1.00  0.00     0.000 C 
BRANCH  12  13
ATOM     13  C   UNL     1     -13.087 -16.380  28.734  1.00  0.00    -0.000 C 
BRANCH  13  14
ATOM     14  C   UNL     1     -13.221 -17.246  29.999  1.00  0.00    -0.000 C 
BRANCH  14  15
ATOM     15  C   UNL     1     -11.972 -17.197  30.891  1.00  0.00    -0.000 C 
BRANCH  15  16
ATOM     16  C   UNL     1     -11.660 -18.581  31.475  1.00  0.00    -0.000 C 
BRANCH  16  17
ATOM     17  C   UNL     1     -12.860 -19.131  32.260  1.00  0.00    -0.000 C 
BRANCH  17  18
ATOM     18  C   UNL     1     -12.459 -20.180  33.311  1.00  0.00    -0.000 C 
BRANCH  18  19
ATOM     19  C   UNL     1     -13.504 -20.424  34.415  1.00  0.00    -0.003 C 
ATOM     20  C   UNL     1     -14.830 -20.956  33.876  1.00  0.00     0.004 C 
ENDBRANCH  18  19
ENDBRANCH  17  18
ENDBRANCH  16  17
ENDBRANCH  15  16
ENDBRANCH  14  15
ENDBRANCH  13  14
ENDBRANCH  12  13
ENDBRANCH   1  12
TORSDOF 16
ENDMDL
MODEL 7
REMARK VINA RESULT:    -5.343      2.814      7.602
REMARK INTER + INTRA:         -12.021
REMARK INTER:                 -10.997
REMARK INTRA:                  -1.024
REMARK UNBOUND:                -1.681
REMARK SMILES CCCCCCCCCCCCCCCCCC(=O)[O-]
REMARK SMILES IDX 10 1 11 2 12 3 13 4 14 5 15 6 16 7 17 8 18 9 19 10 20 11
REMARK SMILES IDX 9 12 8 13 7 14 6 15 5 16 4 17 3 18 2 19 1 20
REMARK H PARENT
REMARK Flexibility Score: inf
ROOT
ATOM      1  C   UNL     1      -9.504 -16.782  30.755  1.00  0.00     0.000 C 
ENDROOT
BRANCH   1   2
ATOM      2  C   UNL     1      -9.872 -18.272  30.820  1.00  0.00     0.000 C 
BRANCH   2   3
ATOM      3  C   UNL     1     -11.382 -18.454  31.033  1.00  0.00     0.000 C 
BRANCH   3   4
ATOM      4  C   UNL     1     -12.170 -18.483  29.713  1.00  0.00     0.000 C 
BRANCH   4   5
ATOM      5  C   UNL     1     -13.212 -17.356  29.622  1.00  0.00     0.000 C 
BRANCH   5   6
ATOM      6  C   UNL     1     -12.799 -16.232  28.655  1.00  0.00     0.000 C 
BRANCH   6   7
ATOM      7  C   UNL     1     -11.594 -16.556  27.752  1.00  0.00     0.006 C 
BRANCH   7   8
ATOM      8  C   UNL     1     -11.446 -15.580  26.579  1.00  0.00     0.053 C 
BRANCH   8   9
ATOM      9  C   UNL     1     -10.036 -15.090  26.483  1.00  0.00     0.041 C 
ATOM     10  O   UNL     1      -9.720 -14.230  25.618  1.00  0.00    -0.550 OA
ATOM     11  O   UNL     1      -9.079 -15.544  27.382  1.00  0.00    -0.550 OA
ENDBRANCH   8   9
ENDBRANCH   7   8
ENDBRANCH   6   7
ENDBRANCH   5   6
ENDBRANCH   4   5
ENDBRANCH   3   4
ENDBRANCH   2   3
ENDBRANCH   1   2
BRANCH   1  12
ATOM     12  C   UNL     1      -8.199 -16.455  31.504  1.00  0.00     0.000 C 
BRANCH  12  13
ATOM     13  C   UNL     1      -7.412 -15.249  30.950  1.00  0.00    -0.000 C 
BRANCH  13  14
ATOM     14  C   UNL     1      -6.714 -14.382  32.013  1.00  0.00    -0.000 C 
BRANCH  14  15
ATOM     15  C   UNL     1      -5.716 -13.384  31.407  1.00  0.00    -0.000 C 
BRANCH  15  16
ATOM     16  C   UNL     1      -5.855 -12.004  32.061  1.00  0.00    -0.000 C 
BRANCH  16  17
ATOM     17  C   UNL     1      -4.507 -11.520  32.617  1.00  0.00    -0.000 C 
BRANCH  17  18
ATOM     18  C   UNL     1      -3.457 -12.641  32.704  1.00  0.00    -0.000 C 
BRANCH  18  19
ATOM     19  C   UNL     1      -2.018 -12.162  32.962  1.00  0.00    -0.003 C 
ATOM     20  C   UNL     1      -1.081 -13.288  33.395  1.00  0.00     0.004 C 
ENDBRANCH  18  19
ENDBRANCH  17  18
ENDBRANCH  16  17
ENDBRANCH  15  16
ENDBRANCH  14  15
ENDBRANCH  13  14
ENDBRANCH  12  13
ENDBRANCH   1  12
TORSDOF 16
ENDMDL
MODEL 8
REMARK VINA RESULT:    -5.332      4.538      7.897
REMARK INTER + INTRA:         -12.001
REMARK INTER:                 -10.689
REMARK INTRA:                  -1.312
REMARK UNBOUND:                -1.681
REMARK SMILES CCCCCCCCCCCCCCCCCC(=O)[O-]
REMARK SMILES IDX 10 1 11 2 12 3 13 4 14 5 15 6 16 7 17 8 18 9 19 10 20 11
REMARK SMILES IDX 9 12 8 13 7 14 6 15 5 16 4 17 3 18 2 19 1 20
REMARK H PARENT
REMARK Flexibility Score: inf
ROOT
ATOM      1  C   UNL     1     -10.813 -17.089  28.763  1.00  0.00     0.000 C 
ENDROOT
BRANCH   1   2
ATOM      2  C   UNL     1     -12.228 -16.912  28.192  1.00  0.00     0.000 C 
BRANCH   2   3
ATOM      3  C   UNL     1     -13.255 -16.736  29.320  1.00  0.00     0.000 C 
BRANCH   3   4
ATOM      4  C   UNL     1     -13.502 -18.033  30.109  1.00  0.00     0.000 C 
BRANCH   4   5
ATOM      5  C   UNL     1     -13.120 -17.904  31.592  1.00  0.00     0.000 C 
BRANCH   5   6
ATOM      6  C   UNL     1     -12.099 -18.964  32.044  1.00  0.00     0.000 C 
BRANCH   6   7
ATOM      7  C   UNL     1     -12.563 -19.868  33.201  1.00  0.00     0.006 C 
BRANCH   7   8
ATOM      8  C   UNL     1     -13.788 -20.719  32.841  1.00  0.00     0.053 C 
BRANCH   8   9
ATOM      9  C   UNL     1     -14.732 -20.790  33.999  1.00  0.00     0.041 C 
ATOM     10  O   UNL     1     -15.898 -21.241  33.840  1.00  0.00    -0.550 OA
ATOM     11  O   UNL     1     -14.311 -20.404  35.265  1.00  0.00    -0.550 OA
ENDBRANCH   8   9
ENDBRANCH   7   8
ENDBRANCH   6   7
ENDBRANCH   5   6
ENDBRANCH   4   5
ENDBRANCH   3   4
ENDBRANCH   2   3
ENDBRANCH   1   2
BRANCH   1  12
ATOM     12  C   UNL     1      -9.835 -16.002  28.284  1.00  0.00     0.000 C 
BRANCH  12  13
ATOM     13  C   UNL     1     -10.178 -15.367  26.921  1.00  0.00    -0.000 C 
BRANCH  13  14
ATOM     14  C   UNL     1      -8.999 -14.689  26.202  1.00  0.00    -0.000 C 
BRANCH  14  15
ATOM     15  C   UNL     1      -7.637 -15.266  26.614  1.00  0.00    -0.000 C 
BRANCH  15  16
ATOM     16  C   UNL     1      -6.688 -14.154  27.080  1.00  0.00    -0.000 C 
BRANCH  16  17
ATOM     17  C   UNL     1      -6.198 -14.413  28.513  1.00  0.00    -0.000 C 
BRANCH  17  18
ATOM     18  C   UNL     1      -6.726 -13.379  29.522  1.00  0.00    -0.000 C 
BRANCH  18  19
ATOM     19  C   UNL     1      -7.010 -13.935  30.929  1.00  0.00    -0.003 C 
ATOM     20  C   UNL     1      -7.520 -15.375  30.912  1.00  0.00     0.004 C 
ENDBRANCH  18  19
ENDBRANCH  17  18
ENDBRANCH  16  17
ENDBRANCH  15  16
ENDBRANCH  14  15
ENDBRANCH  13  14
ENDBRANCH  12  13
ENDBRANCH   1  12
TORSDOF 16
ENDMDL
MODEL 9
REMARK VINA RESULT:    -5.267      3.563      7.530
REMARK INTER + INTRA:         -11.874
REMARK INTER:                  -9.911
REMARK INTRA:                  -1.963
REMARK UNBOUND:                -1.681
REMARK SMILES CCCCCCCCCCCCCCCCCC(=O)[O-]
REMARK SMILES IDX 10 1 11 2 12 3 13 4 14 5 15 6 16 7 17 8 18 9 19 10 20 11
REMARK SMILES IDX 9 12 8 13 7 14 6 15 5 16 4 17 3 18 2 19 1 20
REMARK H PARENT
REMARK Flexibility Score: inf
ROOT
ATOM      1  C   UNL     1      -7.025 -14.796  29.228  1.00  0.00     0.000 C 
ENDROOT
BRANCH   1   2
ATOM      2  C   UNL     1      -6.366 -14.155  27.997  1.00  0.00     0.000 C 
BRANCH   2   3
ATOM      3  C   UNL     1      -7.314 -14.189  26.789  1.00  0.00     0.000 C 
BRANCH   3   4
ATOM      4  C   UNL     1      -8.455 -15.207  26.956  1.00  0.00     0.000 C 
BRANCH   4   5
ATOM      5  C   UNL     1      -9.731 -14.794  26.206  1.00  0.00     0.000 C 
BRANCH   5   6
ATOM      6  C   UNL     1     -10.979 -15.564  26.674  1.00  0.00     0.000 C 
BRANCH   6   7
ATOM      7  C   UNL     1     -10.831 -16.290  28.024  1.00  0.00     0.006 C 
BRANCH   7   8
ATOM      8  C   UNL     1     -12.154 -16.401  28.792  1.00  0.00     0.053 C 
BRANCH   8   9
ATOM      9  C   UNL     1     -12.393 -17.814  29.219  1.00  0.00     0.041 C 
ATOM     10  O   UNL     1     -13.380 -18.098  29.948  1.00  0.00    -0.550 OA
ATOM     11  O   UNL     1     -11.555 -18.827  28.770  1.00  0.00    -0.550 OA
ENDBRANCH   8   9
ENDBRANCH   7   8
ENDBRANCH   6   7
ENDBRANCH   5   6
ENDBRANCH   4   5
ENDBRANCH   3   4
ENDBRANCH   2   3
ENDBRANCH   1   2
BRANCH   1  12
ATOM     12  C   UNL     1      -7.424 -13.765  30.298  1.00  0.00     0.000 C 
BRANCH  12  13
ATOM     13  C   UNL     1      -6.524 -13.739  31.550  1.00  0.00    -0.000 C 
BRANCH  13  14
ATOM     14  C   UNL     1      -6.166 -12.335  32.068  1.00  0.00    -0.000 C 
BRANCH  14  15
ATOM     15  C   UNL     1      -6.048 -11.296  30.943  1.00  0.00    -0.000 C 
BRANCH  15  16
ATOM     16  C   UNL     1      -4.590 -10.864  30.746  1.00  0.00    -0.000 C 
BRANCH  16  17
ATOM     17  C   UNL     1      -4.111 -11.177  29.320  1.00  0.00    -0.000 C 
BRANCH  17  18
ATOM     18  C   UNL     1      -2.942 -12.177  29.286  1.00  0.00    -0.000 C 
BRANCH  18  19
ATOM     19  C   UNL     1      -3.311 -13.617  29.686  1.00  0.00    -0.003 C 
ATOM     20  C   UNL     1      -2.730 -14.030  31.038  1.00  0.00     0.004 C 
ENDBRANCH  18  19
ENDBRANCH  17  18
ENDBRANCH  16  17
ENDBRANCH  15  16
ENDBRANCH  14  15
ENDBRANCH  13  14
ENDBRANCH  12  13
ENDBRANCH   1  12
TORSDOF 16
ENDMDL
