MODEL 1
REMARK VINA RESULT:    -3.875      0.000      0.000
REMARK INTER + INTRA:          -4.275
REMARK INTER:                  -4.781
REMARK INTRA:                   0.506
REMARK UNBOUND:                 0.506
REMARK SMILES C=C1[C@H]2CC[C@@H]3[C@@H]2C(C)(C)CCC[C@]13C
REMARK SMILES IDX 14 1 6 2 7 3 3 4 2 5 1 6 4 7 5 8 15 9 8 10 9 11 10 12 11 13
REMARK SMILES IDX 13 15 12 16
REMARK H PARENT
REMARK Flexibility Score: 80.00
ROOT
ATOM      1  C   UNL     1      20.166  64.387  15.587  1.00  0.00    -0.008 C 
ATOM      2  C   UNL     1      21.611  64.840  15.741  1.00  0.00     0.003 C 
ATOM      3  C   UNL     1      22.292  63.459  15.794  1.00  0.00     0.006 C 
ATOM      4  C   UNL     1      21.912  63.093  14.370  1.00  0.00     0.019 C 
ATOM      5  C   UNL     1      20.387  63.307  14.515  1.00  0.00    -0.068 C 
ATOM      6  C   UNL     1      19.439  62.615  13.875  1.00  0.00     0.009 C 
ATOM      7  C   UNL     1      22.459  64.253  13.549  1.00  0.00     0.008 C 
ATOM      8  C   UNL     1      22.238  65.456  14.468  1.00  0.00     0.005 C 
ATOM      9  C   UNL     1      19.232  65.499  15.064  1.00  0.00     0.016 C 
ENDROOT
BRANCH   3  10
ATOM     10  C   UNL     1      23.137  63.321  17.079  1.00  0.00    -0.032 C 
ATOM     11  C   UNL     1      23.787  61.914  17.190  1.00  0.00     0.011 C 
ATOM     12  C   UNL     1      24.281  64.359  17.106  1.00  0.00     0.011 C 
BRANCH  10  13
ATOM     13  C   UNL     1      22.124  63.565  18.290  1.00  0.00     0.007 CG0
ATOM     14  G   UNL     1      20.614  63.118  18.061  1.00  0.00     0.000 G0
ENDBRANCH  10  13
ENDBRANCH   3  10
BRANCH   1  15
ATOM     15  C   UNL     1      19.676  63.908  17.030  1.00  0.00     0.011 C 
BRANCH  15  16
ATOM     16  C   UNL     1      20.610  63.128  18.065  1.00  0.00     0.001 CG0
ATOM     17  G   UNL     1      22.125  63.558  18.289  1.00  0.00     0.000 G0
ENDBRANCH  15  16
ENDBRANCH   1  15
TORSDOF 0
ENDMDL
MODEL 2
REMARK VINA RESULT:    -3.378      1.939      4.408
REMARK INTER + INTRA:          -3.662
REMARK INTER:                  -4.175
REMARK INTRA:                   0.513
REMARK UNBOUND:                 0.506
REMARK SMILES C=C1[C@H]2CC[C@@H]3[C@@H]2C(C)(C)CCC[C@]13C
REMARK SMILES IDX 14 1 6 2 7 3 3 4 2 5 1 6 4 7 5 8 15 9 8 10 9 11 10 12 11 13
REMARK SMILES IDX 13 15 12 16
REMARK H PARENT
REMARK Flexibility Score: 80.00
ROOT
ATOM      1  C   UNL     1      22.265  64.882  16.640  1.00  0.00    -0.008 C 
ATOM      2  C   UNL     1      20.756  65.076  16.612  1.00  0.00     0.003 C 
ATOM      3  C   UNL     1      20.358  63.762  15.913  1.00  0.00     0.006 C 
ATOM      4  C   UNL     1      20.843  62.879  17.050  1.00  0.00     0.019 C 
ATOM      5  C   UNL     1      22.292  63.418  17.108  1.00  0.00    -0.068 C 
ATOM      6  C   UNL     1      23.375  62.707  17.435  1.00  0.00     0.009 C 
ATOM      7  C   UNL     1      20.103  63.426  18.262  1.00  0.00     0.008 C 
ATOM      8  C   UNL     1      20.057  64.930  17.985  1.00  0.00     0.005 C 
ATOM      9  C   UNL     1      22.977  65.800  17.657  1.00  0.00     0.016 C 
ENDROOT
BRANCH   3  10
ATOM     10  C   UNL     1      19.520  64.053  14.649  1.00  0.00    -0.032 C 
ATOM     11  C   UNL     1      19.176  62.750  13.875  1.00  0.00     0.011 C 
ATOM     12  C   UNL     1      18.183  64.737  15.014  1.00  0.00     0.011 C 
BRANCH  10  13
ATOM     13  C   UNL     1      20.420  65.017  13.747  1.00  0.00     0.007 CG0
ATOM     14  G   UNL     1      21.996  64.820  13.841  1.00  0.00     0.000 G0
ENDBRANCH  10  13
ENDBRANCH   3  10
BRANCH   1  15
ATOM     15  C   UNL     1      22.798  65.198  15.167  1.00  0.00     0.011 C 
BRANCH  15  16
ATOM     16  C   UNL     1      21.994  64.823  13.839  1.00  0.00     0.001 CG0
ATOM     17  G   UNL     1      20.417  65.015  13.752  1.00  0.00     0.000 G0
ENDBRANCH  15  16
ENDBRANCH   1  15
TORSDOF 0
ENDMDL
MODEL 3
REMARK VINA RESULT:    -3.324      1.483      3.030
REMARK INTER + INTRA:          -3.595
REMARK INTER:                  -4.107
REMARK INTRA:                   0.512
REMARK UNBOUND:                 0.506
REMARK SMILES C=C1[C@H]2CC[C@@H]3[C@@H]2C(C)(C)CCC[C@]13C
REMARK SMILES IDX 14 1 6 2 7 3 3 4 2 5 1 6 4 7 5 8 15 9 8 10 9 11 10 12 11 13
REMARK SMILES IDX 13 15 12 16
REMARK H PARENT
REMARK Flexibility Score: 80.00
ROOT
ATOM      1  C   UNL     1      20.773  63.496  14.605  1.00  0.00    -0.008 C 
ATOM      2  C   UNL     1      20.751  63.329  16.117  1.00  0.00     0.003 C 
ATOM      3  C   UNL     1      21.806  64.387  16.491  1.00  0.00     0.006 C 
ATOM      4  C   UNL     1      20.974  65.555  15.990  1.00  0.00     0.019 C 
ATOM      5  C   UNL     1      20.753  65.032  14.551  1.00  0.00    -0.068 C 
ATOM      6  C   UNL     1      20.643  65.789  13.456  1.00  0.00     0.009 C 
ATOM      7  C   UNL     1      19.658  65.399  16.740  1.00  0.00     0.008 C 
ATOM      8  C   UNL     1      19.484  63.881  16.813  1.00  0.00     0.005 C 
ATOM      9  C   UNL     1      19.529  62.903  13.908  1.00  0.00     0.016 C 
ENDROOT
BRANCH   3  10
ATOM     10  C   UNL     1      22.933  63.753  17.335  1.00  0.00    -0.032 C 
ATOM     11  C   UNL     1      24.054  64.781  17.660  1.00  0.00     0.011 C 
ATOM     12  C   UNL     1      22.390  63.225  18.681  1.00  0.00     0.011 C 
BRANCH  10  13
ATOM     13  C   UNL     1      23.513  62.556  16.450  1.00  0.00     0.007 CG0
ATOM     14  G   UNL     1      23.480  62.752  14.871  1.00  0.00     0.000 G0
ENDBRANCH  10  13
ENDBRANCH   3  10
BRANCH   1  15
ATOM     15  C   UNL     1      22.087  62.754  14.077  1.00  0.00     0.011 C 
BRANCH  15  16
ATOM     16  C   UNL     1      23.473  62.745  14.871  1.00  0.00     0.001 CG0
ATOM     17  G   UNL     1      23.513  62.562  16.451  1.00  0.00     0.000 G0
ENDBRANCH  15  16
ENDBRANCH   1  15
TORSDOF 0
ENDMDL
MODEL 4
REMARK VINA RESULT:    -3.152      2.391      4.464
REMARK INTER + INTRA:          -3.383
REMARK INTER:                  -3.890
REMARK INTRA:                   0.507
REMARK UNBOUND:                 0.506
REMARK SMILES C=C1[C@H]2CC[C@@H]3[C@@H]2C(C)(C)CCC[C@]13C
REMARK SMILES IDX 14 1 6 2 7 3 3 4 2 5 1 6 4 7 5 8 15 9 8 10 9 11 10 12 11 13
REMARK SMILES IDX 13 15 12 16
REMARK H PARENT
REMARK Flexibility Score: 80.00
ROOT
ATOM      1  C   UNL     1      23.627  64.910  13.874  1.00  0.00    -0.008 C 
ATOM      2  C   UNL     1      22.702  64.661  15.056  1.00  0.00     0.003 C 
ATOM      3  C   UNL     1      21.883  63.491  14.478  1.00  0.00     0.006 C 
ATOM      4  C   UNL     1      23.069  62.544  14.418  1.00  0.00     0.019 C 
ATOM      5  C   UNL     1      23.994  63.448  13.569  1.00  0.00    -0.068 C 
ATOM      6  C   UNL     1      24.895  63.022  12.678  1.00  0.00     0.009 C 
ATOM      7  C   UNL     1      23.602  62.554  15.844  1.00  0.00     0.008 C 
ATOM      8  C   UNL     1      23.377  64.003  16.282  1.00  0.00     0.005 C 
ATOM      9  C   UNL     1      24.883  65.727  14.245  1.00  0.00     0.016 C 
ENDROOT
BRANCH   3  10
ATOM     10  C   UNL     1      20.374  63.818  14.512  1.00  0.00    -0.032 C 
ATOM     11  C   UNL     1      19.526  62.681  13.875  1.00  0.00     0.011 C 
ATOM     12  C   UNL     1      19.877  64.001  15.964  1.00  0.00     0.011 C 
BRANCH  10  13
ATOM     13  C   UNL     1      20.206  65.172  13.682  1.00  0.00     0.007 CG0
ATOM     14  G   UNL     1      21.233  65.413  12.491  1.00  0.00     0.000 G0
ENDBRANCH  10  13
ENDBRANCH   3  10
BRANCH   1  15
ATOM     15  C   UNL     1      22.775  65.702  12.778  1.00  0.00     0.011 C 
BRANCH  15  16
ATOM     16  C   UNL     1      21.228  65.424  12.493  1.00  0.00     0.001 CG0
ATOM     17  G   UNL     1      20.208  65.164  13.686  1.00  0.00     0.000 G0
ENDBRANCH  15  16
ENDBRANCH   1  15
TORSDOF 0
ENDMDL
MODEL 5
REMARK VINA RESULT:    -3.069      1.588      3.212
REMARK INTER + INTRA:          -3.281
REMARK INTER:                  -3.791
REMARK INTRA:                   0.509
REMARK UNBOUND:                 0.506
REMARK SMILES C=C1[C@H]2CC[C@@H]3[C@@H]2C(C)(C)CCC[C@]13C
REMARK SMILES IDX 14 1 6 2 7 3 3 4 2 5 1 6 4 7 5 8 15 9 8 10 9 11 10 12 11 13
REMARK SMILES IDX 13 15 12 16
REMARK H PARENT
REMARK Flexibility Score: 80.00
ROOT
ATOM      1  C   UNL     1      22.280  64.180  13.968  1.00  0.00    -0.008 C 
ATOM      2  C   UNL     1      22.213  65.023  15.233  1.00  0.00     0.003 C 
ATOM      3  C   UNL     1      21.894  63.909  16.248  1.00  0.00     0.006 C 
ATOM      4  C   UNL     1      23.221  63.197  16.053  1.00  0.00     0.019 C 
ATOM      5  C   UNL     1      23.122  63.018  14.520  1.00  0.00    -0.068 C 
ATOM      6  C   UNL     1      23.619  61.993  13.822  1.00  0.00     0.009 C 
ATOM      7  C   UNL     1      24.249  64.288  16.321  1.00  0.00     0.008 C 
ATOM      8  C   UNL     1      23.580  65.537  15.743  1.00  0.00     0.005 C 
ATOM      9  C   UNL     1      23.009  64.885  12.804  1.00  0.00     0.016 C 
ENDROOT
BRANCH   3  10
ATOM     10  C   UNL     1      20.604  64.242  17.029  1.00  0.00    -0.032 C 
ATOM     11  C   UNL     1      20.218  63.101  18.012  1.00  0.00     0.011 C 
ATOM     12  C   UNL     1      20.779  65.529  17.866  1.00  0.00     0.011 C 
BRANCH  10  13
ATOM     13  C   UNL     1      19.467  64.436  15.924  1.00  0.00     0.007 CG0
ATOM     14  G   UNL     1      19.610  63.577  14.592  1.00  0.00     0.000 G0
ENDBRANCH  10  13
ENDBRANCH   3  10
BRANCH   1  15
ATOM     15  C   UNL     1      20.772  63.864  13.543  1.00  0.00     0.011 C 
BRANCH  15  16
ATOM     16  C   UNL     1      19.600  63.585  14.593  1.00  0.00     0.001 CG0
ATOM     17  G   UNL     1      19.476  64.439  15.929  1.00  0.00     0.000 G0
ENDBRANCH  15  16
ENDBRANCH   1  15
TORSDOF 0
ENDMDL
MODEL 6
REMARK VINA RESULT:    -3.023      1.858      4.054
REMARK INTER + INTRA:          -3.224
REMARK INTER:                  -3.727
REMARK INTRA:                   0.504
REMARK UNBOUND:                 0.506
REMARK SMILES C=C1[C@H]2CC[C@@H]3[C@@H]2C(C)(C)CCC[C@]13C
REMARK SMILES IDX 14 1 6 2 7 3 3 4 2 5 1 6 4 7 5 8 15 9 8 10 9 11 10 12 11 13
REMARK SMILES IDX 13 15 12 16
REMARK H PARENT
REMARK Flexibility Score: 80.00
ROOT
ATOM      1  C   UNL     1      22.118  63.470  17.302  1.00  0.00    -0.008 C 
ATOM      2  C   UNL     1      22.896  62.441  16.495  1.00  0.00     0.003 C 
ATOM      3  C   UNL     1      23.663  63.398  15.562  1.00  0.00     0.006 C 
ATOM      4  C   UNL     1      24.465  64.030  16.687  1.00  0.00     0.019 C 
ATOM      5  C   UNL     1      23.264  64.461  17.562  1.00  0.00    -0.068 C 
ATOM      6  C   UNL     1      23.218  65.545  18.341  1.00  0.00     0.009 C 
ATOM      7  C   UNL     1      25.121  62.836  17.367  1.00  0.00     0.008 C 
ATOM      8  C   UNL     1      24.048  61.751  17.261  1.00  0.00     0.005 C 
ATOM      9  C   UNL     1      21.562  62.909  18.628  1.00  0.00     0.016 C 
ENDROOT
BRANCH   3  10
ATOM     10  C   UNL     1      23.399  63.041  14.083  1.00  0.00    -0.032 C 
ATOM     11  C   UNL     1      24.114  64.027  13.118  1.00  0.00     0.011 C 
ATOM     12  C   UNL     1      23.914  61.622  13.754  1.00  0.00     0.011 C 
BRANCH  10  13
ATOM     13  C   UNL     1      21.815  63.126  13.895  1.00  0.00     0.007 CG0
ATOM     14  G   UNL     1      21.041  64.174  14.808  1.00  0.00     0.000 G0
ENDBRANCH  10  13
ENDBRANCH   3  10
BRANCH   1  15
ATOM     15  C   UNL     1      20.909  63.963  16.380  1.00  0.00     0.011 C 
BRANCH  15  16
ATOM     16  C   UNL     1      21.032  64.169  14.801  1.00  0.00     0.001 CG0
ATOM     17  G   UNL     1      21.824  63.127  13.896  1.00  0.00     0.000 G0
ENDBRANCH  15  16
ENDBRANCH   1  15
TORSDOF 0
ENDMDL
MODEL 7
REMARK VINA RESULT:    -2.962      1.073      3.575
REMARK INTER + INTRA:          -3.149
REMARK INTER:                  -3.661
REMARK INTRA:                   0.513
REMARK UNBOUND:                 0.506
REMARK SMILES C=C1[C@H]2CC[C@@H]3[C@@H]2C(C)(C)CCC[C@]13C
REMARK SMILES IDX 14 1 6 2 7 3 3 4 2 5 1 6 4 7 5 8 15 9 8 10 9 11 10 12 11 13
REMARK SMILES IDX 13 15 12 16
REMARK H PARENT
REMARK Flexibility Score: 80.00
ROOT
ATOM      1  C   UNL     1      23.268  63.013  16.108  1.00  0.00    -0.008 C 
ATOM      2  C   UNL     1      21.947  63.159  15.367  1.00  0.00     0.003 C 
ATOM      3  C   UNL     1      21.564  64.576  15.837  1.00  0.00     0.006 C 
ATOM      4  C   UNL     1      22.736  65.245  15.140  1.00  0.00     0.019 C 
ATOM      5  C   UNL     1      23.856  64.397  15.788  1.00  0.00    -0.068 C 
ATOM      6  C   UNL     1      25.086  64.827  16.083  1.00  0.00     0.009 C 
ATOM      7  C   UNL     1      22.596  64.789  13.695  1.00  0.00     0.008 C 
ATOM      8  C   UNL     1      22.079  63.356  13.838  1.00  0.00     0.005 C 
ATOM      9  C   UNL     1      24.163  61.890  15.541  1.00  0.00     0.016 C 
ENDROOT
BRANCH   3  10
ATOM     10  C   UNL     1      20.167  64.568  16.495  1.00  0.00    -0.032 C 
ATOM     11  C   UNL     1      19.791  65.967  17.059  1.00  0.00     0.011 C 
ATOM     12  C   UNL     1      19.074  64.175  15.476  1.00  0.00     0.011 C 
BRANCH  10  13
ATOM     13  C   UNL     1      20.252  63.495  17.676  1.00  0.00     0.007 CG0
ATOM     14  G   UNL     1      21.664  63.327  18.390  1.00  0.00     0.000 G0
ENDBRANCH  10  13
ENDBRANCH   3  10
BRANCH   1  15
ATOM     15  C   UNL     1      22.910  62.695  17.632  1.00  0.00     0.011 C 
BRANCH  15  16
ATOM     16  C   UNL     1      21.659  63.330  18.395  1.00  0.00     0.001 CG0
ATOM     17  G   UNL     1      20.250  63.487  17.672  1.00  0.00     0.000 G0
ENDBRANCH  15  16
ENDBRANCH   1  15
TORSDOF 0
ENDMDL
MODEL 8
REMARK VINA RESULT:    -2.956      1.685      4.293
REMARK INTER + INTRA:          -3.141
REMARK INTER:                  -3.663
REMARK INTRA:                   0.522
REMARK UNBOUND:                 0.506
REMARK SMILES C=C1[C@H]2CC[C@@H]3[C@@H]2C(C)(C)CCC[C@]13C
REMARK SMILES IDX 14 1 6 2 7 3 3 4 2 5 1 6 4 7 5 8 15 9 8 10 9 11 10 12 11 13
REMARK SMILES IDX 13 15 12 16
REMARK H PARENT
REMARK Flexibility Score: 80.00
ROOT
ATOM      1  C   UNL     1      22.087  64.105  19.340  1.00  0.00    -0.008 C 
ATOM      2  C   UNL     1      21.794  63.277  18.097  1.00  0.00     0.003 C 
ATOM      3  C   UNL     1      21.919  64.386  17.035  1.00  0.00     0.006 C 
ATOM      4  C   UNL     1      23.399  64.615  17.286  1.00  0.00     0.019 C 
ATOM      5  C   UNL     1      23.298  64.886  18.806  1.00  0.00    -0.068 C 
ATOM      6  C   UNL     1      24.082  65.713  19.503  1.00  0.00     0.009 C 
ATOM      7  C   UNL     1      24.005  63.229  17.109  1.00  0.00     0.008 C 
ATOM      8  C   UNL     1      22.926  62.308  17.680  1.00  0.00     0.005 C 
ATOM      9  C   UNL     1      22.479  63.248  20.563  1.00  0.00     0.016 C 
ENDROOT
BRANCH   3  10
ATOM     10  C   UNL     1      20.629  64.474  16.190  1.00  0.00    -0.032 C 
ATOM     11  C   UNL     1      20.682  65.659  15.184  1.00  0.00     0.011 C 
ATOM     12  C   UNL     1      20.415  63.183  15.367  1.00  0.00     0.011 C 
BRANCH  10  13
ATOM     13  C   UNL     1      19.440  64.682  17.236  1.00  0.00     0.007 CG0
ATOM     14  G   UNL     1      19.781  65.509  18.552  1.00  0.00     0.000 G0
ENDBRANCH  10  13
ENDBRANCH   3  10
BRANCH   1  15
ATOM     15  C   UNL     1      20.759  64.931  19.668  1.00  0.00     0.011 C 
BRANCH  15  16
ATOM     16  C   UNL     1      19.781  65.510  18.546  1.00  0.00     0.001 CG0
ATOM     17  G   UNL     1      19.445  64.670  17.237  1.00  0.00     0.000 G0
ENDBRANCH  15  16
ENDBRANCH   1  15
TORSDOF 0
ENDMDL
MODEL 9
REMARK VINA RESULT:    -2.945      1.406      3.453
REMARK INTER + INTRA:          -3.128
REMARK INTER:                  -3.634
REMARK INTRA:                   0.507
REMARK UNBOUND:                 0.506
REMARK SMILES C=C1[C@H]2CC[C@@H]3[C@@H]2C(C)(C)CCC[C@]13C
REMARK SMILES IDX 14 1 6 2 7 3 3 4 2 5 1 6 4 7 5 8 15 9 8 10 9 11 10 12 11 13
REMARK SMILES IDX 13 15 12 16
REMARK H PARENT
REMARK Flexibility Score: 80.00
ROOT
ATOM      1  C   UNL     1      23.553  62.755  15.003  1.00  0.00    -0.008 C 
ATOM      2  C   UNL     1      22.086  62.817  15.404  1.00  0.00     0.003 C 
ATOM      3  C   UNL     1      22.107  64.146  16.185  1.00  0.00     0.006 C 
ATOM      4  C   UNL     1      22.446  64.986  14.967  1.00  0.00     0.019 C 
ATOM      5  C   UNL     1      23.720  64.214  14.548  1.00  0.00    -0.068 C 
ATOM      6  C   UNL     1      24.797  64.748  13.965  1.00  0.00     0.009 C 
ATOM      7  C   UNL     1      21.348  64.628  13.974  1.00  0.00     0.008 C 
ATOM      8  C   UNL     1      21.110  63.142  14.249  1.00  0.00     0.005 C 
ATOM      9  C   UNL     1      23.825  61.780  13.838  1.00  0.00     0.016 C 
ENDROOT
BRANCH   3  10
ATOM     10  C   UNL     1      21.565  63.940  17.617  1.00  0.00    -0.032 C 
ATOM     11  C   UNL     1      21.634  65.251  18.450  1.00  0.00     0.011 C 
ATOM     12  C   UNL     1      20.088  63.489  17.593  1.00  0.00     0.011 C 
BRANCH  10  13
ATOM     13  C   UNL     1      22.490  62.814  18.271  1.00  0.00     0.007 CG0
ATOM     14  G   UNL     1      24.004  62.759  17.785  1.00  0.00     0.000 G0
ENDBRANCH  10  13
ENDBRANCH   3  10
BRANCH   1  15
ATOM     15  C   UNL     1      24.366  62.286  16.297  1.00  0.00     0.011 C 
BRANCH  15  16
ATOM     16  C   UNL     1      24.006  62.751  17.782  1.00  0.00     0.001 CG0
ATOM     17  G   UNL     1      22.496  62.815  18.278  1.00  0.00     0.000 G0
ENDBRANCH  15  16
ENDBRANCH   1  15
TORSDOF 0
ENDMDL
