MODEL 1
REMARK VINA RESULT:    -3.503      0.000      0.000
REMARK INTER + INTRA:          -5.821
REMARK INTER:                  -5.346
REMARK INTRA:                  -0.475
REMARK UNBOUND:                -0.475
REMARK SMILES O=C([O-])CCCCCCCCC(=O)[O-]
REMARK SMILES IDX 7 1 6 2 5 3 4 4 2 5 1 6 3 7 8 8 9 9 10 10 11 11 12 12 13 13
REMARK SMILES IDX 14 14
REMARK H PARENT
REMARK Flexibility Score: inf
ROOT
ATOM      1  C   UNL     1      65.998  14.975  76.754  1.00  0.00     0.000 C 
ENDROOT
BRANCH   1   2
ATOM      2  C   UNL     1      65.684  13.704  75.951  1.00  0.00     0.000 C 
BRANCH   2   3
ATOM      3  C   UNL     1      64.449  12.959  76.479  1.00  0.00     0.006 C 
BRANCH   3   4
ATOM      4  C   UNL     1      63.139  13.483  75.875  1.00  0.00     0.053 C 
BRANCH   4   5
ATOM      5  C   UNL     1      62.171  13.840  76.958  1.00  0.00     0.041 C 
ATOM      6  O   UNL     1      60.942  13.940  76.703  1.00  0.00    -0.550 OA
ATOM      7  O   UNL     1      62.621  14.014  78.262  1.00  0.00    -0.550 OA
ENDBRANCH   4   5
ENDBRANCH   3   4
ENDBRANCH   2   3
ENDBRANCH   1   2
BRANCH   1   8
ATOM      8  C   UNL     1      67.393  15.512  76.410  1.00  0.00     0.000 C 
BRANCH   8   9
ATOM      9  C   UNL     1      68.375  14.365  76.144  1.00  0.00     0.000 C 
BRANCH   9  10
ATOM     10  C   UNL     1      69.826  14.840  76.276  1.00  0.00     0.006 C 
BRANCH  10  11
ATOM     11  C   UNL     1      69.900  16.175  77.024  1.00  0.00     0.053 C 
BRANCH  11  12
ATOM     12  C   UNL     1      70.695  16.027  78.283  1.00  0.00     0.041 C 
ATOM     13  O   UNL     1      70.825  14.895  78.821  1.00  0.00    -0.550 OA
ATOM     14  O   UNL     1      71.334  17.129  78.835  1.00  0.00    -0.550 OA
ENDBRANCH  11  12
ENDBRANCH  10  11
ENDBRANCH   9  10
ENDBRANCH   8   9
ENDBRANCH   1   8
TORSDOF 9
ENDMDL
MODEL 2
REMARK VINA RESULT:    -3.487      2.627      4.077
REMARK INTER + INTRA:          -5.796
REMARK INTER:                  -5.102
REMARK INTRA:                  -0.694
REMARK UNBOUND:                -0.475
REMARK SMILES O=C([O-])CCCCCCCCC(=O)[O-]
REMARK SMILES IDX 7 1 6 2 5 3 4 4 2 5 1 6 3 7 8 8 9 9 10 10 11 11 12 12 13 13
REMARK SMILES IDX 14 14
REMARK H PARENT
REMARK Flexibility Score: inf
ROOT
ATOM      1  C   UNL     1      69.717  16.281  76.690  1.00  0.00     0.000 C 
ENDROOT
BRANCH   1   2
ATOM      2  C   UNL     1      69.647  14.786  76.347  1.00  0.00     0.000 C 
BRANCH   2   3
ATOM      3  C   UNL     1      68.227  14.326  75.984  1.00  0.00     0.006 C 
BRANCH   3   4
ATOM      4  C   UNL     1      67.153  15.344  76.394  1.00  0.00     0.053 C 
BRANCH   4   5
ATOM      5  C   UNL     1      65.865  14.649  76.701  1.00  0.00     0.041 C 
ATOM      6  O   UNL     1      65.163  15.017  77.679  1.00  0.00    -0.550 OA
ATOM      7  O   UNL     1      65.414  13.626  75.875  1.00  0.00    -0.550 OA
ENDBRANCH   4   5
ENDBRANCH   3   4
ENDBRANCH   2   3
ENDBRANCH   1   2
BRANCH   1   8
ATOM      8  C   UNL     1      70.533  16.513  77.967  1.00  0.00     0.000 C 
BRANCH   8   9
ATOM      9  C   UNL     1      70.600  15.239  78.818  1.00  0.00     0.000 C 
BRANCH   9  10
ATOM     10  C   UNL     1      70.174  15.520  80.264  1.00  0.00     0.006 C 
BRANCH  10  11
ATOM     11  C   UNL     1      68.651  15.642  80.374  1.00  0.00     0.053 C 
BRANCH  11  12
ATOM     12  C   UNL     1      68.269  16.305  81.660  1.00  0.00     0.041 C 
ATOM     13  O   UNL     1      67.153  16.062  82.191  1.00  0.00    -0.550 OA
ATOM     14  O   UNL     1      69.166  17.152  82.297  1.00  0.00    -0.550 OA
ENDBRANCH  11  12
ENDBRANCH  10  11
ENDBRANCH   9  10
ENDBRANCH   8   9
ENDBRANCH   1   8
TORSDOF 9
ENDMDL
MODEL 3
REMARK VINA RESULT:    -3.473      1.492      2.406
REMARK INTER + INTRA:          -5.775
REMARK INTER:                  -5.164
REMARK INTRA:                  -0.611
REMARK UNBOUND:                -0.475
REMARK SMILES O=C([O-])CCCCCCCCC(=O)[O-]
REMARK SMILES IDX 7 1 6 2 5 3 4 4 2 5 1 6 3 7 8 8 9 9 10 10 11 11 12 12 13 13
REMARK SMILES IDX 14 14
REMARK H PARENT
REMARK Flexibility Score: inf
ROOT
ATOM      1  C   UNL     1      68.156  14.401  75.925  1.00  0.00     0.000 C 
ENDROOT
BRANCH   1   2
ATOM      2  C   UNL     1      67.148  15.283  76.675  1.00  0.00     0.000 C 
BRANCH   2   3
ATOM      3  C   UNL     1      65.750  15.260  76.037  1.00  0.00     0.006 C 
BRANCH   3   4
ATOM      4  C   UNL     1      65.195  13.838  75.881  1.00  0.00     0.053 C 
BRANCH   4   5
ATOM      5  C   UNL     1      63.922  13.687  76.653  1.00  0.00     0.041 C 
ATOM      6  O   UNL     1      63.040  12.875  76.268  1.00  0.00    -0.550 OA
ATOM      7  O   UNL     1      63.732  14.407  77.826  1.00  0.00    -0.550 OA
ENDBRANCH   4   5
ENDBRANCH   3   4
ENDBRANCH   2   3
ENDBRANCH   1   2
BRANCH   1   8
ATOM      8  C   UNL     1      69.597  14.824  76.240  1.00  0.00     0.000 C 
BRANCH   8   9
ATOM      9  C   UNL     1      69.635  16.220  76.872  1.00  0.00     0.000 C 
BRANCH   9  10
ATOM     10  C   UNL     1      70.681  16.289  77.991  1.00  0.00     0.006 C 
BRANCH  10  11
ATOM     11  C   UNL     1      70.448  15.188  79.029  1.00  0.00     0.053 C 
BRANCH  11  12
ATOM     12  C   UNL     1      69.683  15.724  80.199  1.00  0.00     0.041 C 
ATOM     13  O   UNL     1      70.276  16.373  81.100  1.00  0.00    -0.550 OA
ATOM     14  O   UNL     1      68.307  15.550  80.268  1.00  0.00    -0.550 OA
ENDBRANCH  11  12
ENDBRANCH  10  11
ENDBRANCH   9  10
ENDBRANCH   8   9
ENDBRANCH   1   8
TORSDOF 9
ENDMDL
MODEL 4
REMARK VINA RESULT:    -3.468      3.283      4.069
REMARK INTER + INTRA:          -5.767
REMARK INTER:                  -4.833
REMARK INTRA:                  -0.934
REMARK UNBOUND:                -0.475
REMARK SMILES O=C([O-])CCCCCCCCC(=O)[O-]
REMARK SMILES IDX 7 1 6 2 5 3 4 4 2 5 1 6 3 7 8 8 9 9 10 10 11 11 12 12 13 13
REMARK SMILES IDX 14 14
REMARK H PARENT
REMARK Flexibility Score: inf
ROOT
ATOM      1  C   UNL     1      69.670  14.735  76.311  1.00  0.00     0.000 C 
ENDROOT
BRANCH   1   2
ATOM      2  C   UNL     1      68.184  14.378  76.164  1.00  0.00     0.000 C 
BRANCH   2   3
ATOM      3  C   UNL     1      67.266  15.605  76.276  1.00  0.00     0.006 C 
BRANCH   3   4
ATOM      4  C   UNL     1      66.482  15.639  77.595  1.00  0.00     0.053 C 
BRANCH   4   5
ATOM      5  C   UNL     1      66.505  17.015  78.182  1.00  0.00     0.041 C 
ATOM      6  O   UNL     1      66.106  17.209  79.360  1.00  0.00    -0.550 OA
ATOM      7  O   UNL     1      67.014  18.076  77.443  1.00  0.00    -0.550 OA
ENDBRANCH   4   5
ENDBRANCH   3   4
ENDBRANCH   2   3
ENDBRANCH   1   2
BRANCH   1   8
ATOM      8  C   UNL     1      69.853  16.238  76.555  1.00  0.00     0.000 C 
BRANCH   8   9
ATOM      9  C   UNL     1      70.477  16.501  77.931  1.00  0.00     0.000 C 
BRANCH   9  10
ATOM     10  C   UNL     1      70.499  15.224  78.779  1.00  0.00     0.006 C 
BRANCH  10  11
ATOM     11  C   UNL     1      70.580  15.558  80.271  1.00  0.00     0.053 C 
BRANCH  11  12
ATOM     12  C   UNL     1      69.267  16.080  80.764  1.00  0.00     0.041 C 
ATOM     13  O   UNL     1      68.286  15.302  80.899  1.00  0.00    -0.550 OA
ATOM     14  O   UNL     1      69.141  17.416  81.123  1.00  0.00    -0.550 OA
ENDBRANCH  11  12
ENDBRANCH  10  11
ENDBRANCH   9  10
ENDBRANCH   8   9
ENDBRANCH   1   8
TORSDOF 9
ENDMDL
MODEL 5
REMARK VINA RESULT:    -3.467      2.939      5.894
REMARK INTER + INTRA:          -5.766
REMARK INTER:                  -4.706
REMARK INTRA:                  -1.060
REMARK UNBOUND:                -0.475
REMARK SMILES O=C([O-])CCCCCCCCC(=O)[O-]
REMARK SMILES IDX 7 1 6 2 5 3 4 4 2 5 1 6 3 7 8 8 9 9 10 10 11 11 12 12 13 13
REMARK SMILES IDX 14 14
REMARK H PARENT
REMARK Flexibility Score: inf
ROOT
ATOM      1  C   UNL     1      69.810  14.863  76.218  1.00  0.00     0.000 C 
ENDROOT
BRANCH   1   2
ATOM      2  C   UNL     1      69.850  16.264  76.845  1.00  0.00     0.000 C 
BRANCH   2   3
ATOM      3  C   UNL     1      70.664  16.308  78.147  1.00  0.00     0.006 C 
BRANCH   3   4
ATOM      4  C   UNL     1      70.204  15.257  79.167  1.00  0.00     0.053 C 
BRANCH   4   5
ATOM      5  C   UNL     1      69.556  15.917  80.342  1.00  0.00     0.041 C 
ATOM      6  O   UNL     1      68.654  15.320  80.987  1.00  0.00    -0.550 OA
ATOM      7  O   UNL     1      69.983  17.173  80.756  1.00  0.00    -0.550 OA
ENDBRANCH   4   5
ENDBRANCH   3   4
ENDBRANCH   2   3
ENDBRANCH   1   2
BRANCH   1   8
ATOM      8  C   UNL     1      68.372  14.337  76.140  1.00  0.00     0.000 C 
BRANCH   8   9
ATOM      9  C   UNL     1      67.367  15.492  76.056  1.00  0.00     0.000 C 
BRANCH   9  10
ATOM     10  C   UNL     1      66.171  15.249  76.986  1.00  0.00     0.006 C 
BRANCH  10  11
ATOM     11  C   UNL     1      66.377  15.940  78.337  1.00  0.00     0.053 C 
BRANCH  11  12
ATOM     12  C   UNL     1      66.394  17.427  78.167  1.00  0.00     0.041 C 
ATOM     13  O   UNL     1      65.418  18.014  77.629  1.00  0.00    -0.550 OA
ATOM     14  O   UNL     1      67.463  18.169  78.649  1.00  0.00    -0.550 OA
ENDBRANCH  11  12
ENDBRANCH  10  11
ENDBRANCH   9  10
ENDBRANCH   8   9
ENDBRANCH   1   8
TORSDOF 9
ENDMDL
MODEL 6
REMARK VINA RESULT:    -3.441      3.412      4.373
REMARK INTER + INTRA:          -5.727
REMARK INTER:                  -4.737
REMARK INTRA:                  -0.990
REMARK UNBOUND:                -0.475
REMARK SMILES O=C([O-])CCCCCCCCC(=O)[O-]
REMARK SMILES IDX 7 1 6 2 5 3 4 4 2 5 1 6 3 7 8 8 9 9 10 10 11 11 12 12 13 13
REMARK SMILES IDX 14 14
REMARK H PARENT
REMARK Flexibility Score: inf
ROOT
ATOM      1  C   UNL     1      67.602  15.803  76.636  1.00  0.00     0.000 C 
ENDROOT
BRANCH   1   2
ATOM      2  C   UNL     1      66.260  15.471  77.302  1.00  0.00     0.000 C 
BRANCH   2   3
ATOM      3  C   UNL     1      66.174  15.976  78.750  1.00  0.00     0.006 C 
BRANCH   3   4
ATOM      4  C   UNL     1      67.270  16.997  79.085  1.00  0.00     0.053 C 
BRANCH   4   5
ATOM      5  C   UNL     1      67.915  16.661  80.393  1.00  0.00     0.041 C 
ATOM      6  O   UNL     1      67.915  15.474  80.813  1.00  0.00    -0.550 OA
ATOM      7  O   UNL     1      68.561  17.652  81.123  1.00  0.00    -0.550 OA
ENDBRANCH   4   5
ENDBRANCH   3   4
ENDBRANCH   2   3
ENDBRANCH   1   2
BRANCH   1   8
ATOM      8  C   UNL     1      68.327  14.527  76.192  1.00  0.00     0.000 C 
BRANCH   8   9
ATOM      9  C   UNL     1      69.848  14.714  76.232  1.00  0.00     0.000 C 
BRANCH   9  10
ATOM     10  C   UNL     1      70.249  15.735  77.303  1.00  0.00     0.006 C 
BRANCH  10  11
ATOM     11  C   UNL     1      70.760  15.034  78.565  1.00  0.00     0.053 C 
BRANCH  11  12
ATOM     12  C   UNL     1      71.317  16.033  79.531  1.00  0.00     0.041 C 
ATOM     13  O   UNL     1      71.393  17.249  79.210  1.00  0.00    -0.550 OA
ATOM     14  O   UNL     1      71.703  15.630  80.802  1.00  0.00    -0.550 OA
ENDBRANCH  11  12
ENDBRANCH  10  11
ENDBRANCH   9  10
ENDBRANCH   8   9
ENDBRANCH   1   8
TORSDOF 9
ENDMDL
MODEL 7
REMARK VINA RESULT:    -3.441      3.389      5.120
REMARK INTER + INTRA:          -5.726
REMARK INTER:                  -4.815
REMARK INTRA:                  -0.910
REMARK UNBOUND:                -0.475
REMARK SMILES O=C([O-])CCCCCCCCC(=O)[O-]
REMARK SMILES IDX 7 1 6 2 5 3 4 4 2 5 1 6 3 7 8 8 9 9 10 10 11 11 12 12 13 13
REMARK SMILES IDX 14 14
REMARK H PARENT
REMARK Flexibility Score: inf
ROOT
ATOM      1  C   UNL     1      71.219  14.778  78.341  1.00  0.00     0.000 C 
ENDROOT
BRANCH   1   2
ATOM      2  C   UNL     1      70.974  14.722  76.826  1.00  0.00     0.000 C 
BRANCH   2   3
ATOM      3  C   UNL     1      69.647  15.377  76.416  1.00  0.00     0.006 C 
BRANCH   3   4
ATOM      4  C   UNL     1      68.520  14.354  76.214  1.00  0.00     0.053 C 
BRANCH   4   5
ATOM      5  C   UNL     1      67.196  15.045  76.133  1.00  0.00     0.041 C 
ATOM      6  O   UNL     1      66.129  14.390  76.271  1.00  0.00    -0.550 OA
ATOM      7  O   UNL     1      67.141  16.422  75.955  1.00  0.00    -0.550 OA
ENDBRANCH   4   5
ENDBRANCH   3   4
ENDBRANCH   2   3
ENDBRANCH   1   2
BRANCH   1   8
ATOM      8  C   UNL     1      70.476  15.961  78.974  1.00  0.00     0.000 C 
BRANCH   8   9
ATOM      9  C   UNL     1      70.118  15.667  80.436  1.00  0.00     0.000 C 
BRANCH   9  10
ATOM     10  C   UNL     1      68.599  15.575  80.622  1.00  0.00     0.006 C 
BRANCH  10  11
ATOM     11  C   UNL     1      67.863  16.340  79.518  1.00  0.00     0.053 C 
BRANCH  11  12
ATOM     12  C   UNL     1      66.382  16.231  79.703  1.00  0.00     0.041 C 
ATOM     13  O   UNL     1      65.599  16.744  78.859  1.00  0.00    -0.550 OA
ATOM     14  O   UNL     1      65.866  15.520  80.778  1.00  0.00    -0.550 OA
ENDBRANCH  11  12
ENDBRANCH  10  11
ENDBRANCH   9  10
ENDBRANCH   8   9
ENDBRANCH   1   8
TORSDOF 9
ENDMDL
MODEL 8
REMARK VINA RESULT:    -3.439      2.948      5.945
REMARK INTER + INTRA:          -5.723
REMARK INTER:                  -4.936
REMARK INTRA:                  -0.787
REMARK UNBOUND:                -0.475
REMARK SMILES O=C([O-])CCCCCCCCC(=O)[O-]
REMARK SMILES IDX 7 1 6 2 5 3 4 4 2 5 1 6 3 7 8 8 9 9 10 10 11 11 12 12 13 13
REMARK SMILES IDX 14 14
REMARK H PARENT
REMARK Flexibility Score: inf
ROOT
ATOM      1  C   UNL     1      71.109  15.096  78.430  1.00  0.00     0.000 C 
ENDROOT
BRANCH   1   2
ATOM      2  C   UNL     1      70.706  15.496  79.856  1.00  0.00     0.000 C 
BRANCH   2   3
ATOM      3  C   UNL     1      69.363  16.240  79.906  1.00  0.00     0.006 C 
BRANCH   3   4
ATOM      4  C   UNL     1      68.317  15.515  80.764  1.00  0.00     0.053 C 
BRANCH   4   5
ATOM      5  C   UNL     1      67.995  16.318  81.984  1.00  0.00     0.041 C 
ATOM      6  O   UNL     1      68.870  17.060  82.504  1.00  0.00    -0.550 OA
ATOM      7  O   UNL     1      66.713  16.285  82.519  1.00  0.00    -0.550 OA
ENDBRANCH   4   5
ENDBRANCH   3   4
ENDBRANCH   2   3
ENDBRANCH   1   2
BRANCH   1   8
ATOM      8  C   UNL     1      70.173  15.732  77.395  1.00  0.00     0.000 C 
BRANCH   8   9
ATOM      9  C   UNL     1      69.882  14.762  76.244  1.00  0.00     0.000 C 
BRANCH   9  10
ATOM     10  C   UNL     1      68.376  14.507  76.106  1.00  0.00     0.006 C 
BRANCH  10  11
ATOM     11  C   UNL     1      67.567  15.646  76.734  1.00  0.00     0.053 C 
BRANCH  11  12
ATOM     12  C   UNL     1      66.221  15.156  77.167  1.00  0.00     0.041 C 
ATOM     13  O   UNL     1      65.603  14.307  76.472  1.00  0.00    -0.550 OA
ATOM     14  O   UNL     1      65.671  15.600  78.362  1.00  0.00    -0.550 OA
ENDBRANCH  11  12
ENDBRANCH  10  11
ENDBRANCH   9  10
ENDBRANCH   8   9
ENDBRANCH   1   8
TORSDOF 9
ENDMDL
MODEL 9
REMARK VINA RESULT:    -3.321      4.218      5.801
REMARK INTER + INTRA:          -5.542
REMARK INTER:                  -4.258
REMARK INTRA:                  -1.284
REMARK UNBOUND:                -0.475
REMARK SMILES O=C([O-])CCCCCCCCC(=O)[O-]
REMARK SMILES IDX 7 1 6 2 5 3 4 4 2 5 1 6 3 7 8 8 9 9 10 10 11 11 12 12 13 13
REMARK SMILES IDX 14 14
REMARK H PARENT
REMARK Flexibility Score: inf
ROOT
ATOM      1  C   UNL     1      70.637  15.081  76.808  1.00  0.00     0.000 C 
ENDROOT
BRANCH   1   2
ATOM      2  C   UNL     1      69.105  15.008  76.728  1.00  0.00     0.000 C 
BRANCH   2   3
ATOM      3  C   UNL     1      68.440  16.389  76.833  1.00  0.00     0.006 C 
BRANCH   3   4
ATOM      4  C   UNL     1      69.432  17.541  76.627  1.00  0.00     0.053 C 
BRANCH   4   5
ATOM      5  C   UNL     1      69.231  18.597  77.667  1.00  0.00     0.041 C 
ATOM      6  O   UNL     1      68.075  18.854  78.094  1.00  0.00    -0.550 OA
ATOM      7  O   UNL     1      70.328  19.262  78.203  1.00  0.00    -0.550 OA
ENDBRANCH   4   5
ENDBRANCH   3   4
ENDBRANCH   2   3
ENDBRANCH   1   2
BRANCH   1   8
ATOM      8  C   UNL     1      71.133  14.699  78.208  1.00  0.00     0.000 C 
BRANCH   8   9
ATOM      9  C   UNL     1      71.894  15.860  78.859  1.00  0.00     0.000 C 
BRANCH   9  10
ATOM     10  C   UNL     1      71.147  16.386  80.091  1.00  0.00     0.006 C 
BRANCH  10  11
ATOM     11  C   UNL     1      69.913  15.531  80.391  1.00  0.00     0.053 C 
BRANCH  11  12
ATOM     12  C   UNL     1      68.714  16.399  80.611  1.00  0.00     0.041 C 
ATOM     13  O   UNL     1      68.847  17.550  81.105  1.00  0.00    -0.550 OA
ATOM     14  O   UNL     1      67.456  15.957  80.224  1.00  0.00    -0.550 OA
ENDBRANCH  11  12
ENDBRANCH  10  11
ENDBRANCH   9  10
ENDBRANCH   8   9
ENDBRANCH   1   8
TORSDOF 9
ENDMDL
