MODEL 1
REMARK VINA RESULT:    -5.021      0.000      0.000
REMARK INTER + INTRA:          -9.724
REMARK INTER:                  -7.662
REMARK INTRA:                  -2.062
REMARK UNBOUND:                -2.062
REMARK SMILES CC(=O)CCC=C(C)CCC=C(C)CCC=C(C)C
REMARK SMILES IDX 10 1 11 2 12 3 13 4 14 5 15 6 16 7 18 8 17 9 19 10 9 11 7 12
REMARK SMILES IDX 6 13 8 14 5 15 4 16 2 17 3 18 1 19
REMARK H PARENT
REMARK Flexibility Score: inf
ROOT
ATOM      1  C   UNL     1       0.372   1.772  57.116  1.00  0.00     0.032 C 
ENDROOT
BRANCH   1   2
ATOM      2  C   UNL     1       1.105   1.716  55.796  1.00  0.00    -0.028 C 
ATOM      3  C   UNL     1       2.112   0.861  55.502  1.00  0.00    -0.077 C 
ATOM      4  C   UNL     1       2.584  -0.189  56.479  1.00  0.00     0.039 C 
BRANCH   3   5
ATOM      5  C   UNL     1       2.789   0.960  54.150  1.00  0.00     0.034 C 
BRANCH   5   6
ATOM      6  C   UNL     1       2.990  -0.420  53.508  1.00  0.00     0.032 C 
BRANCH   6   7
ATOM      7  C   UNL     1       1.677  -1.046  53.101  1.00  0.00    -0.028 C 
ATOM      8  C   UNL     1       2.175  -3.229  54.224  1.00  0.00     0.039 C 
ATOM      9  C   UNL     1       1.282  -2.291  53.450  1.00  0.00    -0.080 C 
ATOM     10  C   UNL     1      -0.068  -2.798  53.011  1.00  0.00     0.039 C 
ENDBRANCH   6   7
ENDBRANCH   5   6
ENDBRANCH   3   5
ENDBRANCH   1   2
BRANCH   1  11
ATOM     11  C   UNL     1      -1.021   1.137  56.999  1.00  0.00     0.034 C 
BRANCH  11  12
ATOM     12  C   UNL     1      -1.015  -0.324  57.412  1.00  0.00    -0.077 C 
ATOM     13  C   UNL     1      -1.077  -0.733  58.701  1.00  0.00    -0.028 C 
ATOM     14  C   UNL     1      -0.941  -1.379  56.337  1.00  0.00     0.039 C 
BRANCH  13  15
ATOM     15  C   UNL     1      -1.162   0.168  59.914  1.00  0.00     0.035 C 
BRANCH  15  16
ATOM     16  C   UNL     1       0.200   0.316  60.608  1.00  0.00     0.079 C 
BRANCH  16  17
ATOM     17  C   UNL     1       0.603   1.758  60.768  1.00  0.00     0.130 C 
ATOM     18  O   UNL     1      -0.184   2.555  61.255  1.00  0.00    -0.300 OA
ATOM     19  C   UNL     1       1.971   2.226  60.368  1.00  0.00     0.087 C 
ENDBRANCH  16  17
ENDBRANCH  15  16
ENDBRANCH  13  15
ENDBRANCH  11  12
ENDBRANCH   1  11
TORSDOF 9
ENDMDL
MODEL 2
REMARK VINA RESULT:    -4.904      2.362      3.428
REMARK INTER + INTRA:          -9.546
REMARK INTER:                  -8.028
REMARK INTRA:                  -1.518
REMARK UNBOUND:                -2.062
REMARK SMILES CC(=O)CCC=C(C)CCC=C(C)CCC=C(C)C
REMARK SMILES IDX 10 1 11 2 12 3 13 4 14 5 15 6 16 7 18 8 17 9 19 10 9 11 7 12
REMARK SMILES IDX 6 13 8 14 5 15 4 16 2 17 3 18 1 19
REMARK H PARENT
REMARK Flexibility Score: inf
ROOT
ATOM      1  C   UNL     1       1.955  -0.750  58.106  1.00  0.00     0.032 C 
ENDROOT
BRANCH   1   2
ATOM      2  C   UNL     1       2.450  -0.001  56.891  1.00  0.00    -0.028 C 
ATOM      3  C   UNL     1       1.687   0.789  56.101  1.00  0.00    -0.077 C 
ATOM      4  C   UNL     1       0.229   1.049  56.394  1.00  0.00     0.039 C 
BRANCH   3   5
ATOM      5  C   UNL     1       2.315   1.435  54.882  1.00  0.00     0.034 C 
BRANCH   5   6
ATOM      6  C   UNL     1       2.877   0.391  53.907  1.00  0.00     0.032 C 
BRANCH   6   7
ATOM      7  C   UNL     1       1.808  -0.565  53.431  1.00  0.00    -0.028 C 
ATOM      8  C   UNL     1       3.022  -2.599  54.245  1.00  0.00     0.039 C 
ATOM      9  C   UNL     1       1.842  -1.904  53.612  1.00  0.00    -0.080 C 
ATOM     10  C   UNL     1       0.699  -2.754  53.120  1.00  0.00     0.039 C 
ENDBRANCH   6   7
ENDBRANCH   5   6
ENDBRANCH   3   5
ENDBRANCH   1   2
BRANCH   1  11
ATOM     11  C   UNL     1       2.462  -0.098  59.400  1.00  0.00     0.034 C 
BRANCH  11  12
ATOM     12  C   UNL     1       1.383   0.724  60.082  1.00  0.00    -0.077 C 
ATOM     13  C   UNL     1       0.366   0.175  60.788  1.00  0.00    -0.028 C 
ATOM     14  C   UNL     1       1.442   2.227  59.976  1.00  0.00     0.039 C 
BRANCH  13  15
ATOM     15  C   UNL     1       0.138  -1.304  61.013  1.00  0.00     0.035 C 
BRANCH  15  16
ATOM     16  C   UNL     1       0.880  -1.810  62.258  1.00  0.00     0.079 C 
BRANCH  16  17
ATOM     17  C   UNL     1       0.063  -2.805  63.041  1.00  0.00     0.130 C 
ATOM     18  O   UNL     1      -1.107  -2.992  62.745  1.00  0.00    -0.300 OA
ATOM     19  C   UNL     1       0.675  -3.595  64.159  1.00  0.00     0.087 C 
ENDBRANCH  16  17
ENDBRANCH  15  16
ENDBRANCH  13  15
ENDBRANCH  11  12
ENDBRANCH   1  11
TORSDOF 9
ENDMDL
MODEL 3
REMARK VINA RESULT:    -4.896      8.611     11.360
REMARK INTER + INTRA:          -9.534
REMARK INTER:                  -7.333
REMARK INTRA:                  -2.201
REMARK UNBOUND:                -2.062
REMARK SMILES CC(=O)CCC=C(C)CCC=C(C)CCC=C(C)C
REMARK SMILES IDX 10 1 11 2 12 3 13 4 14 5 15 6 16 7 18 8 17 9 19 10 9 11 7 12
REMARK SMILES IDX 6 13 8 14 5 15 4 16 2 17 3 18 1 19
REMARK H PARENT
REMARK Flexibility Score: inf
ROOT
ATOM      1  C   UNL     1      -6.148   2.743  54.577  1.00  0.00     0.032 C 
ENDROOT
BRANCH   1   2
ATOM      2  C   UNL     1      -6.220   4.116  55.204  1.00  0.00    -0.028 C 
ATOM      3  C   UNL     1      -7.354   4.714  55.636  1.00  0.00    -0.077 C 
ATOM      4  C   UNL     1      -8.697   4.027  55.578  1.00  0.00     0.039 C 
BRANCH   3   5
ATOM      5  C   UNL     1      -7.276   6.121  56.195  1.00  0.00     0.034 C 
BRANCH   5   6
ATOM      6  C   UNL     1      -7.395   6.135  57.726  1.00  0.00     0.032 C 
BRANCH   6   7
ATOM      7  C   UNL     1      -6.083   5.796  58.394  1.00  0.00    -0.028 C 
ATOM      8  C   UNL     1      -6.835   3.511  59.095  1.00  0.00     0.039 C 
ATOM      9  C   UNL     1      -5.805   4.607  58.976  1.00  0.00    -0.080 C 
ATOM     10  C   UNL     1      -4.446   4.372  59.584  1.00  0.00     0.039 C 
ENDBRANCH   6   7
ENDBRANCH   5   6
ENDBRANCH   3   5
ENDBRANCH   1   2
BRANCH   1  11
ATOM     11  C   UNL     1      -6.110   2.839  53.046  1.00  0.00     0.034 C 
BRANCH  11  12
ATOM     12  C   UNL     1      -7.450   2.491  52.422  1.00  0.00    -0.077 C 
ATOM     13  C   UNL     1      -8.062   3.266  51.496  1.00  0.00    -0.028 C 
ATOM     14  C   UNL     1      -8.137   1.218  52.848  1.00  0.00     0.039 C 
BRANCH  13  15
ATOM     15  C   UNL     1      -7.532   4.570  50.939  1.00  0.00     0.035 C 
BRANCH  15  16
ATOM     16  C   UNL     1      -7.985   5.771  51.780  1.00  0.00     0.079 C 
BRANCH  16  17
ATOM     17  C   UNL     1      -9.477   5.973  51.728  1.00  0.00     0.130 C 
ATOM     18  O   UNL     1     -10.038   6.050  50.646  1.00  0.00    -0.300 OA
ATOM     19  C   UNL     1     -10.290   6.046  52.986  1.00  0.00     0.087 C 
ENDBRANCH  16  17
ENDBRANCH  15  16
ENDBRANCH  13  15
ENDBRANCH  11  12
ENDBRANCH   1  11
TORSDOF 9
ENDMDL
MODEL 4
REMARK VINA RESULT:    -4.742      6.801      8.754
REMARK INTER + INTRA:          -9.299
REMARK INTER:                  -7.380
REMARK INTRA:                  -1.919
REMARK UNBOUND:                -2.062
REMARK SMILES CC(=O)CCC=C(C)CCC=C(C)CCC=C(C)C
REMARK SMILES IDX 10 1 11 2 12 3 13 4 14 5 15 6 16 7 18 8 17 9 19 10 9 11 7 12
REMARK SMILES IDX 6 13 8 14 5 15 4 16 2 17 3 18 1 19
REMARK H PARENT
REMARK Flexibility Score: inf
ROOT
ATOM      1  C   UNL     1      -7.656   6.121  58.241  1.00  0.00     0.032 C 
ENDROOT
BRANCH   1   2
ATOM      2  C   UNL     1      -6.785   5.807  57.047  1.00  0.00    -0.028 C 
ATOM      3  C   UNL     1      -6.739   4.614  56.410  1.00  0.00    -0.077 C 
ATOM      4  C   UNL     1      -7.620   3.456  56.812  1.00  0.00     0.039 C 
BRANCH   3   5
ATOM      5  C   UNL     1      -5.773   4.434  55.257  1.00  0.00     0.034 C 
BRANCH   5   6
ATOM      6  C   UNL     1      -6.199   3.289  54.327  1.00  0.00     0.032 C 
BRANCH   6   7
ATOM      7  C   UNL     1      -6.199   3.716  52.877  1.00  0.00    -0.028 C 
ATOM      8  C   UNL     1      -8.447   4.813  53.025  1.00  0.00     0.039 C 
ATOM      9  C   UNL     1      -7.184   4.435  52.292  1.00  0.00    -0.080 C 
ATOM     10  C   UNL     1      -7.059   4.831  50.843  1.00  0.00     0.039 C 
ENDBRANCH   6   7
ENDBRANCH   5   6
ENDBRANCH   3   5
ENDBRANCH   1   2
BRANCH   1  11
ATOM     11  C   UNL     1      -6.846   6.063  59.544  1.00  0.00     0.034 C 
BRANCH  11  12
ATOM     12  C   UNL     1      -6.856   4.674  60.158  1.00  0.00    -0.077 C 
ATOM     13  C   UNL     1      -5.783   3.850  60.149  1.00  0.00    -0.028 C 
ATOM     14  C   UNL     1      -8.121   4.184  60.816  1.00  0.00     0.039 C 
BRANCH  13  15
ATOM     15  C   UNL     1      -4.429   4.161  59.546  1.00  0.00     0.035 C 
BRANCH  15  16
ATOM     16  C   UNL     1      -3.390   3.090  59.903  1.00  0.00     0.079 C 
BRANCH  16  17
ATOM     17  C   UNL     1      -3.288   2.021  58.846  1.00  0.00     0.130 C 
ATOM     18  O   UNL     1      -2.913   0.900  59.156  1.00  0.00    -0.300 OA
ATOM     19  C   UNL     1      -3.673   2.302  57.425  1.00  0.00     0.087 C 
ENDBRANCH  16  17
ENDBRANCH  15  16
ENDBRANCH  13  15
ENDBRANCH  11  12
ENDBRANCH   1  11
TORSDOF 9
ENDMDL
MODEL 5
REMARK VINA RESULT:    -4.679      2.848      6.969
REMARK INTER + INTRA:          -9.202
REMARK INTER:                  -7.317
REMARK INTRA:                  -1.885
REMARK UNBOUND:                -2.062
REMARK SMILES CC(=O)CCC=C(C)CCC=C(C)CCC=C(C)C
REMARK SMILES IDX 10 1 11 2 12 3 13 4 14 5 15 6 16 7 18 8 17 9 19 10 9 11 7 12
REMARK SMILES IDX 6 13 8 14 5 15 4 16 2 17 3 18 1 19
REMARK H PARENT
REMARK Flexibility Score: inf
ROOT
ATOM      1  C   UNL     1       2.790   0.548  54.874  1.00  0.00     0.032 C 
ENDROOT
BRANCH   1   2
ATOM      2  C   UNL     1       1.353   0.641  55.333  1.00  0.00    -0.028 C 
ATOM      3  C   UNL     1       0.851   0.046  56.440  1.00  0.00    -0.077 C 
ATOM      4  C   UNL     1       1.715  -0.755  57.383  1.00  0.00     0.039 C 
BRANCH   3   5
ATOM      5  C   UNL     1      -0.628   0.187  56.743  1.00  0.00     0.034 C 
BRANCH   5   6
ATOM      6  C   UNL     1      -0.948   1.527  57.421  1.00  0.00     0.032 C 
BRANCH   6   7
ATOM      7  C   UNL     1      -0.771   1.452  58.920  1.00  0.00    -0.028 C 
ATOM      8  C   UNL     1       1.291   2.876  58.919  1.00  0.00     0.039 C 
ATOM      9  C   UNL     1       0.206   2.086  59.608  1.00  0.00    -0.080 C 
ATOM     10  C   UNL     1       0.263   1.962  61.109  1.00  0.00     0.039 C 
ENDBRANCH   6   7
ENDBRANCH   5   6
ENDBRANCH   3   5
ENDBRANCH   1   2
BRANCH   1  11
ATOM     11  C   UNL     1       2.921  -0.386  53.663  1.00  0.00     0.034 C 
BRANCH  11  12
ATOM     12  C   UNL     1       2.771  -1.846  54.053  1.00  0.00    -0.077 C 
ATOM     13  C   UNL     1       1.688  -2.593  53.736  1.00  0.00    -0.028 C 
ATOM     14  C   UNL     1       3.884  -2.505  54.829  1.00  0.00     0.039 C 
BRANCH  13  15
ATOM     15  C   UNL     1       0.477  -2.117  52.962  1.00  0.00     0.035 C 
BRANCH  15  16
ATOM     16  C   UNL     1      -0.796  -2.864  53.382  1.00  0.00     0.079 C 
BRANCH  16  17
ATOM     17  C   UNL     1      -1.690  -3.169  52.209  1.00  0.00     0.130 C 
ATOM     18  O   UNL     1      -2.300  -2.262  51.663  1.00  0.00    -0.300 OA
ATOM     19  C   UNL     1      -1.818  -4.566  51.678  1.00  0.00     0.087 C 
ENDBRANCH  16  17
ENDBRANCH  15  16
ENDBRANCH  13  15
ENDBRANCH  11  12
ENDBRANCH   1  11
TORSDOF 9
ENDMDL
MODEL 6
REMARK VINA RESULT:    -4.581      8.548     10.438
REMARK INTER + INTRA:          -9.052
REMARK INTER:                  -6.560
REMARK INTRA:                  -2.492
REMARK UNBOUND:                -2.062
REMARK SMILES CC(=O)CCC=C(C)CCC=C(C)CCC=C(C)C
REMARK SMILES IDX 10 1 11 2 12 3 13 4 14 5 15 6 16 7 18 8 17 9 19 10 9 11 7 12
REMARK SMILES IDX 6 13 8 14 5 15 4 16 2 17 3 18 1 19
REMARK H PARENT
REMARK Flexibility Score: inf
ROOT
ATOM      1  C   UNL     1      -6.097   2.712  54.358  1.00  0.00     0.032 C 
ENDROOT
BRANCH   1   2
ATOM      2  C   UNL     1      -6.306   3.836  53.370  1.00  0.00    -0.028 C 
ATOM      3  C   UNL     1      -7.078   3.761  52.261  1.00  0.00    -0.077 C 
ATOM      4  C   UNL     1      -7.871   2.524  51.916  1.00  0.00     0.039 C 
BRANCH   3   5
ATOM      5  C   UNL     1      -7.148   4.958  51.334  1.00  0.00     0.034 C 
BRANCH   5   6
ATOM      6  C   UNL     1      -8.595   5.407  51.087  1.00  0.00     0.032 C 
BRANCH   6   7
ATOM      7  C   UNL     1      -9.173   6.119  52.288  1.00  0.00    -0.028 C 
ATOM      8  C   UNL     1     -11.021   4.455  52.597  1.00  0.00     0.039 C 
ATOM      9  C   UNL     1     -10.237   5.680  52.999  1.00  0.00    -0.080 C 
ATOM     10  C   UNL     1     -10.705   6.460  54.200  1.00  0.00     0.039 C 
ENDBRANCH   6   7
ENDBRANCH   5   6
ENDBRANCH   3   5
ENDBRANCH   1   2
BRANCH   1  11
ATOM     11  C   UNL     1      -6.496   3.144  55.776  1.00  0.00     0.034 C 
BRANCH  11  12
ATOM     12  C   UNL     1      -7.910   3.695  55.825  1.00  0.00    -0.077 C 
ATOM     13  C   UNL     1      -8.201   4.961  56.205  1.00  0.00    -0.028 C 
ATOM     14  C   UNL     1      -9.051   2.794  55.427  1.00  0.00     0.039 C 
BRANCH  13  15
ATOM     15  C   UNL     1      -7.199   6.013  56.633  1.00  0.00     0.035 C 
BRANCH  15  16
ATOM     16  C   UNL     1      -7.072   6.088  58.160  1.00  0.00     0.079 C 
BRANCH  16  17
ATOM     17  C   UNL     1      -5.854   5.361  58.666  1.00  0.00     0.130 C 
ATOM     18  O   UNL     1      -4.745   5.840  58.483  1.00  0.00    -0.300 OA
ATOM     19  C   UNL     1      -5.982   4.072  59.422  1.00  0.00     0.087 C 
ENDBRANCH  16  17
ENDBRANCH  15  16
ENDBRANCH  13  15
ENDBRANCH  11  12
ENDBRANCH   1  11
TORSDOF 9
ENDMDL
MODEL 7
REMARK VINA RESULT:    -4.571      7.998      9.674
REMARK INTER + INTRA:          -9.037
REMARK INTER:                  -7.332
REMARK INTRA:                  -1.705
REMARK UNBOUND:                -2.062
REMARK SMILES CC(=O)CCC=C(C)CCC=C(C)CCC=C(C)C
REMARK SMILES IDX 10 1 11 2 12 3 13 4 14 5 15 6 16 7 18 8 17 9 19 10 9 11 7 12
REMARK SMILES IDX 6 13 8 14 5 15 4 16 2 17 3 18 1 19
REMARK H PARENT
REMARK Flexibility Score: inf
ROOT
ATOM      1  C   UNL     1      -4.975   5.323  58.460  1.00  0.00     0.032 C 
ENDROOT
BRANCH   1   2
ATOM      2  C   UNL     1      -6.012   5.862  57.502  1.00  0.00    -0.028 C 
ATOM      3  C   UNL     1      -6.378   5.273  56.341  1.00  0.00    -0.077 C 
ATOM      4  C   UNL     1      -5.804   3.949  55.896  1.00  0.00     0.039 C 
BRANCH   3   5
ATOM      5  C   UNL     1      -7.397   5.963  55.456  1.00  0.00     0.034 C 
BRANCH   5   6
ATOM      6  C   UNL     1      -8.092   4.977  54.507  1.00  0.00     0.032 C 
BRANCH   6   7
ATOM      7  C   UNL     1      -7.782   5.281  53.059  1.00  0.00    -0.028 C 
ATOM      8  C   UNL     1      -6.965   2.964  52.571  1.00  0.00     0.039 C 
ATOM      9  C   UNL     1      -7.314   4.375  52.170  1.00  0.00    -0.080 C 
ATOM     10  C   UNL     1      -7.072   4.788  50.741  1.00  0.00     0.039 C 
ENDBRANCH   6   7
ENDBRANCH   5   6
ENDBRANCH   3   5
ENDBRANCH   1   2
BRANCH   1  11
ATOM     11  C   UNL     1      -5.630   4.815  59.752  1.00  0.00     0.034 C 
BRANCH  11  12
ATOM     12  C   UNL     1      -6.244   3.437  59.574  1.00  0.00    -0.077 C 
ATOM     13  C   UNL     1      -7.576   3.205  59.628  1.00  0.00    -0.028 C 
ATOM     14  C   UNL     1      -5.330   2.266  59.319  1.00  0.00     0.039 C 
BRANCH  13  15
ATOM     15  C   UNL     1      -8.650   4.246  59.866  1.00  0.00     0.035 C 
BRANCH  15  16
ATOM     16  C   UNL     1      -8.734   4.646  61.346  1.00  0.00     0.079 C 
BRANCH  16  17
ATOM     17  C   UNL     1      -9.076   6.102  61.522  1.00  0.00     0.130 C 
ATOM     18  O   UNL     1     -10.236   6.429  61.722  1.00  0.00    -0.300 OA
ATOM     19  C   UNL     1      -8.010   7.155  61.491  1.00  0.00     0.087 C 
ENDBRANCH  16  17
ENDBRANCH  15  16
ENDBRANCH  13  15
ENDBRANCH  11  12
ENDBRANCH   1  11
TORSDOF 9
ENDMDL
MODEL 8
REMARK VINA RESULT:    -4.559      8.603     11.555
REMARK INTER + INTRA:          -9.019
REMARK INTER:                  -7.391
REMARK INTRA:                  -1.628
REMARK UNBOUND:                -2.062
REMARK SMILES CC(=O)CCC=C(C)CCC=C(C)CCC=C(C)C
REMARK SMILES IDX 10 1 11 2 12 3 13 4 14 5 15 6 16 7 18 8 17 9 19 10 9 11 7 12
REMARK SMILES IDX 6 13 8 14 5 15 4 16 2 17 3 18 1 19
REMARK H PARENT
REMARK Flexibility Score: inf
ROOT
ATOM      1  C   UNL     1      -6.868   4.532  54.658  1.00  0.00     0.032 C 
ENDROOT
BRANCH   1   2
ATOM      2  C   UNL     1      -5.959   4.651  55.859  1.00  0.00    -0.028 C 
ATOM      3  C   UNL     1      -6.141   4.011  57.037  1.00  0.00    -0.077 C 
ATOM      4  C   UNL     1      -7.278   3.043  57.258  1.00  0.00     0.039 C 
BRANCH   3   5
ATOM      5  C   UNL     1      -5.171   4.272  58.172  1.00  0.00     0.034 C 
BRANCH   5   6
ATOM      6  C   UNL     1      -5.174   5.747  58.599  1.00  0.00     0.032 C 
BRANCH   6   7
ATOM      7  C   UNL     1      -5.772   5.931  59.975  1.00  0.00    -0.028 C 
ATOM      8  C   UNL     1      -8.078   6.373  59.100  1.00  0.00     0.039 C 
ATOM      9  C   UNL     1      -7.081   6.172  60.214  1.00  0.00    -0.080 C 
ATOM     10  C   UNL     1      -7.568   6.306  61.634  1.00  0.00     0.039 C 
ENDBRANCH   6   7
ENDBRANCH   5   6
ENDBRANCH   3   5
ENDBRANCH   1   2
BRANCH   1  11
ATOM     11  C   UNL     1      -6.166   3.797  53.507  1.00  0.00     0.034 C 
BRANCH  11  12
ATOM     12  C   UNL     1      -6.905   2.532  53.107  1.00  0.00    -0.077 C 
ATOM     13  C   UNL     1      -7.705   2.452  52.019  1.00  0.00    -0.028 C 
ATOM     14  C   UNL     1      -6.739   1.299  53.958  1.00  0.00     0.039 C 
BRANCH  13  15
ATOM     15  C   UNL     1      -7.992   3.574  51.043  1.00  0.00     0.035 C 
BRANCH  15  16
ATOM     16  C   UNL     1      -9.493   3.878  50.953  1.00  0.00     0.079 C 
BRANCH  16  17
ATOM     17  C   UNL     1      -9.821   5.270  51.429  1.00  0.00     0.130 C 
ATOM     18  O   UNL     1     -10.032   6.152  50.611  1.00  0.00    -0.300 OA
ATOM     19  C   UNL     1      -9.925   5.581  52.892  1.00  0.00     0.087 C 
ENDBRANCH  16  17
ENDBRANCH  15  16
ENDBRANCH  13  15
ENDBRANCH  11  12
ENDBRANCH   1  11
TORSDOF 9
ENDMDL
MODEL 9
REMARK VINA RESULT:    -4.474      7.623      9.377
REMARK INTER + INTRA:          -8.889
REMARK INTER:                  -6.586
REMARK INTRA:                  -2.303
REMARK UNBOUND:                -2.062
REMARK SMILES CC(=O)CCC=C(C)CCC=C(C)CCC=C(C)C
REMARK SMILES IDX 10 1 11 2 12 3 13 4 14 5 15 6 16 7 18 8 17 9 19 10 9 11 7 12
REMARK SMILES IDX 6 13 8 14 5 15 4 16 2 17 3 18 1 19
REMARK H PARENT
REMARK Flexibility Score: inf
ROOT
ATOM      1  C   UNL     1      -7.672   6.265  56.521  1.00  0.00     0.032 C 
ENDROOT
BRANCH   1   2
ATOM      2  C   UNL     1      -6.758   5.376  55.709  1.00  0.00    -0.028 C 
ATOM      3  C   UNL     1      -7.021   4.093  55.370  1.00  0.00    -0.077 C 
ATOM      4  C   UNL     1      -8.319   3.416  55.740  1.00  0.00     0.039 C 
BRANCH   3   5
ATOM      5  C   UNL     1      -5.981   3.309  54.596  1.00  0.00     0.034 C 
BRANCH   5   6
ATOM      6  C   UNL     1      -5.879   3.779  53.138  1.00  0.00     0.032 C 
BRANCH   6   7
ATOM      7  C   UNL     1      -7.075   3.341  52.323  1.00  0.00    -0.028 C 
ATOM      8  C   UNL     1      -7.969   5.668  52.072  1.00  0.00     0.039 C 
ATOM      9  C   UNL     1      -7.997   4.183  51.806  1.00  0.00    -0.080 C 
ATOM     10  C   UNL     1      -9.132   3.632  50.981  1.00  0.00     0.039 C 
ENDBRANCH   6   7
ENDBRANCH   5   6
ENDBRANCH   3   5
ENDBRANCH   1   2
BRANCH   1  11
ATOM     11  C   UNL     1      -7.370   6.140  58.021  1.00  0.00     0.034 C 
BRANCH  11  12
ATOM     12  C   UNL     1      -8.395   5.279  58.737  1.00  0.00    -0.077 C 
ATOM     13  C   UNL     1      -8.064   4.308  59.619  1.00  0.00    -0.028 C 
ATOM     14  C   UNL     1      -9.858   5.515  58.459  1.00  0.00     0.039 C 
BRANCH  13  15
ATOM     15  C   UNL     1      -6.658   3.925  60.032  1.00  0.00     0.035 C 
BRANCH  15  16
ATOM     16  C   UNL     1      -6.025   2.936  59.043  1.00  0.00     0.079 C 
BRANCH  16  17
ATOM     17  C   UNL     1      -4.779   3.491  58.404  1.00  0.00     0.130 C 
ATOM     18  O   UNL     1      -4.404   4.618  58.689  1.00  0.00    -0.300 OA
ATOM     19  C   UNL     1      -3.971   2.666  57.447  1.00  0.00     0.087 C 
ENDBRANCH  16  17
ENDBRANCH  15  16
ENDBRANCH  13  15
ENDBRANCH  11  12
ENDBRANCH   1  11
TORSDOF 9
ENDMDL
