MODEL 1
REMARK VINA RESULT:    -2.869      0.000      0.000
REMARK INTER + INTRA:          -4.057
REMARK INTER:                  -3.875
REMARK INTRA:                  -0.182
REMARK UNBOUND:                -0.182
REMARK SMILES CCCCCCCC(=O)[O-]
REMARK SMILES IDX 5 1 6 2 7 3 8 4 9 5 10 6 4 7 3 8 2 9 1 10
REMARK H PARENT
REMARK Flexibility Score: inf
ROOT
ATOM      1  C   UNL     1      45.453 -24.164  -0.794  1.00  0.00     0.000 C 
ENDROOT
BRANCH   1   2
ATOM      2  C   UNL     1      46.090 -25.275   0.062  1.00  0.00     0.006 C 
BRANCH   2   3
ATOM      3  C   UNL     1      45.702 -25.186   1.543  1.00  0.00     0.053 C 
BRANCH   3   4
ATOM      4  C   UNL     1      45.692 -26.548   2.163  1.00  0.00     0.041 C 
ATOM      5  O   UNL     1      45.672 -26.674   3.415  1.00  0.00    -0.550 OA
ATOM      6  O   UNL     1      45.656 -27.678   1.357  1.00  0.00    -0.550 OA
ENDBRANCH   3   4
ENDBRANCH   2   3
ENDBRANCH   1   2
BRANCH   1   7
ATOM      7  C   UNL     1      46.048 -24.013  -2.206  1.00  0.00     0.000 C 
BRANCH   7   8
ATOM      8  C   UNL     1      45.923 -25.295  -3.047  1.00  0.00    -0.000 C 
BRANCH   8   9
ATOM      9  C   UNL     1      46.125 -25.035  -4.547  1.00  0.00    -0.003 C 
ATOM     10  C   UNL     1      46.115 -23.546  -4.895  1.00  0.00     0.004 C 
ENDBRANCH   8   9
ENDBRANCH   7   8
ENDBRANCH   1   7
TORSDOF 6
ENDMDL
MODEL 2
REMARK VINA RESULT:    -2.865      1.197      2.217
REMARK INTER + INTRA:          -4.052
REMARK INTER:                  -3.844
REMARK INTRA:                  -0.207
REMARK UNBOUND:                -0.182
REMARK SMILES CCCCCCCC(=O)[O-]
REMARK SMILES IDX 5 1 6 2 7 3 8 4 9 5 10 6 4 7 3 8 2 9 1 10
REMARK H PARENT
REMARK Flexibility Score: inf
ROOT
ATOM      1  C   UNL     1      46.104 -25.470   0.537  1.00  0.00     0.000 C 
ENDROOT
BRANCH   1   2
ATOM      2  C   UNL     1      45.107 -26.093   1.533  1.00  0.00     0.006 C 
BRANCH   2   3
ATOM      3  C   UNL     1      45.773 -26.551   2.836  1.00  0.00     0.053 C 
BRANCH   3   4
ATOM      4  C   UNL     1      45.889 -28.043   2.867  1.00  0.00     0.041 C 
ATOM      5  O   UNL     1      45.819 -28.705   1.800  1.00  0.00    -0.550 OA
ATOM      6  O   UNL     1      46.124 -28.697   4.070  1.00  0.00    -0.550 OA
ENDBRANCH   3   4
ENDBRANCH   2   3
ENDBRANCH   1   2
BRANCH   1   7
ATOM      7  C   UNL     1      45.847 -23.988   0.206  1.00  0.00     0.000 C 
BRANCH   7   8
ATOM      8  C   UNL     1      46.119 -23.651  -1.270  1.00  0.00    -0.000 C 
BRANCH   8   9
ATOM      9  C   UNL     1      45.769 -24.812  -2.213  1.00  0.00    -0.003 C 
ATOM     10  C   UNL     1      46.083 -24.499  -3.676  1.00  0.00     0.004 C 
ENDBRANCH   8   9
ENDBRANCH   7   8
ENDBRANCH   1   7
TORSDOF 6
ENDMDL
MODEL 3
REMARK VINA RESULT:    -2.467      3.164      5.943
REMARK INTER + INTRA:          -3.514
REMARK INTER:                  -3.310
REMARK INTRA:                  -0.203
REMARK UNBOUND:                -0.182
REMARK SMILES CCCCCCCC(=O)[O-]
REMARK SMILES IDX 5 1 6 2 7 3 8 4 9 5 10 6 4 7 3 8 2 9 1 10
REMARK H PARENT
REMARK Flexibility Score: inf
ROOT
ATOM      1  C   UNL     1      45.409 -26.417   1.882  1.00  0.00     0.000 C 
ENDROOT
BRANCH   1   2
ATOM      2  C   UNL     1      46.119 -25.213   1.233  1.00  0.00     0.006 C 
BRANCH   2   3
ATOM      3  C   UNL     1      45.731 -25.013  -0.237  1.00  0.00     0.053 C 
BRANCH   3   4
ATOM      4  C   UNL     1      45.849 -23.570  -0.616  1.00  0.00     0.041 C 
ATOM      5  O   UNL     1      45.949 -22.687   0.275  1.00  0.00    -0.550 OA
ATOM      6  O   UNL     1      45.899 -23.205  -1.955  1.00  0.00    -0.550 OA
ENDBRANCH   3   4
ENDBRANCH   2   3
ENDBRANCH   1   2
BRANCH   1   7
ATOM      7  C   UNL     1      45.826 -26.707   3.335  1.00  0.00     0.000 C 
BRANCH   7   8
ATOM      8  C   UNL     1      46.125 -28.196   3.585  1.00  0.00    -0.000 C 
BRANCH   8   9
ATOM      9  C   UNL     1      45.358 -29.118   2.625  1.00  0.00    -0.003 C 
ATOM     10  C   UNL     1      45.972 -30.515   2.534  1.00  0.00     0.004 C 
ENDBRANCH   8   9
ENDBRANCH   7   8
ENDBRANCH   1   7
TORSDOF 6
ENDMDL
MODEL 4
REMARK VINA RESULT:    -2.270      2.912      5.541
REMARK INTER + INTRA:          -3.248
REMARK INTER:                  -3.197
REMARK INTRA:                  -0.052
REMARK UNBOUND:                -0.182
REMARK SMILES CCCCCCCC(=O)[O-]
REMARK SMILES IDX 5 1 6 2 7 3 8 4 9 5 10 6 4 7 3 8 2 9 1 10
REMARK H PARENT
REMARK Flexibility Score: inf
ROOT
ATOM      1  C   UNL     1      45.112 -23.929  -0.823  1.00  0.00     0.000 C 
ENDROOT
BRANCH   1   2
ATOM      2  C   UNL     1      45.793 -23.506  -2.139  1.00  0.00     0.006 C 
BRANCH   2   3
ATOM      3  C   UNL     1      46.125 -24.695  -3.048  1.00  0.00     0.053 C 
BRANCH   3   4
ATOM      4  C   UNL     1      44.914 -25.117  -3.819  1.00  0.00     0.041 C 
ATOM      5  O   UNL     1      43.910 -25.580  -3.218  1.00  0.00    -0.550 OA
ATOM      6  O   UNL     1      44.875 -24.953  -5.198  1.00  0.00    -0.550 OA
ENDBRANCH   3   4
ENDBRANCH   2   3
ENDBRANCH   1   2
BRANCH   1   7
ATOM      7  C   UNL     1      45.719 -25.174  -0.152  1.00  0.00     0.000 C 
BRANCH   7   8
ATOM      8  C   UNL     1      45.899 -25.005   1.367  1.00  0.00    -0.000 C 
BRANCH   8   9
ATOM      9  C   UNL     1      46.093 -26.348   2.089  1.00  0.00    -0.003 C 
ATOM     10  C   UNL     1      44.770 -26.983   2.517  1.00  0.00     0.004 C 
ENDBRANCH   8   9
ENDBRANCH   7   8
ENDBRANCH   1   7
TORSDOF 6
ENDMDL
MODEL 5
REMARK VINA RESULT:    -1.385      2.415      3.198
REMARK INTER + INTRA:          -2.053
REMARK INTER:                  -1.979
REMARK INTRA:                  -0.074
REMARK UNBOUND:                -0.182
REMARK SMILES CCCCCCCC(=O)[O-]
REMARK SMILES IDX 5 1 6 2 7 3 8 4 9 5 10 6 4 7 3 8 2 9 1 10
REMARK H PARENT
REMARK Flexibility Score: inf
ROOT
ATOM      1  C   UNL     1      46.123 -24.531  -3.031  1.00  0.00     0.000 C 
ENDROOT
BRANCH   1   2
ATOM      2  C   UNL     1      44.831 -24.551  -2.192  1.00  0.00     0.006 C 
BRANCH   2   3
ATOM      3  C   UNL     1      45.068 -24.981  -0.740  1.00  0.00     0.053 C 
BRANCH   3   4
ATOM      4  C   UNL     1      45.518 -23.815   0.083  1.00  0.00     0.041 C 
ATOM      5  O   UNL     1      45.894 -23.986   1.272  1.00  0.00    -0.550 OA
ATOM      6  O   UNL     1      45.568 -22.546  -0.478  1.00  0.00    -0.550 OA
ENDBRANCH   3   4
ENDBRANCH   2   3
ENDBRANCH   1   2
BRANCH   1   7
ATOM      7  C   UNL     1      45.917 -24.750  -4.541  1.00  0.00     0.000 C 
BRANCH   7   8
ATOM      8  C   UNL     1      45.956 -23.438  -5.345  1.00  0.00    -0.000 C 
BRANCH   8   9
ATOM      9  C   UNL     1      45.538 -23.635  -6.810  1.00  0.00    -0.003 C 
ATOM     10  C   UNL     1      46.122 -24.907  -7.425  1.00  0.00     0.004 C 
ENDBRANCH   8   9
ENDBRANCH   7   8
ENDBRANCH   1   7
TORSDOF 6
ENDMDL
MODEL 6
REMARK VINA RESULT:    -1.109      6.123      8.766
REMARK INTER + INTRA:          -1.680
REMARK INTER:                  -1.559
REMARK INTRA:                  -0.121
REMARK UNBOUND:                -0.182
REMARK SMILES CCCCCCCC(=O)[O-]
REMARK SMILES IDX 5 1 6 2 7 3 8 4 9 5 10 6 4 7 3 8 2 9 1 10
REMARK H PARENT
REMARK Flexibility Score: inf
ROOT
ATOM      1  C   UNL     1      45.360 -29.727   6.579  1.00  0.00     0.000 C 
ENDROOT
BRANCH   1   2
ATOM      2  C   UNL     1      46.080 -30.423   7.750  1.00  0.00     0.006 C 
BRANCH   2   3
ATOM      3  C   UNL     1      46.105 -29.573   9.026  1.00  0.00     0.053 C 
BRANCH   3   4
ATOM      4  C   UNL     1      45.175 -30.143  10.051  1.00  0.00     0.041 C 
ATOM      5  O   UNL     1      44.301 -29.414  10.587  1.00  0.00    -0.550 OA
ATOM      6  O   UNL     1      45.242 -31.490  10.378  1.00  0.00    -0.550 OA
ENDBRANCH   3   4
ENDBRANCH   2   3
ENDBRANCH   1   2
BRANCH   1   7
ATOM      7  C   UNL     1      46.124 -29.750   5.243  1.00  0.00     0.000 C 
BRANCH   7   8
ATOM      8  C   UNL     1      46.099 -28.394   4.517  1.00  0.00    -0.000 C 
BRANCH   8   9
ATOM      9  C   UNL     1      46.046 -28.546   2.989  1.00  0.00    -0.003 C 
ATOM     10  C   UNL     1      45.628 -27.257   2.282  1.00  0.00     0.004 C 
ENDBRANCH   8   9
ENDBRANCH   7   8
ENDBRANCH   1   7
TORSDOF 6
ENDMDL
