MODEL 1
REMARK VINA RESULT:    -3.428      0.000      0.000
REMARK INTER + INTRA:          -4.353
REMARK INTER:                  -4.130
REMARK INTRA:                  -0.224
REMARK UNBOUND:                -0.224
REMARK SMILES OCC(O)CO
REMARK SMILES IDX 3 1 5 2 6 3 2 5 1 6 4 8
REMARK H PARENT 6 4 1 7 4 9
REMARK Flexibility Score: inf
ROOT
ATOM      1  C   UNL     1     -14.731  29.032  19.729  1.00  0.00     0.165 C 
ENDROOT
BRANCH   1   2
ATOM      2  C   UNL     1     -14.222  30.421  19.312  1.00  0.00     0.190 C 
BRANCH   2   3
ATOM      3  O   UNL     1     -13.262  30.883  20.222  1.00  0.00    -0.394 OA
ATOM      4  H   UNL     1     -13.752  31.444  20.878  1.00  0.00     0.210 HD
ENDBRANCH   2   3
ENDBRANCH   1   2
BRANCH   1   5
ATOM      5  C   UNL     1     -13.594  28.002  19.787  1.00  0.00     0.190 C 
BRANCH   5   6
ATOM      6  O   UNL     1     -12.934  28.072  21.021  1.00  0.00    -0.394 OA
ATOM      7  H   UNL     1     -12.600  27.156  21.207  1.00  0.00     0.210 HD
ENDBRANCH   5   6
ENDBRANCH   1   5
BRANCH   1   8
ATOM      8  O   UNL     1     -15.325  29.114  20.998  1.00  0.00    -0.388 OA
ATOM      9  H   UNL     1     -15.941  29.892  20.978  1.00  0.00     0.211 HD
ENDBRANCH   1   8
TORSDOF 5
ENDMDL
MODEL 2
REMARK VINA RESULT:    -3.418      0.650      2.388
REMARK INTER + INTRA:          -4.341
REMARK INTER:                  -4.123
REMARK INTRA:                  -0.218
REMARK UNBOUND:                -0.224
REMARK SMILES OCC(O)CO
REMARK SMILES IDX 3 1 5 2 6 3 2 5 1 6 4 8
REMARK H PARENT 6 4 1 7 4 9
REMARK Flexibility Score: inf
ROOT
ATOM      1  C   UNL     1     -13.609  28.414  19.549  1.00  0.00     0.165 C 
ENDROOT
BRANCH   1   2
ATOM      2  C   UNL     1     -15.118  28.383  19.842  1.00  0.00     0.190 C 
BRANCH   2   3
ATOM      3  O   UNL     1     -15.402  29.087  21.019  1.00  0.00    -0.394 OA
ATOM      4  H   UNL     1     -15.721  29.982  20.734  1.00  0.00     0.210 HD
ENDBRANCH   2   3
ENDBRANCH   1   2
BRANCH   1   5
ATOM      5  C   UNL     1     -13.145  29.803  19.092  1.00  0.00     0.190 C 
BRANCH   5   6
ATOM      6  O   UNL     1     -13.244  30.723  20.146  1.00  0.00    -0.394 OA
ATOM      7  H   UNL     1     -14.036  30.450  20.676  1.00  0.00     0.210 HD
ENDBRANCH   5   6
ENDBRANCH   1   5
BRANCH   1   8
ATOM      8  O   UNL     1     -12.901  28.066  20.710  1.00  0.00    -0.388 OA
ATOM      9  H   UNL     1     -13.304  28.581  21.458  1.00  0.00     0.211 HD
ENDBRANCH   1   8
TORSDOF 5
ENDMDL
MODEL 3
REMARK VINA RESULT:    -3.370      0.920      2.672
REMARK INTER + INTRA:          -4.283
REMARK INTER:                  -4.061
REMARK INTRA:                  -0.223
REMARK UNBOUND:                -0.224
REMARK SMILES OCC(O)CO
REMARK SMILES IDX 3 1 5 2 6 3 2 5 1 6 4 8
REMARK H PARENT 6 4 1 7 4 9
REMARK Flexibility Score: inf
ROOT
ATOM      1  C   UNL     1     -13.974  29.850  19.551  1.00  0.00     0.165 C 
ENDROOT
BRANCH   1   2
ATOM      2  C   UNL     1     -13.770  28.495  20.249  1.00  0.00     0.190 C 
BRANCH   2   3
ATOM      3  O   UNL     1     -13.595  28.677  21.627  1.00  0.00    -0.394 OA
ATOM      4  H   UNL     1     -14.059  27.918  22.066  1.00  0.00     0.210 HD
ENDBRANCH   2   3
ENDBRANCH   1   2
BRANCH   1   5
ATOM      5  C   UNL     1     -15.458  30.227  19.462  1.00  0.00     0.190 C 
BRANCH   5   6
ATOM      6  O   UNL     1     -16.115  29.915  20.661  1.00  0.00    -0.394 OA
ATOM      7  H   UNL     1     -17.072  29.795  20.427  1.00  0.00     0.210 HD
ENDBRANCH   5   6
ENDBRANCH   1   5
BRANCH   1   8
ATOM      8  O   UNL     1     -13.300  30.850  20.269  1.00  0.00    -0.388 OA
ATOM      9  H   UNL     1     -13.911  31.631  20.318  1.00  0.00     0.211 HD
ENDBRANCH   1   8
TORSDOF 5
ENDMDL
MODEL 4
REMARK VINA RESULT:    -3.369      1.029      2.672
REMARK INTER + INTRA:          -4.282
REMARK INTER:                  -4.059
REMARK INTRA:                  -0.223
REMARK UNBOUND:                -0.224
REMARK SMILES OCC(O)CO
REMARK SMILES IDX 3 1 5 2 6 3 2 5 1 6 4 8
REMARK H PARENT 6 4 1 7 4 9
REMARK Flexibility Score: inf
ROOT
ATOM      1  C   UNL     1     -13.652  28.809  19.166  1.00  0.00     0.165 C 
ENDROOT
BRANCH   1   2
ATOM      2  C   UNL     1     -14.530  27.993  20.129  1.00  0.00     0.190 C 
BRANCH   2   3
ATOM      3  O   UNL     1     -14.470  28.532  21.420  1.00  0.00    -0.394 OA
ATOM      4  H   UNL     1     -15.174  28.068  21.945  1.00  0.00     0.210 HD
ENDBRANCH   2   3
ENDBRANCH   1   2
BRANCH   1   5
ATOM      5  C   UNL     1     -13.996  30.304  19.210  1.00  0.00     0.190 C 
BRANCH   5   6
ATOM      6  O   UNL     1     -13.321  30.931  20.266  1.00  0.00    -0.394 OA
ATOM      7  H   UNL     1     -13.741  31.823  20.371  1.00  0.00     0.210 HD
ENDBRANCH   5   6
ENDBRANCH   1   5
BRANCH   1   8
ATOM      8  O   UNL     1     -12.303  28.651  19.517  1.00  0.00    -0.388 OA
ATOM      9  H   UNL     1     -11.797  28.531  18.671  1.00  0.00     0.211 HD
ENDBRANCH   1   8
TORSDOF 5
ENDMDL
MODEL 5
REMARK VINA RESULT:    -3.310      2.071      3.345
REMARK INTER + INTRA:          -4.211
REMARK INTER:                  -3.988
REMARK INTRA:                  -0.224
REMARK UNBOUND:                -0.224
REMARK SMILES OCC(O)CO
REMARK SMILES IDX 3 1 5 2 6 3 2 5 1 6 4 8
REMARK H PARENT 6 4 1 7 4 9
REMARK Flexibility Score: inf
ROOT
ATOM      1  C   UNL     1     -14.746  32.271  19.462  1.00  0.00     0.165 C 
ENDROOT
BRANCH   1   2
ATOM      2  C   UNL     1     -13.841  31.049  19.235  1.00  0.00     0.190 C 
BRANCH   2   3
ATOM      3  O   UNL     1     -13.300  30.610  20.450  1.00  0.00    -0.394 OA
ATOM      4  H   UNL     1     -12.314  30.636  20.338  1.00  0.00     0.210 HD
ENDBRANCH   2   3
ENDBRANCH   1   2
BRANCH   1   5
ATOM      5  C   UNL     1     -16.194  31.860  19.762  1.00  0.00     0.190 C 
BRANCH   5   6
ATOM      6  O   UNL     1     -16.225  30.619  20.413  1.00  0.00    -0.394 OA
ATOM      7  H   UNL     1     -16.721  30.005  19.812  1.00  0.00     0.210 HD
ENDBRANCH   5   6
ENDBRANCH   1   5
BRANCH   1   8
ATOM      8  O   UNL     1     -14.259  33.017  20.547  1.00  0.00    -0.388 OA
ATOM      9  H   UNL     1     -13.476  32.524  20.907  1.00  0.00     0.211 HD
ENDBRANCH   1   8
TORSDOF 5
ENDMDL
MODEL 6
REMARK VINA RESULT:    -3.234      1.974      2.521
REMARK INTER + INTRA:          -4.120
REMARK INTER:                  -3.903
REMARK INTRA:                  -0.217
REMARK UNBOUND:                -0.224
REMARK SMILES OCC(O)CO
REMARK SMILES IDX 3 1 5 2 6 3 2 5 1 6 4 8
REMARK H PARENT 6 4 1 7 4 9
REMARK Flexibility Score: inf
ROOT
ATOM      1  C   UNL     1     -15.328  31.354  19.386  1.00  0.00     0.165 C 
ENDROOT
BRANCH   1   2
ATOM      2  C   UNL     1     -15.437  32.818  19.840  1.00  0.00     0.190 C 
BRANCH   2   3
ATOM      3  O   UNL     1     -14.322  33.176  20.609  1.00  0.00    -0.394 OA
ATOM      4  H   UNL     1     -14.617  33.138  21.556  1.00  0.00     0.210 HD
ENDBRANCH   2   3
ENDBRANCH   1   2
BRANCH   1   5
ATOM      5  C   UNL     1     -13.867  30.922  19.201  1.00  0.00     0.190 C 
BRANCH   5   6
ATOM      6  O   UNL     1     -13.315  30.526  20.427  1.00  0.00    -0.394 OA
ATOM      7  H   UNL     1     -12.580  29.897  20.208  1.00  0.00     0.210 HD
ENDBRANCH   5   6
ENDBRANCH   1   5
BRANCH   1   8
ATOM      8  O   UNL     1     -15.921  30.522  20.349  1.00  0.00    -0.388 OA
ATOM      9  H   UNL     1     -15.495  29.630  20.261  1.00  0.00     0.211 HD
ENDBRANCH   1   8
TORSDOF 5
ENDMDL
MODEL 7
REMARK VINA RESULT:    -3.187      1.583      2.033
REMARK INTER + INTRA:          -4.063
REMARK INTER:                  -3.842
REMARK INTRA:                  -0.221
REMARK UNBOUND:                -0.224
REMARK SMILES OCC(O)CO
REMARK SMILES IDX 3 1 5 2 6 3 2 5 1 6 4 8
REMARK H PARENT 6 4 1 7 4 9
REMARK Flexibility Score: inf
ROOT
ATOM      1  C   UNL     1     -14.033  29.784  19.610  1.00  0.00     0.165 C 
ENDROOT
BRANCH   1   2
ATOM      2  C   UNL     1     -13.421  29.575  18.216  1.00  0.00     0.190 C 
BRANCH   2   3
ATOM      3  O   UNL     1     -13.602  28.251  17.796  1.00  0.00    -0.394 OA
ATOM      4  H   UNL     1     -12.957  27.707  18.317  1.00  0.00     0.210 HD
ENDBRANCH   2   3
ENDBRANCH   1   2
BRANCH   1   5
ATOM      5  C   UNL     1     -14.145  28.466  20.387  1.00  0.00     0.190 C 
BRANCH   5   6
ATOM      6  O   UNL     1     -12.870  27.968  20.691  1.00  0.00    -0.394 OA
ATOM      7  H   UNL     1     -12.999  27.017  20.944  1.00  0.00     0.210 HD
ENDBRANCH   5   6
ENDBRANCH   1   5
BRANCH   1   8
ATOM      8  O   UNL     1     -13.229  30.669  20.345  1.00  0.00    -0.388 OA
ATOM      9  H   UNL     1     -12.373  30.199  20.524  1.00  0.00     0.211 HD
ENDBRANCH   1   8
TORSDOF 5
ENDMDL
MODEL 8
REMARK VINA RESULT:    -3.166      1.848      3.452
REMARK INTER + INTRA:          -4.038
REMARK INTER:                  -3.887
REMARK INTRA:                  -0.151
REMARK UNBOUND:                -0.224
REMARK SMILES OCC(O)CO
REMARK SMILES IDX 3 1 5 2 6 3 2 5 1 6 4 8
REMARK H PARENT 6 4 1 7 4 9
REMARK Flexibility Score: inf
ROOT
ATOM      1  C   UNL     1     -14.289  31.040  19.263  1.00  0.00     0.165 C 
ENDROOT
BRANCH   1   2
ATOM      2  C   UNL     1     -15.412  30.019  19.504  1.00  0.00     0.190 C 
BRANCH   2   3
ATOM      3  O   UNL     1     -16.235  30.435  20.558  1.00  0.00    -0.394 OA
ATOM      4  H   UNL     1     -15.886  29.989  21.373  1.00  0.00     0.210 HD
ENDBRANCH   2   3
ENDBRANCH   1   2
BRANCH   1   5
ATOM      5  C   UNL     1     -14.790  32.483  19.413  1.00  0.00     0.190 C 
BRANCH   5   6
ATOM      6  O   UNL     1     -14.329  33.038  20.615  1.00  0.00    -0.394 OA
ATOM      7  H   UNL     1     -14.048  33.965  20.401  1.00  0.00     0.210 HD
ENDBRANCH   5   6
ENDBRANCH   1   5
BRANCH   1   8
ATOM      8  O   UNL     1     -13.258  30.826  20.191  1.00  0.00    -0.388 OA
ATOM      9  H   UNL     1     -13.332  29.883  20.491  1.00  0.00     0.211 HD
ENDBRANCH   1   8
TORSDOF 5
ENDMDL
MODEL 9
REMARK VINA RESULT:    -2.923      1.421      1.926
REMARK INTER + INTRA:          -3.744
REMARK INTER:                  -3.733
REMARK INTRA:                  -0.011
REMARK UNBOUND:                -0.224
REMARK SMILES OCC(O)CO
REMARK SMILES IDX 3 1 5 2 6 3 2 5 1 6 4 8
REMARK H PARENT 6 4 1 7 4 9
REMARK Flexibility Score: inf
ROOT
ATOM      1  C   UNL     1     -14.032  28.587  20.420  1.00  0.00     0.165 C 
ENDROOT
BRANCH   1   2
ATOM      2  C   UNL     1     -13.654  29.733  19.468  1.00  0.00     0.190 C 
BRANCH   2   3
ATOM      3  O   UNL     1     -13.270  30.867  20.196  1.00  0.00    -0.394 OA
ATOM      4  H   UNL     1     -13.131  31.588  19.529  1.00  0.00     0.210 HD
ENDBRANCH   2   3
ENDBRANCH   1   2
BRANCH   1   5
ATOM      5  C   UNL     1     -14.743  27.445  19.683  1.00  0.00     0.190 C 
BRANCH   5   6
ATOM      6  O   UNL     1     -15.029  27.818  18.362  1.00  0.00    -0.394 OA
ATOM      7  H   UNL     1     -16.013  27.933  18.315  1.00  0.00     0.210 HD
ENDBRANCH   5   6
ENDBRANCH   1   5
BRANCH   1   8
ATOM      8  O   UNL     1     -12.871  28.077  21.021  1.00  0.00    -0.388 OA
ATOM      9  H   UNL     1     -12.112  28.630  20.697  1.00  0.00     0.211 HD
ENDBRANCH   1   8
TORSDOF 5
ENDMDL
