MODEL 1
REMARK VINA RESULT:    -5.022      0.000      0.000
REMARK INTER + INTRA:          -7.456
REMARK INTER:                  -6.784
REMARK INTRA:                  -0.672
REMARK UNBOUND:                -0.672
REMARK SMILES COc1ccc(-c2cc(=O)c3c(OC)c(OC)c(OC)c(OC)c3o2)cc1
REMARK SMILES IDX 7 1 8 2 9 3 10 4 11 5 24 6 25 7 21 8 18 9 15 10 12 11 6 12
REMARK SMILES IDX 3 13 4 14 27 15 5 16 26 17 2 18 1 19 22 20 23 21 13 22 14 23
REMARK SMILES IDX 19 24 20 25 16 26 17 27
REMARK H PARENT
REMARK Flexibility Score: inf
ROOT
ATOM      1  C   UNL     1       6.538  27.004  59.685  1.00  0.00     0.138 A 
ATOM      2  C   UNL     1       7.905  27.019  59.401  1.00  0.00     0.100 A 
ATOM      3  C   UNL     1       8.770  26.267  60.190  1.00  0.00     0.197 A 
ATOM      4  O   UNL     1      10.002  26.298  59.923  1.00  0.00    -0.289 OA
ATOM      5  C   UNL     1       8.257  25.493  61.261  1.00  0.00     0.115 A 
ATOM      6  C   UNL     1       6.863  25.540  61.494  1.00  0.00     0.188 A 
ATOM      7  O   UNL     1       6.090  26.288  60.710  1.00  0.00    -0.452 OA
ATOM      8  C   UNL     1       6.287  24.784  62.542  1.00  0.00     0.209 A 
ATOM      9  C   UNL     1       7.118  23.994  63.376  1.00  0.00     0.211 A 
ATOM     10  C   UNL     1       8.519  23.949  63.143  1.00  0.00     0.208 A 
ATOM     11  C   UNL     1       9.083  24.676  62.068  1.00  0.00     0.179 A 
ENDROOT
BRANCH   1  12
ATOM     12  C   UNL     1       5.573  27.774  58.866  1.00  0.00     0.018 A 
ATOM     13  C   UNL     1       3.743  29.293  57.346  1.00  0.00     0.118 A 
ATOM     14  C   UNL     1       3.315  28.159  58.043  1.00  0.00     0.047 A 
ATOM     15  C   UNL     1       5.098  29.670  57.415  1.00  0.00     0.047 A 
ATOM     16  C   UNL     1       4.218  27.404  58.797  1.00  0.00     0.016 A 
ATOM     17  C   UNL     1       6.000  28.918  58.173  1.00  0.00     0.016 A 
BRANCH  13  18
ATOM     18  O   UNL     1       2.797  30.017  56.604  1.00  0.00    -0.497 OA
ATOM     19  C   UNL     1       3.086  31.205  55.875  1.00  0.00     0.278 C 
ENDBRANCH  13  18
ENDBRANCH   1  12
BRANCH   8  20
ATOM     20  O   UNL     1       4.898  24.774  62.782  1.00  0.00    -0.490 OA
ATOM     21  C   UNL     1       4.154  25.654  63.617  1.00  0.00     0.278 C 
ENDBRANCH   8  20
BRANCH  11  22
ATOM     22  O   UNL     1      10.460  24.626  61.768  1.00  0.00    -0.492 OA
ATOM     23  C   UNL     1      11.202  23.475  61.363  1.00  0.00     0.278 C 
ENDBRANCH  11  22
BRANCH   9  24
ATOM     24  O   UNL     1       6.606  23.236  64.447  1.00  0.00    -0.490 OA
ATOM     25  C   UNL     1       6.144  21.885  64.432  1.00  0.00     0.279 C 
ENDBRANCH   9  24
BRANCH  10  26
ATOM     26  O   UNL     1       9.403  23.217  63.964  1.00  0.00    -0.490 OA
ATOM     27  C   UNL     1      10.054  23.645  65.156  1.00  0.00     0.278 C 
ENDBRANCH  10  26
TORSDOF 6
ENDMDL
MODEL 2
REMARK VINA RESULT:    -4.646      2.289      6.799
REMARK INTER + INTRA:          -6.948
REMARK INTER:                  -6.319
REMARK INTRA:                  -0.629
REMARK UNBOUND:                -0.672
REMARK SMILES COc1ccc(-c2cc(=O)c3c(OC)c(OC)c(OC)c(OC)c3o2)cc1
REMARK SMILES IDX 7 1 8 2 9 3 10 4 11 5 24 6 25 7 21 8 18 9 15 10 12 11 6 12
REMARK SMILES IDX 3 13 4 14 27 15 5 16 26 17 2 18 1 19 22 20 23 21 13 22 14 23
REMARK SMILES IDX 19 24 20 25 16 26 17 27
REMARK H PARENT
REMARK Flexibility Score: inf
ROOT
ATOM      1  C   UNL     1       7.946  26.127  60.303  1.00  0.00     0.138 A 
ATOM      2  C   UNL     1       7.475  27.010  59.330  1.00  0.00     0.100 A 
ATOM      3  C   UNL     1       6.115  27.302  59.280  1.00  0.00     0.197 A 
ATOM      4  O   UNL     1       5.707  28.097  58.390  1.00  0.00    -0.289 OA
ATOM      5  C   UNL     1       5.230  26.710  60.214  1.00  0.00     0.115 A 
ATOM      6  C   UNL     1       5.780  25.815  61.161  1.00  0.00     0.188 A 
ATOM      7  O   UNL     1       7.088  25.568  61.151  1.00  0.00    -0.452 OA
ATOM      8  C   UNL     1       4.952  25.196  62.127  1.00  0.00     0.209 A 
ATOM      9  C   UNL     1       3.558  25.460  62.128  1.00  0.00     0.211 A 
ATOM     10  C   UNL     1       3.005  26.357  61.176  1.00  0.00     0.208 A 
ATOM     11  C   UNL     1       3.847  27.003  60.238  1.00  0.00     0.179 A 
ENDROOT
BRANCH   1  12
ATOM     12  C   UNL     1       9.386  25.795  60.411  1.00  0.00     0.018 A 
ATOM     13  C   UNL     1      12.120  25.112  60.573  1.00  0.00     0.118 A 
ATOM     14  C   UNL     1      11.301  25.033  61.705  1.00  0.00     0.047 A 
ATOM     15  C   UNL     1      11.562  25.534  59.352  1.00  0.00     0.047 A 
ATOM     16  C   UNL     1       9.947  25.369  61.628  1.00  0.00     0.016 A 
ATOM     17  C   UNL     1      10.206  25.866  59.274  1.00  0.00     0.016 A 
BRANCH  13  18
ATOM     18  O   UNL     1      13.472  24.762  60.703  1.00  0.00    -0.497 OA
ATOM     19  C   UNL     1      14.297  24.334  59.625  1.00  0.00     0.278 C 
ENDBRANCH  13  18
ENDBRANCH   1  12
BRANCH   8  20
ATOM     20  O   UNL     1       5.468  24.329  63.110  1.00  0.00    -0.490 OA
ATOM     21  C   UNL     1       5.758  22.941  62.981  1.00  0.00     0.278 C 
ENDBRANCH   8  20
BRANCH  11  22
ATOM     22  O   UNL     1       3.352  27.937  59.305  1.00  0.00    -0.492 OA
ATOM     23  C   UNL     1       2.997  29.295  59.565  1.00  0.00     0.278 C 
ENDBRANCH  11  22
BRANCH   9  24
ATOM     24  O   UNL     1       2.680  24.859  63.052  1.00  0.00    -0.490 OA
ATOM     25  C   UNL     1       1.993  23.614  62.934  1.00  0.00     0.279 C 
ENDBRANCH   9  24
BRANCH  10  26
ATOM     26  O   UNL     1       1.623  26.626  61.097  1.00  0.00    -0.490 OA
ATOM     27  C   UNL     1       0.826  27.404  61.985  1.00  0.00     0.278 C 
ENDBRANCH  10  26
TORSDOF 6
ENDMDL
MODEL 3
REMARK VINA RESULT:    -4.575      1.531      2.329
REMARK INTER + INTRA:          -6.852
REMARK INTER:                  -6.134
REMARK INTRA:                  -0.718
REMARK UNBOUND:                -0.672
REMARK SMILES COc1ccc(-c2cc(=O)c3c(OC)c(OC)c(OC)c(OC)c3o2)cc1
REMARK SMILES IDX 7 1 8 2 9 3 10 4 11 5 24 6 25 7 21 8 18 9 15 10 12 11 6 12
REMARK SMILES IDX 3 13 4 14 27 15 5 16 26 17 2 18 1 19 22 20 23 21 13 22 14 23
REMARK SMILES IDX 19 24 20 25 16 26 17 27
REMARK H PARENT
REMARK Flexibility Score: inf
ROOT
ATOM      1  C   UNL     1       7.648  26.258  60.251  1.00  0.00     0.138 A 
ATOM      2  C   UNL     1       8.896  26.524  59.685  1.00  0.00     0.100 A 
ATOM      3  C   UNL     1      10.033  25.959  60.254  1.00  0.00     0.197 A 
ATOM      4  O   UNL     1      11.152  26.217  59.734  1.00  0.00    -0.289 OA
ATOM      5  C   UNL     1       9.913  25.120  61.390  1.00  0.00     0.115 A 
ATOM      6  C   UNL     1       8.617  24.909  61.913  1.00  0.00     0.188 A 
ATOM      7  O   UNL     1       7.569  25.486  61.330  1.00  0.00    -0.452 OA
ATOM      8  C   UNL     1       8.427  24.074  63.040  1.00  0.00     0.209 A 
ATOM      9  C   UNL     1       9.549  23.466  63.660  1.00  0.00     0.211 A 
ATOM     10  C   UNL     1      10.852  23.681  63.135  1.00  0.00     0.208 A 
ATOM     11  C   UNL     1      11.028  24.485  61.983  1.00  0.00     0.179 A 
ENDROOT
BRANCH   1  12
ATOM     12  C   UNL     1       6.404  26.820  59.674  1.00  0.00     0.018 A 
ATOM     13  C   UNL     1       4.021  27.831  58.549  1.00  0.00     0.118 A 
ATOM     14  C   UNL     1       5.264  28.328  58.142  1.00  0.00     0.047 A 
ATOM     15  C   UNL     1       3.975  26.818  59.525  1.00  0.00     0.047 A 
ATOM     16  C   UNL     1       6.446  27.830  58.696  1.00  0.00     0.016 A 
ATOM     17  C   UNL     1       5.157  26.316  60.076  1.00  0.00     0.016 A 
BRANCH  13  18
ATOM     18  O   UNL     1       2.864  28.365  57.961  1.00  0.00    -0.497 OA
ATOM     19  C   UNL     1       2.860  29.443  57.032  1.00  0.00     0.278 C 
ENDBRANCH  13  18
ENDBRANCH   1  12
BRANCH   8  20
ATOM     20  O   UNL     1       7.148  23.808  63.568  1.00  0.00    -0.490 OA
ATOM     21  C   UNL     1       6.240  22.786  63.172  1.00  0.00     0.278 C 
ENDBRANCH   8  20
BRANCH  11  22
ATOM     22  O   UNL     1      12.295  24.689  61.398  1.00  0.00    -0.492 OA
ATOM     23  C   UNL     1      13.079  23.718  60.704  1.00  0.00     0.278 C 
ENDBRANCH  11  22
BRANCH   9  24
ATOM     24  O   UNL     1       9.426  22.642  64.796  1.00  0.00    -0.490 OA
ATOM     25  C   UNL     1       9.271  21.225  64.845  1.00  0.00     0.279 C 
ENDBRANCH   9  24
BRANCH  10  26
ATOM     26  O   UNL     1      12.010  23.142  63.731  1.00  0.00    -0.490 OA
ATOM     27  C   UNL     1      12.811  23.705  64.766  1.00  0.00     0.278 C 
ENDBRANCH  10  26
TORSDOF 6
ENDMDL
MODEL 4
REMARK VINA RESULT:    -4.510      1.167      3.507
REMARK INTER + INTRA:          -6.764
REMARK INTER:                  -6.128
REMARK INTRA:                  -0.636
REMARK UNBOUND:                -0.672
REMARK SMILES COc1ccc(-c2cc(=O)c3c(OC)c(OC)c(OC)c(OC)c3o2)cc1
REMARK SMILES IDX 7 1 8 2 9 3 10 4 11 5 24 6 25 7 21 8 18 9 15 10 12 11 6 12
REMARK SMILES IDX 3 13 4 14 27 15 5 16 26 17 2 18 1 19 22 20 23 21 13 22 14 23
REMARK SMILES IDX 19 24 20 25 16 26 17 27
REMARK H PARENT
REMARK Flexibility Score: inf
ROOT
ATOM      1  C   UNL     1       5.808  26.593  60.465  1.00  0.00     0.138 A 
ATOM      2  C   UNL     1       5.166  26.043  61.575  1.00  0.00     0.100 A 
ATOM      3  C   UNL     1       5.909  25.310  62.495  1.00  0.00     0.197 A 
ATOM      4  O   UNL     1       5.310  24.815  63.488  1.00  0.00    -0.289 OA
ATOM      5  C   UNL     1       7.301  25.136  62.300  1.00  0.00     0.115 A 
ATOM      6  C   UNL     1       7.878  25.712  61.144  1.00  0.00     0.188 A 
ATOM      7  O   UNL     1       7.111  26.393  60.297  1.00  0.00    -0.452 OA
ATOM      8  C   UNL     1       9.265  25.582  60.895  1.00  0.00     0.209 A 
ATOM      9  C   UNL     1      10.075  24.850  61.801  1.00  0.00     0.211 A 
ATOM     10  C   UNL     1       9.494  24.270  62.961  1.00  0.00     0.208 A 
ATOM     11  C   UNL     1       8.114  24.438  63.223  1.00  0.00     0.179 A 
ENDROOT
BRANCH   1  12
ATOM     12  C   UNL     1       5.067  27.397  59.465  1.00  0.00     0.018 A 
ATOM     13  C   UNL     1       3.677  28.983  57.589  1.00  0.00     0.118 A 
ATOM     14  C   UNL     1       2.978  28.147  58.466  1.00  0.00     0.047 A 
ATOM     15  C   UNL     1       5.082  29.026  57.656  1.00  0.00     0.047 A 
ATOM     16  C   UNL     1       3.663  27.361  59.396  1.00  0.00     0.016 A 
ATOM     17  C   UNL     1       5.767  28.242  58.590  1.00  0.00     0.016 A 
BRANCH  13  18
ATOM     18  O   UNL     1       2.942  29.753  56.674  1.00  0.00    -0.497 OA
ATOM     19  C   UNL     1       3.378  31.000  56.142  1.00  0.00     0.278 C 
ENDBRANCH  13  18
ENDBRANCH   1  12
BRANCH   8  20
ATOM     20  O   UNL     1       9.883  26.174  59.776  1.00  0.00    -0.490 OA
ATOM     21  C   UNL     1      10.477  27.465  59.692  1.00  0.00     0.278 C 
ENDBRANCH   8  20
BRANCH  11  22
ATOM     22  O   UNL     1       7.503  23.921  64.385  1.00  0.00    -0.492 OA
ATOM     23  C   UNL     1       7.606  24.447  65.707  1.00  0.00     0.278 C 
ENDBRANCH  11  22
BRANCH   9  24
ATOM     24  O   UNL     1      11.457  24.670  61.597  1.00  0.00    -0.490 OA
ATOM     25  C   UNL     1      12.112  23.649  60.845  1.00  0.00     0.279 C 
ENDBRANCH   9  24
BRANCH  10  26
ATOM     26  O   UNL     1      10.238  23.494  63.875  1.00  0.00    -0.490 OA
ATOM     27  C   UNL     1      11.137  23.943  64.884  1.00  0.00     0.278 C 
ENDBRANCH  10  26
TORSDOF 6
ENDMDL
MODEL 5
REMARK VINA RESULT:    -4.469      1.765      4.235
REMARK INTER + INTRA:          -6.709
REMARK INTER:                  -5.991
REMARK INTRA:                  -0.718
REMARK UNBOUND:                -0.672
REMARK SMILES COc1ccc(-c2cc(=O)c3c(OC)c(OC)c(OC)c(OC)c3o2)cc1
REMARK SMILES IDX 7 1 8 2 9 3 10 4 11 5 24 6 25 7 21 8 18 9 15 10 12 11 6 12
REMARK SMILES IDX 3 13 4 14 27 15 5 16 26 17 2 18 1 19 22 20 23 21 13 22 14 23
REMARK SMILES IDX 19 24 20 25 16 26 17 27
REMARK H PARENT
REMARK Flexibility Score: inf
ROOT
ATOM      1  C   UNL     1       6.987  25.537  61.027  1.00  0.00     0.138 A 
ATOM      2  C   UNL     1       6.630  24.433  61.803  1.00  0.00     0.100 A 
ATOM      3  C   UNL     1       7.621  23.729  62.479  1.00  0.00     0.197 A 
ATOM      4  O   UNL     1       7.280  22.731  63.170  1.00  0.00    -0.289 OA
ATOM      5  C   UNL     1       8.973  24.140  62.379  1.00  0.00     0.115 A 
ATOM      6  C   UNL     1       9.259  25.259  61.563  1.00  0.00     0.188 A 
ATOM      7  O   UNL     1       8.267  25.885  60.934  1.00  0.00    -0.452 OA
ATOM      8  C   UNL     1      10.587  25.727  61.428  1.00  0.00     0.209 A 
ATOM      9  C   UNL     1      11.640  25.052  62.098  1.00  0.00     0.211 A 
ATOM     10  C   UNL     1      11.353  23.926  62.916  1.00  0.00     0.208 A 
ATOM     11  C   UNL     1      10.016  23.490  63.078  1.00  0.00     0.179 A 
ENDROOT
BRANCH   1  12
ATOM     12  C   UNL     1       5.969  26.331  60.301  1.00  0.00     0.018 A 
ATOM     13  C   UNL     1       4.001  27.788  58.897  1.00  0.00     0.118 A 
ATOM     14  C   UNL     1       5.349  27.889  58.538  1.00  0.00     0.047 A 
ATOM     15  C   UNL     1       3.638  26.947  59.966  1.00  0.00     0.047 A 
ATOM     16  C   UNL     1       6.326  27.169  59.230  1.00  0.00     0.016 A 
ATOM     17  C   UNL     1       4.615  26.223  60.656  1.00  0.00     0.016 A 
BRANCH  13  18
ATOM     18  O   UNL     1       3.059  28.530  58.170  1.00  0.00    -0.497 OA
ATOM     19  C   UNL     1       3.386  29.602  57.291  1.00  0.00     0.278 C 
ENDBRANCH  13  18
ENDBRANCH   1  12
BRANCH   8  20
ATOM     20  O   UNL     1      10.907  26.861  60.656  1.00  0.00    -0.490 OA
ATOM     21  C   UNL     1      11.031  28.208  61.099  1.00  0.00     0.278 C 
ENDBRANCH   8  20
BRANCH  11  22
ATOM     22  O   UNL     1       9.678  22.407  63.916  1.00  0.00    -0.492 OA
ATOM     23  C   UNL     1       9.747  22.379  65.342  1.00  0.00     0.278 C 
ENDBRANCH  11  22
BRANCH   9  24
ATOM     24  O   UNL     1      12.984  25.458  61.986  1.00  0.00    -0.490 OA
ATOM     25  C   UNL     1      13.939  25.084  60.994  1.00  0.00     0.279 C 
ENDBRANCH   9  24
BRANCH  10  26
ATOM     26  O   UNL     1      12.360  23.187  63.572  1.00  0.00    -0.490 OA
ATOM     27  C   UNL     1      13.081  22.060  63.086  1.00  0.00     0.278 C 
ENDBRANCH  10  26
TORSDOF 6
ENDMDL
MODEL 6
REMARK VINA RESULT:    -4.418      1.679      2.256
REMARK INTER + INTRA:          -6.640
REMARK INTER:                  -5.981
REMARK INTRA:                  -0.659
REMARK UNBOUND:                -0.672
REMARK SMILES COc1ccc(-c2cc(=O)c3c(OC)c(OC)c(OC)c(OC)c3o2)cc1
REMARK SMILES IDX 7 1 8 2 9 3 10 4 11 5 24 6 25 7 21 8 18 9 15 10 12 11 6 12
REMARK SMILES IDX 3 13 4 14 27 15 5 16 26 17 2 18 1 19 22 20 23 21 13 22 14 23
REMARK SMILES IDX 19 24 20 25 16 26 17 27
REMARK H PARENT
REMARK Flexibility Score: inf
ROOT
ATOM      1  C   UNL     1       7.019  25.604  61.039  1.00  0.00     0.138 A 
ATOM      2  C   UNL     1       8.338  26.059  61.092  1.00  0.00     0.100 A 
ATOM      3  C   UNL     1       9.275  25.340  61.826  1.00  0.00     0.197 A 
ATOM      4  O   UNL     1      10.460  25.770  61.869  1.00  0.00    -0.289 OA
ATOM      5  C   UNL     1       8.886  24.158  62.503  1.00  0.00     0.115 A 
ATOM      6  C   UNL     1       7.529  23.768  62.414  1.00  0.00     0.188 A 
ATOM      7  O   UNL     1       6.679  24.505  61.703  1.00  0.00    -0.452 OA
ATOM      8  C   UNL     1       7.078  22.593  63.059  1.00  0.00     0.209 A 
ATOM      9  C   UNL     1       7.989  21.815  63.819  1.00  0.00     0.211 A 
ATOM     10  C   UNL     1       9.352  22.208  63.910  1.00  0.00     0.208 A 
ATOM     11  C   UNL     1       9.804  23.363  63.229  1.00  0.00     0.179 A 
ENDROOT
BRANCH   1  12
ATOM     12  C   UNL     1       5.987  26.323  60.257  1.00  0.00     0.018 A 
ATOM     13  C   UNL     1       4.044  27.752  58.789  1.00  0.00     0.118 A 
ATOM     14  C   UNL     1       3.662  26.905  59.835  1.00  0.00     0.047 A 
ATOM     15  C   UNL     1       5.411  27.885  58.480  1.00  0.00     0.047 A 
ATOM     16  C   UNL     1       4.620  26.197  60.564  1.00  0.00     0.016 A 
ATOM     17  C   UNL     1       6.371  27.180  59.213  1.00  0.00     0.016 A 
BRANCH  13  18
ATOM     18  O   UNL     1       3.043  28.441  58.088  1.00  0.00    -0.497 OA
ATOM     19  C   UNL     1       3.282  29.560  57.240  1.00  0.00     0.278 C 
ENDBRANCH  13  18
ENDBRANCH   1  12
BRANCH   8  20
ATOM     20  O   UNL     1       5.743  22.151  62.962  1.00  0.00    -0.490 OA
ATOM     21  C   UNL     1       4.639  22.532  63.775  1.00  0.00     0.278 C 
ENDBRANCH   8  20
BRANCH  11  22
ATOM     22  O   UNL     1      11.155  23.766  63.252  1.00  0.00    -0.492 OA
ATOM     23  C   UNL     1      12.233  23.174  62.527  1.00  0.00     0.278 C 
ENDBRANCH  11  22
BRANCH   9  24
ATOM     24  O   UNL     1       7.595  20.647  64.500  1.00  0.00    -0.490 OA
ATOM     25  C   UNL     1       7.105  20.526  65.835  1.00  0.00     0.279 C 
ENDBRANCH   9  24
BRANCH  10  26
ATOM     26  O   UNL     1      10.295  21.503  64.686  1.00  0.00    -0.490 OA
ATOM     27  C   UNL     1      10.990  20.305  64.351  1.00  0.00     0.278 C 
ENDBRANCH  10  26
TORSDOF 6
ENDMDL
MODEL 7
REMARK VINA RESULT:    -4.386      7.936     10.022
REMARK INTER + INTRA:          -6.597
REMARK INTER:                  -5.962
REMARK INTRA:                  -0.635
REMARK UNBOUND:                -0.672
REMARK SMILES COc1ccc(-c2cc(=O)c3c(OC)c(OC)c(OC)c(OC)c3o2)cc1
REMARK SMILES IDX 7 1 8 2 9 3 10 4 11 5 24 6 25 7 21 8 18 9 15 10 12 11 6 12
REMARK SMILES IDX 3 13 4 14 27 15 5 16 26 17 2 18 1 19 22 20 23 21 13 22 14 23
REMARK SMILES IDX 19 24 20 25 16 26 17 27
REMARK H PARENT
REMARK Flexibility Score: inf
ROOT
ATOM      1  C   UNL     1       5.639  32.807  62.704  1.00  0.00     0.138 A 
ATOM      2  C   UNL     1       4.896  33.768  63.393  1.00  0.00     0.100 A 
ATOM      3  C   UNL     1       5.533  34.916  63.852  1.00  0.00     0.197 A 
ATOM      4  O   UNL     1       4.847  35.770  64.477  1.00  0.00    -0.289 OA
ATOM      5  C   UNL     1       6.917  35.101  63.612  1.00  0.00     0.115 A 
ATOM      6  C   UNL     1       7.604  34.077  62.920  1.00  0.00     0.188 A 
ATOM      7  O   UNL     1       6.941  32.997  62.516  1.00  0.00    -0.452 OA
ATOM      8  C   UNL     1       8.985  34.204  62.641  1.00  0.00     0.209 A 
ATOM      9  C   UNL     1       9.687  35.356  63.080  1.00  0.00     0.211 A 
ATOM     10  C   UNL     1       8.996  36.384  63.777  1.00  0.00     0.208 A 
ATOM     11  C   UNL     1       7.606  36.268  64.017  1.00  0.00     0.179 A 
ENDROOT
BRANCH   1  12
ATOM     12  C   UNL     1       5.007  31.574  62.180  1.00  0.00     0.018 A 
ATOM     13  C   UNL     1       3.853  29.189  61.205  1.00  0.00     0.118 A 
ATOM     14  C   UNL     1       4.272  30.187  60.320  1.00  0.00     0.047 A 
ATOM     15  C   UNL     1       4.018  29.388  62.589  1.00  0.00     0.047 A 
ATOM     16  C   UNL     1       4.844  31.369  60.798  1.00  0.00     0.016 A 
ATOM     17  C   UNL     1       4.594  30.568  63.068  1.00  0.00     0.016 A 
BRANCH  13  18
ATOM     18  O   UNL     1       3.286  28.021  60.674  1.00  0.00    -0.497 OA
ATOM     19  C   UNL     1       3.169  27.746  59.282  1.00  0.00     0.278 C 
ENDBRANCH  13  18
ENDBRANCH   1  12
BRANCH   8  20
ATOM     20  O   UNL     1       9.697  33.224  61.921  1.00  0.00    -0.490 OA
ATOM     21  C   UNL     1      10.532  32.196  62.443  1.00  0.00     0.278 C 
ENDBRANCH   8  20
BRANCH  11  22
ATOM     22  O   UNL     1       6.869  37.282  64.663  1.00  0.00    -0.492 OA
ATOM     23  C   UNL     1       6.516  38.555  64.121  1.00  0.00     0.278 C 
ENDBRANCH  11  22
BRANCH   9  24
ATOM     24  O   UNL     1      11.066  35.530  62.850  1.00  0.00    -0.490 OA
ATOM     25  C   UNL     1      11.701  36.223  61.776  1.00  0.00     0.279 C 
ENDBRANCH   9  24
BRANCH  10  26
ATOM     26  O   UNL     1       9.646  37.532  64.277  1.00  0.00    -0.490 OA
ATOM     27  C   UNL     1      10.279  37.704  65.542  1.00  0.00     0.278 C 
ENDBRANCH  10  26
TORSDOF 6
ENDMDL
MODEL 8
REMARK VINA RESULT:    -4.297      9.951     11.636
REMARK INTER + INTRA:          -6.477
REMARK INTER:                  -5.770
REMARK INTRA:                  -0.707
REMARK UNBOUND:                -0.672
REMARK SMILES COc1ccc(-c2cc(=O)c3c(OC)c(OC)c(OC)c(OC)c3o2)cc1
REMARK SMILES IDX 7 1 8 2 9 3 10 4 11 5 24 6 25 7 21 8 18 9 15 10 12 11 6 12
REMARK SMILES IDX 3 13 4 14 27 15 5 16 26 17 2 18 1 19 22 20 23 21 13 22 14 23
REMARK SMILES IDX 19 24 20 25 16 26 17 27
REMARK H PARENT
REMARK Flexibility Score: inf
ROOT
ATOM      1  C   UNL     1      13.194  35.774  60.528  1.00  0.00     0.138 A 
ATOM      2  C   UNL     1      11.811  35.916  60.400  1.00  0.00     0.100 A 
ATOM      3  C   UNL     1      10.973  35.035  61.077  1.00  0.00     0.197 A 
ATOM      4  O   UNL     1       9.727  35.174  60.944  1.00  0.00    -0.289 OA
ATOM      5  C   UNL     1      11.528  34.014  61.888  1.00  0.00     0.115 A 
ATOM      6  C   UNL     1      12.938  33.926  61.957  1.00  0.00     0.188 A 
ATOM      7  O   UNL     1      13.685  34.792  61.278  1.00  0.00    -0.452 OA
ATOM      8  C   UNL     1      13.555  32.935  62.756  1.00  0.00     0.209 A 
ATOM      9  C   UNL     1      12.751  32.012  63.474  1.00  0.00     0.211 A 
ATOM     10  C   UNL     1      11.335  32.100  63.403  1.00  0.00     0.208 A 
ATOM     11  C   UNL     1      10.726  33.119  62.633  1.00  0.00     0.179 A 
ENDROOT
BRANCH   1  12
ATOM     12  C   UNL     1      14.130  36.695  59.842  1.00  0.00     0.018 A 
ATOM     13  C   UNL     1      15.923  38.404  58.489  1.00  0.00     0.118 A 
ATOM     14  C   UNL     1      16.222  37.937  59.773  1.00  0.00     0.047 A 
ATOM     15  C   UNL     1      14.718  38.007  57.879  1.00  0.00     0.047 A 
ATOM     16  C   UNL     1      15.337  37.090  60.446  1.00  0.00     0.016 A 
ATOM     17  C   UNL     1      13.835  37.157  58.550  1.00  0.00     0.016 A 
BRANCH  13  18
ATOM     18  O   UNL     1      16.845  39.251  57.856  1.00  0.00    -0.497 OA
ATOM     19  C   UNL     1      17.549  38.923  56.663  1.00  0.00     0.278 C 
ENDBRANCH  13  18
ENDBRANCH   1  12
BRANCH   8  20
ATOM     20  O   UNL     1      14.955  32.839  62.881  1.00  0.00    -0.490 OA
ATOM     21  C   UNL     1      15.863  32.183  62.003  1.00  0.00     0.278 C 
ENDBRANCH   8  20
BRANCH  11  22
ATOM     22  O   UNL     1       9.325  33.275  62.570  1.00  0.00    -0.492 OA
ATOM     23  C   UNL     1       8.470  33.722  63.621  1.00  0.00     0.278 C 
ENDBRANCH  11  22
BRANCH   9  24
ATOM     24  O   UNL     1      13.307  30.991  64.270  1.00  0.00    -0.490 OA
ATOM     25  C   UNL     1      13.730  29.689  63.868  1.00  0.00     0.279 C 
ENDBRANCH   9  24
BRANCH  10  26
ATOM     26  O   UNL     1      10.483  31.185  64.057  1.00  0.00    -0.490 OA
ATOM     27  C   UNL     1      10.011  29.929  63.582  1.00  0.00     0.278 C 
ENDBRANCH  10  26
TORSDOF 6
ENDMDL
MODEL 9
REMARK VINA RESULT:    -4.215      8.538     10.651
REMARK INTER + INTRA:          -6.366
REMARK INTER:                  -5.769
REMARK INTRA:                  -0.597
REMARK UNBOUND:                -0.672
REMARK SMILES COc1ccc(-c2cc(=O)c3c(OC)c(OC)c(OC)c(OC)c3o2)cc1
REMARK SMILES IDX 7 1 8 2 9 3 10 4 11 5 24 6 25 7 21 8 18 9 15 10 12 11 6 12
REMARK SMILES IDX 3 13 4 14 27 15 5 16 26 17 2 18 1 19 22 20 23 21 13 22 14 23
REMARK SMILES IDX 19 24 20 25 16 26 17 27
REMARK H PARENT
REMARK Flexibility Score: inf
ROOT
ATOM      1  C   UNL     1       5.895  32.985  62.889  1.00  0.00     0.138 A 
ATOM      2  C   UNL     1       7.196  32.883  63.384  1.00  0.00     0.100 A 
ATOM      3  C   UNL     1       7.857  34.035  63.797  1.00  0.00     0.197 A 
ATOM      4  O   UNL     1       9.034  33.925  64.235  1.00  0.00    -0.289 OA
ATOM      5  C   UNL     1       7.205  35.291  63.719  1.00  0.00     0.115 A 
ATOM      6  C   UNL     1       5.892  35.315  63.194  1.00  0.00     0.188 A 
ATOM      7  O   UNL     1       5.318  34.179  62.806  1.00  0.00    -0.452 OA
ATOM      8  C   UNL     1       5.181  36.535  63.098  1.00  0.00     0.209 A 
ATOM      9  C   UNL     1       5.802  37.742  63.509  1.00  0.00     0.211 A 
ATOM     10  C   UNL     1       7.122  37.718  64.034  1.00  0.00     0.208 A 
ATOM     11  C   UNL     1       7.810  36.488  64.165  1.00  0.00     0.179 A 
ENDROOT
BRANCH   1  12
ATOM     12  C   UNL     1       5.140  31.787  62.452  1.00  0.00     0.018 A 
ATOM     13  C   UNL     1       3.753  29.466  61.640  1.00  0.00     0.118 A 
ATOM     14  C   UNL     1       4.171  30.409  60.695  1.00  0.00     0.047 A 
ATOM     15  C   UNL     1       4.037  29.688  63.001  1.00  0.00     0.047 A 
ATOM     16  C   UNL     1       4.859  31.559  61.093  1.00  0.00     0.016 A 
ATOM     17  C   UNL     1       4.728  30.836  63.399  1.00  0.00     0.016 A 
BRANCH  13  18
ATOM     18  O   UNL     1       3.068  28.328  61.189  1.00  0.00    -0.497 OA
ATOM     19  C   UNL     1       3.228  27.755  59.896  1.00  0.00     0.278 C 
ENDBRANCH  13  18
ENDBRANCH   1  12
BRANCH   8  20
ATOM     20  O   UNL     1       3.859  36.595  62.617  1.00  0.00    -0.490 OA
ATOM     21  C   UNL     1       2.656  36.585  63.378  1.00  0.00     0.278 C 
ENDBRANCH   8  20
BRANCH  11  22
ATOM     22  O   UNL     1       9.103  36.408  64.724  1.00  0.00    -0.492 OA
ATOM     23  C   UNL     1      10.312  36.904  64.149  1.00  0.00     0.278 C 
ENDBRANCH  11  22
BRANCH   9  24
ATOM     24  O   UNL     1       5.154  38.990  63.419  1.00  0.00    -0.490 OA
ATOM     25  C   UNL     1       4.392  39.663  64.420  1.00  0.00     0.279 C 
ENDBRANCH   9  24
BRANCH  10  26
ATOM     26  O   UNL     1       7.809  38.888  64.419  1.00  0.00    -0.490 OA
ATOM     27  C   UNL     1       7.875  39.486  65.710  1.00  0.00     0.278 C 
ENDBRANCH  10  26
TORSDOF 6
ENDMDL
