MODEL 1
REMARK VINA RESULT:    -4.178      0.000      0.000
REMARK INTER + INTRA:          -5.314
REMARK INTER:                  -5.156
REMARK INTRA:                  -0.159
REMARK UNBOUND:                -0.159
REMARK SMILES CCCCC=CC(C)=O
REMARK SMILES IDX 4 1 3 2 2 3 1 4 5 5 6 6 7 7 9 8 8 9
REMARK H PARENT
REMARK Flexibility Score: inf
ROOT
ATOM      1  C   UNL     1      14.664  17.930  24.581  1.00  0.00     0.027 C 
ENDROOT
BRANCH   1   2
ATOM      2  C   UNL     1      15.776  18.322  25.560  1.00  0.00     0.004 C 
BRANCH   2   3
ATOM      3  C   UNL     1      15.366  18.024  27.007  1.00  0.00    -0.003 C 
ATOM      4  C   UNL     1      16.294  18.719  27.998  1.00  0.00     0.004 C 
ENDBRANCH   2   3
ENDBRANCH   1   2
BRANCH   1   5
ATOM      5  C   UNL     1      14.068  16.599  24.939  1.00  0.00    -0.023 C 
ATOM      6  C   UNL     1      12.744  16.423  25.013  1.00  0.00     0.042 C 
BRANCH   6   7
ATOM      7  C   UNL     1      12.138  15.121  25.351  1.00  0.00     0.152 C 
ATOM      8  O   UNL     1      12.580  14.434  26.312  1.00  0.00    -0.295 OA
ATOM      9  C   UNL     1      10.986  14.611  24.548  1.00  0.00     0.093 C 
ENDBRANCH   6   7
ENDBRANCH   1   5
TORSDOF 4
ENDMDL
MODEL 2
REMARK VINA RESULT:    -4.159      3.454      5.152
REMARK INTER + INTRA:          -5.291
REMARK INTER:                  -5.073
REMARK INTRA:                  -0.218
REMARK UNBOUND:                -0.159
REMARK SMILES CCCCC=CC(C)=O
REMARK SMILES IDX 4 1 3 2 2 3 1 4 5 5 6 6 7 7 9 8 8 9
REMARK H PARENT
REMARK Flexibility Score: inf
ROOT
ATOM      1  C   UNL     1      13.811  15.082  28.124  1.00  0.00     0.027 C 
ENDROOT
BRANCH   1   2
ATOM      2  C   UNL     1      14.318  13.655  27.882  1.00  0.00     0.004 C 
BRANCH   2   3
ATOM      3  C   UNL     1      15.743  13.666  27.319  1.00  0.00    -0.003 C 
ATOM      4  C   UNL     1      16.576  12.530  27.904  1.00  0.00     0.004 C 
ENDBRANCH   2   3
ENDBRANCH   1   2
BRANCH   1   5
ATOM      5  C   UNL     1      14.877  16.096  27.823  1.00  0.00    -0.023 C 
ATOM      6  C   UNL     1      14.597  17.236  27.182  1.00  0.00     0.042 C 
BRANCH   6   7
ATOM      7  C   UNL     1      15.627  18.250  26.888  1.00  0.00     0.152 C 
ATOM      8  O   UNL     1      15.753  18.724  25.726  1.00  0.00    -0.295 OA
ATOM      9  C   UNL     1      16.531  18.724  27.979  1.00  0.00     0.093 C 
ENDBRANCH   6   7
ENDBRANCH   1   5
TORSDOF 4
ENDMDL
MODEL 3
REMARK VINA RESULT:    -4.096      2.347      2.738
REMARK INTER + INTRA:          -5.213
REMARK INTER:                  -4.918
REMARK INTRA:                  -0.295
REMARK UNBOUND:                -0.159
REMARK SMILES CCCCC=CC(C)=O
REMARK SMILES IDX 4 1 3 2 2 3 1 4 5 5 6 6 7 7 9 8 8 9
REMARK H PARENT
REMARK Flexibility Score: inf
ROOT
ATOM      1  C   UNL     1      14.537  16.822  24.968  1.00  0.00     0.027 C 
ENDROOT
BRANCH   1   2
ATOM      2  C   UNL     1      14.391  17.966  25.978  1.00  0.00     0.004 C 
BRANCH   2   3
ATOM      3  C   UNL     1      15.759  18.550  26.349  1.00  0.00    -0.003 C 
ATOM      4  C   UNL     1      16.009  18.460  27.851  1.00  0.00     0.004 C 
ENDBRANCH   2   3
ENDBRANCH   1   2
BRANCH   1   5
ATOM      5  C   UNL     1      14.896  15.534  25.652  1.00  0.00    -0.023 C 
ATOM      6  C   UNL     1      14.299  15.156  26.788  1.00  0.00     0.042 C 
BRANCH   6   7
ATOM      7  C   UNL     1      14.627  13.890  27.469  1.00  0.00     0.152 C 
ATOM      8  O   UNL     1      13.739  13.240  28.085  1.00  0.00    -0.295 OA
ATOM      9  C   UNL     1      16.027  13.369  27.428  1.00  0.00     0.093 C 
ENDBRANCH   6   7
ENDBRANCH   1   5
TORSDOF 4
ENDMDL
MODEL 4
REMARK VINA RESULT:    -4.053      2.673      3.220
REMARK INTER + INTRA:          -5.159
REMARK INTER:                  -4.948
REMARK INTRA:                  -0.212
REMARK UNBOUND:                -0.159
REMARK SMILES CCCCC=CC(C)=O
REMARK SMILES IDX 4 1 3 2 2 3 1 4 5 5 6 6 7 7 9 8 8 9
REMARK H PARENT
REMARK Flexibility Score: inf
ROOT
ATOM      1  C   UNL     1      13.945  17.492  27.718  1.00  0.00     0.027 C 
ENDROOT
BRANCH   1   2
ATOM      2  C   UNL     1      14.463  17.844  26.319  1.00  0.00     0.004 C 
BRANCH   2   3
ATOM      3  C   UNL     1      15.770  18.642  26.400  1.00  0.00    -0.003 C 
ATOM      4  C   UNL     1      16.298  18.691  27.830  1.00  0.00     0.004 C 
ENDBRANCH   2   3
ENDBRANCH   1   2
BRANCH   1   5
ATOM      5  C   UNL     1      13.936  16.007  27.937  1.00  0.00    -0.023 C 
ATOM      6  C   UNL     1      14.862  15.213  27.388  1.00  0.00     0.042 C 
BRANCH   6   7
ATOM      7  C   UNL     1      14.877  13.753  27.601  1.00  0.00     0.152 C 
ATOM      8  O   UNL     1      13.809  13.124  27.832  1.00  0.00    -0.295 OA
ATOM      9  C   UNL     1      16.172  13.011  27.540  1.00  0.00     0.093 C 
ENDBRANCH   6   7
ENDBRANCH   1   5
TORSDOF 4
ENDMDL
MODEL 5
REMARK VINA RESULT:    -3.939      2.300      5.073
REMARK INTER + INTRA:          -5.019
REMARK INTER:                  -4.725
REMARK INTRA:                  -0.294
REMARK UNBOUND:                -0.159
REMARK SMILES CCCCC=CC(C)=O
REMARK SMILES IDX 4 1 3 2 2 3 1 4 5 5 6 6 7 7 9 8 8 9
REMARK H PARENT
REMARK Flexibility Score: inf
ROOT
ATOM      1  C   UNL     1      12.772  15.831  27.991  1.00  0.00     0.027 C 
ENDROOT
BRANCH   1   2
ATOM      2  C   UNL     1      12.900  14.859  26.812  1.00  0.00     0.004 C 
BRANCH   2   3
ATOM      3  C   UNL     1      11.596  14.795  26.009  1.00  0.00    -0.003 C 
ATOM      4  C   UNL     1      11.691  15.628  24.735  1.00  0.00     0.004 C 
ENDBRANCH   2   3
ENDBRANCH   1   2
BRANCH   1   5
ATOM      5  C   UNL     1      13.784  16.937  27.897  1.00  0.00    -0.023 C 
ATOM      6  C   UNL     1      14.548  17.095  26.811  1.00  0.00     0.042 C 
BRANCH   6   7
ATOM      7  C   UNL     1      15.539  18.181  26.693  1.00  0.00     0.152 C 
ATOM      8  O   UNL     1      15.818  18.681  25.570  1.00  0.00    -0.295 OA
ATOM      9  C   UNL     1      16.220  18.696  27.919  1.00  0.00     0.093 C 
ENDBRANCH   6   7
ENDBRANCH   1   5
TORSDOF 4
ENDMDL
MODEL 6
REMARK VINA RESULT:    -3.856      1.590      2.178
REMARK INTER + INTRA:          -4.917
REMARK INTER:                  -4.655
REMARK INTRA:                  -0.262
REMARK UNBOUND:                -0.159
REMARK SMILES CCCCC=CC(C)=O
REMARK SMILES IDX 4 1 3 2 2 3 1 4 5 5 6 6 7 7 9 8 8 9
REMARK H PARENT
REMARK Flexibility Score: inf
ROOT
ATOM      1  C   UNL     1      15.074  16.093  27.583  1.00  0.00     0.027 C 
ENDROOT
BRANCH   1   2
ATOM      2  C   UNL     1      15.011  17.544  28.076  1.00  0.00     0.004 C 
BRANCH   2   3
ATOM      3  C   UNL     1      16.051  18.413  27.361  1.00  0.00    -0.003 C 
ATOM      4  C   UNL     1      15.783  18.474  25.861  1.00  0.00     0.004 C 
ENDBRANCH   2   3
ENDBRANCH   1   2
BRANCH   1   5
ATOM      5  C   UNL     1      13.724  15.611  27.137  1.00  0.00    -0.023 C 
ATOM      6  C   UNL     1      13.339  15.694  25.858  1.00  0.00     0.042 C 
BRANCH   6   7
ATOM      7  C   UNL     1      12.023  15.215  25.397  1.00  0.00     0.152 C 
ATOM      8  O   UNL     1      11.423  15.791  24.448  1.00  0.00    -0.295 OA
ATOM      9  C   UNL     1      11.392  14.034  26.059  1.00  0.00     0.093 C 
ENDBRANCH   6   7
ENDBRANCH   1   5
TORSDOF 4
ENDMDL
MODEL 7
REMARK VINA RESULT:    -3.787      2.395      4.524
REMARK INTER + INTRA:          -4.831
REMARK INTER:                  -4.539
REMARK INTRA:                  -0.292
REMARK UNBOUND:                -0.159
REMARK SMILES CCCCC=CC(C)=O
REMARK SMILES IDX 4 1 3 2 2 3 1 4 5 5 6 6 7 7 9 8 8 9
REMARK H PARENT
REMARK Flexibility Score: inf
ROOT
ATOM      1  C   UNL     1      12.367  16.024  24.890  1.00  0.00     0.027 C 
ENDROOT
BRANCH   1   2
ATOM      2  C   UNL     1      12.059  14.875  25.857  1.00  0.00     0.004 C 
BRANCH   2   3
ATOM      3  C   UNL     1      12.733  15.104  27.215  1.00  0.00    -0.003 C 
ATOM      4  C   UNL     1      13.642  13.936  27.584  1.00  0.00     0.004 C 
ENDBRANCH   2   3
ENDBRANCH   1   2
BRANCH   1   5
ATOM      5  C   UNL     1      13.361  16.982  25.481  1.00  0.00    -0.023 C 
ATOM      6  C   UNL     1      14.458  17.353  24.812  1.00  0.00     0.042 C 
BRANCH   6   7
ATOM      7  C   UNL     1      15.440  18.302  25.370  1.00  0.00     0.152 C 
ATOM      8  O   UNL     1      16.067  19.098  24.618  1.00  0.00    -0.295 OA
ATOM      9  C   UNL     1      15.696  18.321  26.841  1.00  0.00     0.093 C 
ENDBRANCH   6   7
ENDBRANCH   1   5
TORSDOF 4
ENDMDL
MODEL 8
REMARK VINA RESULT:    -3.715      3.167      4.254
REMARK INTER + INTRA:          -4.743
REMARK INTER:                  -4.558
REMARK INTRA:                  -0.185
REMARK UNBOUND:                -0.159
REMARK SMILES CCCCC=CC(C)=O
REMARK SMILES IDX 4 1 3 2 2 3 1 4 5 5 6 6 7 7 9 8 8 9
REMARK H PARENT
REMARK Flexibility Score: inf
ROOT
ATOM      1  C   UNL     1      14.148  16.943  25.801  1.00  0.00     0.027 C 
ENDROOT
BRANCH   1   2
ATOM      2  C   UNL     1      14.268  17.845  27.035  1.00  0.00     0.004 C 
BRANCH   2   3
ATOM      3  C   UNL     1      15.491  17.464  27.877  1.00  0.00    -0.003 C 
ATOM      4  C   UNL     1      16.410  18.662  28.090  1.00  0.00     0.004 C 
ENDBRANCH   2   3
ENDBRANCH   1   2
BRANCH   1   5
ATOM      5  C   UNL     1      14.612  17.653  24.561  1.00  0.00    -0.023 C 
ATOM      6  C   UNL     1      15.308  18.794  24.627  1.00  0.00     0.042 C 
BRANCH   6   7
ATOM      7  C   UNL     1      15.783  19.500  23.423  1.00  0.00     0.152 C 
ATOM      8  O   UNL     1      16.830  20.203  23.459  1.00  0.00    -0.295 OA
ATOM      9  C   UNL     1      15.019  19.380  22.146  1.00  0.00     0.093 C 
ENDBRANCH   6   7
ENDBRANCH   1   5
TORSDOF 4
ENDMDL
MODEL 9
REMARK VINA RESULT:    -3.666      2.745      3.317
REMARK INTER + INTRA:          -4.682
REMARK INTER:                  -4.407
REMARK INTRA:                  -0.275
REMARK UNBOUND:                -0.159
REMARK SMILES CCCCC=CC(C)=O
REMARK SMILES IDX 4 1 3 2 2 3 1 4 5 5 6 6 7 7 9 8 8 9
REMARK H PARENT
REMARK Flexibility Score: inf
ROOT
ATOM      1  C   UNL     1      13.696  16.683  26.113  1.00  0.00     0.027 C 
ENDROOT
BRANCH   1   2
ATOM      2  C   UNL     1      14.233  16.868  24.689  1.00  0.00     0.004 C 
BRANCH   2   3
ATOM      3  C   UNL     1      15.046  18.162  24.571  1.00  0.00    -0.003 C 
ATOM      4  C   UNL     1      15.771  18.479  25.875  1.00  0.00     0.004 C 
ENDBRANCH   2   3
ENDBRANCH   1   2
BRANCH   1   5
ATOM      5  C   UNL     1      13.880  15.270  26.585  1.00  0.00    -0.023 C 
ATOM      6  C   UNL     1      15.059  14.833  27.043  1.00  0.00     0.042 C 
BRANCH   6   7
ATOM      7  C   UNL     1      15.257  13.452  27.522  1.00  0.00     0.152 C 
ATOM      8  O   UNL     1      16.385  12.894  27.431  1.00  0.00    -0.295 OA
ATOM      9  C   UNL     1      14.111  12.706  28.123  1.00  0.00     0.093 C 
ENDBRANCH   6   7
ENDBRANCH   1   5
TORSDOF 4
ENDMDL
