MODEL 1
REMARK VINA RESULT:    -3.346      0.000      0.000
REMARK INTER + INTRA:          -4.249
REMARK INTER:                  -4.031
REMARK INTRA:                  -0.217
REMARK UNBOUND:                -0.217
REMARK SMILES OCC(O)CO
REMARK SMILES IDX 3 1 5 2 6 3 2 5 1 6 4 8
REMARK H PARENT 6 4 1 7 4 9
REMARK Flexibility Score: inf
ROOT
ATOM      1  C   UNL     1       0.743  -6.462   5.649  1.00  0.00     0.165 C 
ENDROOT
BRANCH   1   2
ATOM      2  C   UNL     1       1.861  -6.069   4.671  1.00  0.00     0.190 C 
BRANCH   2   3
ATOM      3  O   UNL     1       1.356  -5.938   3.367  1.00  0.00    -0.394 OA
ATOM      4  H   UNL     1       1.730  -5.097   2.996  1.00  0.00     0.210 HD
ENDBRANCH   2   3
ENDBRANCH   1   2
BRANCH   1   5
ATOM      5  C   UNL     1      -0.595  -6.654   4.920  1.00  0.00     0.190 C 
BRANCH   5   6
ATOM      6  O   UNL     1      -1.262  -5.427   4.789  1.00  0.00    -0.394 OA
ATOM      7  H   UNL     1      -2.114  -5.616   4.316  1.00  0.00     0.210 HD
ENDBRANCH   5   6
ENDBRANCH   1   5
BRANCH   1   8
ATOM      8  O   UNL     1       1.085  -7.660   6.297  1.00  0.00    -0.388 OA
ATOM      9  H   UNL     1       2.076  -7.677   6.364  1.00  0.00     0.211 HD
ENDBRANCH   1   8
TORSDOF 5
ENDMDL
MODEL 2
REMARK VINA RESULT:    -3.290     11.123     11.906
REMARK INTER + INTRA:          -4.181
REMARK INTER:                  -3.964
REMARK INTRA:                  -0.217
REMARK UNBOUND:                -0.217
REMARK SMILES OCC(O)CO
REMARK SMILES IDX 3 1 5 2 6 3 2 5 1 6 4 8
REMARK H PARENT 6 4 1 7 4 9
REMARK Flexibility Score: inf
ROOT
ATOM      1  C   UNL     1      -1.128   1.313  -3.899  1.00  0.00     0.165 C 
ENDROOT
BRANCH   1   2
ATOM      2  C   UNL     1      -2.308   2.228  -4.266  1.00  0.00     0.190 C 
BRANCH   2   3
ATOM      3  O   UNL     1      -3.521   1.675  -3.826  1.00  0.00    -0.394 OA
ATOM      4  H   UNL     1      -3.914   1.192  -4.598  1.00  0.00     0.210 HD
ENDBRANCH   2   3
ENDBRANCH   1   2
BRANCH   1   5
ATOM      5  C   UNL     1      -1.618  -0.032  -3.344  1.00  0.00     0.190 C 
BRANCH   5   6
ATOM      6  O   UNL     1      -1.790   0.045  -1.954  1.00  0.00    -0.394 OA
ATOM      7  H   UNL     1      -1.578  -0.854  -1.592  1.00  0.00     0.210 HD
ENDBRANCH   5   6
ENDBRANCH   1   5
BRANCH   1   8
ATOM      8  O   UNL     1      -0.344   1.078  -5.040  1.00  0.00    -0.388 OA
ATOM      9  H   UNL     1      -0.726   0.281  -5.493  1.00  0.00     0.211 HD
ENDBRANCH   1   8
TORSDOF 5
ENDMDL
MODEL 3
REMARK VINA RESULT:    -3.262      0.558      2.283
REMARK INTER + INTRA:          -4.147
REMARK INTER:                  -3.924
REMARK INTRA:                  -0.223
REMARK UNBOUND:                -0.217
REMARK SMILES OCC(O)CO
REMARK SMILES IDX 3 1 5 2 6 3 2 5 1 6 4 8
REMARK H PARENT 6 4 1 7 4 9
REMARK Flexibility Score: inf
ROOT
ATOM      1  C   UNL     1       0.470  -7.037   5.418  1.00  0.00     0.165 C 
ENDROOT
BRANCH   1   2
ATOM      2  C   UNL     1      -0.655  -6.092   5.871  1.00  0.00     0.190 C 
BRANCH   2   3
ATOM      3  O   UNL     1      -1.254  -5.468   4.765  1.00  0.00    -0.394 OA
ATOM      4  H   UNL     1      -1.905  -6.113   4.387  1.00  0.00     0.210 HD
ENDBRANCH   2   3
ENDBRANCH   1   2
BRANCH   1   5
ATOM      5  C   UNL     1       1.624  -6.259   4.770  1.00  0.00     0.190 C 
BRANCH   5   6
ATOM      6  O   UNL     1       1.332  -5.978   3.427  1.00  0.00    -0.394 OA
ATOM      7  H   UNL     1       0.352  -6.096   3.319  1.00  0.00     0.210 HD
ENDBRANCH   5   6
ENDBRANCH   1   5
BRANCH   1   8
ATOM      8  O   UNL     1       0.962  -7.746   6.526  1.00  0.00    -0.388 OA
ATOM      9  H   UNL     1       0.277  -7.674   7.241  1.00  0.00     0.211 HD
ENDBRANCH   1   8
TORSDOF 5
ENDMDL
MODEL 4
REMARK VINA RESULT:    -3.233      1.558      2.598
REMARK INTER + INTRA:          -4.111
REMARK INTER:                  -4.109
REMARK INTRA:                  -0.003
REMARK UNBOUND:                -0.217
REMARK SMILES OCC(O)CO
REMARK SMILES IDX 3 1 5 2 6 3 2 5 1 6 4 8
REMARK H PARENT 6 4 1 7 4 9
REMARK Flexibility Score: inf
ROOT
ATOM      1  C   UNL     1       2.119  -5.786   4.624  1.00  0.00     0.165 C 
ENDROOT
BRANCH   1   2
ATOM      2  C   UNL     1       2.440  -4.285   4.702  1.00  0.00     0.190 C 
BRANCH   2   3
ATOM      3  O   UNL     1       2.431  -3.708   3.423  1.00  0.00    -0.394 OA
ATOM      4  H   UNL     1       2.022  -4.372   2.810  1.00  0.00     0.210 HD
ENDBRANCH   2   3
ENDBRANCH   1   2
BRANCH   1   5
ATOM      5  C   UNL     1       1.375  -6.264   5.879  1.00  0.00     0.190 C 
BRANCH   5   6
ATOM      6  O   UNL     1       1.174  -7.651   5.831  1.00  0.00    -0.394 OA
ATOM      7  H   UNL     1       1.912  -8.063   6.351  1.00  0.00     0.210 HD
ENDBRANCH   5   6
ENDBRANCH   1   5
BRANCH   1   8
ATOM      8  O   UNL     1       1.322  -6.038   3.496  1.00  0.00    -0.388 OA
ATOM      9  H   UNL     1       1.091  -5.155   3.104  1.00  0.00     0.211 HD
ENDBRANCH   1   8
TORSDOF 5
ENDMDL
MODEL 5
REMARK VINA RESULT:    -3.205     10.930     11.601
REMARK INTER + INTRA:          -4.078
REMARK INTER:                  -3.870
REMARK INTRA:                  -0.208
REMARK UNBOUND:                -0.217
REMARK SMILES OCC(O)CO
REMARK SMILES IDX 3 1 5 2 6 3 2 5 1 6 4 8
REMARK H PARENT 6 4 1 7 4 9
REMARK Flexibility Score: inf
ROOT
ATOM      1  C   UNL     1      -1.124   1.436  -3.615  1.00  0.00     0.165 C 
ENDROOT
BRANCH   1   2
ATOM      2  C   UNL     1      -1.439   0.001  -3.161  1.00  0.00     0.190 C 
BRANCH   2   3
ATOM      3  O   UNL     1      -1.887  -0.012  -1.831  1.00  0.00    -0.394 OA
ATOM      4  H   UNL     1      -2.376  -0.865  -1.700  1.00  0.00     0.210 HD
ENDBRANCH   2   3
ENDBRANCH   1   2
BRANCH   1   5
ATOM      5  C   UNL     1      -2.295   2.040  -4.404  1.00  0.00     0.190 C 
BRANCH   5   6
ATOM      6  O   UNL     1      -3.518   1.672  -3.824  1.00  0.00    -0.394 OA
ATOM      7  H   UNL     1      -3.389   1.711  -2.840  1.00  0.00     0.210 HD
ENDBRANCH   5   6
ENDBRANCH   1   5
BRANCH   1   8
ATOM      8  O   UNL     1      -0.867   2.238  -2.492  1.00  0.00    -0.388 OA
ATOM      9  H   UNL     1      -1.352   1.828  -1.729  1.00  0.00     0.211 HD
ENDBRANCH   1   8
TORSDOF 5
ENDMDL
MODEL 6
REMARK VINA RESULT:    -3.132      0.979      2.315
REMARK INTER + INTRA:          -3.990
REMARK INTER:                  -3.779
REMARK INTRA:                  -0.210
REMARK UNBOUND:                -0.217
REMARK SMILES OCC(O)CO
REMARK SMILES IDX 3 1 5 2 6 3 2 5 1 6 4 8
REMARK H PARENT 6 4 1 7 4 9
REMARK Flexibility Score: inf
ROOT
ATOM      1  C   UNL     1      -0.137  -6.590   4.846  1.00  0.00     0.165 C 
ENDROOT
BRANCH   1   2
ATOM      2  C   UNL     1       1.222  -5.874   4.919  1.00  0.00     0.190 C 
BRANCH   2   3
ATOM      3  O   UNL     1       2.254  -6.725   4.493  1.00  0.00    -0.394 OA
ATOM      4  H   UNL     1       2.507  -6.436   3.578  1.00  0.00     0.210 HD
ENDBRANCH   2   3
ENDBRANCH   1   2
BRANCH   1   5
ATOM      5  C   UNL     1      -0.373  -7.465   6.085  1.00  0.00     0.190 C 
BRANCH   5   6
ATOM      6  O   UNL     1       0.850  -7.904   6.615  1.00  0.00    -0.394 OA
ATOM      7  H   UNL     1       1.513  -7.190   6.426  1.00  0.00     0.210 HD
ENDBRANCH   5   6
ENDBRANCH   1   5
BRANCH   1   8
ATOM      8  O   UNL     1      -1.165  -5.637   4.757  1.00  0.00    -0.388 OA
ATOM      9  H   UNL     1      -1.027  -4.995   5.501  1.00  0.00     0.211 HD
ENDBRANCH   1   8
TORSDOF 5
ENDMDL
MODEL 7
REMARK VINA RESULT:    -3.108      1.768      2.848
REMARK INTER + INTRA:          -3.962
REMARK INTER:                  -3.738
REMARK INTRA:                  -0.223
REMARK UNBOUND:                -0.217
REMARK SMILES OCC(O)CO
REMARK SMILES IDX 3 1 5 2 6 3 2 5 1 6 4 8
REMARK H PARENT 6 4 1 7 4 9
REMARK Flexibility Score: inf
ROOT
ATOM      1  C   UNL     1       1.357  -6.025   4.815  1.00  0.00     0.165 C 
ENDROOT
BRANCH   1   2
ATOM      2  C   UNL     1       0.342  -6.862   5.610  1.00  0.00     0.190 C 
BRANCH   2   3
ATOM      3  O   UNL     1       0.998  -7.820   6.399  1.00  0.00    -0.394 OA
ATOM      4  H   UNL     1       1.076  -8.642   5.849  1.00  0.00     0.210 HD
ENDBRANCH   2   3
ENDBRANCH   1   2
BRANCH   1   5
ATOM      5  C   UNL     1       1.826  -4.804   5.621  1.00  0.00     0.190 C 
BRANCH   5   6
ATOM      6  O   UNL     1       1.926  -5.126   6.983  1.00  0.00    -0.394 OA
ATOM      7  H   UNL     1       1.301  -5.881   7.142  1.00  0.00     0.210 HD
ENDBRANCH   5   6
ENDBRANCH   1   5
BRANCH   1   8
ATOM      8  O   UNL     1       2.471  -6.817   4.495  1.00  0.00    -0.388 OA
ATOM      9  H   UNL     1       2.988  -6.939   5.334  1.00  0.00     0.211 HD
ENDBRANCH   1   8
TORSDOF 5
ENDMDL
MODEL 8
REMARK VINA RESULT:    -3.056      1.260      2.721
REMARK INTER + INTRA:          -3.899
REMARK INTER:                  -3.677
REMARK INTRA:                  -0.222
REMARK UNBOUND:                -0.217
REMARK SMILES OCC(O)CO
REMARK SMILES IDX 3 1 5 2 6 3 2 5 1 6 4 8
REMARK H PARENT 6 4 1 7 4 9
REMARK Flexibility Score: inf
ROOT
ATOM      1  C   UNL     1       1.225  -5.249   5.756  1.00  0.00     0.165 C 
ENDROOT
BRANCH   1   2
ATOM      2  C   UNL     1       1.035  -6.461   6.682  1.00  0.00     0.190 C 
BRANCH   2   3
ATOM      3  O   UNL     1       1.105  -7.659   5.954  1.00  0.00    -0.394 OA
ATOM      4  H   UNL     1       0.185  -7.860   5.640  1.00  0.00     0.210 HD
ENDBRANCH   2   3
ENDBRANCH   1   2
BRANCH   1   5
ATOM      5  C   UNL     1       2.141  -5.591   4.572  1.00  0.00     0.190 C 
BRANCH   5   6
ATOM      6  O   UNL     1       1.382  -6.025   3.475  1.00  0.00    -0.394 OA
ATOM      7  H   UNL     1       1.023  -5.210   3.038  1.00  0.00     0.210 HD
ENDBRANCH   5   6
ENDBRANCH   1   5
BRANCH   1   8
ATOM      8  O   UNL     1      -0.022  -4.834   5.264  1.00  0.00    -0.388 OA
ATOM      9  H   UNL     1       0.015  -4.921   4.276  1.00  0.00     0.211 HD
ENDBRANCH   1   8
TORSDOF 5
ENDMDL
MODEL 9
REMARK VINA RESULT:    -3.036      1.685      2.300
REMARK INTER + INTRA:          -3.875
REMARK INTER:                  -3.651
REMARK INTRA:                  -0.223
REMARK UNBOUND:                -0.217
REMARK SMILES OCC(O)CO
REMARK SMILES IDX 3 1 5 2 6 3 2 5 1 6 4 8
REMARK H PARENT 6 4 1 7 4 9
REMARK Flexibility Score: inf
ROOT
ATOM      1  C   UNL     1       1.257  -5.378   5.953  1.00  0.00     0.165 C 
ENDROOT
BRANCH   1   2
ATOM      2  C   UNL     1       2.166  -5.564   4.728  1.00  0.00     0.190 C 
BRANCH   2   3
ATOM      3  O   UNL     1       1.422  -5.991   3.617  1.00  0.00    -0.394 OA
ATOM      4  H   UNL     1       0.464  -5.873   3.849  1.00  0.00     0.210 HD
ENDBRANCH   2   3
ENDBRANCH   1   2
BRANCH   1   5
ATOM      5  C   UNL     1       1.123  -6.684   6.751  1.00  0.00     0.190 C 
BRANCH   5   6
ATOM      6  O   UNL     1       1.038  -7.782   5.882  1.00  0.00    -0.394 OA
ATOM      7  H   UNL     1       1.936  -7.890   5.473  1.00  0.00     0.210 HD
ENDBRANCH   5   6
ENDBRANCH   1   5
BRANCH   1   8
ATOM      8  O   UNL     1       1.791  -4.385   6.789  1.00  0.00    -0.388 OA
ATOM      9  H   UNL     1       2.549  -3.973   6.298  1.00  0.00     0.211 HD
ENDBRANCH   1   8
TORSDOF 5
ENDMDL
