MODEL 1
REMARK VINA RESULT:    -4.758      0.000      0.000
REMARK INTER + INTRA:         -14.948
REMARK INTER:                 -11.989
REMARK INTRA:                  -2.959
REMARK UNBOUND:                -2.959
REMARK SMILES CCCCCCCCCCCCCCCCCCCCCCCCCCCC(=O)[O-]
REMARK SMILES IDX 15 1 16 2 17 3 18 4 19 5 20 6 21 7 22 8 23 9 24 10 25 11
REMARK SMILES IDX 26 12 27 13 28 14 29 15 30 16 14 17 13 18 12 19 11 20 10 21
REMARK SMILES IDX 9 22 8 23 7 24 6 25 5 26 4 27 3 28 2 29 1 30
REMARK H PARENT
REMARK Flexibility Score: inf
ROOT
ATOM      1  C   UNL     1     107.740 110.231 117.752  1.00  0.00     0.000 C 
ENDROOT
BRANCH   1   2
ATOM      2  C   UNL     1     108.831 109.244 118.199  1.00  0.00     0.000 C 
BRANCH   2   3
ATOM      3  C   UNL     1     108.276 108.096 119.056  1.00  0.00     0.000 C 
BRANCH   3   4
ATOM      4  C   UNL     1     106.904 108.430 119.668  1.00  0.00     0.000 C 
BRANCH   4   5
ATOM      5  C   UNL     1     105.827 107.396 119.303  1.00  0.00     0.000 C 
BRANCH   5   6
ATOM      6  C   UNL     1     106.040 106.785 117.906  1.00  0.00     0.000 C 
BRANCH   6   7
ATOM      7  C   UNL     1     104.868 107.062 116.953  1.00  0.00     0.000 C 
BRANCH   7   8
ATOM      8  C   UNL     1     104.417 108.530 116.978  1.00  0.00     0.000 C 
BRANCH   8   9
ATOM      9  C   UNL     1     102.900 108.641 116.769  1.00  0.00     0.000 C 
BRANCH   9  10
ATOM     10  C   UNL     1     102.369 110.065 116.996  1.00  0.00     0.000 C 
BRANCH  10  11
ATOM     11  C   UNL     1     101.775 110.690 115.724  1.00  0.00     0.000 C 
BRANCH  11  12
ATOM     12  C   UNL     1     102.487 112.003 115.375  1.00  0.00     0.006 C 
BRANCH  12  13
ATOM     13  C   UNL     1     101.614 112.878 114.469  1.00  0.00     0.053 C 
BRANCH  13  14
ATOM     14  C   UNL     1     102.251 114.215 114.254  1.00  0.00     0.041 C 
ATOM     15  O   UNL     1     103.506 114.332 114.284  1.00  0.00    -0.550 OA
ATOM     16  O   UNL     1     101.459 115.336 114.036  1.00  0.00    -0.550 OA
ENDBRANCH  13  14
ENDBRANCH  12  13
ENDBRANCH  11  12
ENDBRANCH  10  11
ENDBRANCH   9  10
ENDBRANCH   8   9
ENDBRANCH   7   8
ENDBRANCH   6   7
ENDBRANCH   5   6
ENDBRANCH   4   5
ENDBRANCH   3   4
ENDBRANCH   2   3
ENDBRANCH   1   2
BRANCH   1  17
ATOM     17  C   UNL     1     108.049 111.683 118.160  1.00  0.00     0.000 C 
BRANCH  17  18
ATOM     18  C   UNL     1     109.550 112.017 118.282  1.00  0.00     0.000 C 
BRANCH  18  19
ATOM     19  C   UNL     1     110.010 112.440 119.692  1.00  0.00     0.000 C 
BRANCH  19  20
ATOM     20  C   UNL     1     111.505 112.205 119.980  1.00  0.00     0.000 C 
BRANCH  20  21
ATOM     21  C   UNL     1     111.966 112.606 121.397  1.00  0.00     0.000 C 
BRANCH  21  22
ATOM     22  C   UNL     1     112.128 111.437 122.385  1.00  0.00    -0.000 C 
BRANCH  22  23
ATOM     23  C   UNL     1     112.199 110.072 121.686  1.00  0.00    -0.000 C 
BRANCH  23  24
ATOM     24  C   UNL     1     113.643 109.551 121.638  1.00  0.00    -0.000 C 
BRANCH  24  25
ATOM     25  C   UNL     1     114.175 109.398 120.202  1.00  0.00    -0.000 C 
BRANCH  25  26
ATOM     26  C   UNL     1     115.430 110.233 119.879  1.00  0.00    -0.000 C 
BRANCH  26  27
ATOM     27  C   UNL     1     115.167 111.726 119.598  1.00  0.00    -0.000 C 
BRANCH  27  28
ATOM     28  C   UNL     1     115.999 112.701 120.450  1.00  0.00    -0.000 C 
BRANCH  28  29
ATOM     29  C   UNL     1     115.669 112.614 121.947  1.00  0.00    -0.003 C 
ATOM     30  C   UNL     1     116.941 112.559 122.789  1.00  0.00     0.004 C 
ENDBRANCH  28  29
ENDBRANCH  27  28
ENDBRANCH  26  27
ENDBRANCH  25  26
ENDBRANCH  24  25
ENDBRANCH  23  24
ENDBRANCH  22  23
ENDBRANCH  21  22
ENDBRANCH  20  21
ENDBRANCH  19  20
ENDBRANCH  18  19
ENDBRANCH  17  18
ENDBRANCH   1  17
TORSDOF 26
ENDMDL
MODEL 2
REMARK VINA RESULT:    -4.739      3.551      6.689
REMARK INTER + INTRA:         -14.900
REMARK INTER:                 -10.559
REMARK INTRA:                  -4.341
REMARK UNBOUND:                -2.959
REMARK SMILES CCCCCCCCCCCCCCCCCCCCCCCCCCCC(=O)[O-]
REMARK SMILES IDX 15 1 16 2 17 3 18 4 19 5 20 6 21 7 22 8 23 9 24 10 25 11
REMARK SMILES IDX 26 12 27 13 28 14 29 15 30 16 14 17 13 18 12 19 11 20 10 21
REMARK SMILES IDX 9 22 8 23 7 24 6 25 5 26 4 27 3 28 2 29 1 30
REMARK H PARENT
REMARK Flexibility Score: inf
ROOT
ATOM      1  C   UNL     1     113.302 110.050 121.178  1.00  0.00     0.000 C 
ENDROOT
BRANCH   1   2
ATOM      2  C   UNL     1     112.027 109.788 121.998  1.00  0.00     0.000 C 
BRANCH   2   3
ATOM      3  C   UNL     1     111.414 111.077 122.567  1.00  0.00     0.000 C 
BRANCH   3   4
ATOM      4  C   UNL     1     112.328 112.300 122.368  1.00  0.00     0.000 C 
BRANCH   4   5
ATOM      5  C   UNL     1     111.685 113.379 121.482  1.00  0.00     0.000 C 
BRANCH   5   6
ATOM      6  C   UNL     1     110.573 112.818 120.577  1.00  0.00     0.000 C 
BRANCH   6   7
ATOM      7  C   UNL     1     111.103 112.326 119.222  1.00  0.00     0.000 C 
BRANCH   7   8
ATOM      8  C   UNL     1     110.195 111.270 118.577  1.00  0.00     0.000 C 
BRANCH   8   9
ATOM      9  C   UNL     1     108.727 111.496 118.967  1.00  0.00     0.000 C 
BRANCH   9  10
ATOM     10  C   UNL     1     107.790 110.407 118.425  1.00  0.00     0.000 C 
BRANCH  10  11
ATOM     11  C   UNL     1     108.531 109.113 118.055  1.00  0.00     0.000 C 
BRANCH  11  12
ATOM     12  C   UNL     1     107.669 107.881 118.356  1.00  0.00     0.006 C 
BRANCH  12  13
ATOM     13  C   UNL     1     106.182 108.250 118.411  1.00  0.00     0.053 C 
BRANCH  13  14
ATOM     14  C   UNL     1     105.349 107.178 117.781  1.00  0.00     0.041 C 
ATOM     15  O   UNL     1     104.150 107.408 117.468  1.00  0.00    -0.550 OA
ATOM     16  O   UNL     1     105.891 105.919 117.552  1.00  0.00    -0.550 OA
ENDBRANCH  13  14
ENDBRANCH  12  13
ENDBRANCH  11  12
ENDBRANCH  10  11
ENDBRANCH   9  10
ENDBRANCH   8   9
ENDBRANCH   7   8
ENDBRANCH   6   7
ENDBRANCH   5   6
ENDBRANCH   4   5
ENDBRANCH   3   4
ENDBRANCH   2   3
ENDBRANCH   1   2
BRANCH   1  17
ATOM     17  C   UNL     1     114.490 109.183 121.635  1.00  0.00     0.000 C 
BRANCH  17  18
ATOM     18  C   UNL     1     115.790 109.961 121.919  1.00  0.00     0.000 C 
BRANCH  18  19
ATOM     19  C   UNL     1     115.639 111.154 122.884  1.00  0.00     0.000 C 
BRANCH  19  20
ATOM     20  C   UNL     1     116.285 112.465 122.396  1.00  0.00     0.000 C 
BRANCH  20  21
ATOM     21  C   UNL     1     116.343 112.633 120.864  1.00  0.00     0.000 C 
BRANCH  21  22
ATOM     22  C   UNL     1     115.145 113.376 120.245  1.00  0.00    -0.000 C 
BRANCH  22  23
ATOM     23  C   UNL     1     114.706 112.781 118.899  1.00  0.00    -0.000 C 
BRANCH  23  24
ATOM     24  C   UNL     1     115.494 111.502 118.578  1.00  0.00    -0.000 C 
BRANCH  24  25
ATOM     25  C   UNL     1     114.653 110.457 117.823  1.00  0.00    -0.000 C 
BRANCH  25  26
ATOM     26  C   UNL     1     115.085 108.993 118.039  1.00  0.00    -0.000 C 
BRANCH  26  27
ATOM     27  C   UNL     1     115.734 108.316 116.816  1.00  0.00    -0.000 C 
BRANCH  27  28
ATOM     28  C   UNL     1     117.267 108.439 116.746  1.00  0.00    -0.000 C 
BRANCH  28  29
ATOM     29  C   UNL     1     117.730 109.757 116.111  1.00  0.00    -0.003 C 
ATOM     30  C   UNL     1     116.937 110.066 114.844  1.00  0.00     0.004 C 
ENDBRANCH  28  29
ENDBRANCH  27  28
ENDBRANCH  26  27
ENDBRANCH  25  26
ENDBRANCH  24  25
ENDBRANCH  23  24
ENDBRANCH  22  23
ENDBRANCH  21  22
ENDBRANCH  20  21
ENDBRANCH  19  20
ENDBRANCH  18  19
ENDBRANCH  17  18
ENDBRANCH   1  17
TORSDOF 26
ENDMDL
MODEL 3
REMARK VINA RESULT:    -4.709      3.890      5.238
REMARK INTER + INTRA:         -14.824
REMARK INTER:                 -10.692
REMARK INTRA:                  -4.132
REMARK UNBOUND:                -2.959
REMARK SMILES CCCCCCCCCCCCCCCCCCCCCCCCCCCC(=O)[O-]
REMARK SMILES IDX 15 1 16 2 17 3 18 4 19 5 20 6 21 7 22 8 23 9 24 10 25 11
REMARK SMILES IDX 26 12 27 13 28 14 29 15 30 16 14 17 13 18 12 19 11 20 10 21
REMARK SMILES IDX 9 22 8 23 7 24 6 25 5 26 4 27 3 28 2 29 1 30
REMARK H PARENT
REMARK Flexibility Score: inf
ROOT
ATOM      1  C   UNL     1     110.474 112.300 118.102  1.00  0.00     0.000 C 
ENDROOT
BRANCH   1   2
ATOM      2  C   UNL     1     109.881 112.487 116.695  1.00  0.00     0.000 C 
BRANCH   2   3
ATOM      3  C   UNL     1     109.847 111.179 115.888  1.00  0.00     0.000 C 
BRANCH   3   4
ATOM      4  C   UNL     1     109.475 109.963 116.755  1.00  0.00     0.000 C 
BRANCH   4   5
ATOM      5  C   UNL     1     107.993 109.959 117.160  1.00  0.00     0.000 C 
BRANCH   5   6
ATOM      6  C   UNL     1     107.795 109.891 118.686  1.00  0.00     0.000 C 
BRANCH   6   7
ATOM      7  C   UNL     1     107.844 108.453 119.225  1.00  0.00     0.000 C 
BRANCH   7   8
ATOM      8  C   UNL     1     106.557 108.051 119.960  1.00  0.00     0.000 C 
BRANCH   8   9
ATOM      9  C   UNL     1     105.744 107.046 119.131  1.00  0.00     0.000 C 
BRANCH   9  10
ATOM     10  C   UNL     1     105.030 107.696 117.936  1.00  0.00     0.000 C 
BRANCH  10  11
ATOM     11  C   UNL     1     105.079 106.830 116.668  1.00  0.00     0.000 C 
BRANCH  11  12
ATOM     12  C   UNL     1     105.915 105.566 116.900  1.00  0.00     0.006 C 
BRANCH  12  13
ATOM     13  C   UNL     1     106.572 105.093 115.599  1.00  0.00     0.053 C 
BRANCH  13  14
ATOM     14  C   UNL     1     108.038 105.392 115.608  1.00  0.00     0.041 C 
ATOM     15  O   UNL     1     108.811 104.800 114.808  1.00  0.00    -0.550 OA
ATOM     16  O   UNL     1     108.554 106.315 116.510  1.00  0.00    -0.550 OA
ENDBRANCH  13  14
ENDBRANCH  12  13
ENDBRANCH  11  12
ENDBRANCH  10  11
ENDBRANCH   9  10
ENDBRANCH   8   9
ENDBRANCH   7   8
ENDBRANCH   6   7
ENDBRANCH   5   6
ENDBRANCH   4   5
ENDBRANCH   3   4
ENDBRANCH   2   3
ENDBRANCH   1   2
BRANCH   1  17
ATOM     17  C   UNL     1     112.013 112.357 118.109  1.00  0.00     0.000 C 
BRANCH  17  18
ATOM     18  C   UNL     1     112.714 110.985 118.042  1.00  0.00     0.000 C 
BRANCH  18  19
ATOM     19  C   UNL     1     113.013 110.339 119.409  1.00  0.00     0.000 C 
BRANCH  19  20
ATOM     20  C   UNL     1     111.772 110.072 120.283  1.00  0.00     0.000 C 
BRANCH  20  21
ATOM     21  C   UNL     1     112.044 110.011 121.800  1.00  0.00     0.000 C 
BRANCH  21  22
ATOM     22  C   UNL     1     111.801 111.328 122.559  1.00  0.00    -0.000 C 
BRANCH  22  23
ATOM     23  C   UNL     1     110.954 112.328 121.760  1.00  0.00    -0.000 C 
BRANCH  23  24
ATOM     24  C   UNL     1     111.704 113.653 121.562  1.00  0.00    -0.000 C 
BRANCH  24  25
ATOM     25  C   UNL     1     113.174 113.580 122.015  1.00  0.00    -0.000 C 
BRANCH  25  26
ATOM     26  C   UNL     1     114.206 113.526 120.872  1.00  0.00    -0.000 C 
BRANCH  26  27
ATOM     27  C   UNL     1     115.597 112.994 121.271  1.00  0.00    -0.000 C 
BRANCH  27  28
ATOM     28  C   UNL     1     116.068 111.759 120.481  1.00  0.00    -0.000 C 
BRANCH  28  29
ATOM     29  C   UNL     1     116.246 110.519 121.368  1.00  0.00    -0.003 C 
ATOM     30  C   UNL     1     115.672 110.752 122.763  1.00  0.00     0.004 C 
ENDBRANCH  28  29
ENDBRANCH  27  28
ENDBRANCH  26  27
ENDBRANCH  25  26
ENDBRANCH  24  25
ENDBRANCH  23  24
ENDBRANCH  22  23
ENDBRANCH  21  22
ENDBRANCH  20  21
ENDBRANCH  19  20
ENDBRANCH  18  19
ENDBRANCH  17  18
ENDBRANCH   1  17
TORSDOF 26
ENDMDL
MODEL 4
REMARK VINA RESULT:    -4.705      4.702      7.323
REMARK INTER + INTRA:         -14.815
REMARK INTER:                 -10.006
REMARK INTRA:                  -4.810
REMARK UNBOUND:                -2.959
REMARK SMILES CCCCCCCCCCCCCCCCCCCCCCCCCCCC(=O)[O-]
REMARK SMILES IDX 15 1 16 2 17 3 18 4 19 5 20 6 21 7 22 8 23 9 24 10 25 11
REMARK SMILES IDX 26 12 27 13 28 14 29 15 30 16 14 17 13 18 12 19 11 20 10 21
REMARK SMILES IDX 9 22 8 23 7 24 6 25 5 26 4 27 3 28 2 29 1 30
REMARK H PARENT
REMARK Flexibility Score: inf
ROOT
ATOM      1  C   UNL     1     105.340 107.902 115.850  1.00  0.00     0.000 C 
ENDROOT
BRANCH   1   2
ATOM      2  C   UNL     1     104.142 108.841 115.624  1.00  0.00     0.000 C 
BRANCH   2   3
ATOM      3  C   UNL     1     103.134 108.804 116.783  1.00  0.00     0.000 C 
BRANCH   3   4
ATOM      4  C   UNL     1     102.475 110.172 117.032  1.00  0.00     0.000 C 
BRANCH   4   5
ATOM      5  C   UNL     1     101.793 110.737 115.776  1.00  0.00     0.000 C 
BRANCH   5   6
ATOM      6  C   UNL     1     101.925 112.267 115.667  1.00  0.00     0.000 C 
BRANCH   6   7
ATOM      7  C   UNL     1     102.308 112.729 114.252  1.00  0.00     0.000 C 
BRANCH   7   8
ATOM      8  C   UNL     1     103.130 111.682 113.488  1.00  0.00     0.000 C 
BRANCH   8   9
ATOM      9  C   UNL     1     104.465 112.273 113.011  1.00  0.00     0.000 C 
BRANCH   9  10
ATOM     10  C   UNL     1     105.237 112.985 114.132  1.00  0.00     0.000 C 
BRANCH  10  11
ATOM     11  C   UNL     1     105.897 112.007 115.115  1.00  0.00     0.000 C 
BRANCH  11  12
ATOM     12  C   UNL     1     105.556 112.373 116.565  1.00  0.00     0.006 C 
BRANCH  12  13
ATOM     13  C   UNL     1     106.689 113.175 117.212  1.00  0.00     0.053 C 
BRANCH  13  14
ATOM     14  C   UNL     1     106.208 114.529 117.629  1.00  0.00     0.041 C 
ATOM     15  O   UNL     1     106.668 115.074 118.668  1.00  0.00    -0.550 OA
ATOM     16  O   UNL     1     105.237 115.183 116.880  1.00  0.00    -0.550 OA
ENDBRANCH  13  14
ENDBRANCH  12  13
ENDBRANCH  11  12
ENDBRANCH  10  11
ENDBRANCH   9  10
ENDBRANCH   8   9
ENDBRANCH   7   8
ENDBRANCH   6   7
ENDBRANCH   5   6
ENDBRANCH   4   5
ENDBRANCH   3   4
ENDBRANCH   2   3
ENDBRANCH   1   2
BRANCH   1  17
ATOM     17  C   UNL     1     104.990 106.701 116.747  1.00  0.00     0.000 C 
BRANCH  17  18
ATOM     18  C   UNL     1     105.929 106.496 117.954  1.00  0.00     0.000 C 
BRANCH  18  19
ATOM     19  C   UNL     1     105.858 107.599 119.028  1.00  0.00     0.000 C 
BRANCH  19  20
ATOM     20  C   UNL     1     107.180 108.354 119.268  1.00  0.00     0.000 C 
BRANCH  20  21
ATOM     21  C   UNL     1     107.340 109.660 118.462  1.00  0.00     0.000 C 
BRANCH  21  22
ATOM     22  C   UNL     1     108.135 109.523 117.151  1.00  0.00    -0.000 C 
BRANCH  22  23
ATOM     23  C   UNL     1     109.138 108.361 117.180  1.00  0.00    -0.000 C 
BRANCH  23  24
ATOM     24  C   UNL     1     109.054 107.527 115.893  1.00  0.00    -0.000 C 
BRANCH  24  25
ATOM     25  C   UNL     1     109.039 106.012 116.164  1.00  0.00    -0.000 C 
BRANCH  25  26
ATOM     26  C   UNL     1     108.131 105.191 115.227  1.00  0.00    -0.000 C 
BRANCH  26  27
ATOM     27  C   UNL     1     108.419 105.364 113.722  1.00  0.00    -0.000 C 
BRANCH  27  28
ATOM     28  C   UNL     1     109.842 104.972 113.286  1.00  0.00    -0.000 C 
BRANCH  28  29
ATOM     29  C   UNL     1     110.148 103.486 113.522  1.00  0.00    -0.003 C 
ATOM     30  C   UNL     1     111.642 103.203 113.384  1.00  0.00     0.004 C 
ENDBRANCH  28  29
ENDBRANCH  27  28
ENDBRANCH  26  27
ENDBRANCH  25  26
ENDBRANCH  24  25
ENDBRANCH  23  24
ENDBRANCH  22  23
ENDBRANCH  21  22
ENDBRANCH  20  21
ENDBRANCH  19  20
ENDBRANCH  18  19
ENDBRANCH  17  18
ENDBRANCH   1  17
TORSDOF 26
ENDMDL
MODEL 5
REMARK VINA RESULT:    -4.699      4.706      9.861
REMARK INTER + INTRA:         -14.800
REMARK INTER:                 -10.810
REMARK INTRA:                  -3.991
REMARK UNBOUND:                -2.959
REMARK SMILES CCCCCCCCCCCCCCCCCCCCCCCCCCCC(=O)[O-]
REMARK SMILES IDX 15 1 16 2 17 3 18 4 19 5 20 6 21 7 22 8 23 9 24 10 25 11
REMARK SMILES IDX 26 12 27 13 28 14 29 15 30 16 14 17 13 18 12 19 11 20 10 21
REMARK SMILES IDX 9 22 8 23 7 24 6 25 5 26 4 27 3 28 2 29 1 30
REMARK H PARENT
REMARK Flexibility Score: inf
ROOT
ATOM      1  C   UNL     1     110.341 111.875 116.791  1.00  0.00     0.000 C 
ENDROOT
BRANCH   1   2
ATOM      2  C   UNL     1     111.365 111.341 117.807  1.00  0.00     0.000 C 
BRANCH   2   3
ATOM      3  C   UNL     1     111.619 112.322 118.962  1.00  0.00     0.000 C 
BRANCH   3   4
ATOM      4  C   UNL     1     110.339 112.641 119.754  1.00  0.00     0.000 C 
BRANCH   4   5
ATOM      5  C   UNL     1     110.632 113.076 121.199  1.00  0.00     0.000 C 
BRANCH   5   6
ATOM      6  C   UNL     1     112.139 113.164 121.498  1.00  0.00     0.000 C 
BRANCH   6   7
ATOM      7  C   UNL     1     112.604 112.110 122.514  1.00  0.00     0.000 C 
BRANCH   7   8
ATOM      8  C   UNL     1     111.684 110.881 122.557  1.00  0.00     0.000 C 
BRANCH   8   9
ATOM      9  C   UNL     1     112.155 109.808 121.563  1.00  0.00     0.000 C 
BRANCH   9  10
ATOM     10  C   UNL     1     113.672 109.574 121.611  1.00  0.00     0.000 C 
BRANCH  10  11
ATOM     11  C   UNL     1     114.271 109.266 120.231  1.00  0.00     0.000 C 
BRANCH  11  12
ATOM     12  C   UNL     1     115.523 110.114 119.974  1.00  0.00     0.006 C 
BRANCH  12  13
ATOM     13  C   UNL     1     115.165 111.597 119.835  1.00  0.00     0.053 C 
BRANCH  13  14
ATOM     14  C   UNL     1     115.965 112.426 120.790  1.00  0.00     0.041 C 
ATOM     15  O   UNL     1     115.600 113.599 121.073  1.00  0.00    -0.550 OA
ATOM     16  O   UNL     1     117.125 111.910 121.356  1.00  0.00    -0.550 OA
ENDBRANCH  13  14
ENDBRANCH  12  13
ENDBRANCH  11  12
ENDBRANCH  10  11
ENDBRANCH   9  10
ENDBRANCH   8   9
ENDBRANCH   7   8
ENDBRANCH   6   7
ENDBRANCH   5   6
ENDBRANCH   4   5
ENDBRANCH   3   4
ENDBRANCH   2   3
ENDBRANCH   1   2
BRANCH   1  17
ATOM     17  C   UNL     1     109.183 110.891 116.544  1.00  0.00     0.000 C 
BRANCH  17  18
ATOM     18  C   UNL     1     107.907 111.171 117.362  1.00  0.00     0.000 C 
BRANCH  18  19
ATOM     19  C   UNL     1     107.778 110.358 118.666  1.00  0.00     0.000 C 
BRANCH  19  20
ATOM     20  C   UNL     1     108.263 108.899 118.568  1.00  0.00     0.000 C 
BRANCH  20  21
ATOM     21  C   UNL     1     107.764 107.970 119.693  1.00  0.00     0.000 C 
BRANCH  21  22
ATOM     22  C   UNL     1     106.243 107.733 119.716  1.00  0.00    -0.000 C 
BRANCH  22  23
ATOM     23  C   UNL     1     105.636 107.626 118.310  1.00  0.00    -0.000 C 
BRANCH  23  24
ATOM     24  C   UNL     1     105.804 106.209 117.743  1.00  0.00    -0.000 C 
BRANCH  24  25
ATOM     25  C   UNL     1     106.208 106.205 116.257  1.00  0.00    -0.000 C 
BRANCH  25  26
ATOM     26  C   UNL     1     107.342 105.227 115.894  1.00  0.00    -0.000 C 
BRANCH  26  27
ATOM     27  C   UNL     1     108.614 105.885 115.321  1.00  0.00    -0.000 C 
BRANCH  27  28
ATOM     28  C   UNL     1     109.682 106.248 116.368  1.00  0.00    -0.000 C 
BRANCH  28  29
ATOM     29  C   UNL     1     110.488 107.497 115.987  1.00  0.00    -0.003 C 
ATOM     30  C   UNL     1     110.844 107.491 114.503  1.00  0.00     0.004 C 
ENDBRANCH  28  29
ENDBRANCH  27  28
ENDBRANCH  26  27
ENDBRANCH  25  26
ENDBRANCH  24  25
ENDBRANCH  23  24
ENDBRANCH  22  23
ENDBRANCH  21  22
ENDBRANCH  20  21
ENDBRANCH  19  20
ENDBRANCH  18  19
ENDBRANCH  17  18
ENDBRANCH   1  17
TORSDOF 26
ENDMDL
MODEL 6
REMARK VINA RESULT:    -4.691      3.229      5.676
REMARK INTER + INTRA:         -14.780
REMARK INTER:                 -11.064
REMARK INTRA:                  -3.716
REMARK UNBOUND:                -2.959
REMARK SMILES CCCCCCCCCCCCCCCCCCCCCCCCCCCC(=O)[O-]
REMARK SMILES IDX 15 1 16 2 17 3 18 4 19 5 20 6 21 7 22 8 23 9 24 10 25 11
REMARK SMILES IDX 26 12 27 13 28 14 29 15 30 16 14 17 13 18 12 19 11 20 10 21
REMARK SMILES IDX 9 22 8 23 7 24 6 25 5 26 4 27 3 28 2 29 1 30
REMARK H PARENT
REMARK Flexibility Score: inf
ROOT
ATOM      1  C   UNL     1     104.445 111.810 116.059  1.00  0.00     0.000 C 
ENDROOT
BRANCH   1   2
ATOM      2  C   UNL     1     103.177 111.769 115.189  1.00  0.00     0.000 C 
BRANCH   2   3
ATOM      3  C   UNL     1     102.283 110.559 115.502  1.00  0.00     0.000 C 
BRANCH   3   4
ATOM      4  C   UNL     1     102.573 109.956 116.888  1.00  0.00     0.000 C 
BRANCH   4   5
ATOM      5  C   UNL     1     102.827 108.442 116.832  1.00  0.00     0.000 C 
BRANCH   5   6
ATOM      6  C   UNL     1     104.020 108.072 115.931  1.00  0.00     0.000 C 
BRANCH   6   7
ATOM      7  C   UNL     1     105.245 107.608 116.732  1.00  0.00     0.000 C 
BRANCH   7   8
ATOM      8  C   UNL     1     104.908 107.274 118.193  1.00  0.00     0.000 C 
BRANCH   8   9
ATOM      9  C   UNL     1     106.103 107.567 119.112  1.00  0.00     0.000 C 
BRANCH   9  10
ATOM     10  C   UNL     1     106.966 108.737 118.617  1.00  0.00     0.000 C 
BRANCH  10  11
ATOM     11  C   UNL     1     108.472 108.450 118.714  1.00  0.00     0.000 C 
BRANCH  11  12
ATOM     12  C   UNL     1     109.195 108.876 117.430  1.00  0.00     0.006 C 
BRANCH  12  13
ATOM     13  C   UNL     1     108.775 108.000 116.245  1.00  0.00     0.053 C 
BRANCH  13  14
ATOM     14  C   UNL     1     109.836 106.992 115.932  1.00  0.00     0.041 C 
ATOM     15  O   UNL     1     109.583 105.759 116.008  1.00  0.00    -0.550 OA
ATOM     16  O   UNL     1     111.111 107.412 115.572  1.00  0.00    -0.550 OA
ENDBRANCH  13  14
ENDBRANCH  12  13
ENDBRANCH  11  12
ENDBRANCH  10  11
ENDBRANCH   9  10
ENDBRANCH   8   9
ENDBRANCH   7   8
ENDBRANCH   6   7
ENDBRANCH   5   6
ENDBRANCH   4   5
ENDBRANCH   3   4
ENDBRANCH   2   3
ENDBRANCH   1   2
BRANCH   1  17
ATOM     17  C   UNL     1     105.686 111.270 115.325  1.00  0.00     0.000 C 
BRANCH  17  18
ATOM     18  C   UNL     1     107.026 111.520 116.044  1.00  0.00     0.000 C 
BRANCH  18  19
ATOM     19  C   UNL     1     106.969 112.551 117.189  1.00  0.00     0.000 C 
BRANCH  19  20
ATOM     20  C   UNL     1     107.873 112.228 118.394  1.00  0.00     0.000 C 
BRANCH  20  21
ATOM     21  C   UNL     1     109.376 112.493 118.171  1.00  0.00     0.000 C 
BRANCH  21  22
ATOM     22  C   UNL     1     110.313 111.845 119.206  1.00  0.00    -0.000 C 
BRANCH  22  23
ATOM     23  C   UNL     1     110.471 112.691 120.478  1.00  0.00    -0.000 C 
BRANCH  23  24
ATOM     24  C   UNL     1     111.824 112.423 121.154  1.00  0.00    -0.000 C 
BRANCH  24  25
ATOM     25  C   UNL     1     111.727 111.395 122.295  1.00  0.00    -0.000 C 
BRANCH  25  26
ATOM     26  C   UNL     1     112.189 109.971 121.930  1.00  0.00    -0.000 C 
BRANCH  26  27
ATOM     27  C   UNL     1     113.452 109.899 121.048  1.00  0.00    -0.000 C 
BRANCH  27  28
ATOM     28  C   UNL     1     114.754 109.586 121.807  1.00  0.00    -0.000 C 
BRANCH  28  29
ATOM     29  C   UNL     1     115.297 110.796 122.580  1.00  0.00    -0.003 C 
ATOM     30  C   UNL     1     116.463 111.446 121.839  1.00  0.00     0.004 C 
ENDBRANCH  28  29
ENDBRANCH  27  28
ENDBRANCH  26  27
ENDBRANCH  25  26
ENDBRANCH  24  25
ENDBRANCH  23  24
ENDBRANCH  22  23
ENDBRANCH  21  22
ENDBRANCH  20  21
ENDBRANCH  19  20
ENDBRANCH  18  19
ENDBRANCH  17  18
ENDBRANCH   1  17
TORSDOF 26
ENDMDL
MODEL 7
REMARK VINA RESULT:    -4.664      4.509     10.716
REMARK INTER + INTRA:         -14.711
REMARK INTER:                 -10.729
REMARK INTRA:                  -3.982
REMARK UNBOUND:                -2.959
REMARK SMILES CCCCCCCCCCCCCCCCCCCCCCCCCCCC(=O)[O-]
REMARK SMILES IDX 15 1 16 2 17 3 18 4 19 5 20 6 21 7 22 8 23 9 24 10 25 11
REMARK SMILES IDX 26 12 27 13 28 14 29 15 30 16 14 17 13 18 12 19 11 20 10 21
REMARK SMILES IDX 9 22 8 23 7 24 6 25 5 26 4 27 3 28 2 29 1 30
REMARK H PARENT
REMARK Flexibility Score: inf
ROOT
ATOM      1  C   UNL     1     111.993 112.309 121.906  1.00  0.00     0.000 C 
ENDROOT
BRANCH   1   2
ATOM      2  C   UNL     1     111.520 111.038 122.634  1.00  0.00     0.000 C 
BRANCH   2   3
ATOM      3  C   UNL     1     112.039 109.751 121.975  1.00  0.00     0.000 C 
BRANCH   3   4
ATOM      4  C   UNL     1     113.257 110.005 121.068  1.00  0.00     0.000 C 
BRANCH   4   5
ATOM      5  C   UNL     1     114.538 109.344 121.602  1.00  0.00     0.000 C 
BRANCH   5   6
ATOM      6  C   UNL     1     115.382 110.298 122.466  1.00  0.00     0.000 C 
BRANCH   6   7
ATOM      7  C   UNL     1     116.806 110.486 121.923  1.00  0.00     0.000 C 
BRANCH   7   8
ATOM      8  C   UNL     1     117.066 111.914 121.421  1.00  0.00     0.000 C 
BRANCH   8   9
ATOM      9  C   UNL     1     115.983 112.879 121.927  1.00  0.00     0.000 C 
BRANCH   9  10
ATOM     10  C   UNL     1     115.091 113.419 120.799  1.00  0.00     0.000 C 
BRANCH  10  11
ATOM     11  C   UNL     1     115.699 113.205 119.404  1.00  0.00     0.000 C 
BRANCH  11  12
ATOM     12  C   UNL     1     114.908 112.154 118.616  1.00  0.00     0.006 C 
BRANCH  12  13
ATOM     13  C   UNL     1     115.805 111.434 117.604  1.00  0.00     0.053 C 
BRANCH  13  14
ATOM     14  C   UNL     1     116.142 110.056 118.082  1.00  0.00     0.041 C 
ATOM     15  O   UNL     1     115.233 109.195 118.228  1.00  0.00    -0.550 OA
ATOM     16  O   UNL     1     117.458 109.727 118.383  1.00  0.00    -0.550 OA
ENDBRANCH  13  14
ENDBRANCH  12  13
ENDBRANCH  11  12
ENDBRANCH  10  11
ENDBRANCH   9  10
ENDBRANCH   8   9
ENDBRANCH   7   8
ENDBRANCH   6   7
ENDBRANCH   5   6
ENDBRANCH   4   5
ENDBRANCH   3   4
ENDBRANCH   2   3
ENDBRANCH   1   2
BRANCH   1  17
ATOM     17  C   UNL     1     110.831 113.098 121.275  1.00  0.00     0.000 C 
BRANCH  17  18
ATOM     18  C   UNL     1     110.236 112.469 119.999  1.00  0.00     0.000 C 
BRANCH  18  19
ATOM     19  C   UNL     1     111.244 112.237 118.857  1.00  0.00     0.000 C 
BRANCH  19  20
ATOM     20  C   UNL     1     111.107 110.880 118.140  1.00  0.00     0.000 C 
BRANCH  20  21
ATOM     21  C   UNL     1     109.986 109.968 118.681  1.00  0.00     0.000 C 
BRANCH  21  22
ATOM     22  C   UNL     1     109.126 109.284 117.603  1.00  0.00    -0.000 C 
BRANCH  22  23
ATOM     23  C   UNL     1     108.340 108.081 118.143  1.00  0.00    -0.000 C 
BRANCH  23  24
ATOM     24  C   UNL     1     107.829 108.349 119.566  1.00  0.00    -0.000 C 
BRANCH  24  25
ATOM     25  C   UNL     1     106.446 107.726 119.831  1.00  0.00    -0.000 C 
BRANCH  25  26
ATOM     26  C   UNL     1     105.774 107.085 118.601  1.00  0.00    -0.000 C 
BRANCH  26  27
ATOM     27  C   UNL     1     104.862 108.027 117.789  1.00  0.00    -0.000 C 
BRANCH  27  28
ATOM     28  C   UNL     1     104.315 107.429 116.480  1.00  0.00    -0.000 C 
BRANCH  28  29
ATOM     29  C   UNL     1     105.373 107.365 115.369  1.00  0.00    -0.003 C 
ATOM     30  C   UNL     1     105.982 105.969 115.268  1.00  0.00     0.004 C 
ENDBRANCH  28  29
ENDBRANCH  27  28
ENDBRANCH  26  27
ENDBRANCH  25  26
ENDBRANCH  24  25
ENDBRANCH  23  24
ENDBRANCH  22  23
ENDBRANCH  21  22
ENDBRANCH  20  21
ENDBRANCH  19  20
ENDBRANCH  18  19
ENDBRANCH  17  18
ENDBRANCH   1  17
TORSDOF 26
ENDMDL
MODEL 8
REMARK VINA RESULT:    -4.621      4.024     11.861
REMARK INTER + INTRA:         -14.603
REMARK INTER:                 -11.674
REMARK INTRA:                  -2.929
REMARK UNBOUND:                -2.959
REMARK SMILES CCCCCCCCCCCCCCCCCCCCCCCCCCCC(=O)[O-]
REMARK SMILES IDX 15 1 16 2 17 3 18 4 19 5 20 6 21 7 22 8 23 9 24 10 25 11
REMARK SMILES IDX 26 12 27 13 28 14 29 15 30 16 14 17 13 18 12 19 11 20 10 21
REMARK SMILES IDX 9 22 8 23 7 24 6 25 5 26 4 27 3 28 2 29 1 30
REMARK H PARENT
REMARK Flexibility Score: inf
ROOT
ATOM      1  C   UNL     1     107.949 108.646 116.977  1.00  0.00     0.000 C 
ENDROOT
BRANCH   1   2
ATOM      2  C   UNL     1     108.918 109.835 117.098  1.00  0.00     0.000 C 
BRANCH   2   3
ATOM      3  C   UNL     1     109.404 110.059 118.538  1.00  0.00     0.000 C 
BRANCH   3   4
ATOM      4  C   UNL     1     109.157 111.497 119.025  1.00  0.00     0.000 C 
BRANCH   4   5
ATOM      5  C   UNL     1     110.460 112.232 119.380  1.00  0.00     0.000 C 
BRANCH   5   6
ATOM      6  C   UNL     1     110.449 112.802 120.810  1.00  0.00     0.000 C 
BRANCH   6   7
ATOM      7  C   UNL     1     111.716 112.439 121.601  1.00  0.00     0.000 C 
BRANCH   7   8
ATOM      8  C   UNL     1     111.541 111.173 122.452  1.00  0.00     0.000 C 
BRANCH   8   9
ATOM      9  C   UNL     1     112.057 109.934 121.706  1.00  0.00     0.000 C 
BRANCH   9  10
ATOM     10  C   UNL     1     113.431 110.157 121.055  1.00  0.00     0.000 C 
BRANCH  10  11
ATOM     11  C   UNL     1     114.507 109.203 121.595  1.00  0.00     0.000 C 
BRANCH  11  12
ATOM     12  C   UNL     1     115.711 109.985 122.136  1.00  0.00     0.006 C 
BRANCH  12  13
ATOM     13  C   UNL     1     115.276 111.333 122.718  1.00  0.00     0.053 C 
BRANCH  13  14
ATOM     14  C   UNL     1     115.937 112.461 121.990  1.00  0.00     0.041 C 
ATOM     15  O   UNL     1     117.190 112.593 122.028  1.00  0.00    -0.550 OA
ATOM     16  O   UNL     1     115.169 113.378 121.282  1.00  0.00    -0.550 OA
ENDBRANCH  13  14
ENDBRANCH  12  13
ENDBRANCH  11  12
ENDBRANCH  10  11
ENDBRANCH   9  10
ENDBRANCH   8   9
ENDBRANCH   7   8
ENDBRANCH   6   7
ENDBRANCH   5   6
ENDBRANCH   4   5
ENDBRANCH   3   4
ENDBRANCH   2   3
ENDBRANCH   1   2
BRANCH   1  17
ATOM     17  C   UNL     1     106.524 109.080 116.587  1.00  0.00     0.000 C 
BRANCH  17  18
ATOM     18  C   UNL     1     105.414 108.596 117.542  1.00  0.00     0.000 C 
BRANCH  18  19
ATOM     19  C   UNL     1     104.452 107.550 116.945  1.00  0.00     0.000 C 
BRANCH  19  20
ATOM     20  C   UNL     1     103.008 108.045 116.737  1.00  0.00     0.000 C 
BRANCH  20  21
ATOM     21  C   UNL     1     102.800 109.558 116.955  1.00  0.00     0.000 C 
BRANCH  21  22
ATOM     22  C   UNL     1     102.455 110.358 115.686  1.00  0.00    -0.000 C 
BRANCH  22  23
ATOM     23  C   UNL     1     103.614 110.409 114.681  1.00  0.00    -0.000 C 
BRANCH  23  24
ATOM     24  C   UNL     1     104.048 111.857 114.411  1.00  0.00    -0.000 C 
BRANCH  24  25
ATOM     25  C   UNL     1     103.684 112.813 115.562  1.00  0.00    -0.000 C 
BRANCH  25  26
ATOM     26  C   UNL     1     102.762 113.984 115.170  1.00  0.00    -0.000 C 
BRANCH  26  27
ATOM     27  C   UNL     1     101.303 113.856 115.652  1.00  0.00    -0.000 C 
BRANCH  27  28
ATOM     28  C   UNL     1     100.255 113.775 114.527  1.00  0.00    -0.000 C 
BRANCH  28  29
ATOM     29  C   UNL     1     100.862 113.369 113.177  1.00  0.00    -0.003 C 
ATOM     30  C   UNL     1     100.598 111.896 112.875  1.00  0.00     0.004 C 
ENDBRANCH  28  29
ENDBRANCH  27  28
ENDBRANCH  26  27
ENDBRANCH  25  26
ENDBRANCH  24  25
ENDBRANCH  23  24
ENDBRANCH  22  23
ENDBRANCH  21  22
ENDBRANCH  20  21
ENDBRANCH  19  20
ENDBRANCH  18  19
ENDBRANCH  17  18
ENDBRANCH   1  17
TORSDOF 26
ENDMDL
MODEL 9
REMARK VINA RESULT:    -4.618      5.067      8.265
REMARK INTER + INTRA:         -14.595
REMARK INTER:                  -8.999
REMARK INTRA:                  -5.596
REMARK UNBOUND:                -2.959
REMARK SMILES CCCCCCCCCCCCCCCCCCCCCCCCCCCC(=O)[O-]
REMARK SMILES IDX 15 1 16 2 17 3 18 4 19 5 20 6 21 7 22 8 23 9 24 10 25 11
REMARK SMILES IDX 26 12 27 13 28 14 29 15 30 16 14 17 13 18 12 19 11 20 10 21
REMARK SMILES IDX 9 22 8 23 7 24 6 25 5 26 4 27 3 28 2 29 1 30
REMARK H PARENT
REMARK Flexibility Score: inf
ROOT
ATOM      1  C   UNL     1     103.375 109.429 116.508  1.00  0.00     0.000 C 
ENDROOT
BRANCH   1   2
ATOM      2  C   UNL     1     102.306 110.346 117.126  1.00  0.00     0.000 C 
BRANCH   2   3
ATOM      3  C   UNL     1     101.763 111.378 116.126  1.00  0.00     0.000 C 
BRANCH   3   4
ATOM      4  C   UNL     1     101.968 110.945 114.664  1.00  0.00     0.000 C 
BRANCH   4   5
ATOM      5  C   UNL     1     101.243 111.864 113.668  1.00  0.00     0.000 C 
BRANCH   5   6
ATOM      6  C   UNL     1     100.569 113.067 114.354  1.00  0.00     0.000 C 
BRANCH   6   7
ATOM      7  C   UNL     1     101.136 114.413 113.879  1.00  0.00     0.000 C 
BRANCH   7   8
ATOM      8  C   UNL     1     102.405 114.823 114.639  1.00  0.00     0.000 C 
BRANCH   8   9
ATOM      9  C   UNL     1     103.656 114.611 113.774  1.00  0.00     0.000 C 
BRANCH   9  10
ATOM     10  C   UNL     1     104.597 113.536 114.339  1.00  0.00     0.000 C 
BRANCH  10  11
ATOM     11  C   UNL     1     104.770 113.636 115.862  1.00  0.00     0.000 C 
BRANCH  11  12
ATOM     12  C   UNL     1     105.419 112.366 116.425  1.00  0.00     0.006 C 
BRANCH  12  13
ATOM     13  C   UNL     1     106.701 112.698 117.195  1.00  0.00     0.053 C 
BRANCH  13  14
ATOM     14  C   UNL     1     107.904 112.508 116.326  1.00  0.00     0.041 C 
ATOM     15  O   UNL     1     108.997 113.060 116.625  1.00  0.00    -0.550 OA
ATOM     16  O   UNL     1     107.815 111.736 115.174  1.00  0.00    -0.550 OA
ENDBRANCH  13  14
ENDBRANCH  12  13
ENDBRANCH  11  12
ENDBRANCH  10  11
ENDBRANCH   9  10
ENDBRANCH   8   9
ENDBRANCH   7   8
ENDBRANCH   6   7
ENDBRANCH   5   6
ENDBRANCH   4   5
ENDBRANCH   3   4
ENDBRANCH   2   3
ENDBRANCH   1   2
BRANCH   1  17
ATOM     17  C   UNL     1     103.285 107.981 117.024  1.00  0.00     0.000 C 
BRANCH  17  18
ATOM     18  C   UNL     1     104.641 107.270 117.205  1.00  0.00     0.000 C 
BRANCH  18  19
ATOM     19  C   UNL     1     105.251 107.381 118.616  1.00  0.00     0.000 C 
BRANCH  19  20
ATOM     20  C   UNL     1     106.552 108.203 118.694  1.00  0.00     0.000 C 
BRANCH  20  21
ATOM     21  C   UNL     1     106.984 108.866 117.370  1.00  0.00     0.000 C 
BRANCH  21  22
ATOM     22  C   UNL     1     108.501 108.869 117.107  1.00  0.00    -0.000 C 
BRANCH  22  23
ATOM     23  C   UNL     1     108.914 107.903 115.988  1.00  0.00    -0.000 C 
BRANCH  23  24
ATOM     24  C   UNL     1     108.784 106.442 116.444  1.00  0.00    -0.000 C 
BRANCH  24  25
ATOM     25  C   UNL     1     107.907 105.599 115.501  1.00  0.00    -0.000 C 
BRANCH  25  26
ATOM     26  C   UNL     1     107.390 106.342 114.254  1.00  0.00    -0.000 C 
BRANCH  26  27
ATOM     27  C   UNL     1     105.884 106.173 113.969  1.00  0.00    -0.000 C 
BRANCH  27  28
ATOM     28  C   UNL     1     105.154 107.464 113.556  1.00  0.00    -0.000 C 
BRANCH  28  29
ATOM     29  C   UNL     1     105.956 108.731 113.885  1.00  0.00    -0.003 C 
ATOM     30  C   UNL     1     105.275 109.975 113.320  1.00  0.00     0.004 C 
ENDBRANCH  28  29
ENDBRANCH  27  28
ENDBRANCH  26  27
ENDBRANCH  25  26
ENDBRANCH  24  25
ENDBRANCH  23  24
ENDBRANCH  22  23
ENDBRANCH  21  22
ENDBRANCH  20  21
ENDBRANCH  19  20
ENDBRANCH  18  19
ENDBRANCH  17  18
ENDBRANCH   1  17
TORSDOF 26
ENDMDL
