MODEL 1
REMARK VINA RESULT:    -5.466      0.000      0.000
REMARK INTER + INTRA:          -5.946
REMARK INTER:                  -5.946
REMARK INTRA:                   0.000
REMARK UNBOUND:                 0.000
REMARK SMILES Cc1cc(O)c2c(c1)C(=O)c1cc(O)cc(O)c1C2=O
REMARK SMILES IDX 1 1 2 2 8 3 7 4 6 5 4 6 3 7 19 8 20 9 18 10 11 11 9 12 10 13
REMARK SMILES IDX 12 14 13 15 15 16 16 17 5 18 17 20 14 22
REMARK H PARENT 5 19 17 21 14 23
REMARK Flexibility Score: inf
ROOT
ATOM      1  C   UNL     1      39.364 -80.065  42.204  1.00  0.00     0.044 C 
ATOM      2  C   UNL     1      39.412 -79.444  40.839  1.00  0.00    -0.047 A 
ATOM      3  C   UNL     1      38.226 -79.140  40.161  1.00  0.00     0.016 A 
ATOM      4  C   UNL     1      38.261 -78.585  38.871  1.00  0.00     0.038 A 
ATOM      5  C   UNL     1      39.503 -78.330  38.248  1.00  0.00     0.076 A 
ATOM      6  C   UNL     1      40.699 -78.720  38.906  1.00  0.00     0.127 A 
ATOM      7  C   UNL     1      40.640 -79.252  40.197  1.00  0.00     0.050 A 
ATOM      8  C   UNL     1      39.504 -77.609  36.949  1.00  0.00     0.201 C 
ATOM      9  O   UNL     1      40.481 -76.875  36.641  1.00  0.00    -0.288 OA
ATOM     10  C   UNL     1      38.278 -77.602  36.109  1.00  0.00     0.076 A 
ATOM     11  C   UNL     1      37.038 -77.859  36.734  1.00  0.00     0.041 A 
ATOM     12  C   UNL     1      37.000 -78.271  38.158  1.00  0.00     0.194 C 
ATOM     13  O   UNL     1      35.893 -78.379  38.755  1.00  0.00    -0.289 OA
ATOM     14  C   UNL     1      35.845 -77.728  36.003  1.00  0.00     0.059 A 
ATOM     15  C   UNL     1      35.877 -77.359  34.656  1.00  0.00     0.120 A 
ATOM     16  C   UNL     1      37.102 -77.145  34.024  1.00  0.00     0.093 A 
ATOM     17  C   UNL     1      38.303 -77.288  34.724  1.00  0.00     0.131 A 
ENDROOT
BRANCH   6  18
ATOM     18  O   UNL     1      41.955 -78.631  38.301  1.00  0.00    -0.507 OA
ATOM     19  H   UNL     1      42.158 -78.022  37.521  1.00  0.00     0.293 HD
ENDBRANCH   6  18
BRANCH  17  20
ATOM     20  O   UNL     1      39.491 -77.146  34.003  1.00  0.00    -0.507 OA
ATOM     21  H   UNL     1      40.132 -76.375  34.127  1.00  0.00     0.293 HD
ENDBRANCH  17  20
BRANCH  15  22
ATOM     22  O   UNL     1      34.696 -77.215  33.930  1.00  0.00    -0.508 OA
ATOM     23  H   UNL     1      34.673 -77.340  32.925  1.00  0.00     0.293 HD
ENDBRANCH  15  22
TORSDOF 3
ENDMDL
MODEL 2
REMARK VINA RESULT:    -5.294      1.396      6.210
REMARK INTER + INTRA:          -5.758
REMARK INTER:                  -5.758
REMARK INTRA:                   0.000
REMARK UNBOUND:                 0.000
REMARK SMILES Cc1cc(O)c2c(c1)C(=O)c1cc(O)cc(O)c1C2=O
REMARK SMILES IDX 1 1 2 2 8 3 7 4 6 5 4 6 3 7 19 8 20 9 18 10 11 11 9 12 10 13
REMARK SMILES IDX 12 14 13 15 15 16 16 17 5 18 17 20 14 22
REMARK H PARENT 5 19 17 21 14 23
REMARK Flexibility Score: inf
ROOT
ATOM      1  C   UNL     1      35.814 -76.875  33.233  1.00  0.00     0.044 C 
ATOM      2  C   UNL     1      36.255 -77.327  34.594  1.00  0.00    -0.047 A 
ATOM      3  C   UNL     1      37.600 -77.233  34.966  1.00  0.00     0.016 A 
ATOM      4  C   UNL     1      38.027 -77.681  36.228  1.00  0.00     0.038 A 
ATOM      5  C   UNL     1      37.093 -78.232  37.131  1.00  0.00     0.076 A 
ATOM      6  C   UNL     1      35.747 -78.403  36.715  1.00  0.00     0.127 A 
ATOM      7  C   UNL     1      35.341 -77.932  35.464  1.00  0.00     0.050 A 
ATOM      8  C   UNL     1      37.552 -78.557  38.506  1.00  0.00     0.201 C 
ATOM      9  O   UNL     1      36.741 -78.493  39.469  1.00  0.00    -0.288 OA
ATOM     10  C   UNL     1      38.998 -78.771  38.769  1.00  0.00     0.076 A 
ATOM     11  C   UNL     1      39.931 -78.220  37.862  1.00  0.00     0.041 A 
ATOM     12  C   UNL     1      39.456 -77.583  36.611  1.00  0.00     0.194 C 
ATOM     13  O   UNL     1      40.272 -76.980  35.860  1.00  0.00    -0.289 OA
ATOM     14  C   UNL     1      41.305 -78.283  38.148  1.00  0.00     0.059 A 
ATOM     15  C   UNL     1      41.759 -78.900  39.316  1.00  0.00     0.120 A 
ATOM     16  C   UNL     1      40.845 -79.480  40.194  1.00  0.00     0.093 A 
ATOM     17  C   UNL     1      39.474 -79.449  39.923  1.00  0.00     0.131 A 
ENDROOT
BRANCH   6  18
ATOM     18  O   UNL     1      34.794 -79.064  37.495  1.00  0.00    -0.507 OA
ATOM     19  H   UNL     1      33.926 -78.643  37.793  1.00  0.00     0.293 HD
ENDBRANCH   6  18
BRANCH  17  20
ATOM     20  O   UNL     1      38.627 -80.130  40.801  1.00  0.00    -0.507 OA
ATOM     21  H   UNL     1      38.622 -81.135  40.907  1.00  0.00     0.293 HD
ENDBRANCH  17  20
BRANCH  15  22
ATOM     22  O   UNL     1      43.120 -78.952  39.609  1.00  0.00    -0.508 OA
ATOM     23  H   UNL     1      43.501 -79.653  40.234  1.00  0.00     0.293 HD
ENDBRANCH  15  22
TORSDOF 3
ENDMDL
MODEL 3
REMARK VINA RESULT:    -5.175     18.409     18.809
REMARK INTER + INTRA:          -5.629
REMARK INTER:                  -5.629
REMARK INTRA:                   0.000
REMARK UNBOUND:                 0.000
REMARK SMILES Cc1cc(O)c2c(c1)C(=O)c1cc(O)cc(O)c1C2=O
REMARK SMILES IDX 1 1 2 2 8 3 7 4 6 5 4 6 3 7 19 8 20 9 18 10 11 11 9 12 10 13
REMARK SMILES IDX 12 14 13 15 15 16 16 17 5 18 17 20 14 22
REMARK H PARENT 5 19 17 21 14 23
REMARK Flexibility Score: inf
ROOT
ATOM      1  C   UNL     1      41.321 -94.927  36.227  1.00  0.00     0.044 C 
ATOM      2  C   UNL     1      40.800 -94.962  34.820  1.00  0.00    -0.047 A 
ATOM      3  C   UNL     1      41.597 -95.467  33.787  1.00  0.00     0.016 A 
ATOM      4  C   UNL     1      41.129 -95.477  32.462  1.00  0.00     0.038 A 
ATOM      5  C   UNL     1      39.844 -94.973  32.166  1.00  0.00     0.076 A 
ATOM      6  C   UNL     1      39.076 -94.385  33.205  1.00  0.00     0.127 A 
ATOM      7  C   UNL     1      39.553 -94.405  34.518  1.00  0.00     0.050 A 
ATOM      8  C   UNL     1      39.325 -95.135  30.783  1.00  0.00     0.201 C 
ATOM      9  O   UNL     1      38.086 -95.253  30.588  1.00  0.00    -0.288 OA
ATOM     10  C   UNL     1      40.276 -95.348  29.661  1.00  0.00     0.076 A 
ATOM     11  C   UNL     1      41.562 -95.850  29.960  1.00  0.00     0.041 A 
ATOM     12  C   UNL     1      41.983 -96.008  31.372  1.00  0.00     0.194 C 
ATOM     13  O   UNL     1      43.078 -96.572  31.646  1.00  0.00    -0.289 OA
ATOM     14  C   UNL     1      42.439 -96.193  28.917  1.00  0.00     0.059 A 
ATOM     15  C   UNL     1      42.055 -96.027  27.584  1.00  0.00     0.120 A 
ATOM     16  C   UNL     1      40.801 -95.494  27.285  1.00  0.00     0.093 A 
ATOM     17  C   UNL     1      39.918 -95.126  28.304  1.00  0.00     0.131 A 
ENDROOT
BRANCH   6  18
ATOM     18  O   UNL     1      37.857 -93.742  32.971  1.00  0.00    -0.507 OA
ATOM     19  H   UNL     1      37.780 -92.769  32.711  1.00  0.00     0.293 HD
ENDBRANCH   6  18
BRANCH  17  20
ATOM     20  O   UNL     1      38.719 -94.515  27.930  1.00  0.00    -0.507 OA
ATOM     21  H   UNL     1      38.219 -93.859  28.514  1.00  0.00     0.293 HD
ENDBRANCH  17  20
BRANCH  15  22
ATOM     22  O   UNL     1      42.916 -96.378  26.547  1.00  0.00    -0.508 OA
ATOM     23  H   UNL     1      42.574 -96.552  25.609  1.00  0.00     0.293 HD
ENDBRANCH  15  22
TORSDOF 3
ENDMDL
MODEL 4
REMARK VINA RESULT:    -5.018     18.311     18.456
REMARK INTER + INTRA:          -5.458
REMARK INTER:                  -5.458
REMARK INTRA:                   0.000
REMARK UNBOUND:                 0.000
REMARK SMILES Cc1cc(O)c2c(c1)C(=O)c1cc(O)cc(O)c1C2=O
REMARK SMILES IDX 1 1 2 2 8 3 7 4 6 5 4 6 3 7 19 8 20 9 18 10 11 11 9 12 10 13
REMARK SMILES IDX 12 14 13 15 15 16 16 17 5 18 17 20 14 22
REMARK H PARENT 5 19 17 21 14 23
REMARK Flexibility Score: inf
ROOT
ATOM      1  C   UNL     1      43.117 -95.509  35.211  1.00  0.00     0.044 C 
ATOM      2  C   UNL     1      42.371 -95.505  33.909  1.00  0.00    -0.047 A 
ATOM      3  C   UNL     1      41.006 -95.197  33.881  1.00  0.00     0.016 A 
ATOM      4  C   UNL     1      40.292 -95.219  32.671  1.00  0.00     0.038 A 
ATOM      5  C   UNL     1      40.954 -95.554  31.470  1.00  0.00     0.076 A 
ATOM      6  C   UNL     1      42.317 -95.948  31.518  1.00  0.00     0.127 A 
ATOM      7  C   UNL     1      43.012 -95.899  32.730  1.00  0.00     0.050 A 
ATOM      8  C   UNL     1      40.205 -95.423  30.193  1.00  0.00     0.201 C 
ATOM      9  O   UNL     1      40.822 -95.145  29.131  1.00  0.00    -0.288 OA
ATOM     10  C   UNL     1      38.720 -95.432  30.207  1.00  0.00     0.076 A 
ATOM     11  C   UNL     1      38.060 -95.099  31.410  1.00  0.00     0.041 A 
ATOM     12  C   UNL     1      38.845 -94.897  32.651  1.00  0.00     0.194 C 
ATOM     13  O   UNL     1      38.277 -94.477  33.697  1.00  0.00    -0.289 OA
ATOM     14  C   UNL     1      36.661 -94.963  31.427  1.00  0.00     0.059 A 
ATOM     15  C   UNL     1      35.915 -95.171  30.265  1.00  0.00     0.120 A 
ATOM     16  C   UNL     1      36.559 -95.541  29.084  1.00  0.00     0.093 A 
ATOM     17  C   UNL     1      37.947 -95.701  29.046  1.00  0.00     0.131 A 
ENDROOT
BRANCH   6  18
ATOM     18  O   UNL     1      43.004 -96.426  30.400  1.00  0.00    -0.507 OA
ATOM     19  H   UNL     1      42.766 -97.284  29.922  1.00  0.00     0.293 HD
ENDBRANCH   6  18
BRANCH  17  20
ATOM     20  O   UNL     1      38.510 -96.161  27.853  1.00  0.00    -0.507 OA
ATOM     21  H   UNL     1      39.117 -96.967  27.796  1.00  0.00     0.293 HD
ENDBRANCH  17  20
BRANCH  15  22
ATOM     22  O   UNL     1      34.530 -95.025  30.274  1.00  0.00    -0.508 OA
ATOM     23  H   UNL     1      33.923 -95.694  29.815  1.00  0.00     0.293 HD
ENDBRANCH  15  22
TORSDOF 3
ENDMDL
MODEL 5
REMARK VINA RESULT:    -4.994      2.036      5.914
REMARK INTER + INTRA:          -5.432
REMARK INTER:                  -5.432
REMARK INTRA:                   0.000
REMARK UNBOUND:                 0.000
REMARK SMILES Cc1cc(O)c2c(c1)C(=O)c1cc(O)cc(O)c1C2=O
REMARK SMILES IDX 1 1 2 2 8 3 7 4 6 5 4 6 3 7 19 8 20 9 18 10 11 11 9 12 10 13
REMARK SMILES IDX 12 14 13 15 15 16 16 17 5 18 17 20 14 22
REMARK H PARENT 5 19 17 21 14 23
REMARK Flexibility Score: inf
ROOT
ATOM      1  C   UNL     1      42.561 -76.875  33.415  1.00  0.00     0.044 C 
ATOM      2  C   UNL     1      41.454 -77.061  34.411  1.00  0.00    -0.047 A 
ATOM      3  C   UNL     1      41.746 -77.446  35.724  1.00  0.00     0.016 A 
ATOM      4  C   UNL     1      40.714 -77.651  36.656  1.00  0.00     0.038 A 
ATOM      5  C   UNL     1      39.369 -77.469  36.267  1.00  0.00     0.076 A 
ATOM      6  C   UNL     1      39.076 -77.163  34.913  1.00  0.00     0.127 A 
ATOM      7  C   UNL     1      40.120 -76.944  34.009  1.00  0.00     0.050 A 
ATOM      8  C   UNL     1      38.317 -77.550  37.314  1.00  0.00     0.201 C 
ATOM      9  O   UNL     1      37.260 -76.875  37.193  1.00  0.00    -0.288 OA
ATOM     10  C   UNL     1      38.594 -78.273  38.582  1.00  0.00     0.076 A 
ATOM     11  C   UNL     1      39.941 -78.456  38.967  1.00  0.00     0.041 A 
ATOM     12  C   UNL     1      41.032 -78.065  38.044  1.00  0.00     0.194 C 
ATOM     13  O   UNL     1      42.233 -78.108  38.431  1.00  0.00    -0.289 OA
ATOM     14  C   UNL     1      40.240 -79.012  40.222  1.00  0.00     0.059 A 
ATOM     15  C   UNL     1      39.215 -79.401  41.088  1.00  0.00     0.120 A 
ATOM     16  C   UNL     1      37.885 -79.260  40.695  1.00  0.00     0.093 A 
ATOM     17  C   UNL     1      37.560 -78.728  39.444  1.00  0.00     0.131 A 
ENDROOT
BRANCH   6  18
ATOM     18  O   UNL     1      37.771 -77.103  34.418  1.00  0.00    -0.507 OA
ATOM     19  H   UNL     1      37.505 -77.435  33.502  1.00  0.00     0.293 HD
ENDBRANCH   6  18
BRANCH  17  20
ATOM     20  O   UNL     1      36.211 -78.702  39.083  1.00  0.00    -0.507 OA
ATOM     21  H   UNL     1      35.832 -79.214  38.298  1.00  0.00     0.293 HD
ENDBRANCH  17  20
BRANCH  15  22
ATOM     22  O   UNL     1      39.507 -79.941  42.339  1.00  0.00    -0.508 OA
ATOM     23  H   UNL     1      38.775 -80.196  42.991  1.00  0.00     0.293 HD
ENDBRANCH  15  22
TORSDOF 3
ENDMDL
MODEL 6
REMARK VINA RESULT:    -4.989     17.150     17.651
REMARK INTER + INTRA:          -5.427
REMARK INTER:                  -5.427
REMARK INTRA:                   0.000
REMARK UNBOUND:                 0.000
REMARK SMILES Cc1cc(O)c2c(c1)C(=O)c1cc(O)cc(O)c1C2=O
REMARK SMILES IDX 1 1 2 2 8 3 7 4 6 5 4 6 3 7 19 8 20 9 18 10 11 11 9 12 10 13
REMARK SMILES IDX 12 14 13 15 15 16 16 17 5 18 17 20 14 22
REMARK H PARENT 5 19 17 21 14 23
REMARK Flexibility Score: inf
ROOT
ATOM      1  C   UNL     1      41.987 -95.160  41.049  1.00  0.00     0.044 C 
ATOM      2  C   UNL     1      41.115 -95.254  39.831  1.00  0.00    -0.047 A 
ATOM      3  C   UNL     1      41.690 -95.377  38.562  1.00  0.00     0.016 A 
ATOM      4  C   UNL     1      40.883 -95.438  37.413  1.00  0.00     0.038 A 
ATOM      5  C   UNL     1      39.478 -95.373  37.536  1.00  0.00     0.076 A 
ATOM      6  C   UNL     1      38.906 -95.163  38.818  1.00  0.00     0.127 A 
ATOM      7  C   UNL     1      39.727 -95.126  39.948  1.00  0.00     0.050 A 
ATOM      8  C   UNL     1      38.654 -95.588  36.319  1.00  0.00     0.201 C 
ATOM      9  O   UNL     1      37.507 -96.100  36.421  1.00  0.00    -0.288 OA
ATOM     10  C   UNL     1      39.255 -95.378  34.976  1.00  0.00     0.076 A 
ATOM     11  C   UNL     1      40.661 -95.441  34.856  1.00  0.00     0.041 A 
ATOM     12  C   UNL     1      41.502 -95.561  36.071  1.00  0.00     0.194 C 
ATOM     13  O   UNL     1      42.746 -95.744  35.963  1.00  0.00    -0.289 OA
ATOM     14  C   UNL     1      41.257 -95.383  33.585  1.00  0.00     0.059 A 
ATOM     15  C   UNL     1      40.471 -95.250  32.438  1.00  0.00     0.120 A 
ATOM     16  C   UNL     1      39.086 -95.146  32.556  1.00  0.00     0.093 A 
ATOM     17  C   UNL     1      38.469 -95.181  33.810  1.00  0.00     0.131 A 
ENDROOT
BRANCH   6  18
ATOM     18  O   UNL     1      37.538 -94.950  39.008  1.00  0.00    -0.507 OA
ATOM     19  H   UNL     1      37.140 -94.604  39.870  1.00  0.00     0.293 HD
ENDBRANCH   6  18
BRANCH  17  20
ATOM     20  O   UNL     1      37.088 -94.980  33.855  1.00  0.00    -0.507 OA
ATOM     21  H   UNL     1      36.655 -94.151  34.238  1.00  0.00     0.293 HD
ENDBRANCH  17  20
BRANCH  15  22
ATOM     22  O   UNL     1      41.058 -95.205  31.175  1.00  0.00    -0.508 OA
ATOM     23  H   UNL     1      40.564 -94.831  30.374  1.00  0.00     0.293 HD
ENDBRANCH  15  22
TORSDOF 3
ENDMDL
MODEL 7
REMARK VINA RESULT:    -4.912      3.124      5.275
REMARK INTER + INTRA:          -5.343
REMARK INTER:                  -5.343
REMARK INTRA:                   0.000
REMARK UNBOUND:                 0.000
REMARK SMILES Cc1cc(O)c2c(c1)C(=O)c1cc(O)cc(O)c1C2=O
REMARK SMILES IDX 1 1 2 2 8 3 7 4 6 5 4 6 3 7 19 8 20 9 18 10 11 11 9 12 10 13
REMARK SMILES IDX 12 14 13 15 15 16 16 17 5 18 17 20 14 22
REMARK H PARENT 5 19 17 21 14 23
REMARK Flexibility Score: inf
ROOT
ATOM      1  C   UNL     1      32.602 -77.721  36.021  1.00  0.00     0.044 C 
ATOM      2  C   UNL     1      34.091 -77.632  35.867  1.00  0.00    -0.047 A 
ATOM      3  C   UNL     1      34.657 -77.419  34.605  1.00  0.00     0.016 A 
ATOM      4  C   UNL     1      36.052 -77.362  34.446  1.00  0.00     0.038 A 
ATOM      5  C   UNL     1      36.895 -77.523  35.567  1.00  0.00     0.076 A 
ATOM      6  C   UNL     1      36.317 -77.823  36.829  1.00  0.00     0.127 A 
ATOM      7  C   UNL     1      34.927 -77.854  36.967  1.00  0.00     0.050 A 
ATOM      8  C   UNL     1      38.354 -77.310  35.387  1.00  0.00     0.201 C 
ATOM      9  O   UNL     1      39.048 -76.879  36.346  1.00  0.00    -0.288 OA
ATOM     10  C   UNL     1      38.953 -77.424  34.032  1.00  0.00     0.076 A 
ATOM     11  C   UNL     1      38.107 -77.266  32.911  1.00  0.00     0.041 A 
ATOM     12  C   UNL     1      36.642 -77.142  33.104  1.00  0.00     0.194 C 
ATOM     13  O   UNL     1      35.897 -76.876  32.121  1.00  0.00    -0.289 OA
ATOM     14  C   UNL     1      38.657 -77.231  31.619  1.00  0.00     0.059 A 
ATOM     15  C   UNL     1      40.034 -77.367  31.431  1.00  0.00     0.120 A 
ATOM     16  C   UNL     1      40.868 -77.564  32.531  1.00  0.00     0.093 A 
ATOM     17  C   UNL     1      40.344 -77.622  33.825  1.00  0.00     0.131 A 
ENDROOT
BRANCH   6  18
ATOM     18  O   UNL     1      37.084 -78.132  37.955  1.00  0.00    -0.507 OA
ATOM     19  H   UNL     1      38.094 -78.099  37.970  1.00  0.00     0.293 HD
ENDBRANCH   6  18
BRANCH  17  20
ATOM     20  O   UNL     1      41.228 -77.914  34.867  1.00  0.00    -0.507 OA
ATOM     21  H   UNL     1      42.112 -78.384  34.735  1.00  0.00     0.293 HD
ENDBRANCH  17  20
BRANCH  15  22
ATOM     22  O   UNL     1      40.585 -77.320  30.152  1.00  0.00    -0.508 OA
ATOM     23  H   UNL     1      40.681 -78.153  29.584  1.00  0.00     0.293 HD
ENDBRANCH  15  22
TORSDOF 3
ENDMDL
MODEL 8
REMARK VINA RESULT:    -4.791     18.356     19.168
REMARK INTER + INTRA:          -5.211
REMARK INTER:                  -5.211
REMARK INTRA:                   0.000
REMARK UNBOUND:                 0.000
REMARK SMILES Cc1cc(O)c2c(c1)C(=O)c1cc(O)cc(O)c1C2=O
REMARK SMILES IDX 1 1 2 2 8 3 7 4 6 5 4 6 3 7 19 8 20 9 18 10 11 11 9 12 10 13
REMARK SMILES IDX 12 14 13 15 15 16 16 17 5 18 17 20 14 22
REMARK H PARENT 5 19 17 21 14 23
REMARK Flexibility Score: inf
ROOT
ATOM      1  C   UNL     1      34.493 -94.847  29.191  1.00  0.00     0.044 C 
ATOM      2  C   UNL     1      35.920 -95.185  29.511  1.00  0.00    -0.047 A 
ATOM      3  C   UNL     1      36.420 -94.975  30.801  1.00  0.00     0.016 A 
ATOM      4  C   UNL     1      37.762 -95.262  31.104  1.00  0.00     0.038 A 
ATOM      5  C   UNL     1      38.617 -95.767  30.100  1.00  0.00     0.076 A 
ATOM      6  C   UNL     1      38.126 -95.896  28.774  1.00  0.00     0.127 A 
ATOM      7  C   UNL     1      36.782 -95.624  28.502  1.00  0.00     0.050 A 
ATOM      8  C   UNL     1      39.984 -96.196  30.491  1.00  0.00     0.201 C 
ATOM      9  O   UNL     1      40.554 -97.125  29.858  1.00  0.00    -0.288 OA
ATOM     10  C   UNL     1      40.595 -95.666  31.737  1.00  0.00     0.076 A 
ATOM     11  C   UNL     1      39.738 -95.159  32.739  1.00  0.00     0.041 A 
ATOM     12  C   UNL     1      38.285 -95.030  32.471  1.00  0.00     0.194 C 
ATOM     13  O   UNL     1      37.499 -94.699  33.401  1.00  0.00    -0.289 OA
ATOM     14  C   UNL     1      40.266 -94.776  33.983  1.00  0.00     0.059 A 
ATOM     15  C   UNL     1      41.636 -94.877  34.233  1.00  0.00     0.120 A 
ATOM     16  C   UNL     1      42.491 -95.338  33.233  1.00  0.00     0.093 A 
ATOM     17  C   UNL     1      41.994 -95.707  31.980  1.00  0.00     0.131 A 
ENDROOT
BRANCH   6  18
ATOM     18  O   UNL     1      38.942 -96.256  27.699  1.00  0.00    -0.507 OA
ATOM     19  H   UNL     1      38.586 -96.585  26.812  1.00  0.00     0.293 HD
ENDBRANCH   6  18
BRANCH  17  20
ATOM     20  O   UNL     1      42.920 -96.072  31.000  1.00  0.00    -0.507 OA
ATOM     21  H   UNL     1      43.659 -95.464  30.675  1.00  0.00     0.293 HD
ENDBRANCH  17  20
BRANCH  15  22
ATOM     22  O   UNL     1      42.162 -94.510  35.470  1.00  0.00    -0.508 OA
ATOM     23  H   UNL     1      42.391 -93.546  35.684  1.00  0.00     0.293 HD
ENDBRANCH  15  22
TORSDOF 3
ENDMDL
MODEL 9
REMARK VINA RESULT:    -3.874     20.533     22.128
REMARK INTER + INTRA:          -4.214
REMARK INTER:                  -4.214
REMARK INTRA:                   0.000
REMARK UNBOUND:                 0.000
REMARK SMILES Cc1cc(O)c2c(c1)C(=O)c1cc(O)cc(O)c1C2=O
REMARK SMILES IDX 1 1 2 2 8 3 7 4 6 5 4 6 3 7 19 8 20 9 18 10 11 11 9 12 10 13
REMARK SMILES IDX 12 14 13 15 15 16 16 17 5 18 17 20 14 22
REMARK H PARENT 5 19 17 21 14 23
REMARK Flexibility Score: inf
ROOT
ATOM      1  C   UNL     1      25.321 -96.386  27.109  1.00  0.00     0.044 C 
ATOM      2  C   UNL     1      26.623 -96.277  27.847  1.00  0.00    -0.047 A 
ATOM      3  C   UNL     1      27.802 -95.978  27.156  1.00  0.00     0.016 A 
ATOM      4  C   UNL     1      29.030 -95.902  27.834  1.00  0.00     0.038 A 
ATOM      5  C   UNL     1      29.080 -96.132  29.227  1.00  0.00     0.076 A 
ATOM      6  C   UNL     1      27.895 -96.519  29.906  1.00  0.00     0.127 A 
ATOM      7  C   UNL     1      26.682 -96.567  29.214  1.00  0.00     0.050 A 
ATOM      8  C   UNL     1      30.366 -95.899  29.933  1.00  0.00     0.201 C 
ATOM      9  O   UNL     1      30.362 -95.528  31.137  1.00  0.00    -0.288 OA
ATOM     10  C   UNL     1      31.640 -95.919  29.168  1.00  0.00     0.076 A 
ATOM     11  C   UNL     1      31.587 -95.692  27.775  1.00  0.00     0.041 A 
ATOM     12  C   UNL     1      30.275 -95.590  27.093  1.00  0.00     0.194 C 
ATOM     13  O   UNL     1      30.220 -95.263  25.875  1.00  0.00    -0.289 OA
ATOM     14  C   UNL     1      32.779 -95.568  27.041  1.00  0.00     0.059 A 
ATOM     15  C   UNL     1      34.018 -95.683  27.676  1.00  0.00     0.120 A 
ATOM     16  C   UNL     1      34.074 -95.948  29.044  1.00  0.00     0.093 A 
ATOM     17  C   UNL     1      32.903 -96.095  29.793  1.00  0.00     0.131 A 
ENDROOT
BRANCH   6  18
ATOM     18  O   UNL     1      27.886 -96.897  31.251  1.00  0.00    -0.507 OA
ATOM     19  H   UNL     1      27.158 -96.635  31.901  1.00  0.00     0.293 HD
ENDBRANCH   6  18
BRANCH  17  20
ATOM     20  O   UNL     1      33.038 -96.450  31.137  1.00  0.00    -0.507 OA
ATOM     21  H   UNL     1      33.045 -97.406  31.466  1.00  0.00     0.293 HD
ENDBRANCH  17  20
BRANCH  15  22
ATOM     22  O   UNL     1      35.202 -95.547  26.954  1.00  0.00    -0.508 OA
ATOM     23  H   UNL     1      35.201 -95.460  25.944  1.00  0.00     0.293 HD
ENDBRANCH  15  22
TORSDOF 3
ENDMDL
