MODEL 1
REMARK VINA RESULT:    -6.326      0.000      0.000
REMARK INTER + INTRA:          -9.069
REMARK INTER:                  -8.545
REMARK INTRA:                  -0.525
REMARK UNBOUND:                -0.525
REMARK SMILES COc1ccc(-c2cc(=O)c3c(OC)c(OC)c(OC)c(OC)c3o2)cc1
REMARK SMILES IDX 7 1 8 2 9 3 10 4 11 5 24 6 25 7 21 8 18 9 15 10 12 11 6 12
REMARK SMILES IDX 3 13 4 14 27 15 5 16 26 17 2 18 1 19 22 20 23 21 13 22 14 23
REMARK SMILES IDX 19 24 20 25 16 26 17 27
REMARK H PARENT
REMARK Flexibility Score: inf
ROOT
ATOM      1  C   UNL     1       7.966  10.747 -14.641  1.00  0.00     0.138 A 
ATOM      2  C   UNL     1       8.866  11.789 -14.373  1.00  0.00     0.100 A 
ATOM      3  C   UNL     1       9.267  12.631 -15.410  1.00  0.00     0.197 A 
ATOM      4  O   UNL     1      10.079  13.561 -15.157  1.00  0.00    -0.289 OA
ATOM      5  C   UNL     1       8.768  12.420 -16.715  1.00  0.00     0.115 A 
ATOM      6  C   UNL     1       7.872  11.348 -16.908  1.00  0.00     0.188 A 
ATOM      7  O   UNL     1       7.520  10.575 -15.883  1.00  0.00    -0.452 OA
ATOM      8  C   UNL     1       7.328  11.080 -18.170  1.00  0.00     0.209 A 
ATOM      9  C   UNL     1       7.698  11.877 -19.283  1.00  0.00     0.211 A 
ATOM     10  C   UNL     1       8.637  12.925 -19.101  1.00  0.00     0.208 A 
ATOM     11  C   UNL     1       9.117  13.236 -17.810  1.00  0.00     0.179 A 
ENDROOT
BRANCH   1  12
ATOM     12  C   UNL     1       7.502   9.816 -13.581  1.00  0.00     0.018 A 
ATOM     13  C   UNL     1       6.594   8.012 -11.608  1.00  0.00     0.118 A 
ATOM     14  C   UNL     1       6.817   9.356 -11.290  1.00  0.00     0.047 A 
ATOM     15  C   UNL     1       6.819   7.573 -12.924  1.00  0.00     0.047 A 
ATOM     16  C   UNL     1       7.262  10.253 -12.265  1.00  0.00     0.016 A 
ATOM     17  C   UNL     1       7.264   8.469 -13.901  1.00  0.00     0.016 A 
BRANCH  13  18
ATOM     18  O   UNL     1       6.147   7.152 -10.593  1.00  0.00    -0.497 OA
ATOM     19  C   UNL     1       6.552   7.238  -9.230  1.00  0.00     0.278 C 
ENDBRANCH  13  18
ENDBRANCH   1  12
BRANCH   8  20
ATOM     20  O   UNL     1       6.422  10.002 -18.242  1.00  0.00    -0.490 OA
ATOM     21  C   UNL     1       6.739   8.624 -18.406  1.00  0.00     0.278 C 
ENDBRANCH   8  20
BRANCH  11  22
ATOM     22  O   UNL     1       9.934  14.355 -17.608  1.00  0.00    -0.492 OA
ATOM     23  C   UNL     1       9.412  15.680 -17.550  1.00  0.00     0.278 C 
ENDBRANCH  11  22
BRANCH   9  24
ATOM     24  O   UNL     1       7.128  11.584 -20.537  1.00  0.00    -0.490 OA
ATOM     25  C   UNL     1       5.875  12.032 -21.039  1.00  0.00     0.279 C 
ENDBRANCH   9  24
BRANCH  10  26
ATOM     26  O   UNL     1       9.105  13.646 -20.204  1.00  0.00    -0.490 OA
ATOM     27  C   UNL     1       8.383  14.739 -20.765  1.00  0.00     0.278 C 
ENDBRANCH  10  26
TORSDOF 6
ENDMDL
MODEL 2
REMARK VINA RESULT:    -6.044      1.002      3.435
REMARK INTER + INTRA:          -8.689
REMARK INTER:                  -8.389
REMARK INTRA:                  -0.301
REMARK UNBOUND:                -0.525
REMARK SMILES COc1ccc(-c2cc(=O)c3c(OC)c(OC)c(OC)c(OC)c3o2)cc1
REMARK SMILES IDX 7 1 8 2 9 3 10 4 11 5 24 6 25 7 21 8 18 9 15 10 12 11 6 12
REMARK SMILES IDX 3 13 4 14 27 15 5 16 26 17 2 18 1 19 22 20 23 21 13 22 14 23
REMARK SMILES IDX 19 24 20 25 16 26 17 27
REMARK H PARENT
REMARK Flexibility Score: inf
ROOT
ATOM      1  C   UNL     1       7.329  10.266 -15.652  1.00  0.00     0.138 A 
ATOM      2  C   UNL     1       6.534   9.883 -16.743  1.00  0.00     0.100 A 
ATOM      3  C   UNL     1       6.685  10.541 -17.964  1.00  0.00     0.197 A 
ATOM      4  O   UNL     1       5.962  10.189 -18.935  1.00  0.00    -0.289 OA
ATOM      5  C   UNL     1       7.627  11.586 -18.084  1.00  0.00     0.115 A 
ATOM      6  C   UNL     1       8.385  11.919 -16.941  1.00  0.00     0.188 A 
ATOM      7  O   UNL     1       8.203  11.258 -15.800  1.00  0.00    -0.452 OA
ATOM      8  C   UNL     1       9.345  12.937 -16.983  1.00  0.00     0.209 A 
ATOM      9  C   UNL     1       9.547  13.668 -18.181  1.00  0.00     0.211 A 
ATOM     10  C   UNL     1       8.753  13.368 -19.318  1.00  0.00     0.208 A 
ATOM     11  C   UNL     1       7.845  12.287 -19.287  1.00  0.00     0.179 A 
ENDROOT
BRANCH   1  12
ATOM     12  C   UNL     1       7.215   9.607 -14.327  1.00  0.00     0.018 A 
ATOM     13  C   UNL     1       6.972   8.305 -11.832  1.00  0.00     0.118 A 
ATOM     14  C   UNL     1       7.029   9.701 -11.901  1.00  0.00     0.047 A 
ATOM     15  C   UNL     1       7.028   7.559 -13.021  1.00  0.00     0.047 A 
ATOM     16  C   UNL     1       7.145  10.350 -13.134  1.00  0.00     0.016 A 
ATOM     17  C   UNL     1       7.144   8.205 -14.256  1.00  0.00     0.016 A 
BRANCH  13  18
ATOM     18  O   UNL     1       6.856   7.704 -10.569  1.00  0.00    -0.497 OA
ATOM     19  C   UNL     1       7.422   8.230  -9.374  1.00  0.00     0.278 C 
ENDBRANCH  13  18
ENDBRANCH   1  12
BRANCH   8  20
ATOM     20  O   UNL     1      10.062  13.167 -15.792  1.00  0.00    -0.490 OA
ATOM     21  C   UNL     1       9.880  14.238 -14.873  1.00  0.00     0.278 C 
ENDBRANCH   8  20
BRANCH  11  22
ATOM     22  O   UNL     1       7.162  11.902 -20.447  1.00  0.00    -0.492 OA
ATOM     23  C   UNL     1       5.984  12.566 -20.895  1.00  0.00     0.278 C 
ENDBRANCH  11  22
BRANCH   9  24
ATOM     24  O   UNL     1      10.525  14.682 -18.190  1.00  0.00    -0.490 OA
ATOM     25  C   UNL     1      10.313  16.084 -18.077  1.00  0.00     0.279 C 
ENDBRANCH   9  24
BRANCH  10  26
ATOM     26  O   UNL     1       8.853  14.153 -20.470  1.00  0.00    -0.490 OA
ATOM     27  C   UNL     1       8.102  15.351 -20.646  1.00  0.00     0.278 C 
ENDBRANCH  10  26
TORSDOF 6
ENDMDL
MODEL 3
REMARK VINA RESULT:    -5.964      2.004      7.873
REMARK INTER + INTRA:          -8.581
REMARK INTER:                  -8.290
REMARK INTRA:                  -0.291
REMARK UNBOUND:                -0.525
REMARK SMILES COc1ccc(-c2cc(=O)c3c(OC)c(OC)c(OC)c(OC)c3o2)cc1
REMARK SMILES IDX 7 1 8 2 9 3 10 4 11 5 24 6 25 7 21 8 18 9 15 10 12 11 6 12
REMARK SMILES IDX 3 13 4 14 27 15 5 16 26 17 2 18 1 19 22 20 23 21 13 22 14 23
REMARK SMILES IDX 19 24 20 25 16 26 17 27
REMARK H PARENT
REMARK Flexibility Score: inf
ROOT
ATOM      1  C   UNL     1       8.575  13.619 -18.302  1.00  0.00     0.138 A 
ATOM      2  C   UNL     1       9.029  14.074 -17.055  1.00  0.00     0.100 A 
ATOM      3  C   UNL     1       8.876  13.260 -15.933  1.00  0.00     0.197 A 
ATOM      4  O   UNL     1       9.285  13.682 -14.818  1.00  0.00    -0.289 OA
ATOM      5  C   UNL     1       8.263  11.994 -16.065  1.00  0.00     0.115 A 
ATOM      6  C   UNL     1       7.827  11.609 -17.350  1.00  0.00     0.188 A 
ATOM      7  O   UNL     1       7.998  12.424 -18.389  1.00  0.00    -0.452 OA
ATOM      8  C   UNL     1       7.217  10.366 -17.563  1.00  0.00     0.209 A 
ATOM      9  C   UNL     1       7.007   9.486 -16.472  1.00  0.00     0.211 A 
ATOM     10  C   UNL     1       7.401   9.891 -15.171  1.00  0.00     0.208 A 
ATOM     11  C   UNL     1       8.086  11.111 -14.981  1.00  0.00     0.179 A 
ENDROOT
BRANCH   1  12
ATOM     12  C   UNL     1       8.707  14.439 -19.533  1.00  0.00     0.018 A 
ATOM     13  C   UNL     1       8.947  16.048 -21.842  1.00  0.00     0.118 A 
ATOM     14  C   UNL     1       8.519  14.721 -21.945  1.00  0.00     0.047 A 
ATOM     15  C   UNL     1       9.248  16.574 -20.574  1.00  0.00     0.047 A 
ATOM     16  C   UNL     1       8.394  13.922 -20.804  1.00  0.00     0.016 A 
ATOM     17  C   UNL     1       9.124  15.777 -19.431  1.00  0.00     0.016 A 
BRANCH  13  18
ATOM     18  O   UNL     1       9.056  16.807 -23.017  1.00  0.00    -0.497 OA
ATOM     19  C   UNL     1       8.957  16.270 -24.332  1.00  0.00     0.278 C 
ENDBRANCH  13  18
ENDBRANCH   1  12
BRANCH   8  20
ATOM     20  O   UNL     1       6.845  10.074 -18.892  1.00  0.00    -0.490 OA
ATOM     21  C   UNL     1       5.875  10.754 -19.681  1.00  0.00     0.278 C 
ENDBRANCH   8  20
BRANCH  11  22
ATOM     22  O   UNL     1       8.597  11.448 -13.722  1.00  0.00    -0.492 OA
ATOM     23  C   UNL     1       7.761  11.848 -12.641  1.00  0.00     0.278 C 
ENDBRANCH  11  22
BRANCH   9  24
ATOM     24  O   UNL     1       6.396   8.242 -16.723  1.00  0.00    -0.490 OA
ATOM     25  C   UNL     1       7.039   7.023 -17.076  1.00  0.00     0.279 C 
ENDBRANCH   9  24
BRANCH  10  26
ATOM     26  O   UNL     1       7.097   9.091 -14.065  1.00  0.00    -0.490 OA
ATOM     27  C   UNL     1       7.972   8.067 -13.600  1.00  0.00     0.278 C 
ENDBRANCH  10  26
TORSDOF 6
ENDMDL
MODEL 4
REMARK VINA RESULT:    -5.725      2.434      8.368
REMARK INTER + INTRA:          -8.258
REMARK INTER:                  -7.906
REMARK INTRA:                  -0.352
REMARK UNBOUND:                -0.525
REMARK SMILES COc1ccc(-c2cc(=O)c3c(OC)c(OC)c(OC)c(OC)c3o2)cc1
REMARK SMILES IDX 7 1 8 2 9 3 10 4 11 5 24 6 25 7 21 8 18 9 15 10 12 11 6 12
REMARK SMILES IDX 3 13 4 14 27 15 5 16 26 17 2 18 1 19 22 20 23 21 13 22 14 23
REMARK SMILES IDX 19 24 20 25 16 26 17 27
REMARK H PARENT
REMARK Flexibility Score: inf
ROOT
ATOM      1  C   UNL     1       8.789  13.049 -19.019  1.00  0.00     0.138 A 
ATOM      2  C   UNL     1       9.611  11.916 -19.118  1.00  0.00     0.100 A 
ATOM      3  C   UNL     1       9.536  10.928 -18.137  1.00  0.00     0.197 A 
ATOM      4  O   UNL     1      10.283   9.918 -18.236  1.00  0.00    -0.289 OA
ATOM      5  C   UNL     1       8.642  11.083 -17.055  1.00  0.00     0.115 A 
ATOM      6  C   UNL     1       7.852  12.251 -17.020  1.00  0.00     0.188 A 
ATOM      7  O   UNL     1       7.961  13.164 -17.983  1.00  0.00    -0.452 OA
ATOM      8  C   UNL     1       6.935  12.473 -15.985  1.00  0.00     0.209 A 
ATOM      9  C   UNL     1       6.811  11.526 -14.937  1.00  0.00     0.211 A 
ATOM     10  C   UNL     1       7.638  10.373 -14.944  1.00  0.00     0.208 A 
ATOM     11  C   UNL     1       8.500  10.122 -16.033  1.00  0.00     0.179 A 
ENDROOT
BRANCH   1  12
ATOM     12  C   UNL     1       8.822  14.136 -20.029  1.00  0.00     0.018 A 
ATOM     13  C   UNL     1       8.868  16.244 -21.909  1.00  0.00     0.118 A 
ATOM     14  C   UNL     1       8.627  14.930 -22.323  1.00  0.00     0.047 A 
ATOM     15  C   UNL     1       9.079  16.503 -20.543  1.00  0.00     0.047 A 
ATOM     16  C   UNL     1       8.598  13.884 -21.396  1.00  0.00     0.016 A 
ATOM     17  C   UNL     1       9.051  15.459 -19.614  1.00  0.00     0.016 A 
BRANCH  13  18
ATOM     18  O   UNL     1       8.887  17.257 -22.880  1.00  0.00    -0.497 OA
ATOM     19  C   UNL     1       9.209  17.050 -24.251  1.00  0.00     0.278 C 
ENDBRANCH  13  18
ENDBRANCH   1  12
BRANCH   8  20
ATOM     20  O   UNL     1       6.180  13.660 -16.064  1.00  0.00    -0.490 OA
ATOM     21  C   UNL     1       6.564  14.954 -15.613  1.00  0.00     0.278 C 
ENDBRANCH   8  20
BRANCH  11  22
ATOM     22  O   UNL     1       9.214   8.919 -16.110  1.00  0.00    -0.492 OA
ATOM     23  C   UNL     1      10.356   8.657 -15.299  1.00  0.00     0.278 C 
ENDBRANCH  11  22
BRANCH   9  24
ATOM     24  O   UNL     1       5.876  11.777 -13.914  1.00  0.00    -0.490 OA
ATOM     25  C   UNL     1       5.973  12.745 -12.876  1.00  0.00     0.279 C 
ENDBRANCH   9  24
BRANCH  10  26
ATOM     26  O   UNL     1       7.616   9.487 -13.862  1.00  0.00    -0.490 OA
ATOM     27  C   UNL     1       6.718   8.384 -13.796  1.00  0.00     0.278 C 
ENDBRANCH  10  26
TORSDOF 6
ENDMDL
MODEL 5
REMARK VINA RESULT:    -5.664      2.040      4.444
REMARK INTER + INTRA:          -8.176
REMARK INTER:                  -7.778
REMARK INTRA:                  -0.397
REMARK UNBOUND:                -0.525
REMARK SMILES COc1ccc(-c2cc(=O)c3c(OC)c(OC)c(OC)c(OC)c3o2)cc1
REMARK SMILES IDX 7 1 8 2 9 3 10 4 11 5 24 6 25 7 21 8 18 9 15 10 12 11 6 12
REMARK SMILES IDX 3 13 4 14 27 15 5 16 26 17 2 18 1 19 22 20 23 21 13 22 14 23
REMARK SMILES IDX 19 24 20 25 16 26 17 27
REMARK H PARENT
REMARK Flexibility Score: inf
ROOT
ATOM      1  C   UNL     1       7.023   8.455 -12.875  1.00  0.00     0.138 A 
ATOM      2  C   UNL     1       7.138   7.406 -13.799  1.00  0.00     0.100 A 
ATOM      3  C   UNL     1       7.242   7.701 -15.158  1.00  0.00     0.197 A 
ATOM      4  O   UNL     1       7.341   6.749 -15.979  1.00  0.00    -0.289 OA
ATOM      5  C   UNL     1       7.223   9.047 -15.586  1.00  0.00     0.115 A 
ATOM      6  C   UNL     1       7.098  10.046 -14.598  1.00  0.00     0.188 A 
ATOM      7  O   UNL     1       7.003   9.711 -13.313  1.00  0.00    -0.452 OA
ATOM      8  C   UNL     1       7.080  11.403 -14.942  1.00  0.00     0.209 A 
ATOM      9  C   UNL     1       7.161  11.788 -16.304  1.00  0.00     0.211 A 
ATOM     10  C   UNL     1       7.238  10.783 -17.304  1.00  0.00     0.208 A 
ATOM     11  C   UNL     1       7.336   9.423 -16.939  1.00  0.00     0.179 A 
ENDROOT
BRANCH   1  12
ATOM     12  C   UNL     1       6.907   8.207 -11.415  1.00  0.00     0.018 A 
ATOM     13  C   UNL     1       6.743   7.759  -8.631  1.00  0.00     0.118 A 
ATOM     14  C   UNL     1       6.013   6.964  -9.521  1.00  0.00     0.047 A 
ATOM     15  C   UNL     1       7.566   8.779  -9.140  1.00  0.00     0.047 A 
ATOM     16  C   UNL     1       6.095   7.179 -10.900  1.00  0.00     0.016 A 
ATOM     17  C   UNL     1       7.649   8.996 -10.519  1.00  0.00     0.016 A 
BRANCH  13  18
ATOM     18  O   UNL     1       6.625   7.502  -7.257  1.00  0.00    -0.497 OA
ATOM     19  C   UNL     1       6.152   8.445  -6.300  1.00  0.00     0.278 C 
ENDBRANCH  13  18
ENDBRANCH   1  12
BRANCH   8  20
ATOM     20  O   UNL     1       6.978  12.316 -13.873  1.00  0.00    -0.490 OA
ATOM     21  C   UNL     1       5.878  13.166 -13.571  1.00  0.00     0.278 C 
ENDBRANCH   8  20
BRANCH  11  22
ATOM     22  O   UNL     1       7.552   8.442 -17.916  1.00  0.00    -0.492 OA
ATOM     23  C   UNL     1       6.495   7.912 -18.711  1.00  0.00     0.278 C 
ENDBRANCH  11  22
BRANCH   9  24
ATOM     24  O   UNL     1       7.146  13.161 -16.615  1.00  0.00    -0.490 OA
ATOM     25  C   UNL     1       8.254  14.054 -16.626  1.00  0.00     0.279 C 
ENDBRANCH   9  24
BRANCH  10  26
ATOM     26  O   UNL     1       7.201  11.136 -18.656  1.00  0.00    -0.490 OA
ATOM     27  C   UNL     1       8.344  11.626 -19.350  1.00  0.00     0.278 C 
ENDBRANCH  10  26
TORSDOF 6
ENDMDL
MODEL 6
REMARK VINA RESULT:    -5.513      2.367      3.486
REMARK INTER + INTRA:          -7.972
REMARK INTER:                  -7.543
REMARK INTRA:                  -0.429
REMARK UNBOUND:                -0.525
REMARK SMILES COc1ccc(-c2cc(=O)c3c(OC)c(OC)c(OC)c(OC)c3o2)cc1
REMARK SMILES IDX 7 1 8 2 9 3 10 4 11 5 24 6 25 7 21 8 18 9 15 10 12 11 6 12
REMARK SMILES IDX 3 13 4 14 27 15 5 16 26 17 2 18 1 19 22 20 23 21 13 22 14 23
REMARK SMILES IDX 19 24 20 25 16 26 17 27
REMARK H PARENT
REMARK Flexibility Score: inf
ROOT
ATOM      1  C   UNL     1       7.791   9.450 -16.001  1.00  0.00     0.138 A 
ATOM      2  C   UNL     1       8.222  10.142 -14.860  1.00  0.00     0.100 A 
ATOM      3  C   UNL     1       8.480  11.509 -14.944  1.00  0.00     0.197 A 
ATOM      4  O   UNL     1       8.871  12.117 -13.912  1.00  0.00    -0.289 OA
ATOM      5  C   UNL     1       8.312  12.178 -16.177  1.00  0.00     0.115 A 
ATOM      6  C   UNL     1       7.881  11.415 -17.283  1.00  0.00     0.188 A 
ATOM      7  O   UNL     1       7.647  10.111 -17.147  1.00  0.00    -0.452 OA
ATOM      8  C   UNL     1       7.682  12.007 -18.536  1.00  0.00     0.209 A 
ATOM      9  C   UNL     1       7.941  13.390 -18.712  1.00  0.00     0.211 A 
ATOM     10  C   UNL     1       8.420  14.150 -17.614  1.00  0.00     0.208 A 
ATOM     11  C   UNL     1       8.540  13.559 -16.338  1.00  0.00     0.179 A 
ENDROOT
BRANCH   1  12
ATOM     12  C   UNL     1       7.501   7.994 -15.977  1.00  0.00     0.018 A 
ATOM     13  C   UNL     1       6.999   5.216 -15.896  1.00  0.00     0.118 A 
ATOM     14  C   UNL     1       6.554   5.985 -16.976  1.00  0.00     0.047 A 
ATOM     15  C   UNL     1       7.707   5.842 -14.855  1.00  0.00     0.047 A 
ATOM     16  C   UNL     1       6.804   7.360 -17.022  1.00  0.00     0.016 A 
ATOM     17  C   UNL     1       7.958   7.217 -14.900  1.00  0.00     0.016 A 
BRANCH  13  18
ATOM     18  O   UNL     1       6.721   3.840 -15.898  1.00  0.00    -0.497 OA
ATOM     19  C   UNL     1       7.342   2.896 -16.764  1.00  0.00     0.278 C 
ENDBRANCH  13  18
ENDBRANCH   1  12
BRANCH   8  20
ATOM     20  O   UNL     1       7.225  11.156 -19.562  1.00  0.00    -0.490 OA
ATOM     21  C   UNL     1       5.877  10.939 -19.961  1.00  0.00     0.278 C 
ENDBRANCH   8  20
BRANCH  11  22
ATOM     22  O   UNL     1       8.879  14.340 -15.225  1.00  0.00    -0.492 OA
ATOM     23  C   UNL     1      10.230  14.639 -14.887  1.00  0.00     0.278 C 
ENDBRANCH  11  22
BRANCH   9  24
ATOM     24  O   UNL     1       7.725  13.955 -19.984  1.00  0.00    -0.490 OA
ATOM     25  C   UNL     1       8.604  13.921 -21.102  1.00  0.00     0.279 C 
ENDBRANCH   9  24
BRANCH  10  26
ATOM     26  O   UNL     1       8.793  15.486 -17.795  1.00  0.00    -0.490 OA
ATOM     27  C   UNL     1      10.072  15.860 -18.298  1.00  0.00     0.278 C 
ENDBRANCH  10  26
TORSDOF 6
ENDMDL
MODEL 7
REMARK VINA RESULT:    -5.473      1.998      7.894
REMARK INTER + INTRA:          -7.917
REMARK INTER:                  -7.488
REMARK INTRA:                  -0.429
REMARK UNBOUND:                -0.525
REMARK SMILES COc1ccc(-c2cc(=O)c3c(OC)c(OC)c(OC)c(OC)c3o2)cc1
REMARK SMILES IDX 7 1 8 2 9 3 10 4 11 5 24 6 25 7 21 8 18 9 15 10 12 11 6 12
REMARK SMILES IDX 3 13 4 14 27 15 5 16 26 17 2 18 1 19 22 20 23 21 13 22 14 23
REMARK SMILES IDX 19 24 20 25 16 26 17 27
REMARK H PARENT
REMARK Flexibility Score: inf
ROOT
ATOM      1  C   UNL     1       7.733  11.927 -17.501  1.00  0.00     0.138 A 
ATOM      2  C   UNL     1       7.128  11.123 -18.479  1.00  0.00     0.100 A 
ATOM      3  C   UNL     1       6.734   9.826 -18.151  1.00  0.00     0.197 A 
ATOM      4  O   UNL     1       6.196   9.113 -19.039  1.00  0.00    -0.289 OA
ATOM      5  C   UNL     1       6.955   9.338 -16.844  1.00  0.00     0.115 A 
ATOM      6  C   UNL     1       7.574  10.203 -15.917  1.00  0.00     0.188 A 
ATOM      7  O   UNL     1       7.930  11.433 -16.282  1.00  0.00    -0.452 OA
ATOM      8  C   UNL     1       7.819   9.795 -14.600  1.00  0.00     0.209 A 
ATOM      9  C   UNL     1       7.466   8.484 -14.190  1.00  0.00     0.211 A 
ATOM     10  C   UNL     1       6.888   7.596 -15.133  1.00  0.00     0.208 A 
ATOM     11  C   UNL     1       6.573   8.045 -16.434  1.00  0.00     0.179 A 
ENDROOT
BRANCH   1  12
ATOM     12  C   UNL     1       8.176  13.315 -17.788  1.00  0.00     0.018 A 
ATOM     13  C   UNL     1       9.073  15.934 -18.350  1.00  0.00     0.118 A 
ATOM     14  C   UNL     1       8.072  15.717 -17.398  1.00  0.00     0.047 A 
ATOM     15  C   UNL     1       9.634  14.831 -19.018  1.00  0.00     0.047 A 
ATOM     16  C   UNL     1       7.628  14.422 -17.114  1.00  0.00     0.016 A 
ATOM     17  C   UNL     1       9.191  13.535 -18.734  1.00  0.00     0.016 A 
BRANCH  13  18
ATOM     18  O   UNL     1       9.482  17.253 -18.600  1.00  0.00    -0.497 OA
ATOM     19  C   UNL     1       8.610  18.378 -18.600  1.00  0.00     0.278 C 
ENDBRANCH  13  18
ENDBRANCH   1  12
BRANCH   8  20
ATOM     20  O   UNL     1       8.418  10.749 -13.753  1.00  0.00    -0.490 OA
ATOM     21  C   UNL     1       7.760  11.623 -12.843  1.00  0.00     0.278 C 
ENDBRANCH   8  20
BRANCH  11  22
ATOM     22  O   UNL     1       5.877   7.214 -17.321  1.00  0.00    -0.492 OA
ATOM     23  C   UNL     1       6.515   6.166 -18.045  1.00  0.00     0.278 C 
ENDBRANCH  11  22
BRANCH   9  24
ATOM     24  O   UNL     1       7.721   8.108 -12.857  1.00  0.00    -0.490 OA
ATOM     25  C   UNL     1       6.794   8.074 -11.779  1.00  0.00     0.279 C 
ENDBRANCH   9  24
BRANCH  10  26
ATOM     26  O   UNL     1       6.641   6.265 -14.783  1.00  0.00    -0.490 OA
ATOM     27  C   UNL     1       7.633   5.248 -14.897  1.00  0.00     0.278 C 
ENDBRANCH  10  26
TORSDOF 6
ENDMDL
MODEL 8
REMARK VINA RESULT:    -5.447      1.945      2.947
REMARK INTER + INTRA:          -7.883
REMARK INTER:                  -7.662
REMARK INTRA:                  -0.221
REMARK UNBOUND:                -0.525
REMARK SMILES COc1ccc(-c2cc(=O)c3c(OC)c(OC)c(OC)c(OC)c3o2)cc1
REMARK SMILES IDX 7 1 8 2 9 3 10 4 11 5 24 6 25 7 21 8 18 9 15 10 12 11 6 12
REMARK SMILES IDX 3 13 4 14 27 15 5 16 26 17 2 18 1 19 22 20 23 21 13 22 14 23
REMARK SMILES IDX 19 24 20 25 16 26 17 27
REMARK H PARENT
REMARK Flexibility Score: inf
ROOT
ATOM      1  C   UNL     1       7.897  10.426 -15.231  1.00  0.00     0.138 A 
ATOM      2  C   UNL     1       8.825   9.967 -16.178  1.00  0.00     0.100 A 
ATOM      3  C   UNL     1       9.074  10.731 -17.318  1.00  0.00     0.197 A 
ATOM      4  O   UNL     1       9.907  10.305 -18.162  1.00  0.00    -0.289 OA
ATOM      5  C   UNL     1       8.386  11.950 -17.507  1.00  0.00     0.115 A 
ATOM      6  C   UNL     1       7.464  12.343 -16.514  1.00  0.00     0.188 A 
ATOM      7  O   UNL     1       7.264  11.577 -15.444  1.00  0.00    -0.452 OA
ATOM      8  C   UNL     1       6.750  13.542 -16.626  1.00  0.00     0.209 A 
ATOM      9  C   UNL     1       6.931  14.369 -17.764  1.00  0.00     0.211 A 
ATOM     10  C   UNL     1       7.822  13.953 -18.787  1.00  0.00     0.208 A 
ATOM     11  C   UNL     1       8.595  12.783 -18.625  1.00  0.00     0.179 A 
ENDROOT
BRANCH   1  12
ATOM     12  C   UNL     1       7.586   9.658 -13.999  1.00  0.00     0.018 A 
ATOM     13  C   UNL     1       6.980   8.151 -11.689  1.00  0.00     0.118 A 
ATOM     14  C   UNL     1       6.870   9.545 -11.674  1.00  0.00     0.047 A 
ATOM     15  C   UNL     1       7.387   7.508 -12.871  1.00  0.00     0.047 A 
ATOM     16  C   UNL     1       7.164  10.295 -12.816  1.00  0.00     0.016 A 
ATOM     17  C   UNL     1       7.683   8.257 -14.015  1.00  0.00     0.016 A 
BRANCH  13  18
ATOM     18  O   UNL     1       6.673   7.445 -10.515  1.00  0.00    -0.497 OA
ATOM     19  C   UNL     1       6.761   7.990  -9.203  1.00  0.00     0.278 C 
ENDBRANCH  13  18
ENDBRANCH   1  12
BRANCH   8  20
ATOM     20  O   UNL     1       5.875  13.848 -15.563  1.00  0.00    -0.490 OA
ATOM     21  C   UNL     1       5.934  14.978 -14.701  1.00  0.00     0.278 C 
ENDBRANCH   8  20
BRANCH  11  22
ATOM     22  O   UNL     1       9.574  12.445 -19.568  1.00  0.00    -0.492 OA
ATOM     23  C   UNL     1       9.257  12.150 -20.925  1.00  0.00     0.278 C 
ENDBRANCH  11  22
BRANCH   9  24
ATOM     24  O   UNL     1       6.201  15.571 -17.841  1.00  0.00    -0.490 OA
ATOM     25  C   UNL     1       6.636  16.869 -17.454  1.00  0.00     0.279 C 
ENDBRANCH   9  24
BRANCH  10  26
ATOM     26  O   UNL     1       7.927  14.692 -19.969  1.00  0.00    -0.490 OA
ATOM     27  C   UNL     1       8.790  15.819 -20.091  1.00  0.00     0.278 C 
ENDBRANCH  10  26
TORSDOF 6
ENDMDL
MODEL 9
REMARK VINA RESULT:    -5.271      2.408      4.694
REMARK INTER + INTRA:          -7.645
REMARK INTER:                  -7.074
REMARK INTRA:                  -0.571
REMARK UNBOUND:                -0.525
REMARK SMILES COc1ccc(-c2cc(=O)c3c(OC)c(OC)c(OC)c(OC)c3o2)cc1
REMARK SMILES IDX 7 1 8 2 9 3 10 4 11 5 24 6 25 7 21 8 18 9 15 10 12 11 6 12
REMARK SMILES IDX 3 13 4 14 27 15 5 16 26 17 2 18 1 19 22 20 23 21 13 22 14 23
REMARK SMILES IDX 19 24 20 25 16 26 17 27
REMARK H PARENT
REMARK Flexibility Score: inf
ROOT
ATOM      1  C   UNL     1       7.266   9.548 -17.529  1.00  0.00     0.138 A 
ATOM      2  C   UNL     1       6.798   9.966 -18.784  1.00  0.00     0.100 A 
ATOM      3  C   UNL     1       6.986  11.290 -19.179  1.00  0.00     0.197 A 
ATOM      4  O   UNL     1       6.557  11.653 -20.307  1.00  0.00    -0.289 OA
ATOM      5  C   UNL     1       7.637  12.193 -18.310  1.00  0.00     0.115 A 
ATOM      6  C   UNL     1       8.074  11.702 -17.062  1.00  0.00     0.188 A 
ATOM      7  O   UNL     1       7.871  10.427 -16.735  1.00  0.00    -0.452 OA
ATOM      8  C   UNL     1       8.735  12.533 -16.150  1.00  0.00     0.209 A 
ATOM      9  C   UNL     1       8.949  13.899 -16.465  1.00  0.00     0.211 A 
ATOM     10  C   UNL     1       8.468  14.408 -17.699  1.00  0.00     0.208 A 
ATOM     11  C   UNL     1       7.875  13.542 -18.643  1.00  0.00     0.179 A 
ENDROOT
BRANCH   1  12
ATOM     12  C   UNL     1       7.096   8.153 -17.051  1.00  0.00     0.018 A 
ATOM     13  C   UNL     1       6.809   5.511 -16.094  1.00  0.00     0.118 A 
ATOM     14  C   UNL     1       6.637   5.796 -17.453  1.00  0.00     0.047 A 
ATOM     15  C   UNL     1       7.135   6.556 -15.212  1.00  0.00     0.047 A 
ATOM     16  C   UNL     1       6.783   7.101 -17.931  1.00  0.00     0.016 A 
ATOM     17  C   UNL     1       7.281   7.863 -15.688  1.00  0.00     0.016 A 
BRANCH  13  18
ATOM     18  O   UNL     1       6.651   4.184 -15.665  1.00  0.00    -0.497 OA
ATOM     19  C   UNL     1       7.068   3.044 -16.409  1.00  0.00     0.278 C 
ENDBRANCH  13  18
ENDBRANCH   1  12
BRANCH   8  20
ATOM     20  O   UNL     1       9.152  11.930 -14.945  1.00  0.00    -0.490 OA
ATOM     21  C   UNL     1       8.471  11.950 -13.695  1.00  0.00     0.278 C 
ENDBRANCH   8  20
BRANCH  11  22
ATOM     22  O   UNL     1       7.525  14.013 -19.915  1.00  0.00    -0.492 OA
ATOM     23  C   UNL     1       8.485  14.191 -20.953  1.00  0.00     0.278 C 
ENDBRANCH  11  22
BRANCH   9  24
ATOM     24  O   UNL     1       9.623  14.706 -15.528  1.00  0.00    -0.490 OA
ATOM     25  C   UNL     1      11.009  14.683 -15.209  1.00  0.00     0.279 C 
ENDBRANCH   9  24
BRANCH  10  26
ATOM     26  O   UNL     1       8.564  15.774 -17.979  1.00  0.00    -0.490 OA
ATOM     27  C   UNL     1       9.758  16.370 -18.477  1.00  0.00     0.278 C 
ENDBRANCH  10  26
TORSDOF 6
ENDMDL
