MODEL 1
REMARK VINA RESULT:    -3.836      0.000      0.000
REMARK INTER + INTRA:          -4.081
REMARK INTER:                  -4.060
REMARK INTRA:                  -0.021
REMARK UNBOUND:                -0.021
REMARK SMILES O=C([O-])c1cccnc1
REMARK SMILES IDX 4 1 5 2 9 3 6 4 8 5 7 6 2 7 1 8 3 9
REMARK H PARENT
REMARK Flexibility Score: inf
ROOT
ATOM      1  C   UNL     1      10.065  -4.383  -1.256  1.00  0.00     0.016 A 
ATOM      2  C   UNL     1      10.594  -5.361  -0.397  1.00  0.00     0.013 A 
ATOM      3  C   UNL     1      10.087  -4.626  -2.640  1.00  0.00     0.120 A 
ATOM      4  C   UNL     1      11.125  -6.541  -0.922  1.00  0.00     0.021 A 
ATOM      5  N   UNL     1      10.611  -5.784  -3.125  1.00  0.00    -0.264 NA
ATOM      6  C   UNL     1      11.124  -6.737  -2.303  1.00  0.00     0.111 A 
ENDROOT
BRANCH   1   7
ATOM      7  C   UNL     1       9.498  -3.126  -0.721  1.00  0.00     0.073 C 
ATOM      8  O   UNL     1       8.874  -3.120   0.374  1.00  0.00    -0.545 OA
ATOM      9  O   UNL     1       9.645  -1.933  -1.421  1.00  0.00    -0.545 OA
ENDBRANCH   1   7
TORSDOF 1
ENDMDL
MODEL 2
REMARK VINA RESULT:    -3.578      2.877      3.969
REMARK INTER + INTRA:          -3.808
REMARK INTER:                  -3.792
REMARK INTRA:                  -0.016
REMARK UNBOUND:                -0.021
REMARK SMILES O=C([O-])c1cccnc1
REMARK SMILES IDX 4 1 5 2 9 3 6 4 8 5 7 6 2 7 1 8 3 9
REMARK H PARENT
REMARK Flexibility Score: inf
ROOT
ATOM      1  C   UNL     1      10.238  -4.100  -1.997  1.00  0.00     0.016 A 
ATOM      2  C   UNL     1      11.125  -3.069  -2.352  1.00  0.00     0.013 A 
ATOM      3  C   UNL     1       9.290  -3.849  -0.990  1.00  0.00     0.120 A 
ATOM      4  C   UNL     1      11.053  -1.831  -1.710  1.00  0.00     0.021 A 
ATOM      5  N   UNL     1       9.242  -2.634  -0.381  1.00  0.00    -0.264 NA
ATOM      6  C   UNL     1      10.095  -1.630  -0.717  1.00  0.00     0.111 A 
ENDROOT
BRANCH   1   7
ATOM      7  C   UNL     1      10.297  -5.418  -2.663  1.00  0.00     0.073 C 
ATOM      8  O   UNL     1       9.598  -5.651  -3.686  1.00  0.00    -0.545 OA
ATOM      9  O   UNL     1      11.125  -6.421  -2.170  1.00  0.00    -0.545 OA
ENDBRANCH   1   7
TORSDOF 1
ENDMDL
MODEL 3
REMARK VINA RESULT:    -3.456      2.911      3.606
REMARK INTER + INTRA:          -3.679
REMARK INTER:                  -3.663
REMARK INTRA:                  -0.016
REMARK UNBOUND:                -0.021
REMARK SMILES O=C([O-])c1cccnc1
REMARK SMILES IDX 4 1 5 2 9 3 6 4 8 5 7 6 2 7 1 8 3 9
REMARK H PARENT
REMARK Flexibility Score: inf
ROOT
ATOM      1  C   UNL     1      10.215  -5.650  -3.163  1.00  0.00     0.016 A 
ATOM      2  C   UNL     1      10.700  -6.785  -2.491  1.00  0.00     0.013 A 
ATOM      3  C   UNL     1      10.173  -4.428  -2.469  1.00  0.00     0.120 A 
ATOM      4  C   UNL     1      11.125  -6.685  -1.165  1.00  0.00     0.021 A 
ATOM      5  N   UNL     1      10.593  -4.359  -1.178  1.00  0.00    -0.264 NA
ATOM      6  C   UNL     1      11.064  -5.450  -0.518  1.00  0.00     0.111 A 
ENDROOT
BRANCH   1   7
ATOM      7  C   UNL     1       9.759  -5.734  -4.567  1.00  0.00     0.073 C 
ATOM      8  O   UNL     1      10.593  -5.751  -5.512  1.00  0.00    -0.545 OA
ATOM      9  O   UNL     1       8.402  -5.794  -4.865  1.00  0.00    -0.545 OA
ENDBRANCH   1   7
TORSDOF 1
ENDMDL
MODEL 4
REMARK VINA RESULT:    -3.345     21.756     22.966
REMARK INTER + INTRA:          -3.562
REMARK INTER:                  -3.538
REMARK INTRA:                  -0.024
REMARK UNBOUND:                -0.021
REMARK SMILES O=C([O-])c1cccnc1
REMARK SMILES IDX 4 1 5 2 9 3 6 4 8 5 7 6 2 7 1 8 3 9
REMARK H PARENT
REMARK Flexibility Score: inf
ROOT
ATOM      1  C   UNL     1      -6.746  10.027   3.821  1.00  0.00     0.016 A 
ATOM      2  C   UNL     1      -5.766   9.199   3.248  1.00  0.00     0.013 A 
ATOM      3  C   UNL     1      -6.340  10.999   4.751  1.00  0.00     0.120 A 
ATOM      4  C   UNL     1      -4.425   9.350   3.606  1.00  0.00     0.021 A 
ATOM      5  N   UNL     1      -5.027  11.125   5.082  1.00  0.00    -0.264 NA
ATOM      6  C   UNL     1      -4.071  10.329   4.534  1.00  0.00     0.111 A 
ENDROOT
BRANCH   1   7
ATOM      7  C   UNL     1      -8.172   9.883   3.457  1.00  0.00     0.073 C 
ATOM      8  O   UNL     1      -9.033  10.688   3.906  1.00  0.00    -0.545 OA
ATOM      9  O   UNL     1      -8.584   8.857   2.613  1.00  0.00    -0.545 OA
ENDBRANCH   1   7
TORSDOF 1
ENDMDL
MODEL 5
REMARK VINA RESULT:    -3.070     12.819     14.199
REMARK INTER + INTRA:          -3.271
REMARK INTER:                  -3.255
REMARK INTRA:                  -0.016
REMARK UNBOUND:                -0.021
REMARK SMILES O=C([O-])c1cccnc1
REMARK SMILES IDX 4 1 5 2 9 3 6 4 8 5 7 6 2 7 1 8 3 9
REMARK H PARENT
REMARK Flexibility Score: inf
ROOT
ATOM      1  C   UNL     1       6.501   5.128   7.260  1.00  0.00     0.016 A 
ATOM      2  C   UNL     1       5.171   5.582   7.268  1.00  0.00     0.013 A 
ATOM      3  C   UNL     1       7.527   6.068   7.060  1.00  0.00     0.120 A 
ATOM      4  C   UNL     1       4.892   6.937   7.080  1.00  0.00     0.021 A 
ATOM      5  N   UNL     1       7.227   7.382   6.879  1.00  0.00    -0.264 NA
ATOM      6  C   UNL     1       5.944   7.831   6.886  1.00  0.00     0.111 A 
ENDROOT
BRANCH   1   7
ATOM      7  C   UNL     1       6.819   3.697   7.456  1.00  0.00     0.073 C 
ATOM      8  O   UNL     1       6.952   3.224   8.616  1.00  0.00    -0.545 OA
ATOM      9  O   UNL     1       6.976   2.854   6.362  1.00  0.00    -0.545 OA
ENDBRANCH   1   7
TORSDOF 1
ENDMDL
MODEL 6
REMARK VINA RESULT:    -2.985     14.716     15.509
REMARK INTER + INTRA:          -3.181
REMARK INTER:                  -3.158
REMARK INTRA:                  -0.023
REMARK UNBOUND:                -0.021
REMARK SMILES O=C([O-])c1cccnc1
REMARK SMILES IDX 4 1 5 2 9 3 6 4 8 5 7 6 2 7 1 8 3 9
REMARK H PARENT
REMARK Flexibility Score: inf
ROOT
ATOM      1  C   UNL     1       6.945   8.743   5.886  1.00  0.00     0.016 A 
ATOM      2  C   UNL     1       5.849   8.124   6.511  1.00  0.00     0.013 A 
ATOM      3  C   UNL     1       8.194   8.099   5.935  1.00  0.00     0.120 A 
ATOM      4  C   UNL     1       6.014   6.899   7.161  1.00  0.00     0.021 A 
ATOM      5  N   UNL     1       8.326   6.907   6.575  1.00  0.00    -0.264 NA
ATOM      6  C   UNL     1       7.273   6.299   7.182  1.00  0.00     0.111 A 
ENDROOT
BRANCH   1   7
ATOM      7  C   UNL     1       6.794  10.040   5.193  1.00  0.00     0.073 C 
ATOM      8  O   UNL     1       5.796  10.776   5.423  1.00  0.00    -0.545 OA
ATOM      9  O   UNL     1       7.749  10.466   4.277  1.00  0.00    -0.545 OA
ENDBRANCH   1   7
TORSDOF 1
ENDMDL
MODEL 7
REMARK VINA RESULT:    -2.932     20.866     21.464
REMARK INTER + INTRA:          -3.125
REMARK INTER:                  -3.103
REMARK INTRA:                  -0.022
REMARK UNBOUND:                -0.021
REMARK SMILES O=C([O-])c1cccnc1
REMARK SMILES IDX 4 1 5 2 9 3 6 4 8 5 7 6 2 7 1 8 3 9
REMARK H PARENT
REMARK Flexibility Score: inf
ROOT
ATOM      1  C   UNL     1      -4.565   9.989   3.776  1.00  0.00     0.016 A 
ATOM      2  C   UNL     1      -3.811  11.119   4.134  1.00  0.00     0.013 A 
ATOM      3  C   UNL     1      -4.237   8.754   4.360  1.00  0.00     0.120 A 
ATOM      4  C   UNL     1      -2.763  11.001   5.048  1.00  0.00     0.021 A 
ATOM      5  N   UNL     1      -3.210   8.667   5.248  1.00  0.00    -0.264 NA
ATOM      6  C   UNL     1      -2.475   9.754   5.602  1.00  0.00     0.111 A 
ENDROOT
BRANCH   1   7
ATOM      7  C   UNL     1      -5.679  10.092   2.808  1.00  0.00     0.073 C 
ATOM      8  O   UNL     1      -5.640  10.936   1.873  1.00  0.00    -0.545 OA
ATOM      9  O   UNL     1      -6.787   9.258   2.918  1.00  0.00    -0.545 OA
ENDBRANCH   1   7
TORSDOF 1
ENDMDL
