MODEL 1
REMARK VINA RESULT:    -5.791      0.000      0.000
REMARK INTER + INTRA:         -11.855
REMARK INTER:                 -10.531
REMARK INTRA:                  -1.323
REMARK UNBOUND:                -1.323
REMARK SMILES CCCCCCCCCCCCCC[C@@H](C)C(=O)[O-]
REMARK SMILES IDX 9 1 10 2 11 3 12 4 13 5 14 6 15 7 16 8 17 9 18 10 19 11 8 12
REMARK SMILES IDX 7 13 6 14 5 15 4 16 3 17 2 18 1 19
REMARK H PARENT
REMARK Flexibility Score: inf
ROOT
ATOM      1  C   UNL     1      88.816 325.101 197.519  1.00  0.00     0.000 C 
ENDROOT
BRANCH   1   2
ATOM      2  C   UNL     1      88.831 326.508 198.142  1.00  0.00     0.000 C 
BRANCH   2   3
ATOM      3  C   UNL     1      89.285 326.499 199.611  1.00  0.00     0.000 C 
BRANCH   3   4
ATOM      4  C   UNL     1      89.060 325.134 200.289  1.00  0.00     0.000 C 
BRANCH   4   5
ATOM      5  C   UNL     1      88.678 325.264 201.772  1.00  0.00     0.001 C 
BRANCH   5   6
ATOM      6  C   UNL     1      89.101 326.621 202.377  1.00  0.00     0.009 C 
BRANCH   6   7
ATOM      7  C   UNL     1      90.409 326.561 203.197  1.00  0.00     0.032 C 
ATOM      8  C   UNL     1      91.609 327.133 202.424  1.00  0.00     0.014 C 
BRANCH   7   9
ATOM      9  C   UNL     1      90.235 327.197 204.555  1.00  0.00     0.044 C 
ATOM     10  O   UNL     1      89.086 327.401 205.041  1.00  0.00    -0.550 OA
ATOM     11  O   UNL     1      91.360 327.572 205.283  1.00  0.00    -0.550 OA
ENDBRANCH   7   9
ENDBRANCH   6   7
ENDBRANCH   5   6
ENDBRANCH   4   5
ENDBRANCH   3   4
ENDBRANCH   2   3
ENDBRANCH   1   2
BRANCH   1  12
ATOM     12  C   UNL     1      88.520 325.120 196.006  1.00  0.00     0.000 C 
BRANCH  12  13
ATOM     13  C   UNL     1      88.497 326.519 195.364  1.00  0.00    -0.000 C 
BRANCH  13  14
ATOM     14  C   UNL     1      87.851 326.529 193.972  1.00  0.00    -0.000 C 
BRANCH  14  15
ATOM     15  C   UNL     1      86.543 325.728 193.969  1.00  0.00    -0.000 C 
BRANCH  15  16
ATOM     16  C   UNL     1      86.500 324.743 192.794  1.00  0.00    -0.000 C 
BRANCH  16  17
ATOM     17  C   UNL     1      87.861 324.676 192.085  1.00  0.00    -0.000 C 
BRANCH  17  18
ATOM     18  C   UNL     1      88.398 323.241 191.977  1.00  0.00    -0.003 C 
ATOM     19  C   UNL     1      88.618 322.590 193.344  1.00  0.00     0.004 C 
ENDBRANCH  17  18
ENDBRANCH  16  17
ENDBRANCH  15  16
ENDBRANCH  14  15
ENDBRANCH  13  14
ENDBRANCH  12  13
ENDBRANCH   1  12
TORSDOF 14
ENDMDL
MODEL 2
REMARK VINA RESULT:    -5.764     19.223     20.454
REMARK INTER + INTRA:         -11.805
REMARK INTER:                 -10.915
REMARK INTRA:                  -0.890
REMARK UNBOUND:                -1.323
REMARK SMILES CCCCCCCCCCCCCC[C@@H](C)C(=O)[O-]
REMARK SMILES IDX 9 1 10 2 11 3 12 4 13 5 14 6 15 7 16 8 17 9 18 10 19 11 8 12
REMARK SMILES IDX 7 13 6 14 5 15 4 16 3 17 2 18 1 19
REMARK H PARENT
REMARK Flexibility Score: inf
ROOT
ATOM      1  C   UNL     1     103.381 313.256 197.849  1.00  0.00     0.000 C 
ENDROOT
BRANCH   1   2
ATOM      2  C   UNL     1     103.507 311.839 198.435  1.00  0.00     0.000 C 
BRANCH   2   3
ATOM      3  C   UNL     1     104.119 311.835 199.846  1.00  0.00     0.000 C 
BRANCH   3   4
ATOM      4  C   UNL     1     103.052 311.722 200.950  1.00  0.00     0.000 C 
BRANCH   4   5
ATOM      5  C   UNL     1     103.618 312.001 202.352  1.00  0.00     0.001 C 
BRANCH   5   6
ATOM      6  C   UNL     1     103.885 310.707 203.151  1.00  0.00     0.009 C 
BRANCH   6   7
ATOM      7  C   UNL     1     104.391 310.953 204.590  1.00  0.00     0.032 C 
ATOM      8  C   UNL     1     105.243 312.229 204.699  1.00  0.00     0.014 C 
BRANCH   7   9
ATOM      9  C   UNL     1     103.255 310.925 205.584  1.00  0.00     0.044 C 
ATOM     10  O   UNL     1     103.332 311.542 206.684  1.00  0.00    -0.550 OA
ATOM     11  O   UNL     1     102.104 310.201 205.286  1.00  0.00    -0.550 OA
ENDBRANCH   7   9
ENDBRANCH   6   7
ENDBRANCH   5   6
ENDBRANCH   4   5
ENDBRANCH   3   4
ENDBRANCH   2   3
ENDBRANCH   1   2
BRANCH   1  12
ATOM     12  C   UNL     1     103.629 313.299 196.328  1.00  0.00     0.000 C 
BRANCH  12  13
ATOM     13  C   UNL     1     103.797 311.924 195.656  1.00  0.00    -0.000 C 
BRANCH  13  14
ATOM     14  C   UNL     1     104.993 311.868 194.695  1.00  0.00    -0.000 C 
BRANCH  14  15
ATOM     15  C   UNL     1     104.532 311.559 193.265  1.00  0.00    -0.000 C 
BRANCH  15  16
ATOM     16  C   UNL     1     105.059 312.606 192.276  1.00  0.00    -0.000 C 
BRANCH  16  17
ATOM     17  C   UNL     1     103.919 313.167 191.413  1.00  0.00    -0.000 C 
BRANCH  17  18
ATOM     18  C   UNL     1     103.748 314.685 191.578  1.00  0.00    -0.003 C 
ATOM     19  C   UNL     1     103.483 315.093 193.028  1.00  0.00     0.004 C 
ENDBRANCH  17  18
ENDBRANCH  16  17
ENDBRANCH  15  16
ENDBRANCH  14  15
ENDBRANCH  13  14
ENDBRANCH  12  13
ENDBRANCH   1  12
TORSDOF 14
ENDMDL
MODEL 3
REMARK VINA RESULT:    -5.758     18.956     20.328
REMARK INTER + INTRA:         -11.794
REMARK INTER:                 -10.901
REMARK INTRA:                  -0.893
REMARK UNBOUND:                -1.323
REMARK SMILES CCCCCCCCCCCCCC[C@@H](C)C(=O)[O-]
REMARK SMILES IDX 9 1 10 2 11 3 12 4 13 5 14 6 15 7 16 8 17 9 18 10 19 11 8 12
REMARK SMILES IDX 7 13 6 14 5 15 4 16 3 17 2 18 1 19
REMARK H PARENT
REMARK Flexibility Score: inf
ROOT
ATOM      1  C   UNL     1     103.816 313.274 195.708  1.00  0.00     0.000 C 
ENDROOT
BRANCH   1   2
ATOM      2  C   UNL     1     103.506 311.769 195.794  1.00  0.00     0.000 C 
BRANCH   2   3
ATOM      3  C   UNL     1     103.834 311.176 197.175  1.00  0.00     0.000 C 
BRANCH   3   4
ATOM      4  C   UNL     1     103.609 312.184 198.317  1.00  0.00     0.000 C 
BRANCH   4   5
ATOM      5  C   UNL     1     103.249 311.503 199.647  1.00  0.00     0.001 C 
BRANCH   5   6
ATOM      6  C   UNL     1     104.277 311.797 200.762  1.00  0.00     0.009 C 
BRANCH   6   7
ATOM      7  C   UNL     1     103.641 312.211 202.107  1.00  0.00     0.032 C 
ATOM      8  C   UNL     1     102.416 313.123 201.918  1.00  0.00     0.014 C 
BRANCH   7   9
ATOM      9  C   UNL     1     103.343 311.007 202.968  1.00  0.00     0.044 C 
ATOM     10  O   UNL     1     102.181 310.514 203.024  1.00  0.00    -0.550 OA
ATOM     11  O   UNL     1     104.365 310.434 203.718  1.00  0.00    -0.550 OA
ENDBRANCH   7   9
ENDBRANCH   6   7
ENDBRANCH   5   6
ENDBRANCH   4   5
ENDBRANCH   3   4
ENDBRANCH   2   3
ENDBRANCH   1   2
BRANCH   1  12
ATOM     12  C   UNL     1     104.851 313.610 194.617  1.00  0.00     0.000 C 
BRANCH  12  13
ATOM     13  C   UNL     1     105.733 312.430 194.170  1.00  0.00    -0.000 C 
BRANCH  13  14
ATOM     14  C   UNL     1     105.699 312.195 192.653  1.00  0.00    -0.000 C 
BRANCH  14  15
ATOM     15  C   UNL     1     104.394 312.727 192.046  1.00  0.00    -0.000 C 
BRANCH  15  16
ATOM     16  C   UNL     1     104.675 313.778 190.965  1.00  0.00    -0.000 C 
BRANCH  16  17
ATOM     17  C   UNL     1     103.375 314.462 190.514  1.00  0.00    -0.000 C 
BRANCH  17  18
ATOM     18  C   UNL     1     103.361 314.763 189.008  1.00  0.00    -0.003 C 
ATOM     19  C   UNL     1     102.025 314.414 188.350  1.00  0.00     0.004 C 
ENDBRANCH  17  18
ENDBRANCH  16  17
ENDBRANCH  15  16
ENDBRANCH  14  15
ENDBRANCH  13  14
ENDBRANCH  12  13
ENDBRANCH   1  12
TORSDOF 14
ENDMDL
MODEL 4
REMARK VINA RESULT:    -5.706      1.282      2.040
REMARK INTER + INTRA:         -11.699
REMARK INTER:                 -11.040
REMARK INTRA:                  -0.659
REMARK UNBOUND:                -1.323
REMARK SMILES CCCCCCCCCCCCCC[C@@H](C)C(=O)[O-]
REMARK SMILES IDX 9 1 10 2 11 3 12 4 13 5 14 6 15 7 16 8 17 9 18 10 19 11 8 12
REMARK SMILES IDX 7 13 6 14 5 15 4 16 3 17 2 18 1 19
REMARK H PARENT
REMARK Flexibility Score: inf
ROOT
ATOM      1  C   UNL     1      89.245 324.793 198.522  1.00  0.00     0.000 C 
ENDROOT
BRANCH   1   2
ATOM      2  C   UNL     1      88.996 326.163 199.177  1.00  0.00     0.000 C 
BRANCH   2   3
ATOM      3  C   UNL     1      89.839 326.373 200.447  1.00  0.00     0.000 C 
BRANCH   3   4
ATOM      4  C   UNL     1      88.977 326.436 201.721  1.00  0.00     0.000 C 
BRANCH   4   5
ATOM      5  C   UNL     1      89.818 326.428 203.007  1.00  0.00     0.001 C 
BRANCH   5   6
ATOM      6  C   UNL     1      89.375 327.512 204.013  1.00  0.00     0.009 C 
BRANCH   6   7
ATOM      7  C   UNL     1      89.245 327.003 205.466  1.00  0.00     0.032 C 
ATOM      8  C   UNL     1      88.341 325.763 205.572  1.00  0.00     0.014 C 
BRANCH   7   9
ATOM      9  C   UNL     1      90.601 326.790 206.097  1.00  0.00     0.044 C 
ATOM     10  O   UNL     1      90.921 325.677 206.601  1.00  0.00    -0.550 OA
ATOM     11  O   UNL     1      91.511 327.842 206.130  1.00  0.00    -0.550 OA
ENDBRANCH   7   9
ENDBRANCH   6   7
ENDBRANCH   5   6
ENDBRANCH   4   5
ENDBRANCH   3   4
ENDBRANCH   2   3
ENDBRANCH   1   2
BRANCH   1  12
ATOM     12  C   UNL     1      88.900 324.777 197.020  1.00  0.00     0.000 C 
BRANCH  12  13
ATOM     13  C   UNL     1      88.424 326.124 196.445  1.00  0.00    -0.000 C 
BRANCH  13  14
ATOM     14  C   UNL     1      86.979 326.080 195.931  1.00  0.00    -0.000 C 
BRANCH  14  15
ATOM     15  C   UNL     1      86.861 326.779 194.570  1.00  0.00    -0.000 C 
BRANCH  15  16
ATOM     16  C   UNL     1      88.009 326.374 193.638  1.00  0.00    -0.000 C 
BRANCH  16  17
ATOM     17  C   UNL     1      87.894 324.896 193.235  1.00  0.00    -0.000 C 
BRANCH  17  18
ATOM     18  C   UNL     1      88.124 324.677 191.732  1.00  0.00    -0.003 C 
ATOM     19  C   UNL     1      88.215 323.196 191.361  1.00  0.00     0.004 C 
ENDBRANCH  17  18
ENDBRANCH  16  17
ENDBRANCH  15  16
ENDBRANCH  14  15
ENDBRANCH  13  14
ENDBRANCH  12  13
ENDBRANCH   1  12
TORSDOF 14
ENDMDL
MODEL 5
REMARK VINA RESULT:    -5.696      1.271      2.691
REMARK INTER + INTRA:         -11.682
REMARK INTER:                 -10.711
REMARK INTRA:                  -0.970
REMARK UNBOUND:                -1.323
REMARK SMILES CCCCCCCCCCCCCC[C@@H](C)C(=O)[O-]
REMARK SMILES IDX 9 1 10 2 11 3 12 4 13 5 14 6 15 7 16 8 17 9 18 10 19 11 8 12
REMARK SMILES IDX 7 13 6 14 5 15 4 16 3 17 2 18 1 19
REMARK H PARENT
REMARK Flexibility Score: inf
ROOT
ATOM      1  C   UNL     1      88.766 326.517 195.394  1.00  0.00     0.000 C 
ENDROOT
BRANCH   1   2
ATOM      2  C   UNL     1      88.065 325.768 196.542  1.00  0.00     0.000 C 
BRANCH   2   3
ATOM      3  C   UNL     1      88.880 324.565 197.047  1.00  0.00     0.000 C 
BRANCH   3   4
ATOM      4  C   UNL     1      89.250 324.688 198.537  1.00  0.00     0.000 C 
BRANCH   4   5
ATOM      5  C   UNL     1      89.055 326.112 199.080  1.00  0.00     0.001 C 
BRANCH   5   6
ATOM      6  C   UNL     1      89.842 326.362 200.385  1.00  0.00     0.009 C 
BRANCH   6   7
ATOM      7  C   UNL     1      88.952 326.471 201.643  1.00  0.00     0.032 C 
ATOM      8  C   UNL     1      88.140 325.189 201.897  1.00  0.00     0.014 C 
BRANCH   7   9
ATOM      9  C   UNL     1      89.754 326.900 202.848  1.00  0.00     0.044 C 
ATOM     10  O   UNL     1      91.007 327.046 202.783  1.00  0.00    -0.550 OA
ATOM     11  O   UNL     1      89.101 327.133 204.055  1.00  0.00    -0.550 OA
ENDBRANCH   7   9
ENDBRANCH   6   7
ENDBRANCH   5   6
ENDBRANCH   4   5
ENDBRANCH   3   4
ENDBRANCH   2   3
ENDBRANCH   1   2
BRANCH   1  12
ATOM     12  C   UNL     1      87.931 326.542 194.099  1.00  0.00     0.000 C 
BRANCH  12  13
ATOM     13  C   UNL     1      86.630 325.720 194.146  1.00  0.00    -0.000 C 
BRANCH  13  14
ATOM     14  C   UNL     1      86.504 324.728 192.982  1.00  0.00    -0.000 C 
BRANCH  14  15
ATOM     15  C   UNL     1      87.788 324.701 192.144  1.00  0.00    -0.000 C 
BRANCH  15  16
ATOM     16  C   UNL     1      88.495 323.345 192.259  1.00  0.00    -0.000 C 
BRANCH  16  17
ATOM     17  C   UNL     1      88.237 322.484 191.013  1.00  0.00    -0.000 C 
BRANCH  17  18
ATOM     18  C   UNL     1      88.232 323.311 189.718  1.00  0.00    -0.003 C 
ATOM     19  C   UNL     1      89.584 323.293 189.002  1.00  0.00     0.004 C 
ENDBRANCH  17  18
ENDBRANCH  16  17
ENDBRANCH  15  16
ENDBRANCH  14  15
ENDBRANCH  13  14
ENDBRANCH  12  13
ENDBRANCH   1  12
TORSDOF 14
ENDMDL
MODEL 6
REMARK VINA RESULT:    -5.682      6.642     10.023
REMARK INTER + INTRA:         -11.655
REMARK INTER:                  -9.580
REMARK INTRA:                  -2.075
REMARK UNBOUND:                -1.323
REMARK SMILES CCCCCCCCCCCCCC[C@@H](C)C(=O)[O-]
REMARK SMILES IDX 9 1 10 2 11 3 12 4 13 5 14 6 15 7 16 8 17 9 18 10 19 11 8 12
REMARK SMILES IDX 7 13 6 14 5 15 4 16 3 17 2 18 1 19
REMARK H PARENT
REMARK Flexibility Score: inf
ROOT
ATOM      1  C   UNL     1      87.928 326.483 193.697  1.00  0.00     0.000 C 
ENDROOT
BRANCH   1   2
ATOM      2  C   UNL     1      87.910 325.231 192.801  1.00  0.00     0.000 C 
BRANCH   2   3
ATOM      3  C   UNL     1      86.496 324.654 192.622  1.00  0.00     0.000 C 
BRANCH   3   4
ATOM      4  C   UNL     1      86.439 323.561 191.538  1.00  0.00     0.000 C 
BRANCH   4   5
ATOM      5  C   UNL     1      87.740 323.464 190.725  1.00  0.00     0.001 C 
BRANCH   5   6
ATOM      6  C   UNL     1      87.565 322.655 189.422  1.00  0.00     0.009 C 
BRANCH   6   7
ATOM      7  C   UNL     1      88.891 322.364 188.683  1.00  0.00     0.032 C 
ATOM      8  C   UNL     1      89.902 323.515 188.822  1.00  0.00     0.014 C 
BRANCH   7   9
ATOM      9  C   UNL     1      89.467 321.030 189.094  1.00  0.00     0.044 C 
ATOM     10  O   UNL     1      90.676 320.742 188.868  1.00  0.00    -0.550 OA
ATOM     11  O   UNL     1      88.649 320.099 189.727  1.00  0.00    -0.550 OA
ENDBRANCH   7   9
ENDBRANCH   6   7
ENDBRANCH   5   6
ENDBRANCH   4   5
ENDBRANCH   3   4
ENDBRANCH   2   3
ENDBRANCH   1   2
BRANCH   1  12
ATOM     12  C   UNL     1      86.725 326.548 194.658  1.00  0.00     0.000 C 
BRANCH  12  13
ATOM     13  C   UNL     1      87.039 326.187 196.121  1.00  0.00    -0.000 C 
BRANCH  13  14
ATOM     14  C   UNL     1      88.544 326.139 196.418  1.00  0.00    -0.000 C 
BRANCH  14  15
ATOM     15  C   UNL     1      88.959 324.751 196.924  1.00  0.00    -0.000 C 
BRANCH  15  16
ATOM     16  C   UNL     1      88.068 323.655 196.326  1.00  0.00    -0.000 C 
BRANCH  16  17
ATOM     17  C   UNL     1      88.867 322.762 195.366  1.00  0.00    -0.000 C 
BRANCH  17  18
ATOM     18  C   UNL     1      87.964 321.853 194.518  1.00  0.00    -0.003 C 
ATOM     19  C   UNL     1      86.503 321.888 194.970  1.00  0.00     0.004 C 
ENDBRANCH  17  18
ENDBRANCH  16  17
ENDBRANCH  15  16
ENDBRANCH  14  15
ENDBRANCH  13  14
ENDBRANCH  12  13
ENDBRANCH   1  12
TORSDOF 14
ENDMDL
MODEL 7
REMARK VINA RESULT:    -5.659     18.808     21.440
REMARK INTER + INTRA:         -11.613
REMARK INTER:                  -9.018
REMARK INTRA:                  -2.595
REMARK UNBOUND:                -1.323
REMARK SMILES CCCCCCCCCCCCCC[C@@H](C)C(=O)[O-]
REMARK SMILES IDX 9 1 10 2 11 3 12 4 13 5 14 6 15 7 16 8 17 9 18 10 19 11 8 12
REMARK SMILES IDX 7 13 6 14 5 15 4 16 3 17 2 18 1 19
REMARK H PARENT
REMARK Flexibility Score: inf
ROOT
ATOM      1  C   UNL     1     105.612 312.303 193.077  1.00  0.00     0.000 C 
ENDROOT
BRANCH   1   2
ATOM      2  C   UNL     1     104.251 312.319 192.359  1.00  0.00     0.000 C 
BRANCH   2   3
ATOM      3  C   UNL     1     104.182 313.378 191.245  1.00  0.00     0.000 C 
BRANCH   3   4
ATOM      4  C   UNL     1     105.566 313.950 190.891  1.00  0.00     0.000 C 
BRANCH   4   5
ATOM      5  C   UNL     1     105.484 315.335 190.230  1.00  0.00     0.001 C 
BRANCH   5   6
ATOM      6  C   UNL     1     104.050 315.908 190.229  1.00  0.00     0.009 C 
BRANCH   6   7
ATOM      7  C   UNL     1     103.453 316.101 188.818  1.00  0.00     0.032 C 
ATOM      8  C   UNL     1     104.419 315.650 187.708  1.00  0.00     0.014 C 
BRANCH   7   9
ATOM      9  C   UNL     1     102.093 315.455 188.703  1.00  0.00     0.044 C 
ATOM     10  O   UNL     1     101.055 316.033 189.132  1.00  0.00    -0.550 OA
ATOM     11  O   UNL     1     101.983 314.195 188.122  1.00  0.00    -0.550 OA
ENDBRANCH   7   9
ENDBRANCH   6   7
ENDBRANCH   5   6
ENDBRANCH   4   5
ENDBRANCH   3   4
ENDBRANCH   2   3
ENDBRANCH   1   2
BRANCH   1  12
ATOM     12  C   UNL     1     105.482 312.113 194.600  1.00  0.00     0.000 C 
BRANCH  12  13
ATOM     13  C   UNL     1     104.047 311.882 195.109  1.00  0.00    -0.000 C 
BRANCH  13  14
ATOM     14  C   UNL     1     103.598 312.933 196.134  1.00  0.00    -0.000 C 
BRANCH  14  15
ATOM     15  C   UNL     1     104.271 314.284 195.864  1.00  0.00    -0.000 C 
BRANCH  15  16
ATOM     16  C   UNL     1     103.307 315.255 195.173  1.00  0.00    -0.000 C 
BRANCH  16  17
ATOM     17  C   UNL     1     103.951 315.871 193.922  1.00  0.00    -0.000 C 
BRANCH  17  18
ATOM     18  C   UNL     1     105.486 315.857 193.983  1.00  0.00    -0.003 C 
ATOM     19  C   UNL     1     106.107 317.164 193.487  1.00  0.00     0.004 C 
ENDBRANCH  17  18
ENDBRANCH  16  17
ENDBRANCH  15  16
ENDBRANCH  14  15
ENDBRANCH  13  14
ENDBRANCH  12  13
ENDBRANCH   1  12
TORSDOF 14
ENDMDL
MODEL 8
REMARK VINA RESULT:    -5.566     19.004     20.328
REMARK INTER + INTRA:         -11.444
REMARK INTER:                 -10.117
REMARK INTRA:                  -1.327
REMARK UNBOUND:                -1.323
REMARK SMILES CCCCCCCCCCCCCC[C@@H](C)C(=O)[O-]
REMARK SMILES IDX 9 1 10 2 11 3 12 4 13 5 14 6 15 7 16 8 17 9 18 10 19 11 8 12
REMARK SMILES IDX 7 13 6 14 5 15 4 16 3 17 2 18 1 19
REMARK H PARENT
REMARK Flexibility Score: inf
ROOT
ATOM      1  C   UNL     1     103.841 312.415 196.560  1.00  0.00     0.000 C 
ENDROOT
BRANCH   1   2
ATOM      2  C   UNL     1     103.820 311.307 197.627  1.00  0.00     0.000 C 
BRANCH   2   3
ATOM      3  C   UNL     1     103.240 311.788 198.968  1.00  0.00     0.000 C 
BRANCH   3   4
ATOM      4  C   UNL     1     104.330 312.042 200.025  1.00  0.00     0.000 C 
BRANCH   4   5
ATOM      5  C   UNL     1     103.936 313.131 201.035  1.00  0.00     0.001 C 
BRANCH   5   6
ATOM      6  C   UNL     1     104.133 312.681 202.499  1.00  0.00     0.009 C 
BRANCH   6   7
ATOM      7  C   UNL     1     103.580 311.270 202.801  1.00  0.00     0.032 C 
ATOM      8  C   UNL     1     104.209 310.656 204.063  1.00  0.00     0.014 C 
BRANCH   7   9
ATOM      9  C   UNL     1     102.071 311.269 202.843  1.00  0.00     0.044 C 
ATOM     10  O   UNL     1     101.443 311.701 203.851  1.00  0.00    -0.550 OA
ATOM     11  O   UNL     1     101.358 310.776 201.754  1.00  0.00    -0.550 OA
ENDBRANCH   7   9
ENDBRANCH   6   7
ENDBRANCH   5   6
ENDBRANCH   4   5
ENDBRANCH   3   4
ENDBRANCH   2   3
ENDBRANCH   1   2
BRANCH   1  12
ATOM     12  C   UNL     1     104.031 311.866 195.132  1.00  0.00     0.000 C 
BRANCH  12  13
ATOM     13  C   UNL     1     105.493 311.759 194.663  1.00  0.00    -0.000 C 
BRANCH  13  14
ATOM     14  C   UNL     1     105.641 311.828 193.137  1.00  0.00    -0.000 C 
BRANCH  14  15
ATOM     15  C   UNL     1     104.280 312.055 192.465  1.00  0.00    -0.000 C 
BRANCH  15  16
ATOM     16  C   UNL     1     104.320 313.271 191.531  1.00  0.00    -0.000 C 
BRANCH  16  17
ATOM     17  C   UNL     1     103.553 314.454 192.138  1.00  0.00    -0.000 C 
BRANCH  17  18
ATOM     18  C   UNL     1     104.363 315.188 193.218  1.00  0.00    -0.003 C 
ATOM     19  C   UNL     1     103.542 315.474 194.477  1.00  0.00     0.004 C 
ENDBRANCH  17  18
ENDBRANCH  16  17
ENDBRANCH  15  16
ENDBRANCH  14  15
ENDBRANCH  13  14
ENDBRANCH  12  13
ENDBRANCH   1  12
TORSDOF 14
ENDMDL
MODEL 9
REMARK VINA RESULT:    -5.494     19.074     20.299
REMARK INTER + INTRA:         -11.314
REMARK INTER:                 -10.290
REMARK INTRA:                  -1.024
REMARK UNBOUND:                -1.323
REMARK SMILES CCCCCCCCCCCCCC[C@@H](C)C(=O)[O-]
REMARK SMILES IDX 9 1 10 2 11 3 12 4 13 5 14 6 15 7 16 8 17 9 18 10 19 11 8 12
REMARK SMILES IDX 7 13 6 14 5 15 4 16 3 17 2 18 1 19
REMARK H PARENT
REMARK Flexibility Score: inf
ROOT
ATOM      1  C   UNL     1     103.740 314.825 196.961  1.00  0.00     0.000 C 
ENDROOT
BRANCH   1   2
ATOM      2  C   UNL     1     102.796 314.075 197.917  1.00  0.00     0.000 C 
BRANCH   2   3
ATOM      3  C   UNL     1     103.458 313.751 199.268  1.00  0.00     0.000 C 
BRANCH   3   4
ATOM      4  C   UNL     1     103.473 312.242 199.570  1.00  0.00     0.000 C 
BRANCH   4   5
ATOM      5  C   UNL     1     104.501 311.863 200.648  1.00  0.00     0.001 C 
BRANCH   5   6
ATOM      6  C   UNL     1     104.001 312.167 202.077  1.00  0.00     0.009 C 
BRANCH   6   7
ATOM      7  C   UNL     1     103.567 310.913 202.870  1.00  0.00     0.032 C 
ATOM      8  C   UNL     1     104.312 310.783 204.210  1.00  0.00     0.014 C 
BRANCH   7   9
ATOM      9  C   UNL     1     102.067 310.856 203.029  1.00  0.00     0.044 C 
ATOM     10  O   UNL     1     101.304 310.765 202.026  1.00  0.00    -0.550 OA
ATOM     11  O   UNL     1     101.514 310.911 204.305  1.00  0.00    -0.550 OA
ENDBRANCH   7   9
ENDBRANCH   6   7
ENDBRANCH   5   6
ENDBRANCH   4   5
ENDBRANCH   3   4
ENDBRANCH   2   3
ENDBRANCH   1   2
BRANCH   1  12
ATOM     12  C   UNL     1     104.021 314.044 195.663  1.00  0.00     0.000 C 
BRANCH  12  13
ATOM     13  C   UNL     1     103.970 312.511 195.800  1.00  0.00    -0.000 C 
BRANCH  13  14
ATOM     14  C   UNL     1     104.221 311.781 194.474  1.00  0.00    -0.000 C 
BRANCH  14  15
ATOM     15  C   UNL     1     105.657 312.010 193.985  1.00  0.00    -0.000 C 
BRANCH  15  16
ATOM     16  C   UNL     1     105.677 312.461 192.520  1.00  0.00    -0.000 C 
BRANCH  16  17
ATOM     17  C   UNL     1     104.269 312.853 192.047  1.00  0.00    -0.000 C 
BRANCH  17  18
ATOM     18  C   UNL     1     104.295 313.731 190.786  1.00  0.00    -0.003 C 
ATOM     19  C   UNL     1     105.635 314.442 190.591  1.00  0.00     0.004 C 
ENDBRANCH  17  18
ENDBRANCH  16  17
ENDBRANCH  15  16
ENDBRANCH  14  15
ENDBRANCH  13  14
ENDBRANCH  12  13
ENDBRANCH   1  12
TORSDOF 14
ENDMDL
