MODEL 1
REMARK VINA RESULT:    -5.252      0.000      0.000
REMARK INTER + INTRA:          -6.300
REMARK INTER:                  -6.174
REMARK INTRA:                  -0.127
REMARK UNBOUND:                -0.127
REMARK SMILES O=C([O-])C=Cc1ccc(O)c(O)c1
REMARK SMILES IDX 6 1 13 2 7 3 11 4 8 5 9 6 5 7 4 8 2 9 1 10 3 11 12 12 10 14
REMARK H PARENT 12 13 10 15
REMARK Flexibility Score: inf
ROOT
ATOM      1  C   UNL     1      26.540  30.617 -13.049  1.00  0.00    -0.022 A 
ATOM      2  C   UNL     1      26.613  30.586 -11.647  1.00  0.00     0.058 A 
ATOM      3  C   UNL     1      27.727  30.476 -13.795  1.00  0.00     0.012 A 
ATOM      4  C   UNL     1      27.845  30.445 -10.995  1.00  0.00     0.157 A 
ATOM      5  C   UNL     1      28.956  30.334 -13.147  1.00  0.00     0.051 A 
ATOM      6  C   UNL     1      29.024  30.320 -11.750  1.00  0.00     0.157 A 
ENDROOT
BRANCH   1   7
ATOM      7  C   UNL     1      25.208  30.758 -13.689  1.00  0.00     0.010 C 
ATOM      8  C   UNL     1      24.794  31.872 -14.311  1.00  0.00     0.025 C 
BRANCH   8   9
ATOM      9  C   UNL     1      23.459  31.979 -14.923  1.00  0.00     0.064 C 
ATOM     10  O   UNL     1      23.318  32.331 -16.125  1.00  0.00    -0.545 OA
ATOM     11  O   UNL     1      22.335  31.690 -14.161  1.00  0.00    -0.545 OA
ENDBRANCH   8   9
ENDBRANCH   1   7
BRANCH   4  12
ATOM     12  O   UNL     1      27.905  30.426  -9.603  1.00  0.00    -0.504 OA
ATOM     13  H   UNL     1      27.321  31.033  -9.038  1.00  0.00     0.293 HD
ENDBRANCH   4  12
BRANCH   6  14
ATOM     14  O   UNL     1      30.265  30.179 -11.132  1.00  0.00    -0.504 OA
ATOM     15  H   UNL     1      31.131  30.188 -11.657  1.00  0.00     0.293 HD
ENDBRANCH   6  14
TORSDOF 4
ENDMDL
MODEL 2
REMARK VINA RESULT:    -4.870      2.396      3.138
REMARK INTER + INTRA:          -5.851
REMARK INTER:                  -5.726
REMARK INTRA:                  -0.125
REMARK UNBOUND:                -0.127
REMARK SMILES O=C([O-])C=Cc1ccc(O)c(O)c1
REMARK SMILES IDX 6 1 13 2 7 3 11 4 8 5 9 6 5 7 4 8 2 9 1 10 3 11 12 12 10 14
REMARK H PARENT 12 13 10 15
REMARK Flexibility Score: inf
ROOT
ATOM      1  C   UNL     1      26.138  30.487 -11.636  1.00  0.00    -0.022 A 
ATOM      2  C   UNL     1      26.489  30.527 -12.995  1.00  0.00     0.058 A 
ATOM      3  C   UNL     1      27.163  30.406 -10.672  1.00  0.00     0.012 A 
ATOM      4  C   UNL     1      27.831  30.462 -13.393  1.00  0.00     0.157 A 
ATOM      5  C   UNL     1      28.501  30.341 -11.067  1.00  0.00     0.051 A 
ATOM      6  C   UNL     1      28.842  30.366 -12.422  1.00  0.00     0.157 A 
ENDROOT
BRANCH   1   7
ATOM      7  C   UNL     1      24.702  30.570 -11.270  1.00  0.00     0.010 C 
ATOM      8  C   UNL     1      23.962  31.681 -11.404  1.00  0.00     0.025 C 
BRANCH   8   9
ATOM      9  C   UNL     1      22.542  31.730 -11.017  1.00  0.00     0.064 C 
ATOM     10  O   UNL     1      21.645  31.253 -11.762  1.00  0.00    -0.545 OA
ATOM     11  O   UNL     1      22.185  32.315  -9.809  1.00  0.00    -0.545 OA
ENDBRANCH   8   9
ENDBRANCH   1   7
BRANCH   4  12
ATOM     12  O   UNL     1      28.165  30.492 -14.746  1.00  0.00    -0.504 OA
ATOM     13  H   UNL     1      29.109  30.308 -15.064  1.00  0.00     0.293 HD
ENDBRANCH   4  12
BRANCH   6  14
ATOM     14  O   UNL     1      30.187  30.297 -12.785  1.00  0.00    -0.504 OA
ATOM     15  H   UNL     1      30.703  29.427 -12.773  1.00  0.00     0.293 HD
ENDBRANCH   6  14
TORSDOF 4
ENDMDL
MODEL 3
REMARK VINA RESULT:    -4.865      2.324      5.647
REMARK INTER + INTRA:          -5.845
REMARK INTER:                  -5.716
REMARK INTRA:                  -0.129
REMARK UNBOUND:                -0.127
REMARK SMILES O=C([O-])C=Cc1ccc(O)c(O)c1
REMARK SMILES IDX 6 1 13 2 7 3 11 4 8 5 9 6 5 7 4 8 2 9 1 10 3 11 12 12 10 14
REMARK H PARENT 12 13 10 15
REMARK Flexibility Score: inf
ROOT
ATOM      1  C   UNL     1      25.342  30.763 -11.957  1.00  0.00    -0.022 A 
ATOM      2  C   UNL     1      26.195  30.489 -13.038  1.00  0.00     0.058 A 
ATOM      3  C   UNL     1      24.407  31.810 -12.078  1.00  0.00     0.012 A 
ATOM      4  C   UNL     1      26.139  31.256 -14.210  1.00  0.00     0.157 A 
ATOM      5  C   UNL     1      24.349  32.575 -13.245  1.00  0.00     0.051 A 
ATOM      6  C   UNL     1      25.211  32.307 -14.312  1.00  0.00     0.157 A 
ENDROOT
BRANCH   1   7
ATOM      7  C   UNL     1      25.436  29.913 -10.744  1.00  0.00     0.010 C 
ATOM      8  C   UNL     1      26.594  29.465 -10.236  1.00  0.00     0.025 C 
BRANCH   8   9
ATOM      9  C   UNL     1      26.647  28.612  -9.036  1.00  0.00     0.064 C 
ATOM     10  O   UNL     1      27.345  28.932  -8.037  1.00  0.00    -0.545 OA
ATOM     11  O   UNL     1      25.917  27.432  -9.008  1.00  0.00    -0.545 OA
ENDBRANCH   8   9
ENDBRANCH   1   7
BRANCH   4  12
ATOM     12  O   UNL     1      26.998  30.980 -15.272  1.00  0.00    -0.504 OA
ATOM     13  H   UNL     1      27.805  31.561 -15.467  1.00  0.00     0.293 HD
ENDBRANCH   4  12
BRANCH   6  14
ATOM     14  O   UNL     1      25.131  33.089 -15.463  1.00  0.00    -0.504 OA
ATOM     15  H   UNL     1      24.243  33.349 -15.876  1.00  0.00     0.293 HD
ENDBRANCH   6  14
TORSDOF 4
ENDMDL
MODEL 4
REMARK VINA RESULT:    -4.808      2.967      5.513
REMARK INTER + INTRA:          -5.777
REMARK INTER:                  -5.640
REMARK INTRA:                  -0.138
REMARK UNBOUND:                -0.127
REMARK SMILES O=C([O-])C=Cc1ccc(O)c(O)c1
REMARK SMILES IDX 6 1 13 2 7 3 11 4 8 5 9 6 5 7 4 8 2 9 1 10 3 11 12 12 10 14
REMARK H PARENT 12 13 10 15
REMARK Flexibility Score: inf
ROOT
ATOM      1  C   UNL     1      27.249  29.408 -10.727  1.00  0.00    -0.022 A 
ATOM      2  C   UNL     1      28.560  29.759 -11.090  1.00  0.00     0.058 A 
ATOM      3  C   UNL     1      26.240  29.443 -11.710  1.00  0.00     0.012 A 
ATOM      4  C   UNL     1      28.860  30.161 -12.398  1.00  0.00     0.157 A 
ATOM      5  C   UNL     1      26.538  29.844 -13.015  1.00  0.00     0.051 A 
ATOM      6  C   UNL     1      27.842  30.206 -13.366  1.00  0.00     0.157 A 
ENDROOT
BRANCH   1   7
ATOM      7  C   UNL     1      26.988  28.979  -9.331  1.00  0.00     0.010 C 
ATOM      8  C   UNL     1      25.780  28.611  -8.878  1.00  0.00     0.025 C 
BRANCH   8   9
ATOM      9  C   UNL     1      25.557  28.202  -7.481  1.00  0.00     0.064 C 
ATOM     10  O   UNL     1      25.269  29.047  -6.591  1.00  0.00    -0.545 OA
ATOM     11  O   UNL     1      25.670  26.862  -7.137  1.00  0.00    -0.545 OA
ENDBRANCH   8   9
ENDBRANCH   1   7
BRANCH   4  12
ATOM     12  O   UNL     1      30.163  30.516 -12.742  1.00  0.00    -0.504 OA
ATOM     13  H   UNL     1      30.412  30.768 -13.692  1.00  0.00     0.293 HD
ENDBRANCH   4  12
BRANCH   6  14
ATOM     14  O   UNL     1      28.107  30.603 -14.675  1.00  0.00    -0.504 OA
ATOM     15  H   UNL     1      27.648  30.176 -15.470  1.00  0.00     0.293 HD
ENDBRANCH   6  14
TORSDOF 4
ENDMDL
MODEL 5
REMARK VINA RESULT:    -4.502     18.531     19.955
REMARK INTER + INTRA:          -5.418
REMARK INTER:                  -5.287
REMARK INTRA:                  -0.130
REMARK UNBOUND:                -0.127
REMARK SMILES O=C([O-])C=Cc1ccc(O)c(O)c1
REMARK SMILES IDX 6 1 13 2 7 3 11 4 8 5 9 6 5 7 4 8 2 9 1 10 3 11 12 12 10 14
REMARK H PARENT 12 13 10 15
REMARK Flexibility Score: inf
ROOT
ATOM      1  C   UNL     1      19.850  19.550   1.036  1.00  0.00    -0.022 A 
ATOM      2  C   UNL     1      18.793  18.757   1.510  1.00  0.00     0.058 A 
ATOM      3  C   UNL     1      19.554  20.790   0.436  1.00  0.00     0.012 A 
ATOM      4  C   UNL     1      17.462  19.175   1.369  1.00  0.00     0.157 A 
ATOM      5  C   UNL     1      18.228  21.208   0.295  1.00  0.00     0.051 A 
ATOM      6  C   UNL     1      17.179  20.407   0.756  1.00  0.00     0.157 A 
ENDROOT
BRANCH   1   7
ATOM      7  C   UNL     1      21.241  19.065   1.220  1.00  0.00     0.010 C 
ATOM      8  C   UNL     1      22.080  18.804   0.206  1.00  0.00     0.025 C 
BRANCH   8   9
ATOM      9  C   UNL     1      23.450  18.311   0.428  1.00  0.00     0.064 C 
ATOM     10  O   UNL     1      23.926  17.371  -0.263  1.00  0.00    -0.545 OA
ATOM     11  O   UNL     1      24.230  18.892   1.419  1.00  0.00    -0.545 OA
ENDBRANCH   8   9
ENDBRANCH   1   7
BRANCH   4  12
ATOM     12  O   UNL     1      16.422  18.374   1.835  1.00  0.00    -0.504 OA
ATOM     13  H   UNL     1      16.557  17.718   2.597  1.00  0.00     0.293 HD
ENDBRANCH   4  12
BRANCH   6  14
ATOM     14  O   UNL     1      15.867  20.851   0.599  1.00  0.00    -0.504 OA
ATOM     15  H   UNL     1      15.136  20.610   1.257  1.00  0.00     0.293 HD
ENDBRANCH   6  14
TORSDOF 4
ENDMDL
MODEL 6
REMARK VINA RESULT:    -4.449      2.852      5.517
REMARK INTER + INTRA:          -5.355
REMARK INTER:                  -5.224
REMARK INTRA:                  -0.132
REMARK UNBOUND:                -0.127
REMARK SMILES O=C([O-])C=Cc1ccc(O)c(O)c1
REMARK SMILES IDX 6 1 13 2 7 3 11 4 8 5 9 6 5 7 4 8 2 9 1 10 3 11 12 12 10 14
REMARK H PARENT 12 13 10 15
REMARK Flexibility Score: inf
ROOT
ATOM      1  C   UNL     1      27.340  29.521 -11.259  1.00  0.00    -0.022 A 
ATOM      2  C   UNL     1      26.252  29.336 -12.128  1.00  0.00     0.058 A 
ATOM      3  C   UNL     1      28.539  30.053 -11.775  1.00  0.00     0.012 A 
ATOM      4  C   UNL     1      26.359  29.651 -13.489  1.00  0.00     0.157 A 
ATOM      5  C   UNL     1      28.647  30.367 -13.132  1.00  0.00     0.051 A 
ATOM      6  C   UNL     1      27.564  30.167 -13.994  1.00  0.00     0.157 A 
ENDROOT
BRANCH   1   7
ATOM      7  C   UNL     1      27.170  29.182  -9.824  1.00  0.00     0.010 C 
ATOM      8  C   UNL     1      26.199  28.382  -9.358  1.00  0.00     0.025 C 
BRANCH   8   9
ATOM      9  C   UNL     1      26.054  28.079  -7.924  1.00  0.00     0.064 C 
ATOM     10  O   UNL     1      26.072  26.892  -7.502  1.00  0.00    -0.545 OA
ATOM     11  O   UNL     1      25.891  29.121  -7.021  1.00  0.00    -0.545 OA
ENDBRANCH   8   9
ENDBRANCH   1   7
BRANCH   4  12
ATOM     12  O   UNL     1      25.275  29.453 -14.343  1.00  0.00    -0.504 OA
ATOM     13  H   UNL     1      25.380  29.482 -15.350  1.00  0.00     0.293 HD
ENDBRANCH   4  12
BRANCH   6  14
ATOM     14  O   UNL     1      27.704  30.488 -15.343  1.00  0.00    -0.504 OA
ATOM     15  H   UNL     1      28.534  30.247 -15.871  1.00  0.00     0.293 HD
ENDBRANCH   6  14
TORSDOF 4
ENDMDL
MODEL 7
REMARK VINA RESULT:    -4.446      3.489      4.920
REMARK INTER + INTRA:          -5.352
REMARK INTER:                  -5.216
REMARK INTRA:                  -0.137
REMARK UNBOUND:                -0.127
REMARK SMILES O=C([O-])C=Cc1ccc(O)c(O)c1
REMARK SMILES IDX 6 1 13 2 7 3 11 4 8 5 9 6 5 7 4 8 2 9 1 10 3 11 12 12 10 14
REMARK H PARENT 12 13 10 15
REMARK Flexibility Score: inf
ROOT
ATOM      1  C   UNL     1      24.176  31.800 -12.143  1.00  0.00    -0.022 A 
ATOM      2  C   UNL     1      24.236  32.590 -13.303  1.00  0.00     0.058 A 
ATOM      3  C   UNL     1      25.123  30.770 -11.972  1.00  0.00     0.012 A 
ATOM      4  C   UNL     1      25.203  32.347 -14.288  1.00  0.00     0.157 A 
ATOM      5  C   UNL     1      26.087  30.527 -12.953  1.00  0.00     0.051 A 
ATOM      6  C   UNL     1      26.132  31.308 -14.112  1.00  0.00     0.157 A 
ENDROOT
BRANCH   1   7
ATOM      7  C   UNL     1      23.139  32.107 -11.127  1.00  0.00     0.010 C 
ATOM      8  C   UNL     1      22.798  31.272 -10.134  1.00  0.00     0.025 C 
BRANCH   8   9
ATOM      9  C   UNL     1      21.754  31.606  -9.150  1.00  0.00     0.064 C 
ATOM     10  O   UNL     1      20.670  30.966  -9.105  1.00  0.00    -0.545 OA
ATOM     11  O   UNL     1      21.968  32.649  -8.259  1.00  0.00    -0.545 OA
ENDBRANCH   8   9
ENDBRANCH   1   7
BRANCH   4  12
ATOM     12  O   UNL     1      25.246  33.132 -15.439  1.00  0.00    -0.504 OA
ATOM     13  H   UNL     1      25.492  34.114 -15.402  1.00  0.00     0.293 HD
ENDBRANCH   4  12
BRANCH   6  14
ATOM     14  O   UNL     1      27.105  31.039 -15.074  1.00  0.00    -0.504 OA
ATOM     15  H   UNL     1      27.640  30.179 -15.073  1.00  0.00     0.293 HD
ENDBRANCH   6  14
TORSDOF 4
ENDMDL
MODEL 8
REMARK VINA RESULT:    -4.413      4.201      6.095
REMARK INTER + INTRA:          -5.314
REMARK INTER:                  -5.184
REMARK INTRA:                  -0.129
REMARK UNBOUND:                -0.127
REMARK SMILES O=C([O-])C=Cc1ccc(O)c(O)c1
REMARK SMILES IDX 6 1 13 2 7 3 11 4 8 5 9 6 5 7 4 8 2 9 1 10 3 11 12 12 10 14
REMARK H PARENT 12 13 10 15
REMARK Flexibility Score: inf
ROOT
ATOM      1  C   UNL     1      26.914  28.053 -13.173  1.00  0.00    -0.022 A 
ATOM      2  C   UNL     1      26.154  28.207 -14.344  1.00  0.00     0.058 A 
ATOM      3  C   UNL     1      27.494  29.194 -12.584  1.00  0.00     0.012 A 
ATOM      4  C   UNL     1      25.994  29.468 -14.935  1.00  0.00     0.157 A 
ATOM      5  C   UNL     1      27.335  30.451 -13.172  1.00  0.00     0.051 A 
ATOM      6  C   UNL     1      26.590  30.596 -14.346  1.00  0.00     0.157 A 
ENDROOT
BRANCH   1   7
ATOM      7  C   UNL     1      27.042  26.697 -12.582  1.00  0.00     0.010 C 
ATOM      8  C   UNL     1      27.186  25.579 -13.308  1.00  0.00     0.025 C 
BRANCH   8   9
ATOM      9  C   UNL     1      27.297  24.248 -12.686  1.00  0.00     0.064 C 
ATOM     10  O   UNL     1      28.210  23.446 -13.019  1.00  0.00    -0.545 OA
ATOM     11  O   UNL     1      26.377  23.870 -11.718  1.00  0.00    -0.545 OA
ENDBRANCH   8   9
ENDBRANCH   1   7
BRANCH   4  12
ATOM     12  O   UNL     1      25.246  29.606 -16.103  1.00  0.00    -0.504 OA
ATOM     13  H   UNL     1      25.046  30.516 -16.501  1.00  0.00     0.293 HD
ENDBRANCH   4  12
BRANCH   6  14
ATOM     14  O   UNL     1      26.451  31.863 -14.910  1.00  0.00    -0.504 OA
ATOM     15  H   UNL     1      27.210  32.318 -15.404  1.00  0.00     0.293 HD
ENDBRANCH   6  14
TORSDOF 4
ENDMDL
MODEL 9
REMARK VINA RESULT:    -4.356      2.014      2.946
REMARK INTER + INTRA:          -5.247
REMARK INTER:                  -5.112
REMARK INTRA:                  -0.135
REMARK UNBOUND:                -0.127
REMARK SMILES O=C([O-])C=Cc1ccc(O)c(O)c1
REMARK SMILES IDX 6 1 13 2 7 3 11 4 8 5 9 6 5 7 4 8 2 9 1 10 3 11 12 12 10 14
REMARK H PARENT 12 13 10 15
REMARK Flexibility Score: inf
ROOT
ATOM      1  C   UNL     1      25.119  30.729 -12.895  1.00  0.00    -0.022 A 
ATOM      2  C   UNL     1      25.734  30.624 -14.153  1.00  0.00     0.058 A 
ATOM      3  C   UNL     1      25.919  30.646 -11.738  1.00  0.00     0.012 A 
ATOM      4  C   UNL     1      27.115  30.413 -14.262  1.00  0.00     0.157 A 
ATOM      5  C   UNL     1      27.296  30.436 -11.845  1.00  0.00     0.051 A 
ATOM      6  C   UNL     1      27.900  30.317 -13.100  1.00  0.00     0.157 A 
ENDROOT
BRANCH   1   7
ATOM      7  C   UNL     1      23.655  30.963 -12.837  1.00  0.00     0.010 C 
ATOM      8  C   UNL     1      22.842  30.871 -13.901  1.00  0.00     0.025 C 
BRANCH   8   9
ATOM      9  C   UNL     1      21.394  31.122 -13.807  1.00  0.00     0.064 C 
ATOM     10  O   UNL     1      20.831  31.289 -12.692  1.00  0.00    -0.545 OA
ATOM     11  O   UNL     1      20.635  31.174 -14.968  1.00  0.00    -0.545 OA
ENDBRANCH   8   9
ENDBRANCH   1   7
BRANCH   4  12
ATOM     12  O   UNL     1      27.712  30.301 -15.517  1.00  0.00    -0.504 OA
ATOM     13  H   UNL     1      27.159  30.255 -16.365  1.00  0.00     0.293 HD
ENDBRANCH   4  12
BRANCH   6  14
ATOM     14  O   UNL     1      29.276  30.106 -13.174  1.00  0.00    -0.504 OA
ATOM     15  H   UNL     1      29.677  29.354 -13.721  1.00  0.00     0.293 HD
ENDBRANCH   6  14
TORSDOF 4
ENDMDL
