MODEL 1
REMARK VINA RESULT:    -3.779      0.000      0.000
REMARK INTER + INTRA:          -8.445
REMARK INTER:                  -6.430
REMARK INTRA:                  -2.016
REMARK UNBOUND:                -2.016
REMARK SMILES CCCCCCCCCCCCCC(=O)[O-]
REMARK SMILES IDX 8 1 9 2 10 3 11 4 12 5 13 6 14 7 15 8 16 9 7 10 6 11 5 12
REMARK SMILES IDX 4 13 3 14 2 15 1 16
REMARK H PARENT
REMARK Flexibility Score: inf
ROOT
ATOM      1  C   UNL     1     127.986 145.856 108.502  1.00  0.00     0.000 C 
ENDROOT
BRANCH   1   2
ATOM      2  C   UNL     1     128.808 144.690 109.063  1.00  0.00     0.000 C 
BRANCH   2   3
ATOM      3  C   UNL     1     130.102 144.494 108.264  1.00  0.00     0.000 C 
BRANCH   3   4
ATOM      4  C   UNL     1     130.584 145.824 107.664  1.00  0.00     0.000 C 
BRANCH   4   5
ATOM      5  C   UNL     1     131.098 145.672 106.223  1.00  0.00     0.006 C 
BRANCH   5   6
ATOM      6  C   UNL     1     132.364 146.496 105.958  1.00  0.00     0.053 C 
BRANCH   6   7
ATOM      7  C   UNL     1     133.437 146.130 106.935  1.00  0.00     0.041 C 
ATOM      8  O   UNL     1     133.812 146.960 107.806  1.00  0.00    -0.550 OA
ATOM      9  O   UNL     1     134.058 144.890 106.854  1.00  0.00    -0.550 OA
ENDBRANCH   6   7
ENDBRANCH   5   6
ENDBRANCH   4   5
ENDBRANCH   3   4
ENDBRANCH   2   3
ENDBRANCH   1   2
BRANCH   1  10
ATOM     10  C   UNL     1     126.927 145.357 107.512  1.00  0.00     0.000 C 
BRANCH  10  11
ATOM     11  C   UNL     1     126.955 146.175 106.216  1.00  0.00    -0.000 C 
BRANCH  11  12
ATOM     12  C   UNL     1     127.659 145.404 105.093  1.00  0.00    -0.000 C 
BRANCH  12  13
ATOM     13  C   UNL     1     127.367 143.902 105.188  1.00  0.00    -0.000 C 
BRANCH  13  14
ATOM     14  C   UNL     1     128.669 143.093 105.274  1.00  0.00    -0.000 C 
BRANCH  14  15
ATOM     15  C   UNL     1     128.497 141.776 106.047  1.00  0.00    -0.003 C 
ATOM     16  C   UNL     1     127.364 141.836 107.071  1.00  0.00     0.004 C 
ENDBRANCH  14  15
ENDBRANCH  13  14
ENDBRANCH  12  13
ENDBRANCH  11  12
ENDBRANCH  10  11
ENDBRANCH   1  10
TORSDOF 12
ENDMDL
MODEL 2
REMARK VINA RESULT:    -3.667      1.953      4.897
REMARK INTER + INTRA:          -8.255
REMARK INTER:                  -6.539
REMARK INTRA:                  -1.716
REMARK UNBOUND:                -2.016
REMARK SMILES CCCCCCCCCCCCCC(=O)[O-]
REMARK SMILES IDX 8 1 9 2 10 3 11 4 12 5 13 6 14 7 15 8 16 9 7 10 6 11 5 12
REMARK SMILES IDX 4 13 3 14 2 15 1 16
REMARK H PARENT
REMARK Flexibility Score: inf
ROOT
ATOM      1  C   UNL     1     127.804 143.614 105.570  1.00  0.00     0.000 C 
ENDROOT
BRANCH   1   2
ATOM      2  C   UNL     1     127.347 144.920 104.909  1.00  0.00     0.000 C 
BRANCH   2   3
ATOM      3  C   UNL     1     127.012 145.982 105.963  1.00  0.00     0.000 C 
BRANCH   3   4
ATOM      4  C   UNL     1     127.006 145.373 107.374  1.00  0.00     0.000 C 
BRANCH   4   5
ATOM      5  C   UNL     1     127.950 146.107 108.340  1.00  0.00     0.006 C 
BRANCH   5   6
ATOM      6  C   UNL     1     128.330 145.253 109.557  1.00  0.00     0.053 C 
BRANCH   6   7
ATOM      7  C   UNL     1     129.747 145.516 109.956  1.00  0.00     0.041 C 
ATOM      8  O   UNL     1     130.502 144.561 110.281  1.00  0.00    -0.550 OA
ATOM      9  O   UNL     1     130.222 146.820 110.016  1.00  0.00    -0.550 OA
ENDBRANCH   6   7
ENDBRANCH   5   6
ENDBRANCH   4   5
ENDBRANCH   3   4
ENDBRANCH   2   3
ENDBRANCH   1   2
BRANCH   1  10
ATOM     10  C   UNL     1     129.312 143.403 105.388  1.00  0.00     0.000 C 
BRANCH  10  11
ATOM     11  C   UNL     1     130.028 143.344 106.742  1.00  0.00    -0.000 C 
BRANCH  11  12
ATOM     12  C   UNL     1     131.221 144.306 106.777  1.00  0.00    -0.000 C 
BRANCH  12  13
ATOM     13  C   UNL     1     130.888 145.624 106.068  1.00  0.00    -0.000 C 
BRANCH  13  14
ATOM     14  C   UNL     1     132.050 146.620 106.183  1.00  0.00    -0.000 C 
BRANCH  14  15
ATOM     15  C   UNL     1     133.424 145.933 106.128  1.00  0.00    -0.003 C 
ATOM     16  C   UNL     1     134.143 146.154 104.798  1.00  0.00     0.004 C 
ENDBRANCH  14  15
ENDBRANCH  13  14
ENDBRANCH  12  13
ENDBRANCH  11  12
ENDBRANCH  10  11
ENDBRANCH   1  10
TORSDOF 12
ENDMDL
MODEL 3
REMARK VINA RESULT:    -3.628      1.200      3.271
REMARK INTER + INTRA:          -8.189
REMARK INTER:                  -6.513
REMARK INTRA:                  -1.676
REMARK UNBOUND:                -2.016
REMARK SMILES CCCCCCCCCCCCCC(=O)[O-]
REMARK SMILES IDX 8 1 9 2 10 3 11 4 12 5 13 6 14 7 15 8 16 9 7 10 6 11 5 12
REMARK SMILES IDX 4 13 3 14 2 15 1 16
REMARK H PARENT
REMARK Flexibility Score: inf
ROOT
ATOM      1  C   UNL     1     128.665 143.216 105.757  1.00  0.00     0.000 C 
ENDROOT
BRANCH   1   2
ATOM      2  C   UNL     1     130.126 143.534 105.420  1.00  0.00     0.000 C 
BRANCH   2   3
ATOM      3  C   UNL     1     130.733 144.494 106.450  1.00  0.00     0.000 C 
BRANCH   3   4
ATOM      4  C   UNL     1     130.616 145.951 105.977  1.00  0.00     0.000 C 
BRANCH   4   5
ATOM      5  C   UNL     1     131.906 146.754 106.211  1.00  0.00     0.006 C 
BRANCH   5   6
ATOM      6  C   UNL     1     132.721 146.229 107.400  1.00  0.00     0.053 C 
BRANCH   6   7
ATOM      7  C   UNL     1     134.151 146.036 107.006  1.00  0.00     0.041 C 
ATOM      8  O   UNL     1     134.451 145.247 106.070  1.00  0.00    -0.550 OA
ATOM      9  O   UNL     1     135.159 146.691 107.702  1.00  0.00    -0.550 OA
ENDBRANCH   6   7
ENDBRANCH   5   6
ENDBRANCH   4   5
ENDBRANCH   3   4
ENDBRANCH   2   3
ENDBRANCH   1   2
BRANCH   1  10
ATOM     10  C   UNL     1     127.711 144.157 105.011  1.00  0.00     0.000 C 
BRANCH  10  11
ATOM     11  C   UNL     1     127.024 145.127 105.980  1.00  0.00    -0.000 C 
BRANCH  11  12
ATOM     12  C   UNL     1     127.141 144.635 107.428  1.00  0.00    -0.000 C 
BRANCH  12  13
ATOM     13  C   UNL     1     126.970 145.793 108.419  1.00  0.00    -0.000 C 
BRANCH  13  14
ATOM     14  C   UNL     1     128.332 146.356 108.846  1.00  0.00    -0.000 C 
BRANCH  14  15
ATOM     15  C   UNL     1     129.133 145.372 109.713  1.00  0.00    -0.003 C 
ATOM     16  C   UNL     1     130.406 145.992 110.290  1.00  0.00     0.004 C 
ENDBRANCH  14  15
ENDBRANCH  13  14
ENDBRANCH  12  13
ENDBRANCH  11  12
ENDBRANCH  10  11
ENDBRANCH   1  10
TORSDOF 12
ENDMDL
MODEL 4
REMARK VINA RESULT:    -3.569      1.444      3.175
REMARK INTER + INTRA:          -8.088
REMARK INTER:                  -6.757
REMARK INTRA:                  -1.331
REMARK UNBOUND:                -2.016
REMARK SMILES CCCCCCCCCCCCCC(=O)[O-]
REMARK SMILES IDX 8 1 9 2 10 3 11 4 12 5 13 6 14 7 15 8 16 9 7 10 6 11 5 12
REMARK SMILES IDX 4 13 3 14 2 15 1 16
REMARK H PARENT
REMARK Flexibility Score: inf
ROOT
ATOM      1  C   UNL     1     129.919 143.289 106.267  1.00  0.00     0.000 C 
ENDROOT
BRANCH   1   2
ATOM      2  C   UNL     1     131.139 144.198 106.082  1.00  0.00     0.000 C 
BRANCH   2   3
ATOM      3  C   UNL     1     130.735 145.677 106.125  1.00  0.00     0.000 C 
BRANCH   3   4
ATOM      4  C   UNL     1     131.967 146.587 106.000  1.00  0.00     0.000 C 
BRANCH   4   5
ATOM      5  C   UNL     1     133.067 146.236 107.015  1.00  0.00     0.006 C 
BRANCH   5   6
ATOM      6  C   UNL     1     134.427 145.987 106.349  1.00  0.00     0.053 C 
BRANCH   6   7
ATOM      7  C   UNL     1     135.536 146.234 107.322  1.00  0.00     0.041 C 
ATOM      8  O   UNL     1     136.504 146.975 107.005  1.00  0.00    -0.550 OA
ATOM      9  O   UNL     1     135.526 145.608 108.562  1.00  0.00    -0.550 OA
ENDBRANCH   6   7
ENDBRANCH   5   6
ENDBRANCH   4   5
ENDBRANCH   3   4
ENDBRANCH   2   3
ENDBRANCH   1   2
BRANCH   1  10
ATOM     10  C   UNL     1     129.050 143.270 105.004  1.00  0.00     0.000 C 
BRANCH  10  11
ATOM     11  C   UNL     1     127.608 143.686 105.321  1.00  0.00    -0.000 C 
BRANCH  11  12
ATOM     12  C   UNL     1     127.297 145.075 104.751  1.00  0.00    -0.000 C 
BRANCH  12  13
ATOM     13  C   UNL     1     127.025 146.083 105.874  1.00  0.00    -0.000 C 
BRANCH  13  14
ATOM     14  C   UNL     1     126.911 145.376 107.232  1.00  0.00    -0.000 C 
BRANCH  14  15
ATOM     15  C   UNL     1     127.192 146.318 108.413  1.00  0.00    -0.003 C 
ATOM     16  C   UNL     1     128.613 146.174 108.959  1.00  0.00     0.004 C 
ENDBRANCH  14  15
ENDBRANCH  13  14
ENDBRANCH  12  13
ENDBRANCH  11  12
ENDBRANCH  10  11
ENDBRANCH   1  10
TORSDOF 12
ENDMDL
MODEL 5
REMARK VINA RESULT:    -3.554      2.540      5.450
REMARK INTER + INTRA:          -8.064
REMARK INTER:                  -6.600
REMARK INTRA:                  -1.463
REMARK UNBOUND:                -2.016
REMARK SMILES CCCCCCCCCCCCCC(=O)[O-]
REMARK SMILES IDX 8 1 9 2 10 3 11 4 12 5 13 6 14 7 15 8 16 9 7 10 6 11 5 12
REMARK SMILES IDX 4 13 3 14 2 15 1 16
REMARK H PARENT
REMARK Flexibility Score: inf
ROOT
ATOM      1  C   UNL     1     130.916 144.732 106.344  1.00  0.00     0.000 C 
ENDROOT
BRANCH   1   2
ATOM      2  C   UNL     1     129.568 144.150 105.904  1.00  0.00     0.000 C 
BRANCH   2   3
ATOM      3  C   UNL     1     128.553 145.265 105.623  1.00  0.00     0.000 C 
BRANCH   3   4
ATOM      4  C   UNL     1     127.175 144.911 106.202  1.00  0.00     0.000 C 
BRANCH   4   5
ATOM      5  C   UNL     1     127.202 144.735 107.730  1.00  0.00     0.006 C 
BRANCH   5   6
ATOM      6  C   UNL     1     127.621 146.016 108.464  1.00  0.00     0.053 C 
BRANCH   6   7
ATOM      7  C   UNL     1     128.698 145.718 109.458  1.00  0.00     0.041 C 
ATOM      8  O   UNL     1     128.584 144.737 110.241  1.00  0.00    -0.550 OA
ATOM      9  O   UNL     1     129.806 146.550 109.555  1.00  0.00    -0.550 OA
ENDBRANCH   6   7
ENDBRANCH   5   6
ENDBRANCH   4   5
ENDBRANCH   3   4
ENDBRANCH   2   3
ENDBRANCH   1   2
BRANCH   1  10
ATOM     10  C   UNL     1     130.941 146.255 106.172  1.00  0.00     0.000 C 
BRANCH  10  11
ATOM     11  C   UNL     1     132.347 146.745 105.803  1.00  0.00    -0.000 C 
BRANCH  11  12
ATOM     12  C   UNL     1     133.392 146.222 106.796  1.00  0.00    -0.000 C 
BRANCH  12  13
ATOM     13  C   UNL     1     134.679 145.805 106.073  1.00  0.00    -0.000 C 
BRANCH  13  14
ATOM     14  C   UNL     1     134.457 145.726 104.556  1.00  0.00    -0.000 C 
BRANCH  14  15
ATOM     15  C   UNL     1     134.749 144.329 103.988  1.00  0.00    -0.003 C 
ATOM     16  C   UNL     1     133.656 143.314 104.321  1.00  0.00     0.004 C 
ENDBRANCH  14  15
ENDBRANCH  13  14
ENDBRANCH  12  13
ENDBRANCH  11  12
ENDBRANCH  10  11
ENDBRANCH   1  10
TORSDOF 12
ENDMDL
MODEL 6
REMARK VINA RESULT:    -3.506      1.324      2.968
REMARK INTER + INTRA:          -7.981
REMARK INTER:                  -6.187
REMARK INTRA:                  -1.794
REMARK UNBOUND:                -2.016
REMARK SMILES CCCCCCCCCCCCCC(=O)[O-]
REMARK SMILES IDX 8 1 9 2 10 3 11 4 12 5 13 6 14 7 15 8 16 9 7 10 6 11 5 12
REMARK SMILES IDX 4 13 3 14 2 15 1 16
REMARK H PARENT
REMARK Flexibility Score: inf
ROOT
ATOM      1  C   UNL     1     128.640 142.009 106.191  1.00  0.00     0.000 C 
ENDROOT
BRANCH   1   2
ATOM      2  C   UNL     1     129.864 142.770 106.713  1.00  0.00     0.000 C 
BRANCH   2   3
ATOM      3  C   UNL     1     131.034 142.675 105.726  1.00  0.00     0.000 C 
BRANCH   3   4
ATOM      4  C   UNL     1     131.879 143.958 105.750  1.00  0.00     0.000 C 
BRANCH   4   5
ATOM      5  C   UNL     1     131.056 145.201 106.127  1.00  0.00     0.006 C 
BRANCH   5   6
ATOM      6  C   UNL     1     131.932 146.436 106.374  1.00  0.00     0.053 C 
BRANCH   6   7
ATOM      7  C   UNL     1     132.493 146.407 107.761  1.00  0.00     0.041 C 
ATOM      8  O   UNL     1     131.812 145.937 108.711  1.00  0.00    -0.550 OA
ATOM      9  O   UNL     1     133.749 146.943 108.015  1.00  0.00    -0.550 OA
ENDBRANCH   6   7
ENDBRANCH   5   6
ENDBRANCH   4   5
ENDBRANCH   3   4
ENDBRANCH   2   3
ENDBRANCH   1   2
BRANCH   1  10
ATOM     10  C   UNL     1     127.446 142.951 106.002  1.00  0.00     0.000 C 
BRANCH  10  11
ATOM     11  C   UNL     1     127.704 143.947 104.864  1.00  0.00    -0.000 C 
BRANCH  11  12
ATOM     12  C   UNL     1     127.333 145.374 105.286  1.00  0.00    -0.000 C 
BRANCH  12  13
ATOM     13  C   UNL     1     126.875 145.415 106.749  1.00  0.00    -0.000 C 
BRANCH  13  14
ATOM     14  C   UNL     1     127.867 146.205 107.613  1.00  0.00    -0.000 C 
BRANCH  14  15
ATOM     15  C   UNL     1     128.347 145.411 108.838  1.00  0.00    -0.003 C 
ATOM     16  C   UNL     1     127.243 145.200 109.875  1.00  0.00     0.004 C 
ENDBRANCH  14  15
ENDBRANCH  13  14
ENDBRANCH  12  13
ENDBRANCH  11  12
ENDBRANCH  10  11
ENDBRANCH   1  10
TORSDOF 12
ENDMDL
MODEL 7
REMARK VINA RESULT:    -3.479      3.013      4.722
REMARK INTER + INTRA:          -7.935
REMARK INTER:                  -6.209
REMARK INTRA:                  -1.725
REMARK UNBOUND:                -2.016
REMARK SMILES CCCCCCCCCCCCCC(=O)[O-]
REMARK SMILES IDX 8 1 9 2 10 3 11 4 12 5 13 6 14 7 15 8 16 9 7 10 6 11 5 12
REMARK SMILES IDX 4 13 3 14 2 15 1 16
REMARK H PARENT
REMARK Flexibility Score: inf
ROOT
ATOM      1  C   UNL     1     127.931 145.668 106.307  1.00  0.00     0.000 C 
ENDROOT
BRANCH   1   2
ATOM      2  C   UNL     1     126.875 145.916 107.390  1.00  0.00     0.000 C 
BRANCH   2   3
ATOM      3  C   UNL     1     127.525 146.401 108.692  1.00  0.00     0.000 C 
BRANCH   3   4
ATOM      4  C   UNL     1     128.983 145.927 108.787  1.00  0.00     0.000 C 
BRANCH   4   5
ATOM      5  C   UNL     1     129.286 145.203 110.109  1.00  0.00     0.006 C 
BRANCH   5   6
ATOM      6  C   UNL     1     129.278 143.676 109.961  1.00  0.00     0.053 C 
BRANCH   6   7
ATOM      7  C   UNL     1     127.876 143.157 109.983  1.00  0.00     0.041 C 
ATOM      8  O   UNL     1     127.399 142.572 108.974  1.00  0.00    -0.550 OA
ATOM      9  O   UNL     1     127.076 143.362 111.100  1.00  0.00    -0.550 OA
ENDBRANCH   6   7
ENDBRANCH   5   6
ENDBRANCH   4   5
ENDBRANCH   3   4
ENDBRANCH   2   3
ENDBRANCH   1   2
BRANCH   1  10
ATOM     10  C   UNL     1     127.304 145.030 105.062  1.00  0.00     0.000 C 
BRANCH  10  11
ATOM     11  C   UNL     1     127.996 143.706 104.713  1.00  0.00    -0.000 C 
BRANCH  11  12
ATOM     12  C   UNL     1     128.832 143.194 105.892  1.00  0.00    -0.000 C 
BRANCH  12  13
ATOM     13  C   UNL     1     130.321 143.140 105.531  1.00  0.00    -0.000 C 
BRANCH  13  14
ATOM     14  C   UNL     1     131.193 143.528 106.733  1.00  0.00    -0.000 C 
BRANCH  14  15
ATOM     15  C   UNL     1     132.168 144.670 106.412  1.00  0.00    -0.003 C 
ATOM     16  C   UNL     1     131.454 145.975 106.057  1.00  0.00     0.004 C 
ENDBRANCH  14  15
ENDBRANCH  13  14
ENDBRANCH  12  13
ENDBRANCH  11  12
ENDBRANCH  10  11
ENDBRANCH   1  10
TORSDOF 12
ENDMDL
MODEL 8
REMARK VINA RESULT:    -3.454      1.327      2.850
REMARK INTER + INTRA:          -7.893
REMARK INTER:                  -5.964
REMARK INTRA:                  -1.929
REMARK UNBOUND:                -2.016
REMARK SMILES CCCCCCCCCCCCCC(=O)[O-]
REMARK SMILES IDX 8 1 9 2 10 3 11 4 12 5 13 6 14 7 15 8 16 9 7 10 6 11 5 12
REMARK SMILES IDX 4 13 3 14 2 15 1 16
REMARK H PARENT
REMARK Flexibility Score: inf
ROOT
ATOM      1  C   UNL     1     126.966 145.148 106.792  1.00  0.00     0.000 C 
ENDROOT
BRANCH   1   2
ATOM      2  C   UNL     1     128.084 145.387 105.770  1.00  0.00     0.000 C 
BRANCH   2   3
ATOM      3  C   UNL     1     128.974 144.146 105.628  1.00  0.00     0.000 C 
BRANCH   3   4
ATOM      4  C   UNL     1     130.426 144.465 106.015  1.00  0.00     0.000 C 
BRANCH   4   5
ATOM      5  C   UNL     1     130.650 145.961 106.293  1.00  0.00     0.006 C 
BRANCH   5   6
ATOM      6  C   UNL     1     132.105 146.392 106.066  1.00  0.00     0.053 C 
BRANCH   6   7
ATOM      7  C   UNL     1     132.815 146.536 107.374  1.00  0.00     0.041 C 
ATOM      8  O   UNL     1     132.159 146.612 108.447  1.00  0.00    -0.550 OA
ATOM      9  O   UNL     1     134.200 146.636 107.407  1.00  0.00    -0.550 OA
ENDBRANCH   6   7
ENDBRANCH   5   6
ENDBRANCH   4   5
ENDBRANCH   3   4
ENDBRANCH   2   3
ENDBRANCH   1   2
BRANCH   1  10
ATOM     10  C   UNL     1     126.946 146.254 107.854  1.00  0.00     0.000 C 
BRANCH  10  11
ATOM     11  C   UNL     1     127.200 145.679 109.253  1.00  0.00    -0.000 C 
BRANCH  11  12
ATOM     12  C   UNL     1     128.702 145.591 109.549  1.00  0.00    -0.000 C 
BRANCH  12  13
ATOM     13  C   UNL     1     129.048 144.276 110.258  1.00  0.00    -0.000 C 
BRANCH  13  14
ATOM     14  C   UNL     1     130.095 143.483 109.464  1.00  0.00    -0.000 C 
BRANCH  14  15
ATOM     15  C   UNL     1     129.532 142.176 108.884  1.00  0.00    -0.003 C 
ATOM     16  C   UNL     1     128.004 142.132 108.901  1.00  0.00     0.004 C 
ENDBRANCH  14  15
ENDBRANCH  13  14
ENDBRANCH  12  13
ENDBRANCH  11  12
ENDBRANCH  10  11
ENDBRANCH   1  10
TORSDOF 12
ENDMDL
MODEL 9
REMARK VINA RESULT:    -3.444      3.772      6.135
REMARK INTER + INTRA:          -7.876
REMARK INTER:                  -6.166
REMARK INTRA:                  -1.710
REMARK UNBOUND:                -2.016
REMARK SMILES CCCCCCCCCCCCCC(=O)[O-]
REMARK SMILES IDX 8 1 9 2 10 3 11 4 12 5 13 6 14 7 15 8 16 9 7 10 6 11 5 12
REMARK SMILES IDX 4 13 3 14 2 15 1 16
REMARK H PARENT
REMARK Flexibility Score: inf
ROOT
ATOM      1  C   UNL     1     127.301 145.491 105.749  1.00  0.00     0.000 C 
ENDROOT
BRANCH   1   2
ATOM      2  C   UNL     1     127.758 144.180 105.099  1.00  0.00     0.000 C 
BRANCH   2   3
ATOM      3  C   UNL     1     127.217 142.968 105.867  1.00  0.00     0.000 C 
BRANCH   3   4
ATOM      4  C   UNL     1     128.322 141.924 106.094  1.00  0.00     0.000 C 
BRANCH   4   5
ATOM      5  C   UNL     1     127.793 140.633 106.740  1.00  0.00     0.006 C 
BRANCH   5   6
ATOM      6  C   UNL     1     128.058 139.391 105.879  1.00  0.00     0.053 C 
BRANCH   6   7
ATOM      7  C   UNL     1     127.623 138.155 106.601  1.00  0.00     0.041 C 
ATOM      8  O   UNL     1     127.595 137.047 106.002  1.00  0.00    -0.550 OA
ATOM      9  O   UNL     1     127.201 138.233 107.922  1.00  0.00    -0.550 OA
ENDBRANCH   6   7
ENDBRANCH   5   6
ENDBRANCH   4   5
ENDBRANCH   3   4
ENDBRANCH   2   3
ENDBRANCH   1   2
BRANCH   1  10
ATOM     10  C   UNL     1     126.935 145.278 107.222  1.00  0.00     0.000 C 
BRANCH  10  11
ATOM     11  C   UNL     1     127.941 145.975 108.147  1.00  0.00    -0.000 C 
BRANCH  11  12
ATOM     12  C   UNL     1     128.876 144.959 108.811  1.00  0.00    -0.000 C 
BRANCH  12  13
ATOM     13  C   UNL     1     130.334 145.199 108.400  1.00  0.00    -0.000 C 
BRANCH  13  14
ATOM     14  C   UNL     1     130.815 144.119 107.421  1.00  0.00    -0.000 C 
BRANCH  14  15
ATOM     15  C   UNL     1     131.203 144.696 106.050  1.00  0.00    -0.003 C 
ATOM     16  C   UNL     1     131.163 146.224 106.018  1.00  0.00     0.004 C 
ENDBRANCH  14  15
ENDBRANCH  13  14
ENDBRANCH  12  13
ENDBRANCH  11  12
ENDBRANCH  10  11
ENDBRANCH   1  10
TORSDOF 12
ENDMDL
