MODEL 1
REMARK VINA RESULT:    -3.961      0.000      0.000
REMARK INTER + INTRA:          -9.471
REMARK INTER:                  -7.202
REMARK INTRA:                  -2.269
REMARK UNBOUND:                -2.269
REMARK SMILES CCCCCCCCCCCCCCCC(=O)[O-]
REMARK SMILES IDX 9 1 10 2 11 3 12 4 13 5 14 6 15 7 16 8 17 9 18 10 8 11 7 12
REMARK SMILES IDX 6 13 5 14 4 15 3 16 2 17 1 18
REMARK H PARENT
REMARK Flexibility Score: inf
ROOT
ATOM      1  C   UNL     1     180.388 183.561 200.773  1.00  0.00     0.000 C 
ENDROOT
BRANCH   1   2
ATOM      2  C   UNL     1     180.719 184.383 202.037  1.00  0.00     0.000 C 
BRANCH   2   3
ATOM      3  C   UNL     1     181.070 185.852 201.745  1.00  0.00     0.000 C 
BRANCH   3   4
ATOM      4  C   UNL     1     180.298 186.422 200.544  1.00  0.00     0.000 C 
BRANCH   4   5
ATOM      5  C   UNL     1     181.114 187.461 199.757  1.00  0.00     0.000 C 
BRANCH   5   6
ATOM      6  C   UNL     1     182.620 187.375 200.049  1.00  0.00     0.006 C 
BRANCH   6   7
ATOM      7  C   UNL     1     183.436 187.527 198.762  1.00  0.00     0.053 C 
BRANCH   7   8
ATOM      8  C   UNL     1     184.769 188.139 199.054  1.00  0.00     0.041 C 
ATOM      9  O   UNL     1     185.817 187.448 198.966  1.00  0.00    -0.550 OA
ATOM     10  O   UNL     1     184.850 189.462 199.472  1.00  0.00    -0.550 OA
ENDBRANCH   7   8
ENDBRANCH   6   7
ENDBRANCH   5   6
ENDBRANCH   4   5
ENDBRANCH   3   4
ENDBRANCH   2   3
ENDBRANCH   1   2
BRANCH   1  11
ATOM     11  C   UNL     1     181.070 182.186 200.780  1.00  0.00     0.000 C 
BRANCH  11  12
ATOM     12  C   UNL     1     181.866 181.972 202.076  1.00  0.00    -0.000 C 
BRANCH  12  13
ATOM     13  C   UNL     1     183.151 181.151 201.865  1.00  0.00    -0.000 C 
BRANCH  13  14
ATOM     14  C   UNL     1     184.359 181.954 201.346  1.00  0.00    -0.000 C 
BRANCH  14  15
ATOM     15  C   UNL     1     184.326 183.428 201.774  1.00  0.00    -0.000 C 
BRANCH  15  16
ATOM     16  C   UNL     1     184.343 184.356 200.554  1.00  0.00    -0.000 C 
BRANCH  16  17
ATOM     17  C   UNL     1     184.036 183.580 199.268  1.00  0.00    -0.003 C 
ATOM     18  C   UNL     1     184.841 184.124 198.091  1.00  0.00     0.004 C 
ENDBRANCH  16  17
ENDBRANCH  15  16
ENDBRANCH  14  15
ENDBRANCH  13  14
ENDBRANCH  12  13
ENDBRANCH  11  12
ENDBRANCH   1  11
TORSDOF 14
ENDMDL
MODEL 2
REMARK VINA RESULT:    -3.754      3.036      6.220
REMARK INTER + INTRA:          -9.096
REMARK INTER:                  -6.813
REMARK INTRA:                  -2.283
REMARK UNBOUND:                -2.269
REMARK SMILES CCCCCCCCCCCCCCCC(=O)[O-]
REMARK SMILES IDX 9 1 10 2 11 3 12 4 13 5 14 6 15 7 16 8 17 9 18 10 8 11 7 12
REMARK SMILES IDX 6 13 5 14 4 15 3 16 2 17 1 18
REMARK H PARENT
REMARK Flexibility Score: inf
ROOT
ATOM      1  C   UNL     1     183.393 188.349 200.672  1.00  0.00     0.000 C 
ENDROOT
BRANCH   1   2
ATOM      2  C   UNL     1     182.209 187.370 200.524  1.00  0.00     0.000 C 
BRANCH   2   3
ATOM      3  C   UNL     1     182.635 185.936 200.163  1.00  0.00     0.000 C 
BRANCH   3   4
ATOM      4  C   UNL     1     184.139 185.817 199.870  1.00  0.00     0.000 C 
BRANCH   4   5
ATOM      5  C   UNL     1     184.432 184.950 198.634  1.00  0.00     0.000 C 
BRANCH   5   6
ATOM      6  C   UNL     1     185.027 183.582 198.998  1.00  0.00     0.006 C 
BRANCH   6   7
ATOM      7  C   UNL     1     183.966 182.481 198.901  1.00  0.00     0.053 C 
BRANCH   7   8
ATOM      8  C   UNL     1     183.441 182.137 200.259  1.00  0.00     0.041 C 
ATOM      9  O   UNL     1     182.202 182.160 200.485  1.00  0.00    -0.550 OA
ATOM     10  O   UNL     1     184.323 181.837 201.289  1.00  0.00    -0.550 OA
ENDBRANCH   7   8
ENDBRANCH   6   7
ENDBRANCH   5   6
ENDBRANCH   4   5
ENDBRANCH   3   4
ENDBRANCH   2   3
ENDBRANCH   1   2
BRANCH   1  11
ATOM     11  C   UNL     1     183.260 189.565 199.743  1.00  0.00     0.000 C 
BRANCH  11  12
ATOM     12  C   UNL     1     182.794 189.140 198.343  1.00  0.00    -0.000 C 
BRANCH  12  13
ATOM     13  C   UNL     1     183.961 188.803 197.397  1.00  0.00    -0.000 C 
BRANCH  13  14
ATOM     14  C   UNL     1     185.350 189.246 197.893  1.00  0.00    -0.000 C 
BRANCH  14  15
ATOM     15  C   UNL     1     186.370 188.098 197.923  1.00  0.00    -0.000 C 
BRANCH  15  16
ATOM     16  C   UNL     1     187.125 188.067 199.257  1.00  0.00    -0.000 C 
BRANCH  16  17
ATOM     17  C   UNL     1     186.964 189.391 200.012  1.00  0.00    -0.003 C 
ATOM     18  C   UNL     1     187.004 189.173 201.522  1.00  0.00     0.004 C 
ENDBRANCH  16  17
ENDBRANCH  15  16
ENDBRANCH  14  15
ENDBRANCH  13  14
ENDBRANCH  12  13
ENDBRANCH  11  12
ENDBRANCH   1  11
TORSDOF 14
ENDMDL
MODEL 3
REMARK VINA RESULT:    -3.701      1.433      2.355
REMARK INTER + INTRA:          -8.999
REMARK INTER:                  -6.959
REMARK INTRA:                  -2.040
REMARK UNBOUND:                -2.269
REMARK SMILES CCCCCCCCCCCCCCCC(=O)[O-]
REMARK SMILES IDX 9 1 10 2 11 3 12 4 13 5 14 6 15 7 16 8 17 9 18 10 8 11 7 12
REMARK SMILES IDX 6 13 5 14 4 15 3 16 2 17 1 18
REMARK H PARENT
REMARK Flexibility Score: inf
ROOT
ATOM      1  C   UNL     1     182.058 184.684 202.124  1.00  0.00     0.000 C 
ENDROOT
BRANCH   1   2
ATOM      2  C   UNL     1     181.514 185.882 201.317  1.00  0.00     0.000 C 
BRANCH   2   3
ATOM      3  C   UNL     1     182.611 186.834 200.809  1.00  0.00     0.000 C 
BRANCH   3   4
ATOM      4  C   UNL     1     182.539 187.070 199.292  1.00  0.00     0.000 C 
BRANCH   4   5
ATOM      5  C   UNL     1     183.440 188.228 198.832  1.00  0.00     0.000 C 
BRANCH   5   6
ATOM      6  C   UNL     1     184.930 187.858 198.840  1.00  0.00     0.006 C 
BRANCH   6   7
ATOM      7  C   UNL     1     185.673 188.602 199.954  1.00  0.00     0.053 C 
BRANCH   7   8
ATOM      8  C   UNL     1     186.558 189.662 199.379  1.00  0.00     0.041 C 
ATOM      9  O   UNL     1     186.237 190.245 198.311  1.00  0.00    -0.550 OA
ATOM     10  O   UNL     1     187.763 189.971 199.998  1.00  0.00    -0.550 OA
ENDBRANCH   7   8
ENDBRANCH   6   7
ENDBRANCH   5   6
ENDBRANCH   4   5
ENDBRANCH   3   4
ENDBRANCH   2   3
ENDBRANCH   1   2
BRANCH   1  11
ATOM     11  C   UNL     1     181.331 183.375 201.781  1.00  0.00     0.000 C 
BRANCH  11  12
ATOM     12  C   UNL     1     182.230 182.159 202.045  1.00  0.00    -0.000 C 
BRANCH  12  13
ATOM     13  C   UNL     1     182.317 181.202 200.842  1.00  0.00    -0.000 C 
BRANCH  13  14
ATOM     14  C   UNL     1     182.573 181.884 199.484  1.00  0.00    -0.000 C 
BRANCH  14  15
ATOM     15  C   UNL     1     184.032 182.325 199.302  1.00  0.00    -0.000 C 
BRANCH  15  16
ATOM     16  C   UNL     1     184.144 183.854 199.262  1.00  0.00    -0.000 C 
BRANCH  16  17
ATOM     17  C   UNL     1     185.379 184.336 200.031  1.00  0.00    -0.003 C 
ATOM     18  C   UNL     1     185.546 183.572 201.342  1.00  0.00     0.004 C 
ENDBRANCH  16  17
ENDBRANCH  15  16
ENDBRANCH  14  15
ENDBRANCH  13  14
ENDBRANCH  12  13
ENDBRANCH  11  12
ENDBRANCH   1  11
TORSDOF 14
ENDMDL
MODEL 4
REMARK VINA RESULT:    -3.695     12.082     15.883
REMARK INTER + INTRA:          -8.989
REMARK INTER:                  -6.882
REMARK INTRA:                  -2.106
REMARK UNBOUND:                -2.269
REMARK SMILES CCCCCCCCCCCCCCCC(=O)[O-]
REMARK SMILES IDX 9 1 10 2 11 3 12 4 13 5 14 6 15 7 16 8 17 9 18 10 8 11 7 12
REMARK SMILES IDX 6 13 5 14 4 15 3 16 2 17 1 18
REMARK H PARENT
REMARK Flexibility Score: inf
ROOT
ATOM      1  C   UNL     1     197.278 193.310 201.104  1.00  0.00     0.000 C 
ENDROOT
BRANCH   1   2
ATOM      2  C   UNL     1     196.180 192.562 201.889  1.00  0.00     0.000 C 
BRANCH   2   3
ATOM      3  C   UNL     1     195.055 192.004 200.999  1.00  0.00     0.000 C 
BRANCH   3   4
ATOM      4  C   UNL     1     195.391 192.074 199.500  1.00  0.00     0.000 C 
BRANCH   4   5
ATOM      5  C   UNL     1     195.201 190.724 198.790  1.00  0.00     0.000 C 
BRANCH   5   6
ATOM      6  C   UNL     1     194.444 189.702 199.652  1.00  0.00     0.006 C 
BRANCH   6   7
ATOM      7  C   UNL     1     193.321 189.036 198.851  1.00  0.00     0.053 C 
BRANCH   7   8
ATOM      8  C   UNL     1     191.983 189.467 199.363  1.00  0.00     0.041 C 
ATOM      9  O   UNL     1     191.093 188.612 199.608  1.00  0.00    -0.550 OA
ATOM     10  O   UNL     1     191.703 190.818 199.522  1.00  0.00    -0.550 OA
ENDBRANCH   7   8
ENDBRANCH   6   7
ENDBRANCH   5   6
ENDBRANCH   4   5
ENDBRANCH   3   4
ENDBRANCH   2   3
ENDBRANCH   1   2
BRANCH   1  11
ATOM     11  C   UNL     1     197.854 194.494 201.896  1.00  0.00     0.000 C 
BRANCH  11  12
ATOM     12  C   UNL     1     198.471 195.539 200.955  1.00  0.00    -0.000 C 
BRANCH  12  13
ATOM     13  C   UNL     1     197.888 196.950 201.157  1.00  0.00    -0.000 C 
BRANCH  13  14
ATOM     14  C   UNL     1     196.692 197.028 202.124  1.00  0.00    -0.000 C 
BRANCH  14  15
ATOM     15  C   UNL     1     195.350 197.213 201.402  1.00  0.00    -0.000 C 
BRANCH  15  16
ATOM     16  C   UNL     1     194.450 195.985 201.589  1.00  0.00    -0.000 C 
BRANCH  16  17
ATOM     17  C   UNL     1     193.966 195.447 200.237  1.00  0.00    -0.003 C 
ATOM     18  C   UNL     1     194.973 195.750 199.131  1.00  0.00     0.004 C 
ENDBRANCH  16  17
ENDBRANCH  15  16
ENDBRANCH  14  15
ENDBRANCH  13  14
ENDBRANCH  12  13
ENDBRANCH  11  12
ENDBRANCH   1  11
TORSDOF 14
ENDMDL
MODEL 5
REMARK VINA RESULT:    -3.677      1.276      3.284
REMARK INTER + INTRA:          -8.955
REMARK INTER:                  -7.008
REMARK INTRA:                  -1.946
REMARK UNBOUND:                -2.269
REMARK SMILES CCCCCCCCCCCCCCCC(=O)[O-]
REMARK SMILES IDX 9 1 10 2 11 3 12 4 13 5 14 6 15 7 16 8 17 9 18 10 8 11 7 12
REMARK SMILES IDX 6 13 5 14 4 15 3 16 2 17 1 18
REMARK H PARENT
REMARK Flexibility Score: inf
ROOT
ATOM      1  C   UNL     1     184.135 185.049 198.723  1.00  0.00     0.000 C 
ENDROOT
BRANCH   1   2
ATOM      2  C   UNL     1     184.015 185.750 200.093  1.00  0.00     0.000 C 
BRANCH   2   3
ATOM      3  C   UNL     1     182.730 186.582 200.252  1.00  0.00     0.000 C 
BRANCH   3   4
ATOM      4  C   UNL     1     182.538 187.604 199.119  1.00  0.00     0.000 C 
BRANCH   4   5
ATOM      5  C   UNL     1     182.659 189.056 199.607  1.00  0.00     0.000 C 
BRANCH   5   6
ATOM      6  C   UNL     1     183.738 189.847 198.853  1.00  0.00     0.006 C 
BRANCH   6   7
ATOM      7  C   UNL     1     184.603 188.916 197.998  1.00  0.00     0.053 C 
BRANCH   7   8
ATOM      8  C   UNL     1     185.880 188.589 198.705  1.00  0.00     0.041 C 
ATOM      9  O   UNL     1     186.751 187.875 198.143  1.00  0.00    -0.550 OA
ATOM     10  O   UNL     1     186.088 189.033 200.005  1.00  0.00    -0.550 OA
ENDBRANCH   7   8
ENDBRANCH   6   7
ENDBRANCH   5   6
ENDBRANCH   4   5
ENDBRANCH   3   4
ENDBRANCH   2   3
ENDBRANCH   1   2
BRANCH   1  11
ATOM     11  C   UNL     1     184.630 183.601 198.854  1.00  0.00     0.000 C 
BRANCH  11  12
ATOM     12  C   UNL     1     184.842 183.223 200.328  1.00  0.00    -0.000 C 
BRANCH  12  13
ATOM     13  C   UNL     1     183.765 182.262 200.864  1.00  0.00    -0.000 C 
BRANCH  13  14
ATOM     14  C   UNL     1     182.548 182.068 199.940  1.00  0.00    -0.000 C 
BRANCH  14  15
ATOM     15  C   UNL     1     181.245 182.612 200.544  1.00  0.00    -0.000 C 
BRANCH  15  16
ATOM     16  C   UNL     1     181.520 183.390 201.837  1.00  0.00    -0.000 C 
BRANCH  16  17
ATOM     17  C   UNL     1     180.399 184.396 202.123  1.00  0.00    -0.003 C 
ATOM     18  C   UNL     1     179.526 184.614 200.890  1.00  0.00     0.004 C 
ENDBRANCH  16  17
ENDBRANCH  15  16
ENDBRANCH  14  15
ENDBRANCH  13  14
ENDBRANCH  12  13
ENDBRANCH  11  12
ENDBRANCH   1  11
TORSDOF 14
ENDMDL
MODEL 6
REMARK VINA RESULT:    -3.657      1.978      4.802
REMARK INTER + INTRA:          -8.920
REMARK INTER:                  -6.852
REMARK INTRA:                  -2.068
REMARK UNBOUND:                -2.269
REMARK SMILES CCCCCCCCCCCCCCCC(=O)[O-]
REMARK SMILES IDX 9 1 10 2 11 3 12 4 13 5 14 6 15 7 16 8 17 9 18 10 8 11 7 12
REMARK SMILES IDX 6 13 5 14 4 15 3 16 2 17 1 18
REMARK H PARENT
REMARK Flexibility Score: inf
ROOT
ATOM      1  C   UNL     1     179.676 186.106 201.070  1.00  0.00     0.000 C 
ENDROOT
BRANCH   1   2
ATOM      2  C   UNL     1     179.591 184.607 201.425  1.00  0.00     0.000 C 
BRANCH   2   3
ATOM      3  C   UNL     1     180.786 183.781 200.916  1.00  0.00     0.000 C 
BRANCH   3   4
ATOM      4  C   UNL     1     181.749 183.370 202.043  1.00  0.00     0.000 C 
BRANCH   4   5
ATOM      5  C   UNL     1     183.134 184.022 201.901  1.00  0.00     0.000 C 
BRANCH   5   6
ATOM      6  C   UNL     1     183.413 184.517 200.474  1.00  0.00     0.006 C 
BRANCH   6   7
ATOM      7  C   UNL     1     184.791 184.053 199.993  1.00  0.00     0.053 C 
BRANCH   7   8
ATOM      8  C   UNL     1     184.712 183.534 198.592  1.00  0.00     0.041 C 
ATOM      9  O   UNL     1     184.987 184.285 197.621  1.00  0.00    -0.550 OA
ATOM     10  O   UNL     1     184.286 182.233 198.358  1.00  0.00    -0.550 OA
ENDBRANCH   7   8
ENDBRANCH   6   7
ENDBRANCH   5   6
ENDBRANCH   4   5
ENDBRANCH   3   4
ENDBRANCH   2   3
ENDBRANCH   1   2
BRANCH   1  11
ATOM     11  C   UNL     1     180.454 186.908 202.124  1.00  0.00     0.000 C 
BRANCH  11  12
ATOM     12  C   UNL     1     181.530 187.785 201.467  1.00  0.00    -0.000 C 
BRANCH  12  13
ATOM     13  C   UNL     1     181.594 187.614 199.938  1.00  0.00    -0.000 C 
BRANCH  13  14
ATOM     14  C   UNL     1     182.688 188.439 199.235  1.00  0.00    -0.000 C 
BRANCH  14  15
ATOM     15  C   UNL     1     183.736 187.567 198.529  1.00  0.00    -0.000 C 
BRANCH  15  16
ATOM     16  C   UNL     1     185.134 188.184 198.646  1.00  0.00    -0.000 C 
BRANCH  16  17
ATOM     17  C   UNL     1     185.848 187.694 199.911  1.00  0.00    -0.003 C 
ATOM     18  C   UNL     1     185.995 188.820 200.932  1.00  0.00     0.004 C 
ENDBRANCH  16  17
ENDBRANCH  15  16
ENDBRANCH  14  15
ENDBRANCH  13  14
ENDBRANCH  12  13
ENDBRANCH  11  12
ENDBRANCH   1  11
TORSDOF 14
ENDMDL
MODEL 7
REMARK VINA RESULT:    -3.620      2.003      3.717
REMARK INTER + INTRA:          -8.852
REMARK INTER:                  -7.215
REMARK INTRA:                  -1.637
REMARK UNBOUND:                -2.269
REMARK SMILES CCCCCCCCCCCCCCCC(=O)[O-]
REMARK SMILES IDX 9 1 10 2 11 3 12 4 13 5 14 6 15 7 16 8 17 9 18 10 8 11 7 12
REMARK SMILES IDX 6 13 5 14 4 15 3 16 2 17 1 18
REMARK H PARENT
REMARK Flexibility Score: inf
ROOT
ATOM      1  C   UNL     1     184.760 185.537 198.524  1.00  0.00     0.000 C 
ENDROOT
BRANCH   1   2
ATOM      2  C   UNL     1     183.792 186.714 198.763  1.00  0.00     0.000 C 
BRANCH   2   3
ATOM      3  C   UNL     1     183.209 186.756 200.187  1.00  0.00     0.000 C 
BRANCH   3   4
ATOM      4  C   UNL     1     181.859 187.488 200.257  1.00  0.00     0.000 C 
BRANCH   4   5
ATOM      5  C   UNL     1     181.540 188.262 198.967  1.00  0.00     0.000 C 
BRANCH   5   6
ATOM      6  C   UNL     1     181.170 189.728 199.232  1.00  0.00     0.006 C 
BRANCH   6   7
ATOM      7  C   UNL     1     182.214 190.404 200.126  1.00  0.00     0.053 C 
BRANCH   7   8
ATOM      8  C   UNL     1     182.562 191.759 199.596  1.00  0.00     0.041 C 
ATOM      9  O   UNL     1     183.356 191.876 198.626  1.00  0.00    -0.550 OA
ATOM     10  O   UNL     1     182.048 192.896 200.205  1.00  0.00    -0.550 OA
ENDBRANCH   7   8
ENDBRANCH   6   7
ENDBRANCH   5   6
ENDBRANCH   4   5
ENDBRANCH   3   4
ENDBRANCH   2   3
ENDBRANCH   1   2
BRANCH   1  11
ATOM     11  C   UNL     1     184.148 184.190 198.935  1.00  0.00     0.000 C 
BRANCH  11  12
ATOM     12  C   UNL     1     185.108 183.400 199.836  1.00  0.00    -0.000 C 
BRANCH  12  13
ATOM     13  C   UNL     1     184.802 183.567 201.336  1.00  0.00    -0.000 C 
BRANCH  13  14
ATOM     14  C   UNL     1     184.487 182.260 202.086  1.00  0.00    -0.000 C 
BRANCH  14  15
ATOM     15  C   UNL     1     183.450 181.389 201.363  1.00  0.00    -0.000 C 
BRANCH  15  16
ATOM     16  C   UNL     1     182.026 181.744 201.808  1.00  0.00    -0.000 C 
BRANCH  16  17
ATOM     17  C   UNL     1     181.275 182.496 200.703  1.00  0.00    -0.003 C 
ATOM     18  C   UNL     1     180.968 183.930 201.124  1.00  0.00     0.004 C 
ENDBRANCH  16  17
ENDBRANCH  15  16
ENDBRANCH  14  15
ENDBRANCH  13  14
ENDBRANCH  12  13
ENDBRANCH  11  12
ENDBRANCH   1  11
TORSDOF 14
ENDMDL
MODEL 8
REMARK VINA RESULT:    -3.608      1.300      2.731
REMARK INTER + INTRA:          -8.829
REMARK INTER:                  -6.714
REMARK INTRA:                  -2.116
REMARK UNBOUND:                -2.269
REMARK SMILES CCCCCCCCCCCCCCCC(=O)[O-]
REMARK SMILES IDX 9 1 10 2 11 3 12 4 13 5 14 6 15 7 16 8 17 9 18 10 8 11 7 12
REMARK SMILES IDX 6 13 5 14 4 15 3 16 2 17 1 18
REMARK H PARENT
REMARK Flexibility Score: inf
ROOT
ATOM      1  C   UNL     1     181.459 184.751 201.849  1.00  0.00     0.000 C 
ENDROOT
BRANCH   1   2
ATOM      2  C   UNL     1     180.379 185.593 201.137  1.00  0.00     0.000 C 
BRANCH   2   3
ATOM      3  C   UNL     1     180.053 186.915 201.854  1.00  0.00     0.000 C 
BRANCH   3   4
ATOM      4  C   UNL     1     180.304 188.149 200.972  1.00  0.00     0.000 C 
BRANCH   4   5
ATOM      5  C   UNL     1     180.460 187.789 199.486  1.00  0.00     0.000 C 
BRANCH   5   6
ATOM      6  C   UNL     1     181.604 188.557 198.807  1.00  0.00     0.006 C 
BRANCH   6   7
ATOM      7  C   UNL     1     182.910 187.758 198.865  1.00  0.00     0.053 C 
BRANCH   7   8
ATOM      8  C   UNL     1     183.877 188.401 199.808  1.00  0.00     0.041 C 
ATOM      9  O   UNL     1     183.668 189.566 200.235  1.00  0.00    -0.550 OA
ATOM     10  O   UNL     1     185.037 187.731 200.176  1.00  0.00    -0.550 OA
ENDBRANCH   7   8
ENDBRANCH   6   7
ENDBRANCH   5   6
ENDBRANCH   4   5
ENDBRANCH   3   4
ENDBRANCH   2   3
ENDBRANCH   1   2
BRANCH   1  11
ATOM     11  C   UNL     1     182.871 185.062 201.330  1.00  0.00     0.000 C 
BRANCH  11  12
ATOM     12  C   UNL     1     183.185 184.249 200.065  1.00  0.00    -0.000 C 
BRANCH  12  13
ATOM     13  C   UNL     1     184.335 183.244 200.265  1.00  0.00    -0.000 C 
BRANCH  13  14
ATOM     14  C   UNL     1     183.904 181.768 200.341  1.00  0.00    -0.000 C 
BRANCH  14  15
ATOM     15  C   UNL     1     183.111 181.440 201.615  1.00  0.00    -0.000 C 
BRANCH  15  16
ATOM     16  C   UNL     1     181.821 180.682 201.280  1.00  0.00    -0.000 C 
BRANCH  16  17
ATOM     17  C   UNL     1     181.374 180.963 199.841  1.00  0.00    -0.003 C 
ATOM     18  C   UNL     1     180.169 181.899 199.810  1.00  0.00     0.004 C 
ENDBRANCH  16  17
ENDBRANCH  15  16
ENDBRANCH  14  15
ENDBRANCH  13  14
ENDBRANCH  12  13
ENDBRANCH  11  12
ENDBRANCH   1  11
TORSDOF 14
ENDMDL
MODEL 9
REMARK VINA RESULT:    -3.593      1.313      1.884
REMARK INTER + INTRA:          -8.803
REMARK INTER:                  -6.937
REMARK INTRA:                  -1.867
REMARK UNBOUND:                -2.269
REMARK SMILES CCCCCCCCCCCCCCCC(=O)[O-]
REMARK SMILES IDX 9 1 10 2 11 3 12 4 13 5 14 6 15 7 16 8 17 9 18 10 8 11 7 12
REMARK SMILES IDX 6 13 5 14 4 15 3 16 2 17 1 18
REMARK H PARENT
REMARK Flexibility Score: inf
ROOT
ATOM      1  C   UNL     1     181.429 183.030 200.983  1.00  0.00     0.000 C 
ENDROOT
BRANCH   1   2
ATOM      2  C   UNL     1     181.188 184.058 202.109  1.00  0.00     0.000 C 
BRANCH   2   3
ATOM      3  C   UNL     1     180.009 185.009 201.837  1.00  0.00     0.000 C 
BRANCH   3   4
ATOM      4  C   UNL     1     180.448 186.474 201.682  1.00  0.00     0.000 C 
BRANCH   4   5
ATOM      5  C   UNL     1     181.181 186.733 200.355  1.00  0.00     0.000 C 
BRANCH   5   6
ATOM      6  C   UNL     1     181.564 188.208 200.168  1.00  0.00     0.006 C 
BRANCH   6   7
ATOM      7  C   UNL     1     182.141 188.450 198.769  1.00  0.00     0.053 C 
BRANCH   7   8
ATOM      8  C   UNL     1     183.211 189.494 198.816  1.00  0.00     0.041 C 
ATOM      9  O   UNL     1     183.816 189.735 199.893  1.00  0.00    -0.550 OA
ATOM     10  O   UNL     1     183.505 190.238 197.680  1.00  0.00    -0.550 OA
ENDBRANCH   7   8
ENDBRANCH   6   7
ENDBRANCH   5   6
ENDBRANCH   4   5
ENDBRANCH   3   4
ENDBRANCH   2   3
ENDBRANCH   1   2
BRANCH   1  11
ATOM     11  C   UNL     1     182.011 181.713 201.516  1.00  0.00     0.000 C 
BRANCH  11  12
ATOM     12  C   UNL     1     183.432 181.482 200.981  1.00  0.00    -0.000 C 
BRANCH  12  13
ATOM     13  C   UNL     1     184.503 182.269 201.759  1.00  0.00    -0.000 C 
BRANCH  13  14
ATOM     14  C   UNL     1     185.244 183.344 200.941  1.00  0.00    -0.000 C 
BRANCH  14  15
ATOM     15  C   UNL     1     184.844 183.350 199.458  1.00  0.00    -0.000 C 
BRANCH  15  16
ATOM     16  C   UNL     1     184.140 184.659 199.083  1.00  0.00    -0.000 C 
BRANCH  16  17
ATOM     17  C   UNL     1     184.675 185.830 199.917  1.00  0.00    -0.003 C 
ATOM     18  C   UNL     1     185.547 186.754 199.072  1.00  0.00     0.004 C 
ENDBRANCH  16  17
ENDBRANCH  15  16
ENDBRANCH  14  15
ENDBRANCH  13  14
ENDBRANCH  12  13
ENDBRANCH  11  12
ENDBRANCH   1  11
TORSDOF 14
ENDMDL
