MODEL 1
REMARK VINA RESULT:    -3.468      0.000      0.000
REMARK INTER + INTRA:          -4.026
REMARK INTER:                  -3.975
REMARK INTRA:                  -0.050
REMARK UNBOUND:                -0.050
REMARK SMILES O=C([O-])c1cc(O)c(O)c(O)c1
REMARK SMILES IDX 4 1 5 2 12 3 6 4 10 5 8 6 2 7 1 8 3 9 7 10 11 12 9 14
REMARK H PARENT 7 11 11 13 9 15
REMARK Flexibility Score: inf
ROOT
ATOM      1  C   UNL     1      10.013  -3.055   9.519  1.00  0.00     0.005 A 
ATOM      2  C   UNL     1      10.295  -2.166  10.570  1.00  0.00     0.060 A 
ATOM      3  C   UNL     1       9.643  -2.535   8.268  1.00  0.00     0.060 A 
ATOM      4  C   UNL     1      10.209  -0.781  10.376  1.00  0.00     0.162 A 
ATOM      5  C   UNL     1       9.555  -1.150   8.068  1.00  0.00     0.162 A 
ATOM      6  C   UNL     1       9.839  -0.271   9.126  1.00  0.00     0.200 A 
ENDROOT
BRANCH   1   7
ATOM      7  C   UNL     1      10.104  -4.518   9.722  1.00  0.00     0.072 C 
ATOM      8  O   UNL     1       9.848  -5.026  10.846  1.00  0.00    -0.545 OA
ATOM      9  O   UNL     1      10.472  -5.354   8.673  1.00  0.00    -0.545 OA
ENDBRANCH   1   7
BRANCH   4  10
ATOM     10  O   UNL     1      10.491   0.096  11.423  1.00  0.00    -0.504 OA
ATOM     11  H   UNL     1      10.050  -0.001  12.330  1.00  0.00     0.293 HD
ENDBRANCH   4  10
BRANCH   5  12
ATOM     12  O   UNL     1       9.185  -0.645   6.822  1.00  0.00    -0.504 OA
ATOM     13  H   UNL     1       9.635  -0.954   5.968  1.00  0.00     0.293 HD
ENDBRANCH   5  12
BRANCH   6  14
ATOM     14  O   UNL     1       9.759   1.112   8.951  1.00  0.00    -0.502 OA
ATOM     15  H   UNL     1       9.106   1.535   8.303  1.00  0.00     0.293 HD
ENDBRANCH   6  14
TORSDOF 4
ENDMDL
MODEL 2
REMARK VINA RESULT:    -3.404     11.819     12.555
REMARK INTER + INTRA:          -3.952
REMARK INTER:                  -3.901
REMARK INTRA:                  -0.051
REMARK UNBOUND:                -0.050
REMARK SMILES O=C([O-])c1cc(O)c(O)c(O)c1
REMARK SMILES IDX 4 1 5 2 12 3 6 4 10 5 8 6 2 7 1 8 3 9 7 10 11 12 9 14
REMARK H PARENT 7 11 11 13 9 15
REMARK Flexibility Score: inf
ROOT
ATOM      1  C   UNL     1      -2.417  -0.854   7.975  1.00  0.00     0.005 A 
ATOM      2  C   UNL     1      -1.570   0.264   8.056  1.00  0.00     0.060 A 
ATOM      3  C   UNL     1      -2.815  -1.495   9.160  1.00  0.00     0.060 A 
ATOM      4  C   UNL     1      -1.127   0.735   9.299  1.00  0.00     0.162 A 
ATOM      5  C   UNL     1      -2.375  -1.027  10.407  1.00  0.00     0.162 A 
ATOM      6  C   UNL     1      -1.528   0.091  10.476  1.00  0.00     0.200 A 
ENDROOT
BRANCH   1   7
ATOM      7  C   UNL     1      -2.886  -1.353   6.663  1.00  0.00     0.072 C 
ATOM      8  O   UNL     1      -3.970  -1.989   6.571  1.00  0.00    -0.545 OA
ATOM      9  O   UNL     1      -2.138  -1.128   5.514  1.00  0.00    -0.545 OA
ENDBRANCH   1   7
BRANCH   4  10
ATOM     10  O   UNL     1      -0.286   1.846   9.373  1.00  0.00    -0.504 OA
ATOM     11  H   UNL     1       0.685   1.758   9.647  1.00  0.00     0.293 HD
ENDBRANCH   4  10
BRANCH   5  12
ATOM     12  O   UNL     1      -2.776  -1.672  11.577  1.00  0.00    -0.504 OA
ATOM     13  H   UNL     1      -3.045  -1.153  12.404  1.00  0.00     0.293 HD
ENDBRANCH   5  12
BRANCH   6  14
ATOM     14  O   UNL     1      -1.077   0.575  11.705  1.00  0.00    -0.502 OA
ATOM     15  H   UNL     1      -1.711   0.932  12.408  1.00  0.00     0.293 HD
ENDBRANCH   6  14
TORSDOF 4
ENDMDL
MODEL 3
REMARK VINA RESULT:    -3.340     11.810     12.467
REMARK INTER + INTRA:          -3.878
REMARK INTER:                  -3.832
REMARK INTRA:                  -0.046
REMARK UNBOUND:                -0.050
REMARK SMILES O=C([O-])c1cc(O)c(O)c(O)c1
REMARK SMILES IDX 4 1 5 2 12 3 6 4 10 5 8 6 2 7 1 8 3 9 7 10 11 12 9 14
REMARK H PARENT 7 11 11 13 9 15
REMARK Flexibility Score: inf
ROOT
ATOM      1  C   UNL     1      -2.376  -1.113   7.963  1.00  0.00     0.005 A 
ATOM      2  C   UNL     1      -2.786  -1.698   9.173  1.00  0.00     0.060 A 
ATOM      3  C   UNL     1      -1.562   0.031   8.001  1.00  0.00     0.060 A 
ATOM      4  C   UNL     1      -2.391  -1.150  10.401  1.00  0.00     0.162 A 
ATOM      5  C   UNL     1      -1.164   0.584   9.227  1.00  0.00     0.162 A 
ATOM      6  C   UNL     1      -1.580  -0.009  10.430  1.00  0.00     0.200 A 
ENDROOT
BRANCH   1   7
ATOM      7  C   UNL     1      -2.791  -1.691   6.665  1.00  0.00     0.072 C 
ATOM      8  O   UNL     1      -3.583  -1.066   5.911  1.00  0.00    -0.545 OA
ATOM      9  O   UNL     1      -2.311  -2.931   6.259  1.00  0.00    -0.545 OA
ENDBRANCH   1   7
BRANCH   4  10
ATOM     10  O   UNL     1      -2.802  -1.735  11.598  1.00  0.00    -0.504 OA
ATOM     11  H   UNL     1      -2.262  -2.467  12.044  1.00  0.00     0.293 HD
ENDBRANCH   4  10
BRANCH   5  12
ATOM     12  O   UNL     1      -0.357   1.721   9.252  1.00  0.00    -0.504 OA
ATOM     13  H   UNL     1      -0.595   2.529   9.816  1.00  0.00     0.293 HD
ENDBRANCH   5  12
BRANCH   6  14
ATOM     14  O   UNL     1      -1.197   0.524  11.662  1.00  0.00    -0.502 OA
ATOM     15  H   UNL     1      -1.341   0.025  12.532  1.00  0.00     0.293 HD
ENDBRANCH   6  14
TORSDOF 4
ENDMDL
MODEL 4
REMARK VINA RESULT:    -3.153     12.563     13.112
REMARK INTER + INTRA:          -3.664
REMARK INTER:                  -3.614
REMARK INTRA:                  -0.050
REMARK UNBOUND:                -0.050
REMARK SMILES O=C([O-])c1cc(O)c(O)c(O)c1
REMARK SMILES IDX 4 1 5 2 12 3 6 4 10 5 8 6 2 7 1 8 3 9 7 10 11 12 9 14
REMARK H PARENT 7 11 11 13 9 15
REMARK Flexibility Score: inf
ROOT
ATOM      1  C   UNL     1      -3.492  -1.293  10.268  1.00  0.00     0.005 A 
ATOM      2  C   UNL     1      -3.164  -1.073   8.920  1.00  0.00     0.060 A 
ATOM      3  C   UNL     1      -2.733  -0.659  11.267  1.00  0.00     0.060 A 
ATOM      4  C   UNL     1      -2.097  -0.235   8.572  1.00  0.00     0.162 A 
ATOM      5  C   UNL     1      -1.663   0.181  10.924  1.00  0.00     0.162 A 
ATOM      6  C   UNL     1      -1.345   0.393   9.573  1.00  0.00     0.200 A 
ENDROOT
BRANCH   1   7
ATOM      7  C   UNL     1      -4.619  -2.178  10.638  1.00  0.00     0.072 C 
ATOM      8  O   UNL     1      -4.565  -2.882  11.681  1.00  0.00    -0.545 OA
ATOM      9  O   UNL     1      -5.755  -2.244   9.839  1.00  0.00    -0.545 OA
ENDBRANCH   1   7
BRANCH   4  10
ATOM     10  O   UNL     1      -1.776  -0.021   7.232  1.00  0.00    -0.504 OA
ATOM     11  H   UNL     1      -1.347   0.842   6.920  1.00  0.00     0.293 HD
ENDBRANCH   4  10
BRANCH   5  12
ATOM     12  O   UNL     1      -0.916   0.804  11.923  1.00  0.00    -0.504 OA
ATOM     13  H   UNL     1      -1.015   0.548  12.899  1.00  0.00     0.293 HD
ENDBRANCH   5  12
BRANCH   6  14
ATOM     14  O   UNL     1      -0.285   1.225   9.208  1.00  0.00    -0.502 OA
ATOM     15  H   UNL     1       0.474   0.903   8.621  1.00  0.00     0.293 HD
ENDBRANCH   6  14
TORSDOF 4
ENDMDL
MODEL 5
REMARK VINA RESULT:    -3.150     12.421     12.745
REMARK INTER + INTRA:          -3.661
REMARK INTER:                  -3.613
REMARK INTRA:                  -0.048
REMARK UNBOUND:                -0.050
REMARK SMILES O=C([O-])c1cc(O)c(O)c(O)c1
REMARK SMILES IDX 4 1 5 2 12 3 6 4 10 5 8 6 2 7 1 8 3 9 7 10 11 12 9 14
REMARK H PARENT 7 11 11 13 9 15
REMARK Flexibility Score: inf
ROOT
ATOM      1  C   UNL     1      -3.291  -1.132  10.494  1.00  0.00     0.005 A 
ATOM      2  C   UNL     1      -2.576  -0.340  11.408  1.00  0.00     0.060 A 
ATOM      3  C   UNL     1      -2.959  -1.067   9.130  1.00  0.00     0.060 A 
ATOM      4  C   UNL     1      -1.547   0.504  10.968  1.00  0.00     0.162 A 
ATOM      5  C   UNL     1      -1.931  -0.223   8.685  1.00  0.00     0.162 A 
ATOM      6  C   UNL     1      -1.223   0.564   9.608  1.00  0.00     0.200 A 
ENDROOT
BRANCH   1   7
ATOM      7  C   UNL     1      -4.377  -2.025  10.955  1.00  0.00     0.072 C 
ATOM      8  O   UNL     1      -4.199  -2.797  11.935  1.00  0.00    -0.545 OA
ATOM      9  O   UNL     1      -5.611  -2.024  10.314  1.00  0.00    -0.545 OA
ENDBRANCH   1   7
BRANCH   4  10
ATOM     10  O   UNL     1      -0.841   1.288  11.881  1.00  0.00    -0.504 OA
ATOM     11  H   UNL     1      -0.736   1.011  12.850  1.00  0.00     0.293 HD
ENDBRANCH   4  10
BRANCH   5  12
ATOM     12  O   UNL     1      -1.611  -0.166   7.329  1.00  0.00    -0.504 OA
ATOM     13  H   UNL     1      -1.257  -0.974   6.831  1.00  0.00     0.293 HD
ENDBRANCH   5  12
BRANCH   6  14
ATOM     14  O   UNL     1      -0.195   1.411   9.189  1.00  0.00    -0.502 OA
ATOM     15  H   UNL     1       0.301   2.014   9.833  1.00  0.00     0.293 HD
ENDBRANCH   6  14
TORSDOF 4
ENDMDL
MODEL 6
REMARK VINA RESULT:    -3.127     15.968     16.546
REMARK INTER + INTRA:          -3.634
REMARK INTER:                  -3.582
REMARK INTRA:                  -0.053
REMARK UNBOUND:                -0.050
REMARK SMILES O=C([O-])c1cc(O)c(O)c(O)c1
REMARK SMILES IDX 4 1 5 2 12 3 6 4 10 5 8 6 2 7 1 8 3 9 7 10 11 12 9 14
REMARK H PARENT 7 11 11 13 9 15
REMARK Flexibility Score: inf
ROOT
ATOM      1  C   UNL     1      -5.056  -1.473  11.764  1.00  0.00     0.005 A 
ATOM      2  C   UNL     1      -4.949  -2.640  10.990  1.00  0.00     0.060 A 
ATOM      3  C   UNL     1      -6.233  -1.246  12.496  1.00  0.00     0.060 A 
ATOM      4  C   UNL     1      -6.000  -3.567  10.947  1.00  0.00     0.162 A 
ATOM      5  C   UNL     1      -7.288  -2.170  12.456  1.00  0.00     0.162 A 
ATOM      6  C   UNL     1      -7.170  -3.334  11.680  1.00  0.00     0.200 A 
ENDROOT
BRANCH   1   7
ATOM      7  C   UNL     1      -3.948  -0.493  11.811  1.00  0.00     0.072 C 
ATOM      8  O   UNL     1      -2.822  -0.776  11.322  1.00  0.00    -0.545 OA
ATOM      9  O   UNL     1      -4.134   0.754  12.396  1.00  0.00    -0.545 OA
ENDBRANCH   1   7
BRANCH   4  10
ATOM     10  O   UNL     1      -5.887  -4.724  10.177  1.00  0.00    -0.504 OA
ATOM     11  H   UNL     1      -5.083  -5.336  10.252  1.00  0.00     0.293 HD
ENDBRANCH   4  10
BRANCH   5  12
ATOM     12  O   UNL     1      -8.452  -1.933  13.186  1.00  0.00    -0.504 OA
ATOM     13  H   UNL     1      -8.480  -2.042  14.194  1.00  0.00     0.293 HD
ENDBRANCH   5  12
BRANCH   6  14
ATOM     14  O   UNL     1      -8.206  -4.268  11.624  1.00  0.00    -0.502 OA
ATOM     15  H   UNL     1      -8.542  -4.647  10.748  1.00  0.00     0.293 HD
ENDBRANCH   6  14
TORSDOF 4
ENDMDL
MODEL 7
REMARK VINA RESULT:    -3.068      9.056      9.315
REMARK INTER + INTRA:          -3.566
REMARK INTER:                  -3.517
REMARK INTRA:                  -0.050
REMARK UNBOUND:                -0.050
REMARK SMILES O=C([O-])c1cc(O)c(O)c(O)c1
REMARK SMILES IDX 4 1 5 2 12 3 6 4 10 5 8 6 2 7 1 8 3 9 7 10 11 12 9 14
REMARK H PARENT 7 11 11 13 9 15
REMARK Flexibility Score: inf
ROOT
ATOM      1  C   UNL     1       9.014  -5.058   0.915  1.00  0.00     0.005 A 
ATOM      2  C   UNL     1       9.740  -3.946   0.456  1.00  0.00     0.060 A 
ATOM      3  C   UNL     1       7.616  -4.965   1.015  1.00  0.00     0.060 A 
ATOM      4  C   UNL     1       9.082  -2.760   0.104  1.00  0.00     0.162 A 
ATOM      5  C   UNL     1       6.952  -3.781   0.664  1.00  0.00     0.162 A 
ATOM      6  C   UNL     1       7.688  -2.675   0.207  1.00  0.00     0.200 A 
ENDROOT
BRANCH   1   7
ATOM      7  C   UNL     1       9.707  -6.312   1.287  1.00  0.00     0.072 C 
ATOM      8  O   UNL     1      10.729  -6.690   0.655  1.00  0.00    -0.545 OA
ATOM      9  O   UNL     1       9.239  -7.091   2.339  1.00  0.00    -0.545 OA
ENDBRANCH   1   7
BRANCH   4  10
ATOM     10  O   UNL     1       9.808  -1.660  -0.350  1.00  0.00    -0.504 OA
ATOM     11  H   UNL     1       9.351  -0.860  -0.772  1.00  0.00     0.293 HD
ENDBRANCH   4  10
BRANCH   5  12
ATOM     12  O   UNL     1       5.564  -3.699   0.770  1.00  0.00    -0.504 OA
ATOM     13  H   UNL     1       5.065  -4.111   1.550  1.00  0.00     0.293 HD
ENDBRANCH   5  12
BRANCH   6  14
ATOM     14  O   UNL     1       7.049  -1.486  -0.147  1.00  0.00    -0.502 OA
ATOM     15  H   UNL     1       7.555  -0.616  -0.258  1.00  0.00     0.293 HD
ENDBRANCH   6  14
TORSDOF 4
ENDMDL
MODEL 8
REMARK VINA RESULT:    -3.024     13.532     13.829
REMARK INTER + INTRA:          -3.516
REMARK INTER:                  -3.467
REMARK INTRA:                  -0.049
REMARK UNBOUND:                -0.050
REMARK SMILES O=C([O-])c1cc(O)c(O)c(O)c1
REMARK SMILES IDX 4 1 5 2 12 3 6 4 10 5 8 6 2 7 1 8 3 9 7 10 11 12 9 14
REMARK H PARENT 7 11 11 13 9 15
REMARK Flexibility Score: inf
ROOT
ATOM      1  C   UNL     1      -4.478  -2.284  10.111  1.00  0.00     0.005 A 
ATOM      2  C   UNL     1      -3.624  -1.625  11.011  1.00  0.00     0.060 A 
ATOM      3  C   UNL     1      -4.278  -2.112   8.731  1.00  0.00     0.060 A 
ATOM      4  C   UNL     1      -2.587  -0.807  10.542  1.00  0.00     0.162 A 
ATOM      5  C   UNL     1      -3.242  -1.295   8.257  1.00  0.00     0.162 A 
ATOM      6  C   UNL     1      -2.395  -0.641   9.165  1.00  0.00     0.200 A 
ENDROOT
BRANCH   1   7
ATOM      7  C   UNL     1      -5.574  -3.149  10.604  1.00  0.00     0.072 C 
ATOM      8  O   UNL     1      -5.794  -4.269  10.071  1.00  0.00    -0.545 OA
ATOM      9  O   UNL     1      -6.375  -2.738  11.663  1.00  0.00    -0.545 OA
ENDBRANCH   1   7
BRANCH   4  10
ATOM     10  O   UNL     1      -1.743  -0.156  11.440  1.00  0.00    -0.504 OA
ATOM     11  H   UNL     1      -0.997  -0.646  11.919  1.00  0.00     0.293 HD
ENDBRANCH   4  10
BRANCH   5  12
ATOM     12  O   UNL     1      -3.054  -1.130   6.885  1.00  0.00    -0.504 OA
ATOM     13  H   UNL     1      -3.595  -1.655   6.207  1.00  0.00     0.293 HD
ENDBRANCH   5  12
BRANCH   6  14
ATOM     14  O   UNL     1      -1.357   0.178   8.717  1.00  0.00    -0.502 OA
ATOM     15  H   UNL     1      -0.387  -0.106   8.767  1.00  0.00     0.293 HD
ENDBRANCH   6  14
TORSDOF 4
ENDMDL
MODEL 9
REMARK VINA RESULT:    -2.976     14.766     15.267
REMARK INTER + INTRA:          -3.462
REMARK INTER:                  -3.412
REMARK INTRA:                  -0.050
REMARK UNBOUND:                -0.050
REMARK SMILES O=C([O-])c1cc(O)c(O)c(O)c1
REMARK SMILES IDX 4 1 5 2 12 3 6 4 10 5 8 6 2 7 1 8 3 9 7 10 11 12 9 14
REMARK H PARENT 7 11 11 13 9 15
REMARK Flexibility Score: inf
ROOT
ATOM      1  C   UNL     1      -5.753  -2.761  10.577  1.00  0.00     0.005 A 
ATOM      2  C   UNL     1      -5.633  -2.851   9.180  1.00  0.00     0.060 A 
ATOM      3  C   UNL     1      -4.686  -2.226  11.320  1.00  0.00     0.060 A 
ATOM      4  C   UNL     1      -4.468  -2.415   8.534  1.00  0.00     0.162 A 
ATOM      5  C   UNL     1      -3.518  -1.789  10.678  1.00  0.00     0.162 A 
ATOM      6  C   UNL     1      -3.409  -1.884   9.282  1.00  0.00     0.200 A 
ENDROOT
BRANCH   1   7
ATOM      7  C   UNL     1      -6.982  -3.220  11.262  1.00  0.00     0.072 C 
ATOM      8  O   UNL     1      -7.609  -4.228  10.842  1.00  0.00    -0.545 OA
ATOM      9  O   UNL     1      -7.461  -2.545  12.378  1.00  0.00    -0.545 OA
ENDBRANCH   1   7
BRANCH   4  10
ATOM     10  O   UNL     1      -4.355  -2.507   7.147  1.00  0.00    -0.504 OA
ATOM     11  H   UNL     1      -5.048  -2.991   6.589  1.00  0.00     0.293 HD
ENDBRANCH   4  10
BRANCH   5  12
ATOM     12  O   UNL     1      -2.466  -1.262  11.426  1.00  0.00    -0.504 OA
ATOM     13  H   UNL     1      -2.605  -0.911  12.366  1.00  0.00     0.293 HD
ENDBRANCH   5  12
BRANCH   6  14
ATOM     14  O   UNL     1      -2.257  -1.455   8.621  1.00  0.00    -0.502 OA
ATOM     15  H   UNL     1      -1.504  -2.090   8.386  1.00  0.00     0.293 HD
ENDBRANCH   6  14
TORSDOF 4
ENDMDL
