MODEL 1
REMARK VINA RESULT:    -2.658      0.000      0.000
REMARK INTER + INTRA:          -2.991
REMARK INTER:                  -2.813
REMARK INTRA:                  -0.178
REMARK UNBOUND:                -0.178
REMARK SMILES CC(C)[C@H]1CC[C@@H](C)CC1=O
REMARK SMILES IDX 8 1 7 2 6 3 5 4 4 5 10 6 11 7 9 8 2 9 1 10 3 11
REMARK H PARENT
REMARK Flexibility Score: inf
ROOT
ATOM      1  C   UNL     1     133.175 144.923 141.010  1.00  0.00     0.008 C 
ATOM      2  C   UNL     1     133.302 145.438 139.567  1.00  0.00    -0.007 C 
ATOM      3  C   UNL     1     132.666 146.836 139.391  1.00  0.00     0.004 C 
ATOM      4  C   UNL     1     131.131 146.799 139.485  1.00  0.00     0.012 C 
ATOM      5  C   UNL     1     130.519 145.822 138.457  1.00  0.00     0.058 C 
ATOM      6  C   UNL     1     131.210 144.472 138.562  1.00  0.00     0.136 C 
ATOM      7  O   UNL     1     130.585 143.423 138.557  1.00  0.00    -0.299 OA
ATOM      8  C   UNL     1     132.715 144.434 138.558  1.00  0.00     0.079 C 
ENDROOT
BRANCH   5   9
ATOM      9  C   UNL     1     128.958 145.801 138.541  1.00  0.00    -0.007 C 
ATOM     10  C   UNL     1     128.450 146.269 139.914  1.00  0.00     0.008 C 
ATOM     11  C   UNL     1     128.249 146.571 137.412  1.00  0.00     0.008 C 
ENDBRANCH   5   9
TORSDOF 1
ENDMDL
MODEL 2
REMARK VINA RESULT:    -2.555     15.560     17.498
REMARK INTER + INTRA:          -2.883
REMARK INTER:                  -2.703
REMARK INTRA:                  -0.179
REMARK UNBOUND:                -0.178
REMARK SMILES CC(C)[C@H]1CC[C@@H](C)CC1=O
REMARK SMILES IDX 8 1 7 2 6 3 5 4 4 5 10 6 11 7 9 8 2 9 1 10 3 11
REMARK H PARENT
REMARK Flexibility Score: inf
ROOT
ATOM      1  C   UNL     1     148.076 134.963 137.791  1.00  0.00     0.008 C 
ATOM      2  C   UNL     1     147.247 135.297 139.041  1.00  0.00    -0.007 C 
ATOM      3  C   UNL     1     145.728 135.174 138.782  1.00  0.00     0.004 C 
ATOM      4  C   UNL     1     145.200 136.282 137.856  1.00  0.00     0.012 C 
ATOM      5  C   UNL     1     145.514 137.690 138.410  1.00  0.00     0.058 C 
ATOM      6  C   UNL     1     146.992 137.781 138.758  1.00  0.00     0.136 C 
ATOM      7  O   UNL     1     147.668 138.753 138.456  1.00  0.00    -0.299 OA
ATOM      8  C   UNL     1     147.602 136.690 139.595  1.00  0.00     0.079 C 
ENDROOT
BRANCH   5   9
ATOM      9  C   UNL     1     144.959 138.814 137.478  1.00  0.00    -0.007 C 
ATOM     10  C   UNL     1     144.800 138.332 136.027  1.00  0.00     0.008 C 
ATOM     11  C   UNL     1     143.656 139.468 137.975  1.00  0.00     0.008 C 
ENDBRANCH   5   9
TORSDOF 1
ENDMDL
MODEL 3
REMARK VINA RESULT:    -2.550      7.978     10.307
REMARK INTER + INTRA:          -2.877
REMARK INTER:                  -2.730
REMARK INTRA:                  -0.147
REMARK UNBOUND:                -0.178
REMARK SMILES CC(C)[C@H]1CC[C@@H](C)CC1=O
REMARK SMILES IDX 8 1 7 2 6 3 5 4 4 5 10 6 11 7 9 8 2 9 1 10 3 11
REMARK H PARENT
REMARK Flexibility Score: inf
ROOT
ATOM      1  C   UNL     1     137.277 142.929 135.899  1.00  0.00     0.008 C 
ATOM      2  C   UNL     1     138.304 143.647 135.010  1.00  0.00    -0.007 C 
ATOM      3  C   UNL     1     139.629 142.859 134.900  1.00  0.00     0.004 C 
ATOM      4  C   UNL     1     140.425 142.862 136.216  1.00  0.00     0.012 C 
ATOM      5  C   UNL     1     140.720 144.299 136.703  1.00  0.00     0.058 C 
ATOM      6  C   UNL     1     139.432 145.105 136.719  1.00  0.00     0.136 C 
ATOM      7  O   UNL     1     139.136 145.833 137.655  1.00  0.00    -0.299 OA
ATOM      8  C   UNL     1     138.557 145.087 135.494  1.00  0.00     0.079 C 
ENDROOT
BRANCH   5   9
ATOM      9  C   UNL     1     141.546 144.300 138.030  1.00  0.00    -0.007 C 
ATOM     10  C   UNL     1     142.190 142.932 138.307  1.00  0.00     0.008 C 
ATOM     11  C   UNL     1     142.598 145.420 138.124  1.00  0.00     0.008 C 
ENDBRANCH   5   9
TORSDOF 1
ENDMDL
MODEL 4
REMARK VINA RESULT:    -2.544     10.742     11.962
REMARK INTER + INTRA:          -2.871
REMARK INTER:                  -2.714
REMARK INTRA:                  -0.157
REMARK UNBOUND:                -0.178
REMARK SMILES CC(C)[C@H]1CC[C@@H](C)CC1=O
REMARK SMILES IDX 8 1 7 2 6 3 5 4 4 5 10 6 11 7 9 8 2 9 1 10 3 11
REMARK H PARENT
REMARK Flexibility Score: inf
ROOT
ATOM      1  C   UNL     1     134.656 133.339 136.561  1.00  0.00     0.008 C 
ATOM      2  C   UNL     1     133.497 133.437 135.556  1.00  0.00    -0.007 C 
ATOM      3  C   UNL     1     132.882 134.854 135.513  1.00  0.00     0.004 C 
ATOM      4  C   UNL     1     132.102 135.195 136.794  1.00  0.00     0.012 C 
ATOM      5  C   UNL     1     130.990 134.161 137.079  1.00  0.00     0.058 C 
ATOM      6  C   UNL     1     131.573 132.758 137.025  1.00  0.00     0.136 C 
ATOM      7  O   UNL     1     131.303 131.913 137.865  1.00  0.00    -0.299 OA
ATOM      8  C   UNL     1     132.417 132.375 135.839  1.00  0.00     0.079 C 
ENDROOT
BRANCH   5   9
ATOM      9  C   UNL     1     130.185 134.520 138.370  1.00  0.00    -0.007 C 
ATOM     10  C   UNL     1     130.500 135.940 138.866  1.00  0.00     0.008 C 
ATOM     11  C   UNL     1     128.664 134.314 138.250  1.00  0.00     0.008 C 
ENDBRANCH   5   9
TORSDOF 1
ENDMDL
MODEL 5
REMARK VINA RESULT:    -2.538     11.121     12.718
REMARK INTER + INTRA:          -2.865
REMARK INTER:                  -2.684
REMARK INTRA:                  -0.181
REMARK UNBOUND:                -0.178
REMARK SMILES CC(C)[C@H]1CC[C@@H](C)CC1=O
REMARK SMILES IDX 8 1 7 2 6 3 5 4 4 5 10 6 11 7 9 8 2 9 1 10 3 11
REMARK H PARENT
REMARK Flexibility Score: inf
ROOT
ATOM      1  C   UNL     1     127.875 134.143 137.874  1.00  0.00     0.008 C 
ATOM      2  C   UNL     1     128.811 134.350 139.075  1.00  0.00    -0.007 C 
ATOM      3  C   UNL     1     129.965 135.326 138.752  1.00  0.00     0.004 C 
ATOM      4  C   UNL     1     130.985 134.726 137.770  1.00  0.00     0.012 C 
ATOM      5  C   UNL     1     131.569 133.395 138.294  1.00  0.00     0.058 C 
ATOM      6  C   UNL     1     130.436 132.468 138.705  1.00  0.00     0.136 C 
ATOM      7  O   UNL     1     130.429 131.284 138.405  1.00  0.00    -0.299 OA
ATOM      8  C   UNL     1     129.355 133.008 139.602  1.00  0.00     0.079 C 
ENDROOT
BRANCH   5   9
ATOM      9  C   UNL     1     132.620 132.797 137.304  1.00  0.00    -0.007 C 
ATOM     10  C   UNL     1     132.358 133.234 135.854  1.00  0.00     0.008 C 
ATOM     11  C   UNL     1     134.086 133.064 137.692  1.00  0.00     0.008 C 
ENDBRANCH   5   9
TORSDOF 1
ENDMDL
MODEL 6
REMARK VINA RESULT:    -2.538      2.305      4.158
REMARK INTER + INTRA:          -2.864
REMARK INTER:                  -2.684
REMARK INTRA:                  -0.180
REMARK UNBOUND:                -0.178
REMARK SMILES CC(C)[C@H]1CC[C@@H](C)CC1=O
REMARK SMILES IDX 8 1 7 2 6 3 5 4 4 5 10 6 11 7 9 8 2 9 1 10 3 11
REMARK H PARENT
REMARK Flexibility Score: inf
ROOT
ATOM      1  C   UNL     1     130.894 146.253 137.452  1.00  0.00     0.008 C 
ATOM      2  C   UNL     1     131.303 145.687 138.822  1.00  0.00    -0.007 C 
ATOM      3  C   UNL     1     132.569 144.805 138.733  1.00  0.00     0.004 C 
ATOM      4  C   UNL     1     132.307 143.474 138.006  1.00  0.00     0.012 C 
ATOM      5  C   UNL     1     131.167 142.673 138.674  1.00  0.00     0.058 C 
ATOM      6  C   UNL     1     129.951 143.568 138.853  1.00  0.00     0.136 C 
ATOM      7  O   UNL     1     128.822 143.186 138.585  1.00  0.00    -0.299 OA
ATOM      8  C   UNL     1     130.142 144.922 139.483  1.00  0.00     0.079 C 
ENDROOT
BRANCH   5   9
ATOM      9  C   UNL     1     130.916 141.312 137.948  1.00  0.00    -0.007 C 
ATOM     10  C   UNL     1     131.346 141.361 136.473  1.00  0.00     0.008 C 
ATOM     11  C   UNL     1     131.535 140.091 138.651  1.00  0.00     0.008 C 
ENDBRANCH   5   9
TORSDOF 1
ENDMDL
MODEL 7
REMARK VINA RESULT:    -2.535      8.480     10.424
REMARK INTER + INTRA:          -2.862
REMARK INTER:                  -2.686
REMARK INTRA:                  -0.176
REMARK UNBOUND:                -0.178
REMARK SMILES CC(C)[C@H]1CC[C@@H](C)CC1=O
REMARK SMILES IDX 8 1 7 2 6 3 5 4 4 5 10 6 11 7 9 8 2 9 1 10 3 11
REMARK H PARENT
REMARK Flexibility Score: inf
ROOT
ATOM      1  C   UNL     1     143.727 146.948 137.517  1.00  0.00     0.008 C 
ATOM      2  C   UNL     1     143.299 146.329 138.858  1.00  0.00    -0.007 C 
ATOM      3  C   UNL     1     142.885 144.847 138.708  1.00  0.00     0.004 C 
ATOM      4  C   UNL     1     141.559 144.682 137.947  1.00  0.00     0.012 C 
ATOM      5  C   UNL     1     140.412 145.470 138.618  1.00  0.00     0.058 C 
ATOM      6  C   UNL     1     140.852 146.906 138.856  1.00  0.00     0.136 C 
ATOM      7  O   UNL     1     140.125 147.855 138.606  1.00  0.00    -0.299 OA
ATOM      8  C   UNL     1     142.179 147.150 139.524  1.00  0.00     0.079 C 
ENDROOT
BRANCH   5   9
ATOM      9  C   UNL     1     139.061 145.285 137.856  1.00  0.00    -0.007 C 
ATOM     10  C   UNL     1     139.277 144.805 136.412  1.00  0.00     0.008 C 
ATOM     11  C   UNL     1     138.041 144.385 138.577  1.00  0.00     0.008 C 
ENDBRANCH   5   9
TORSDOF 1
ENDMDL
MODEL 8
REMARK VINA RESULT:    -2.515      1.994      4.076
REMARK INTER + INTRA:          -2.840
REMARK INTER:                  -2.663
REMARK INTRA:                  -0.177
REMARK UNBOUND:                -0.178
REMARK SMILES CC(C)[C@H]1CC[C@@H](C)CC1=O
REMARK SMILES IDX 8 1 7 2 6 3 5 4 4 5 10 6 11 7 9 8 2 9 1 10 3 11
REMARK H PARENT
REMARK Flexibility Score: inf
ROOT
ATOM      1  C   UNL     1     130.678 146.666 140.549  1.00  0.00     0.008 C 
ATOM      2  C   UNL     1     131.553 147.010 139.333  1.00  0.00    -0.007 C 
ATOM      3  C   UNL     1     131.185 146.164 138.093  1.00  0.00     0.004 C 
ATOM      4  C   UNL     1     131.586 144.687 138.251  1.00  0.00     0.012 C 
ATOM      5  C   UNL     1     133.093 144.532 138.550  1.00  0.00     0.058 C 
ATOM      6  C   UNL     1     133.479 145.439 139.708  1.00  0.00     0.136 C 
ATOM      7  O   UNL     1     134.196 145.054 140.619  1.00  0.00    -0.299 OA
ATOM      8  C   UNL     1     133.052 146.881 139.665  1.00  0.00     0.079 C 
ENDROOT
BRANCH   5   9
ATOM      9  C   UNL     1     133.502 143.030 138.690  1.00  0.00    -0.007 C 
ATOM     10  C   UNL     1     132.299 142.137 139.030  1.00  0.00     0.008 C 
ATOM     11  C   UNL     1     134.271 142.464 137.482  1.00  0.00     0.008 C 
ENDBRANCH   5   9
TORSDOF 1
ENDMDL
MODEL 9
REMARK VINA RESULT:    -2.493     10.421     12.380
REMARK INTER + INTRA:          -2.818
REMARK INTER:                  -2.656
REMARK INTRA:                  -0.161
REMARK UNBOUND:                -0.178
REMARK SMILES CC(C)[C@H]1CC[C@@H](C)CC1=O
REMARK SMILES IDX 8 1 7 2 6 3 5 4 4 5 10 6 11 7 9 8 2 9 1 10 3 11
REMARK H PARENT
REMARK Flexibility Score: inf
ROOT
ATOM      1  C   UNL     1     144.144 147.249 140.642  1.00  0.00     0.008 C 
ATOM      2  C   UNL     1     144.762 146.549 139.421  1.00  0.00    -0.007 C 
ATOM      3  C   UNL     1     143.847 146.634 138.177  1.00  0.00     0.004 C 
ATOM      4  C   UNL     1     142.582 145.771 138.319  1.00  0.00     0.012 C 
ATOM      5  C   UNL     1     142.927 144.292 138.603  1.00  0.00     0.058 C 
ATOM      6  C   UNL     1     143.905 144.211 139.765  1.00  0.00     0.136 C 
ATOM      7  O   UNL     1     143.772 143.397 140.666  1.00  0.00    -0.299 OA
ATOM      8  C   UNL     1     145.129 145.087 139.737  1.00  0.00     0.079 C 
ENDROOT
BRANCH   5   9
ATOM      9  C   UNL     1     141.642 143.413 138.726  1.00  0.00    -0.007 C 
ATOM     10  C   UNL     1     140.362 144.227 138.477  1.00  0.00     0.008 C 
ATOM     11  C   UNL     1     141.652 142.143 137.855  1.00  0.00     0.008 C 
ENDBRANCH   5   9
TORSDOF 1
ENDMDL
