MODEL 1
REMARK VINA RESULT:    -2.333      0.000      0.000
REMARK INTER + INTRA:          -6.362
REMARK INTER:                  -5.333
REMARK INTRA:                  -1.029
REMARK UNBOUND:                -1.029
REMARK SMILES CCCCCCCCCCCCCCCCCCCCCCCC(=O)[O-]
REMARK SMILES IDX 13 1 14 2 15 3 16 4 17 5 18 6 19 7 20 8 21 9 22 10 23 11
REMARK SMILES IDX 24 12 25 13 26 14 12 15 11 16 10 17 9 18 8 19 7 20 6 21 5 22
REMARK SMILES IDX 4 23 3 24 2 25 1 26
REMARK H PARENT
REMARK Flexibility Score: inf
ROOT
ATOM      1  C   UNL     1      -1.120   9.916  -2.826  1.00  0.00     0.000 C 
ENDROOT
BRANCH   1   2
ATOM      2  C   UNL     1      -0.875   9.727  -4.331  1.00  0.00     0.000 C 
BRANCH   2   3
ATOM      3  C   UNL     1      -1.650  10.738  -5.190  1.00  0.00     0.000 C 
BRANCH   3   4
ATOM      4  C   UNL     1      -2.227  10.109  -6.469  1.00  0.00     0.000 C 
BRANCH   4   5
ATOM      5  C   UNL     1      -1.223  10.103  -7.635  1.00  0.00     0.000 C 
BRANCH   5   6
ATOM      6  C   UNL     1      -1.587  11.083  -8.770  1.00  0.00     0.000 C 
BRANCH   6   7
ATOM      7  C   UNL     1      -0.953  10.679 -10.113  1.00  0.00     0.000 C 
BRANCH   7   8
ATOM      8  C   UNL     1      -1.939  10.771 -11.288  1.00  0.00     0.000 C 
BRANCH   8   9
ATOM      9  C   UNL     1      -1.729   9.658 -12.325  1.00  0.00     0.000 C 
BRANCH   9  10
ATOM     10  C   UNL     1      -2.275   8.319 -11.812  1.00  0.00     0.006 C 
BRANCH  10  11
ATOM     11  C   UNL     1      -2.528   7.349 -12.970  1.00  0.00     0.053 C 
BRANCH  11  12
ATOM     12  C   UNL     1      -3.919   6.804 -12.903  1.00  0.00     0.041 C 
ATOM     13  O   UNL     1      -4.905   7.560 -13.106  1.00  0.00    -0.550 OA
ATOM     14  O   UNL     1      -4.127   5.452 -12.661  1.00  0.00    -0.550 OA
ENDBRANCH  11  12
ENDBRANCH  10  11
ENDBRANCH   9  10
ENDBRANCH   8   9
ENDBRANCH   7   8
ENDBRANCH   6   7
ENDBRANCH   5   6
ENDBRANCH   4   5
ENDBRANCH   3   4
ENDBRANCH   2   3
ENDBRANCH   1   2
BRANCH   1  15
ATOM     15  C   UNL     1      -0.897   8.600  -2.069  1.00  0.00     0.000 C 
BRANCH  15  16
ATOM     16  C   UNL     1      -2.176   8.154  -1.345  1.00  0.00     0.000 C 
BRANCH  16  17
ATOM     17  C   UNL     1      -1.972   8.006   0.171  1.00  0.00     0.000 C 
BRANCH  17  18
ATOM     18  C   UNL     1      -1.869   9.363   0.889  1.00  0.00    -0.000 C 
BRANCH  18  19
ATOM     19  C   UNL     1      -3.230   9.867   1.396  1.00  0.00    -0.000 C 
BRANCH  19  20
ATOM     20  C   UNL     1      -3.868  10.896   0.445  1.00  0.00    -0.000 C 
BRANCH  20  21
ATOM     21  C   UNL     1      -3.967  10.384  -1.000  1.00  0.00    -0.000 C 
BRANCH  21  22
ATOM     22  C   UNL     1      -5.374   9.868  -1.350  1.00  0.00    -0.000 C 
BRANCH  22  23
ATOM     23  C   UNL     1      -5.475   9.398  -2.817  1.00  0.00    -0.000 C 
BRANCH  23  24
ATOM     24  C   UNL     1      -4.749   8.066  -3.093  1.00  0.00    -0.000 C 
BRANCH  24  25
ATOM     25  C   UNL     1      -3.944   8.030  -4.402  1.00  0.00    -0.003 C 
ATOM     26  C   UNL     1      -3.534   6.614  -4.807  1.00  0.00     0.004 C 
ENDBRANCH  24  25
ENDBRANCH  23  24
ENDBRANCH  22  23
ENDBRANCH  21  22
ENDBRANCH  20  21
ENDBRANCH  19  20
ENDBRANCH  18  19
ENDBRANCH  17  18
ENDBRANCH  16  17
ENDBRANCH  15  16
ENDBRANCH   1  15
TORSDOF 22
ENDMDL
MODEL 2
REMARK VINA RESULT:    -1.223      3.846      5.903
REMARK INTER + INTRA:          -3.825
REMARK INTER:                  -3.994
REMARK INTRA:                   0.169
REMARK UNBOUND:                -1.029
REMARK SMILES CCCCCCCCCCCCCCCCCCCCCCCC(=O)[O-]
REMARK SMILES IDX 13 1 14 2 15 3 16 4 17 5 18 6 19 7 20 8 21 9 22 10 23 11
REMARK SMILES IDX 24 12 25 13 26 14 12 15 11 16 10 17 9 18 8 19 7 20 6 21 5 22
REMARK SMILES IDX 4 23 3 24 2 25 1 26
REMARK H PARENT
REMARK Flexibility Score: inf
ROOT
ATOM      1  C   UNL     1      -4.977   8.229  -1.184  1.00  0.00     0.000 C 
ENDROOT
BRANCH   1   2
ATOM      2  C   UNL     1      -4.181   7.752  -2.409  1.00  0.00     0.000 C 
BRANCH   2   3
ATOM      3  C   UNL     1      -3.645   8.914  -3.258  1.00  0.00     0.000 C 
BRANCH   3   4
ATOM      4  C   UNL     1      -2.124   8.838  -3.475  1.00  0.00     0.000 C 
BRANCH   4   5
ATOM      5  C   UNL     1      -1.602   9.930  -4.425  1.00  0.00     0.000 C 
BRANCH   5   6
ATOM      6  C   UNL     1      -1.432   9.453  -5.882  1.00  0.00     0.000 C 
BRANCH   6   7
ATOM      7  C   UNL     1      -1.120   7.947  -5.968  1.00  0.00     0.000 C 
BRANCH   7   8
ATOM      8  C   UNL     1      -1.234   7.397  -7.399  1.00  0.00     0.000 C 
BRANCH   8   9
ATOM      9  C   UNL     1      -0.880   5.906  -7.488  1.00  0.00     0.000 C 
BRANCH   9  10
ATOM     10  C   UNL     1      -1.492   5.125  -6.318  1.00  0.00     0.006 C 
BRANCH  10  11
ATOM     11  C   UNL     1      -1.189   3.628  -6.438  1.00  0.00     0.053 C 
BRANCH  11  12
ATOM     12  C   UNL     1      -1.730   2.887  -5.258  1.00  0.00     0.041 C 
ATOM     13  O   UNL     1      -2.787   3.278  -4.696  1.00  0.00    -0.550 OA
ATOM     14  O   UNL     1      -1.093   1.738  -4.803  1.00  0.00    -0.550 OA
ENDBRANCH  11  12
ENDBRANCH  10  11
ENDBRANCH   9  10
ENDBRANCH   8   9
ENDBRANCH   7   8
ENDBRANCH   6   7
ENDBRANCH   5   6
ENDBRANCH   4   5
ENDBRANCH   3   4
ENDBRANCH   2   3
ENDBRANCH   1   2
BRANCH   1  15
ATOM     15  C   UNL     1      -4.455   9.584  -0.689  1.00  0.00     0.000 C 
BRANCH  15  16
ATOM     16  C   UNL     1      -2.958   9.512  -0.354  1.00  0.00     0.000 C 
BRANCH  16  17
ATOM     17  C   UNL     1      -2.237  10.848  -0.593  1.00  0.00     0.000 C 
BRANCH  17  18
ATOM     18  C   UNL     1      -0.881  10.925   0.130  1.00  0.00    -0.000 C 
BRANCH  18  19
ATOM     19  C   UNL     1      -0.875  10.148   1.457  1.00  0.00    -0.000 C 
BRANCH  19  20
ATOM     20  C   UNL     1      -1.074  11.066   2.677  1.00  0.00    -0.000 C 
BRANCH  20  21
ATOM     21  C   UNL     1      -2.514  11.035   3.211  1.00  0.00    -0.000 C 
BRANCH  21  22
ATOM     22  C   UNL     1      -3.563  11.018   2.085  1.00  0.00    -0.000 C 
BRANCH  22  23
ATOM     23  C   UNL     1      -4.980  10.707   2.613  1.00  0.00    -0.000 C 
BRANCH  23  24
ATOM     24  C   UNL     1      -5.069  10.646   4.152  1.00  0.00    -0.000 C 
BRANCH  24  25
ATOM     25  C   UNL     1      -6.500  10.608   4.713  1.00  0.00    -0.003 C 
ATOM     26  C   UNL     1      -7.281   9.373   4.264  1.00  0.00     0.004 C 
ENDBRANCH  24  25
ENDBRANCH  23  24
ENDBRANCH  22  23
ENDBRANCH  21  22
ENDBRANCH  20  21
ENDBRANCH  19  20
ENDBRANCH  18  19
ENDBRANCH  17  18
ENDBRANCH  16  17
ENDBRANCH  15  16
ENDBRANCH   1  15
TORSDOF 22
ENDMDL
MODEL 3
REMARK VINA RESULT:    -1.105      4.352      9.688
REMARK INTER + INTRA:          -3.554
REMARK INTER:                  -3.374
REMARK INTRA:                  -0.181
REMARK UNBOUND:                -1.029
REMARK SMILES CCCCCCCCCCCCCCCCCCCCCCCC(=O)[O-]
REMARK SMILES IDX 13 1 14 2 15 3 16 4 17 5 18 6 19 7 20 8 21 9 22 10 23 11
REMARK SMILES IDX 24 12 25 13 26 14 12 15 11 16 10 17 9 18 8 19 7 20 6 21 5 22
REMARK SMILES IDX 4 23 3 24 2 25 1 26
REMARK H PARENT
REMARK Flexibility Score: inf
ROOT
ATOM      1  C   UNL     1      -0.914   5.819  -6.430  1.00  0.00     0.000 C 
ENDROOT
BRANCH   1   2
ATOM      2  C   UNL     1      -1.642   6.014  -5.090  1.00  0.00     0.000 C 
BRANCH   2   3
ATOM      3  C   UNL     1      -1.048   7.155  -4.252  1.00  0.00     0.000 C 
BRANCH   3   4
ATOM      4  C   UNL     1      -2.094   7.834  -3.351  1.00  0.00     0.000 C 
BRANCH   4   5
ATOM      5  C   UNL     1      -3.476   7.942  -4.019  1.00  0.00     0.000 C 
BRANCH   5   6
ATOM      6  C   UNL     1      -4.293   9.166  -3.557  1.00  0.00     0.000 C 
BRANCH   6   7
ATOM      7  C   UNL     1      -3.417  10.422  -3.396  1.00  0.00     0.000 C 
BRANCH   7   8
ATOM      8  C   UNL     1      -2.242  10.208  -2.429  1.00  0.00     0.000 C 
BRANCH   8   9
ATOM      9  C   UNL     1      -2.494  10.828  -1.047  1.00  0.00     0.000 C 
BRANCH   9  10
ATOM     10  C   UNL     1      -3.793  10.290  -0.433  1.00  0.00     0.006 C 
BRANCH  10  11
ATOM     11  C   UNL     1      -3.509   9.505   0.851  1.00  0.00     0.053 C 
BRANCH  11  12
ATOM     12  C   UNL     1      -2.035   9.346   1.053  1.00  0.00     0.041 C 
ATOM     13  O   UNL     1      -1.478   8.243   0.808  1.00  0.00    -0.550 OA
ATOM     14  O   UNL     1      -1.267  10.426   1.470  1.00  0.00    -0.550 OA
ENDBRANCH  11  12
ENDBRANCH  10  11
ENDBRANCH   9  10
ENDBRANCH   8   9
ENDBRANCH   7   8
ENDBRANCH   6   7
ENDBRANCH   5   6
ENDBRANCH   4   5
ENDBRANCH   3   4
ENDBRANCH   2   3
ENDBRANCH   1   2
BRANCH   1  15
ATOM     15  C   UNL     1      -1.645   6.558  -7.559  1.00  0.00     0.000 C 
BRANCH  15  16
ATOM     16  C   UNL     1      -0.875   7.815  -7.988  1.00  0.00     0.000 C 
BRANCH  16  17
ATOM     17  C   UNL     1      -1.271   9.055  -7.171  1.00  0.00     0.000 C 
BRANCH  17  18
ATOM     18  C   UNL     1      -1.545  10.283  -8.056  1.00  0.00    -0.000 C 
BRANCH  18  19
ATOM     19  C   UNL     1      -1.145  10.053  -9.522  1.00  0.00    -0.000 C 
BRANCH  19  20
ATOM     20  C   UNL     1      -1.723  11.125 -10.465  1.00  0.00    -0.000 C 
BRANCH  20  21
ATOM     21  C   UNL     1      -1.788  10.654 -11.926  1.00  0.00    -0.000 C 
BRANCH  21  22
ATOM     22  C   UNL     1      -1.227   9.234 -12.116  1.00  0.00    -0.000 C 
BRANCH  22  23
ATOM     23  C   UNL     1      -2.223   8.306 -12.845  1.00  0.00    -0.000 C 
BRANCH  23  24
ATOM     24  C   UNL     1      -3.688   8.781 -12.762  1.00  0.00    -0.000 C 
BRANCH  24  25
ATOM     25  C   UNL     1      -4.735   7.695 -13.061  1.00  0.00    -0.003 C 
ATOM     26  C   UNL     1      -4.191   6.279 -12.872  1.00  0.00     0.004 C 
ENDBRANCH  24  25
ENDBRANCH  23  24
ENDBRANCH  22  23
ENDBRANCH  21  22
ENDBRANCH  20  21
ENDBRANCH  19  20
ENDBRANCH  18  19
ENDBRANCH  17  18
ENDBRANCH  16  17
ENDBRANCH  15  16
ENDBRANCH   1  15
TORSDOF 22
ENDMDL
MODEL 4
REMARK VINA RESULT:    -1.038      2.564      8.258
REMARK INTER + INTRA:          -3.403
REMARK INTER:                  -5.083
REMARK INTRA:                   1.680
REMARK UNBOUND:                -1.029
REMARK SMILES CCCCCCCCCCCCCCCCCCCCCCCC(=O)[O-]
REMARK SMILES IDX 13 1 14 2 15 3 16 4 17 5 18 6 19 7 20 8 21 9 22 10 23 11
REMARK SMILES IDX 24 12 25 13 26 14 12 15 11 16 10 17 9 18 8 19 7 20 6 21 5 22
REMARK SMILES IDX 4 23 3 24 2 25 1 26
REMARK H PARENT
REMARK Flexibility Score: inf
ROOT
ATOM      1  C   UNL     1      -4.211  11.037  -1.138  1.00  0.00     0.000 C 
ENDROOT
BRANCH   1   2
ATOM      2  C   UNL     1      -3.767  10.048  -0.050  1.00  0.00     0.000 C 
BRANCH   2   3
ATOM      3  C   UNL     1      -4.615  10.148   1.226  1.00  0.00     0.000 C 
BRANCH   3   4
ATOM      4  C   UNL     1      -3.762  10.339   2.491  1.00  0.00     0.000 C 
BRANCH   4   5
ATOM      5  C   UNL     1      -2.276  10.012   2.263  1.00  0.00     0.000 C 
BRANCH   5   6
ATOM      6  C   UNL     1      -1.817  10.208   0.803  1.00  0.00     0.000 C 
BRANCH   6   7
ATOM      7  C   UNL     1      -0.965   9.029   0.298  1.00  0.00     0.000 C 
BRANCH   7   8
ATOM      8  C   UNL     1      -1.795   7.974  -0.451  1.00  0.00     0.000 C 
BRANCH   8   9
ATOM      9  C   UNL     1      -0.962   7.180  -1.468  1.00  0.00     0.000 C 
BRANCH   9  10
ATOM     10  C   UNL     1      -1.409   7.487  -2.903  1.00  0.00     0.006 C 
BRANCH  10  11
ATOM     11  C   UNL     1      -1.073   6.325  -3.843  1.00  0.00     0.053 C 
BRANCH  11  12
ATOM     12  C   UNL     1      -2.068   6.247  -4.957  1.00  0.00     0.041 C 
ATOM     13  O   UNL     1      -1.903   5.425  -5.896  1.00  0.00    -0.550 OA
ATOM     14  O   UNL     1      -3.201   7.051  -4.937  1.00  0.00    -0.550 OA
ENDBRANCH  11  12
ENDBRANCH  10  11
ENDBRANCH   9  10
ENDBRANCH   8   9
ENDBRANCH   7   8
ENDBRANCH   6   7
ENDBRANCH   5   6
ENDBRANCH   4   5
ENDBRANCH   3   4
ENDBRANCH   2   3
ENDBRANCH   1   2
BRANCH   1  15
ATOM     15  C   UNL     1      -4.510  10.303  -2.452  1.00  0.00     0.000 C 
BRANCH  15  16
ATOM     16  C   UNL     1      -3.907  11.048  -3.652  1.00  0.00     0.000 C 
BRANCH  16  17
ATOM     17  C   UNL     1      -2.583  10.428  -4.125  1.00  0.00     0.000 C 
BRANCH  17  18
ATOM     18  C   UNL     1      -2.467  10.382  -5.658  1.00  0.00    -0.000 C 
BRANCH  18  19
ATOM     19  C   UNL     1      -1.009  10.451  -6.142  1.00  0.00    -0.000 C 
BRANCH  19  20
ATOM     20  C   UNL     1      -0.877  11.124  -7.520  1.00  0.00    -0.000 C 
BRANCH  20  21
ATOM     21  C   UNL     1      -2.153  10.994  -8.366  1.00  0.00    -0.000 C 
BRANCH  21  22
ATOM     22  C   UNL     1      -1.871  11.050  -9.877  1.00  0.00    -0.000 C 
BRANCH  22  23
ATOM     23  C   UNL     1      -1.595   9.652 -10.471  1.00  0.00    -0.000 C 
BRANCH  23  24
ATOM     24  C   UNL     1      -1.933   9.539 -11.971  1.00  0.00    -0.000 C 
BRANCH  24  25
ATOM     25  C   UNL     1      -3.218  10.266 -12.399  1.00  0.00    -0.003 C 
ATOM     26  C   UNL     1      -4.340   9.305 -12.792  1.00  0.00     0.004 C 
ENDBRANCH  24  25
ENDBRANCH  23  24
ENDBRANCH  22  23
ENDBRANCH  21  22
ENDBRANCH  20  21
ENDBRANCH  19  20
ENDBRANCH  18  19
ENDBRANCH  17  18
ENDBRANCH  16  17
ENDBRANCH  15  16
ENDBRANCH   1  15
TORSDOF 22
ENDMDL
MODEL 5
REMARK VINA RESULT:    -0.742      1.557      4.058
REMARK INTER + INTRA:          -2.725
REMARK INTER:                  -1.654
REMARK INTRA:                  -1.070
REMARK UNBOUND:                -1.029
REMARK SMILES CCCCCCCCCCCCCCCCCCCCCCCC(=O)[O-]
REMARK SMILES IDX 13 1 14 2 15 3 16 4 17 5 18 6 19 7 20 8 21 9 22 10 23 11
REMARK SMILES IDX 24 12 25 13 26 14 12 15 11 16 10 17 9 18 8 19 7 20 6 21 5 22
REMARK SMILES IDX 4 23 3 24 2 25 1 26
REMARK H PARENT
REMARK Flexibility Score: inf
ROOT
ATOM      1  C   UNL     1      -2.657   8.144  -4.104  1.00  0.00     0.000 C 
ENDROOT
BRANCH   1   2
ATOM      2  C   UNL     1      -2.875   6.751  -4.713  1.00  0.00     0.000 C 
BRANCH   2   3
ATOM      3  C   UNL     1      -2.381   6.653  -6.164  1.00  0.00     0.000 C 
BRANCH   3   4
ATOM      4  C   UNL     1      -0.960   7.212  -6.345  1.00  0.00     0.000 C 
BRANCH   4   5
ATOM      5  C   UNL     1      -0.951   8.663  -6.858  1.00  0.00     0.000 C 
BRANCH   5   6
ATOM      6  C   UNL     1      -0.883   8.775  -8.395  1.00  0.00     0.000 C 
BRANCH   6   7
ATOM      7  C   UNL     1      -1.834   9.855  -8.941  1.00  0.00     0.000 C 
BRANCH   7   8
ATOM      8  C   UNL     1      -1.088  11.076  -9.504  1.00  0.00     0.000 C 
BRANCH   8   9
ATOM      9  C   UNL     1      -1.091  11.113 -11.039  1.00  0.00     0.000 C 
BRANCH   9  10
ATOM     10  C   UNL     1      -2.158  10.171 -11.610  1.00  0.00     0.006 C 
BRANCH  10  11
ATOM     11  C   UNL     1      -1.513   8.998 -12.355  1.00  0.00     0.053 C 
BRANCH  11  12
ATOM     12  C   UNL     1      -2.560   8.047 -12.841  1.00  0.00     0.041 C 
ATOM     13  O   UNL     1      -2.268   6.841 -13.056  1.00  0.00    -0.550 OA
ATOM     14  O   UNL     1      -3.869   8.480 -13.015  1.00  0.00    -0.550 OA
ENDBRANCH  11  12
ENDBRANCH  10  11
ENDBRANCH   9  10
ENDBRANCH   8   9
ENDBRANCH   7   8
ENDBRANCH   6   7
ENDBRANCH   5   6
ENDBRANCH   4   5
ENDBRANCH   3   4
ENDBRANCH   2   3
ENDBRANCH   1   2
BRANCH   1  15
ATOM     15  C   UNL     1      -3.831   9.074  -4.437  1.00  0.00     0.000 C 
BRANCH  15  16
ATOM     16  C   UNL     1      -4.424   9.697  -3.165  1.00  0.00     0.000 C 
BRANCH  16  17
ATOM     17  C   UNL     1      -3.538  10.813  -2.589  1.00  0.00     0.000 C 
BRANCH  17  18
ATOM     18  C   UNL     1      -2.308  11.103  -3.467  1.00  0.00    -0.000 C 
BRANCH  18  19
ATOM     19  C   UNL     1      -0.995  10.641  -2.813  1.00  0.00    -0.000 C 
BRANCH  19  20
ATOM     20  C   UNL     1      -0.958  10.927  -1.301  1.00  0.00    -0.000 C 
BRANCH  20  21
ATOM     21  C   UNL     1      -0.876   9.645  -0.459  1.00  0.00    -0.000 C 
BRANCH  21  22
ATOM     22  C   UNL     1      -1.608   9.773   0.889  1.00  0.00    -0.000 C 
BRANCH  22  23
ATOM     23  C   UNL     1      -3.102   9.402   0.780  1.00  0.00    -0.000 C 
BRANCH  23  24
ATOM     24  C   UNL     1      -4.037  10.365   1.539  1.00  0.00    -0.000 C 
BRANCH  24  25
ATOM     25  C   UNL     1      -3.968  10.256   3.071  1.00  0.00    -0.003 C 
ATOM     26  C   UNL     1      -5.054  11.071   3.773  1.00  0.00     0.004 C 
ENDBRANCH  24  25
ENDBRANCH  23  24
ENDBRANCH  22  23
ENDBRANCH  21  22
ENDBRANCH  20  21
ENDBRANCH  19  20
ENDBRANCH  18  19
ENDBRANCH  17  18
ENDBRANCH  16  17
ENDBRANCH  15  16
ENDBRANCH   1  15
TORSDOF 22
ENDMDL
MODEL 6
REMARK VINA RESULT:    -0.270      4.449      9.218
REMARK INTER + INTRA:          -1.647
REMARK INTER:                  -2.545
REMARK INTRA:                   0.898
REMARK UNBOUND:                -1.029
REMARK SMILES CCCCCCCCCCCCCCCCCCCCCCCC(=O)[O-]
REMARK SMILES IDX 13 1 14 2 15 3 16 4 17 5 18 6 19 7 20 8 21 9 22 10 23 11
REMARK SMILES IDX 24 12 25 13 26 14 12 15 11 16 10 17 9 18 8 19 7 20 6 21 5 22
REMARK SMILES IDX 4 23 3 24 2 25 1 26
REMARK H PARENT
REMARK Flexibility Score: inf
ROOT
ATOM      1  C   UNL     1      -3.663   7.160  -5.171  1.00  0.00     0.000 C 
ENDROOT
BRANCH   1   2
ATOM      2  C   UNL     1      -4.605   7.605  -4.042  1.00  0.00     0.000 C 
BRANCH   2   3
ATOM      3  C   UNL     1      -3.955   8.622  -3.092  1.00  0.00     0.000 C 
BRANCH   3   4
ATOM      4  C   UNL     1      -4.452  10.058  -3.331  1.00  0.00     0.000 C 
BRANCH   4   5
ATOM      5  C   UNL     1      -3.561  10.841  -4.312  1.00  0.00     0.000 C 
BRANCH   5   6
ATOM      6  C   UNL     1      -2.051  10.685  -4.035  1.00  0.00     0.000 C 
BRANCH   6   7
ATOM      7  C   UNL     1      -1.775   9.841  -2.777  1.00  0.00     0.000 C 
BRANCH   7   8
ATOM      8  C   UNL     1      -0.875  10.564  -1.761  1.00  0.00     0.000 C 
BRANCH   8   9
ATOM      9  C   UNL     1      -1.651  11.061  -0.533  1.00  0.00     0.000 C 
BRANCH   9  10
ATOM     10  C   UNL     1      -3.064  10.466  -0.499  1.00  0.00     0.006 C 
BRANCH  10  11
ATOM     11  C   UNL     1      -3.271   9.614   0.757  1.00  0.00     0.053 C 
BRANCH  11  12
ATOM     12  C   UNL     1      -1.959   9.114   1.273  1.00  0.00     0.041 C 
ATOM     13  O   UNL     1      -1.394   9.699   2.235  1.00  0.00    -0.550 OA
ATOM     14  O   UNL     1      -1.380   7.977   0.723  1.00  0.00    -0.550 OA
ENDBRANCH  11  12
ENDBRANCH  10  11
ENDBRANCH   9  10
ENDBRANCH   8   9
ENDBRANCH   7   8
ENDBRANCH   6   7
ENDBRANCH   5   6
ENDBRANCH   4   5
ENDBRANCH   3   4
ENDBRANCH   2   3
ENDBRANCH   1   2
BRANCH   1  15
ATOM     15  C   UNL     1      -3.439   5.643  -5.127  1.00  0.00     0.000 C 
BRANCH  15  16
ATOM     16  C   UNL     1      -1.941   5.305  -5.090  1.00  0.00     0.000 C 
BRANCH  16  17
ATOM     17  C   UNL     1      -1.404   4.863  -6.461  1.00  0.00     0.000 C 
BRANCH  17  18
ATOM     18  C   UNL     1      -0.991   6.053  -7.345  1.00  0.00    -0.000 C 
BRANCH  18  19
ATOM     19  C   UNL     1      -1.451   7.402  -6.769  1.00  0.00    -0.000 C 
BRANCH  19  20
ATOM     20  C   UNL     1      -1.003   8.594  -7.635  1.00  0.00    -0.000 C 
BRANCH  20  21
ATOM     21  C   UNL     1      -0.881   8.231  -9.123  1.00  0.00    -0.000 C 
BRANCH  21  22
ATOM     22  C   UNL     1      -1.330   9.374 -10.050  1.00  0.00    -0.000 C 
BRANCH  22  23
ATOM     23  C   UNL     1      -1.294   8.967 -11.538  1.00  0.00    -0.000 C 
BRANCH  23  24
ATOM     24  C   UNL     1      -2.326   7.882 -11.909  1.00  0.00    -0.000 C 
BRANCH  24  25
ATOM     25  C   UNL     1      -3.263   8.255 -13.070  1.00  0.00    -0.003 C 
ATOM     26  C   UNL     1      -4.201   9.412 -12.726  1.00  0.00     0.004 C 
ENDBRANCH  24  25
ENDBRANCH  23  24
ENDBRANCH  22  23
ENDBRANCH  21  22
ENDBRANCH  20  21
ENDBRANCH  19  20
ENDBRANCH  18  19
ENDBRANCH  17  18
ENDBRANCH  16  17
ENDBRANCH  15  16
ENDBRANCH   1  15
TORSDOF 22
ENDMDL
