MODEL 1
REMARK VINA RESULT:    29.978      0.000      0.000
REMARK INTER + INTRA:          36.633
REMARK INTER:                  36.989
REMARK INTRA:                  -0.356
REMARK UNBOUND:                -0.356
REMARK SMILES O=c1c(O)c(-c2cc(O)c(O)c(O)c2)oc2cc(O)cc(O)c12
REMARK SMILES IDX 5 1 3 2 2 3 1 4 23 5 21 6 20 7 18 8 17 9 16 10 15 11 6 12
REMARK SMILES IDX 7 13 8 14 14 15 10 16 12 17 9 18 11 20 13 22 4 24 22 26
REMARK SMILES IDX 19 28
REMARK H PARENT 9 19 11 21 13 23 4 25 22 27 19 29
REMARK Flexibility Score: inf
ROOT
ATOM      1  C   UNL     1      -6.078   7.904  16.513  1.00  0.00     0.180 A 
ATOM      2  C   UNL     1      -4.883   8.602  16.262  1.00  0.00     0.208 A 
ATOM      3  C   UNL     1      -4.834   9.981  16.521  1.00  0.00     0.238 A 
ATOM      4  O   UNL     1      -3.780  10.611  16.244  1.00  0.00    -0.285 OA
ATOM      5  C   UNL     1      -5.972  10.642  17.042  1.00  0.00     0.111 A 
ATOM      6  C   UNL     1      -6.022  12.028  17.378  1.00  0.00     0.134 A 
ATOM      7  C   UNL     1      -7.241  12.602  17.763  1.00  0.00     0.093 A 
ATOM      8  C   UNL     1      -8.396  11.826  17.884  1.00  0.00     0.123 A 
ATOM      9  C   UNL     1      -8.344  10.461  17.615  1.00  0.00     0.094 A 
ATOM     10  C   UNL     1      -7.151   9.866  17.195  1.00  0.00     0.146 A 
ATOM     11  O   UNL     1      -7.148   8.564  16.939  1.00  0.00    -0.452 OA
ENDROOT
BRANCH   1  12
ATOM     12  C   UNL     1      -6.199   6.445  16.288  1.00  0.00     0.029 A 
ATOM     13  C   UNL     1      -6.580   5.970  15.024  1.00  0.00     0.062 A 
ATOM     14  C   UNL     1      -6.722   4.596  14.792  1.00  0.00     0.162 A 
ATOM     15  C   UNL     1      -5.996   5.526  17.331  1.00  0.00     0.062 A 
ATOM     16  C   UNL     1      -6.499   3.683  15.830  1.00  0.00     0.200 A 
ATOM     17  C   UNL     1      -6.139   4.149  17.106  1.00  0.00     0.162 A 
BRANCH  14  18
ATOM     18  O   UNL     1      -7.088   4.129  13.530  1.00  0.00    -0.504 OA
ATOM     19  H   UNL     1      -6.912   4.672  12.692  1.00  0.00     0.293 HD
ENDBRANCH  14  18
BRANCH  16  20
ATOM     20  O   UNL     1      -6.643   2.318  15.580  1.00  0.00    -0.502 OA
ATOM     21  H   UNL     1      -6.473   1.618  16.292  1.00  0.00     0.293 HD
ENDBRANCH  16  20
BRANCH  17  22
ATOM     22  O   UNL     1      -5.929   3.245  18.146  1.00  0.00    -0.504 OA
ATOM     23  H   UNL     1      -5.407   3.501  18.975  1.00  0.00     0.293 HD
ENDBRANCH  17  22
ENDBRANCH   1  12
BRANCH   2  24
ATOM     24  O   UNL     1      -3.778   7.935  15.729  1.00  0.00    -0.502 OA
ATOM     25  H   UNL     1      -3.673   6.928  15.780  1.00  0.00     0.293 HD
ENDBRANCH   2  24
BRANCH   6  26
ATOM     26  O   UNL     1      -4.908  12.871  17.379  1.00  0.00    -0.507 OA
ATOM     27  H   UNL     1      -4.885  13.793  17.787  1.00  0.00     0.293 HD
ENDBRANCH   6  26
BRANCH   8  28
ATOM     28  O   UNL     1      -9.600  12.402  18.282  1.00  0.00    -0.508 OA
ATOM     29  H   UNL     1      -9.637  13.105  19.011  1.00  0.00     0.293 HD
ENDBRANCH   8  28
TORSDOF 7
ENDMDL
MODEL 2
REMARK VINA RESULT:    30.303      1.375      7.069
REMARK INTER + INTRA:          37.034
REMARK INTER:                  37.368
REMARK INTRA:                  -0.335
REMARK UNBOUND:                -0.356
REMARK SMILES O=c1c(O)c(-c2cc(O)c(O)c(O)c2)oc2cc(O)cc(O)c12
REMARK SMILES IDX 5 1 3 2 2 3 1 4 23 5 21 6 20 7 18 8 17 9 16 10 15 11 6 12
REMARK SMILES IDX 7 13 8 14 14 15 10 16 12 17 9 18 11 20 13 22 4 24 22 26
REMARK SMILES IDX 19 28
REMARK H PARENT 9 19 11 21 13 23 4 25 22 27 19 29
REMARK Flexibility Score: inf
ROOT
ATOM      1  C   UNL     1      -5.965   7.392  16.556  1.00  0.00     0.180 A 
ATOM      2  C   UNL     1      -5.513   6.472  17.519  1.00  0.00     0.208 A 
ATOM      3  C   UNL     1      -5.724   5.102  17.302  1.00  0.00     0.238 A 
ATOM      4  O   UNL     1      -5.366   4.286  18.192  1.00  0.00    -0.285 OA
ATOM      5  C   UNL     1      -6.369   4.666  16.120  1.00  0.00     0.111 A 
ATOM      6  C   UNL     1      -6.600   3.299  15.778  1.00  0.00     0.134 A 
ATOM      7  C   UNL     1      -7.363   2.989  14.645  1.00  0.00     0.093 A 
ATOM      8  C   UNL     1      -7.849   3.996  13.807  1.00  0.00     0.123 A 
ATOM      9  C   UNL     1      -7.579   5.330  14.100  1.00  0.00     0.094 A 
ATOM     10  C   UNL     1      -6.850   5.673  15.242  1.00  0.00     0.146 A 
ATOM     11  O   UNL     1      -6.625   6.957  15.489  1.00  0.00    -0.452 OA
ENDROOT
BRANCH   1  12
ATOM     12  C   UNL     1      -5.757   8.851  16.702  1.00  0.00     0.029 A 
ATOM     13  C   UNL     1      -4.513   9.409  16.371  1.00  0.00     0.062 A 
ATOM     14  C   UNL     1      -4.285  10.783  16.521  1.00  0.00     0.162 A 
ATOM     15  C   UNL     1      -6.763   9.684  17.222  1.00  0.00     0.062 A 
ATOM     16  C   UNL     1      -5.298  11.611  17.021  1.00  0.00     0.200 A 
ATOM     17  C   UNL     1      -6.540  11.059  17.377  1.00  0.00     0.162 A 
BRANCH  14  18
ATOM     18  O   UNL     1      -3.051  11.334  16.177  1.00  0.00    -0.504 OA
ATOM     19  H   UNL     1      -2.189  10.813  16.284  1.00  0.00     0.293 HD
ENDBRANCH  14  18
BRANCH  16  20
ATOM     20  O   UNL     1      -5.054  12.977  17.161  1.00  0.00    -0.502 OA
ATOM     21  H   UNL     1      -5.231  13.471  18.027  1.00  0.00     0.293 HD
ENDBRANCH  16  20
BRANCH  17  22
ATOM     22  O   UNL     1      -7.547  11.877  17.887  1.00  0.00    -0.504 OA
ATOM     23  H   UNL     1      -7.749  12.785  17.485  1.00  0.00     0.293 HD
ENDBRANCH  17  22
ENDBRANCH   1  12
BRANCH   2  24
ATOM     24  O   UNL     1      -4.897   6.925  18.689  1.00  0.00    -0.502 OA
ATOM     25  H   UNL     1      -5.365   6.918  19.587  1.00  0.00     0.293 HD
ENDBRANCH   2  24
BRANCH   6  26
ATOM     26  O   UNL     1      -6.081   2.217  16.496  1.00  0.00    -0.507 OA
ATOM     27  H   UNL     1      -6.548   1.762  17.266  1.00  0.00     0.293 HD
ENDBRANCH   6  26
BRANCH   8  28
ATOM     28  O   UNL     1      -8.595   3.678  12.674  1.00  0.00    -0.508 OA
ATOM     29  H   UNL     1      -8.213   3.103  11.932  1.00  0.00     0.293 HD
ENDBRANCH   8  28
TORSDOF 7
ENDMDL
MODEL 3
REMARK VINA RESULT:    30.305      1.354      7.087
REMARK INTER + INTRA:          37.036
REMARK INTER:                  37.392
REMARK INTRA:                  -0.356
REMARK UNBOUND:                -0.356
REMARK SMILES O=c1c(O)c(-c2cc(O)c(O)c(O)c2)oc2cc(O)cc(O)c12
REMARK SMILES IDX 5 1 3 2 2 3 1 4 23 5 21 6 20 7 18 8 17 9 16 10 15 11 6 12
REMARK SMILES IDX 7 13 8 14 14 15 10 16 12 17 9 18 11 20 13 22 4 24 22 26
REMARK SMILES IDX 19 28
REMARK H PARENT 9 19 11 21 13 23 4 25 22 27 19 29
REMARK Flexibility Score: inf
ROOT
ATOM      1  C   UNL     1      -5.974   7.379  16.587  1.00  0.00     0.180 A 
ATOM      2  C   UNL     1      -5.518   6.443  17.532  1.00  0.00     0.208 A 
ATOM      3  C   UNL     1      -5.725   5.076  17.290  1.00  0.00     0.238 A 
ATOM      4  O   UNL     1      -5.363   4.245  18.164  1.00  0.00    -0.285 OA
ATOM      5  C   UNL     1      -6.370   4.661  16.101  1.00  0.00     0.111 A 
ATOM      6  C   UNL     1      -6.598   3.300  15.734  1.00  0.00     0.134 A 
ATOM      7  C   UNL     1      -7.362   3.009  14.597  1.00  0.00     0.093 A 
ATOM      8  C   UNL     1      -7.853   4.030  13.779  1.00  0.00     0.123 A 
ATOM      9  C   UNL     1      -7.586   5.360  14.096  1.00  0.00     0.094 A 
ATOM     10  C   UNL     1      -6.856   5.682  15.243  1.00  0.00     0.146 A 
ATOM     11  O   UNL     1      -6.634   6.962  15.514  1.00  0.00    -0.452 OA
ENDROOT
BRANCH   1  12
ATOM     12  C   UNL     1      -5.770   8.836  16.761  1.00  0.00     0.029 A 
ATOM     13  C   UNL     1      -6.825   9.629  17.238  1.00  0.00     0.062 A 
ATOM     14  C   UNL     1      -6.664  11.013  17.390  1.00  0.00     0.162 A 
ATOM     15  C   UNL     1      -4.559   9.453  16.403  1.00  0.00     0.062 A 
ATOM     16  C   UNL     1      -5.448  11.618  17.051  1.00  0.00     0.200 A 
ATOM     17  C   UNL     1      -4.393  10.837  16.552  1.00  0.00     0.162 A 
BRANCH  14  18
ATOM     18  O   UNL     1      -7.711  11.794  17.878  1.00  0.00    -0.504 OA
ATOM     19  H   UNL     1      -7.632  12.801  17.951  1.00  0.00     0.293 HD
ENDBRANCH  14  18
BRANCH  16  20
ATOM     20  O   UNL     1      -5.305  12.997  17.212  1.00  0.00    -0.502 OA
ATOM     21  H   UNL     1      -5.030  13.411  18.094  1.00  0.00     0.293 HD
ENDBRANCH  16  20
BRANCH  17  22
ATOM     22  O   UNL     1      -3.185  11.438  16.200  1.00  0.00    -0.504 OA
ATOM     23  H   UNL     1      -2.315  11.189  16.656  1.00  0.00     0.293 HD
ENDBRANCH  17  22
ENDBRANCH   1  12
BRANCH   2  24
ATOM     24  O   UNL     1      -4.901   6.876  18.709  1.00  0.00    -0.502 OA
ATOM     25  H   UNL     1      -5.416   7.312  19.464  1.00  0.00     0.293 HD
ENDBRANCH   2  24
BRANCH   6  26
ATOM     26  O   UNL     1      -6.075   2.207  16.431  1.00  0.00    -0.507 OA
ATOM     27  H   UNL     1      -6.622   1.560  16.979  1.00  0.00     0.293 HD
ENDBRANCH   6  26
BRANCH   8  28
ATOM     28  O   UNL     1      -8.599   3.732  12.641  1.00  0.00    -0.508 OA
ATOM     29  H   UNL     1      -9.243   4.403  12.238  1.00  0.00     0.293 HD
ENDBRANCH   8  28
TORSDOF 7
ENDMDL
MODEL 4
REMARK VINA RESULT:    31.081     11.509     12.433
REMARK INTER + INTRA:          37.993
REMARK INTER:                  37.530
REMARK INTRA:                   0.463
REMARK UNBOUND:                -0.356
REMARK SMILES O=c1c(O)c(-c2cc(O)c(O)c(O)c2)oc2cc(O)cc(O)c12
REMARK SMILES IDX 5 1 3 2 2 3 1 4 23 5 21 6 20 7 18 8 17 9 16 10 15 11 6 12
REMARK SMILES IDX 7 13 8 14 14 15 10 16 12 17 9 18 11 20 13 22 4 24 22 26
REMARK SMILES IDX 19 28
REMARK H PARENT 9 19 11 21 13 23 4 25 22 27 19 29
REMARK Flexibility Score: inf
ROOT
ATOM      1  C   UNL     1      -6.155  -2.578  13.052  1.00  0.00     0.180 A 
ATOM      2  C   UNL     1      -6.046  -1.819  11.873  1.00  0.00     0.208 A 
ATOM      3  C   UNL     1      -4.772  -1.573  11.338  1.00  0.00     0.238 A 
ATOM      4  O   UNL     1      -4.677  -0.848  10.312  1.00  0.00    -0.285 OA
ATOM      5  C   UNL     1      -3.625  -2.102  11.976  1.00  0.00     0.111 A 
ATOM      6  C   UNL     1      -2.288  -1.948  11.499  1.00  0.00     0.134 A 
ATOM      7  C   UNL     1      -1.219  -2.402  12.282  1.00  0.00     0.093 A 
ATOM      8  C   UNL     1      -1.442  -3.061  13.493  1.00  0.00     0.123 A 
ATOM      9  C   UNL     1      -2.745  -3.267  13.939  1.00  0.00     0.094 A 
ATOM     10  C   UNL     1      -3.832  -2.795  13.197  1.00  0.00     0.146 A 
ATOM     11  O   UNL     1      -5.056  -3.004  13.664  1.00  0.00    -0.452 OA
ENDROOT
BRANCH   1  12
ATOM     12  C   UNL     1      -7.465  -2.899  13.663  1.00  0.00     0.029 A 
ATOM     13  C   UNL     1      -8.642  -2.675  12.933  1.00  0.00     0.062 A 
ATOM     14  C   UNL     1      -9.895  -2.951  13.497  1.00  0.00     0.162 A 
ATOM     15  C   UNL     1      -7.559  -3.371  14.984  1.00  0.00     0.062 A 
ATOM     16  C   UNL     1      -9.981  -3.440  14.806  1.00  0.00     0.200 A 
ATOM     17  C   UNL     1      -8.810  -3.647  15.554  1.00  0.00     0.162 A 
BRANCH  14  18
ATOM     18  O   UNL     1     -11.060  -2.739  12.762  1.00  0.00    -0.504 OA
ATOM     19  H   UNL     1     -11.432  -1.809  12.614  1.00  0.00     0.293 HD
ENDBRANCH  14  18
BRANCH  16  20
ATOM     20  O   UNL     1     -11.236  -3.712  15.351  1.00  0.00    -0.502 OA
ATOM     21  H   UNL     1     -11.530  -4.652  15.587  1.00  0.00     0.293 HD
ENDBRANCH  16  20
BRANCH  17  22
ATOM     22  O   UNL     1      -8.892  -4.121  16.863  1.00  0.00    -0.504 OA
ATOM     23  H   UNL     1      -9.277  -3.555  17.610  1.00  0.00     0.293 HD
ENDBRANCH  17  22
ENDBRANCH   1  12
BRANCH   2  24
ATOM     24  O   UNL     1      -7.190  -1.289  11.270  1.00  0.00    -0.502 OA
ATOM     25  H   UNL     1      -7.219  -1.030  10.291  1.00  0.00     0.293 HD
ENDBRANCH   2  24
BRANCH   6  26
ATOM     26  O   UNL     1      -1.961  -1.388  10.261  1.00  0.00    -0.507 OA
ATOM     27  H   UNL     1      -2.501  -1.506   9.417  1.00  0.00     0.293 HD
ENDBRANCH   6  26
BRANCH   8  28
ATOM     28  O   UNL     1      -0.374  -3.523  14.258  1.00  0.00    -0.508 OA
ATOM     29  H   UNL     1       0.571  -3.188  14.106  1.00  0.00     0.293 HD
ENDBRANCH   8  28
TORSDOF 7
ENDMDL
MODEL 5
REMARK VINA RESULT:    32.181      1.443      7.303
REMARK INTER + INTRA:          39.351
REMARK INTER:                  39.663
REMARK INTRA:                  -0.312
REMARK UNBOUND:                -0.356
REMARK SMILES O=c1c(O)c(-c2cc(O)c(O)c(O)c2)oc2cc(O)cc(O)c12
REMARK SMILES IDX 5 1 3 2 2 3 1 4 23 5 21 6 20 7 18 8 17 9 16 10 15 11 6 12
REMARK SMILES IDX 7 13 8 14 14 15 10 16 12 17 9 18 11 20 13 22 4 24 22 26
REMARK SMILES IDX 19 28
REMARK H PARENT 9 19 11 21 13 23 4 25 22 27 19 29
REMARK Flexibility Score: inf
ROOT
ATOM      1  C   UNL     1      -6.239   7.183  15.986  1.00  0.00     0.180 A 
ATOM      2  C   UNL     1      -6.942   6.889  14.804  1.00  0.00     0.208 A 
ATOM      3  C   UNL     1      -7.166   5.547  14.462  1.00  0.00     0.238 A 
ATOM      4  O   UNL     1      -7.749   5.289  13.376  1.00  0.00    -0.285 OA
ATOM      5  C   UNL     1      -6.701   4.515  15.311  1.00  0.00     0.111 A 
ATOM      6  C   UNL     1      -6.907   3.121  15.082  1.00  0.00     0.134 A 
ATOM      7  C   UNL     1      -6.289   2.185  15.921  1.00  0.00     0.093 A 
ATOM      8  C   UNL     1      -5.526   2.593  17.017  1.00  0.00     0.123 A 
ATOM      9  C   UNL     1      -5.367   3.951  17.283  1.00  0.00     0.094 A 
ATOM     10  C   UNL     1      -5.942   4.909  16.444  1.00  0.00     0.146 A 
ATOM     11  O   UNL     1      -5.757   6.192  16.728  1.00  0.00    -0.452 OA
ENDROOT
BRANCH   1  12
ATOM     12  C   UNL     1      -5.984   8.574  16.426  1.00  0.00     0.029 A 
ATOM     13  C   UNL     1      -7.027   9.321  16.994  1.00  0.00     0.062 A 
ATOM     14  C   UNL     1      -6.817  10.646  17.399  1.00  0.00     0.162 A 
ATOM     15  C   UNL     1      -4.733   9.183  16.235  1.00  0.00     0.062 A 
ATOM     16  C   UNL     1      -5.562  11.241  17.224  1.00  0.00     0.200 A 
ATOM     17  C   UNL     1      -4.516  10.509  16.636  1.00  0.00     0.162 A 
BRANCH  14  18
ATOM     18  O   UNL     1      -7.854  11.379  17.975  1.00  0.00    -0.504 OA
ATOM     19  H   UNL     1      -7.725  11.890  18.841  1.00  0.00     0.293 HD
ENDBRANCH  14  18
BRANCH  16  20
ATOM     20  O   UNL     1      -5.370  12.560  17.636  1.00  0.00    -0.502 OA
ATOM     21  H   UNL     1      -4.506  12.872  18.063  1.00  0.00     0.293 HD
ENDBRANCH  16  20
BRANCH  17  22
ATOM     22  O   UNL     1      -3.269  11.103  16.447  1.00  0.00    -0.504 OA
ATOM     23  H   UNL     1      -2.916  11.811  17.080  1.00  0.00     0.293 HD
ENDBRANCH  17  22
ENDBRANCH   1  12
BRANCH   2  24
ATOM     24  O   UNL     1      -7.374   7.923  13.969  1.00  0.00    -0.502 OA
ATOM     25  H   UNL     1      -7.977   8.670  14.295  1.00  0.00     0.293 HD
ENDBRANCH   2  24
BRANCH   6  26
ATOM     26  O   UNL     1      -7.726   2.609  14.072  1.00  0.00    -0.507 OA
ATOM     27  H   UNL     1      -7.442   2.478  13.113  1.00  0.00     0.293 HD
ENDBRANCH   6  26
BRANCH   8  28
ATOM     28  O   UNL     1      -4.927   1.655  17.855  1.00  0.00    -0.508 OA
ATOM     29  H   UNL     1      -4.862   1.802  18.856  1.00  0.00     0.293 HD
ENDBRANCH   8  28
TORSDOF 7
ENDMDL
MODEL 6
REMARK VINA RESULT:    32.358      4.740      5.671
REMARK INTER + INTRA:          39.570
REMARK INTER:                  39.536
REMARK INTRA:                   0.033
REMARK UNBOUND:                -0.356
REMARK SMILES O=c1c(O)c(-c2cc(O)c(O)c(O)c2)oc2cc(O)cc(O)c12
REMARK SMILES IDX 5 1 3 2 2 3 1 4 23 5 21 6 20 7 18 8 17 9 16 10 15 11 6 12
REMARK SMILES IDX 7 13 8 14 14 15 10 16 12 17 9 18 11 20 13 22 4 24 22 26
REMARK SMILES IDX 19 28
REMARK H PARENT 9 19 11 21 13 23 4 25 22 27 19 29
REMARK Flexibility Score: inf
ROOT
ATOM      1  C   UNL     1     -10.479   8.459  19.090  1.00  0.00     0.180 A 
ATOM      2  C   UNL     1      -9.172   8.689  19.552  1.00  0.00     0.208 A 
ATOM      3  C   UNL     1      -8.567   9.930  19.294  1.00  0.00     0.238 A 
ATOM      4  O   UNL     1      -7.377  10.111  19.664  1.00  0.00    -0.285 OA
ATOM      5  C   UNL     1      -9.282  10.930  18.593  1.00  0.00     0.111 A 
ATOM      6  C   UNL     1      -8.782  12.237  18.310  1.00  0.00     0.134 A 
ATOM      7  C   UNL     1      -9.525  13.099  17.495  1.00  0.00     0.093 A 
ATOM      8  C   UNL     1     -10.779  12.725  17.005  1.00  0.00     0.123 A 
ATOM      9  C   UNL     1     -11.302  11.474  17.323  1.00  0.00     0.094 A 
ATOM     10  C   UNL     1     -10.568  10.578  18.106  1.00  0.00     0.146 A 
ATOM     11  O   UNL     1     -11.098   9.392  18.377  1.00  0.00    -0.452 OA
ENDROOT
BRANCH   1  12
ATOM     12  C   UNL     1     -11.191   7.185  19.344  1.00  0.00     0.029 A 
ATOM     13  C   UNL     1     -11.178   6.632  20.633  1.00  0.00     0.062 A 
ATOM     14  C   UNL     1     -11.826   5.417  20.894  1.00  0.00     0.162 A 
ATOM     15  C   UNL     1     -11.833   6.487  18.307  1.00  0.00     0.062 A 
ATOM     16  C   UNL     1     -12.482   4.736  19.861  1.00  0.00     0.200 A 
ATOM     17  C   UNL     1     -12.482   5.271  18.561  1.00  0.00     0.162 A 
BRANCH  14  18
ATOM     18  O   UNL     1     -11.822   4.879  22.180  1.00  0.00    -0.504 OA
ATOM     19  H   UNL     1     -10.958   4.719  22.685  1.00  0.00     0.293 HD
ENDBRANCH  14  18
BRANCH  16  20
ATOM     20  O   UNL     1     -13.124   3.530  20.139  1.00  0.00    -0.502 OA
ATOM     21  H   UNL     1     -12.976   3.026  21.005  1.00  0.00     0.293 HD
ENDBRANCH  16  20
BRANCH  17  22
ATOM     22  O   UNL     1     -13.122   4.590  17.526  1.00  0.00    -0.504 OA
ATOM     23  H   UNL     1     -13.270   5.018  16.620  1.00  0.00     0.293 HD
ENDBRANCH  17  22
ENDBRANCH   1  12
BRANCH   2  24
ATOM     24  O   UNL     1      -8.477   7.681  20.226  1.00  0.00    -0.502 OA
ATOM     25  H   UNL     1      -8.594   7.508  21.217  1.00  0.00     0.293 HD
ENDBRANCH   2  24
BRANCH   6  26
ATOM     26  O   UNL     1      -7.585  12.742  18.825  1.00  0.00    -0.507 OA
ATOM     27  H   UNL     1      -7.393  12.876  19.806  1.00  0.00     0.293 HD
ENDBRANCH   6  26
BRANCH   8  28
ATOM     28  O   UNL     1     -11.519  13.595  16.207  1.00  0.00    -0.508 OA
ATOM     29  H   UNL     1     -11.978  13.278  15.361  1.00  0.00     0.293 HD
ENDBRANCH   8  28
TORSDOF 7
ENDMDL
MODEL 7
REMARK VINA RESULT:    32.659     11.493     12.271
REMARK INTER + INTRA:          39.940
REMARK INTER:                  39.532
REMARK INTRA:                   0.408
REMARK UNBOUND:                -0.356
REMARK SMILES O=c1c(O)c(-c2cc(O)c(O)c(O)c2)oc2cc(O)cc(O)c12
REMARK SMILES IDX 5 1 3 2 2 3 1 4 23 5 21 6 20 7 18 8 17 9 16 10 15 11 6 12
REMARK SMILES IDX 7 13 8 14 14 15 10 16 12 17 9 18 11 20 13 22 4 24 22 26
REMARK SMILES IDX 19 28
REMARK H PARENT 9 19 11 21 13 23 4 25 22 27 19 29
REMARK Flexibility Score: inf
ROOT
ATOM      1  C   UNL     1      -5.564  -2.433  12.980  1.00  0.00     0.180 A 
ATOM      2  C   UNL     1      -6.380  -1.970  11.933  1.00  0.00     0.208 A 
ATOM      3  C   UNL     1      -7.773  -1.975  12.103  1.00  0.00     0.238 A 
ATOM      4  O   UNL     1      -8.501  -1.609  11.143  1.00  0.00    -0.285 OA
ATOM      5  C   UNL     1      -8.334  -2.427  13.322  1.00  0.00     0.111 A 
ATOM      6  C   UNL     1      -9.730  -2.438  13.618  1.00  0.00     0.134 A 
ATOM      7  C   UNL     1     -10.180  -3.030  14.805  1.00  0.00     0.093 A 
ATOM      8  C   UNL     1      -9.278  -3.552  15.736  1.00  0.00     0.123 A 
ATOM      9  C   UNL     1      -7.910  -3.492  15.483  1.00  0.00     0.094 A 
ATOM     10  C   UNL     1      -7.433  -2.940  14.291  1.00  0.00     0.146 A 
ATOM     11  O   UNL     1      -6.122  -2.913  14.086  1.00  0.00    -0.452 OA
ENDROOT
BRANCH   1  12
ATOM     12  C   UNL     1      -4.086  -2.436  12.885  1.00  0.00     0.029 A 
ATOM     13  C   UNL     1      -3.454  -1.623  11.933  1.00  0.00     0.062 A 
ATOM     14  C   UNL     1      -2.058  -1.623  11.808  1.00  0.00     0.162 A 
ATOM     15  C   UNL     1      -3.304  -3.281  13.690  1.00  0.00     0.062 A 
ATOM     16  C   UNL     1      -1.282  -2.453  12.627  1.00  0.00     0.200 A 
ATOM     17  C   UNL     1      -1.907  -3.288  13.570  1.00  0.00     0.162 A 
BRANCH  14  18
ATOM     18  O   UNL     1      -1.434  -0.803  10.869  1.00  0.00    -0.504 OA
ATOM     19  H   UNL     1      -0.671  -0.188  11.127  1.00  0.00     0.293 HD
ENDBRANCH  14  18
BRANCH  16  20
ATOM     20  O   UNL     1       0.106  -2.438  12.492  1.00  0.00    -0.502 OA
ATOM     21  H   UNL     1       0.626  -1.581  12.349  1.00  0.00     0.293 HD
ENDBRANCH  16  20
BRANCH  17  22
ATOM     22  O   UNL     1      -1.139  -4.125  14.378  1.00  0.00    -0.504 OA
ATOM     23  H   UNL     1      -0.156  -4.286  14.194  1.00  0.00     0.293 HD
ENDBRANCH  17  22
ENDBRANCH   1  12
BRANCH   2  24
ATOM     24  O   UNL     1      -5.807  -1.547  10.731  1.00  0.00    -0.502 OA
ATOM     25  H   UNL     1      -6.153  -0.746  10.215  1.00  0.00     0.293 HD
ENDBRANCH   2  24
BRANCH   6  26
ATOM     26  O   UNL     1     -10.706  -1.862  12.799  1.00  0.00    -0.507 OA
ATOM     27  H   UNL     1     -10.814  -2.050  11.814  1.00  0.00     0.293 HD
ENDBRANCH   6  26
BRANCH   8  28
ATOM     28  O   UNL     1      -9.733  -4.125  16.921  1.00  0.00    -0.508 OA
ATOM     29  H   UNL     1      -9.205  -4.845  17.400  1.00  0.00     0.293 HD
ENDBRANCH   8  28
TORSDOF 7
ENDMDL
