MODEL 1
REMARK VINA RESULT:    -4.004      0.000      0.000
REMARK INTER + INTRA:          -5.695
REMARK INTER:                  -5.175
REMARK INTRA:                  -0.520
REMARK UNBOUND:                -0.520
REMARK SMILES C=CC(=O)CCCCC
REMARK SMILES IDX 6 1 7 2 8 3 9 4 5 5 3 6 4 7 2 8 1 9
REMARK H PARENT
REMARK Flexibility Score: inf
ROOT
ATOM      1  C   UNL     1      28.977  55.494  10.981  1.00  0.00     0.008 C 
ENDROOT
BRANCH   1   2
ATOM      2  C   UNL     1      27.477  55.225  11.175  1.00  0.00     0.000 C 
BRANCH   2   3
ATOM      3  C   UNL     1      26.602  56.399  10.711  1.00  0.00    -0.003 C 
ATOM      4  C   UNL     1      25.629  56.874  11.789  1.00  0.00     0.004 C 
ENDBRANCH   2   3
ENDBRANCH   1   2
BRANCH   1   5
ATOM      5  C   UNL     1      29.222  56.945  10.537  1.00  0.00     0.080 C 
BRANCH   5   6
ATOM      6  C   UNL     1      30.120  57.710  11.483  1.00  0.00     0.155 C 
ATOM      7  O   UNL     1      31.328  57.376  11.617  1.00  0.00    -0.295 OA
BRANCH   6   8
ATOM      8  C   UNL     1      29.622  58.853  12.274  1.00  0.00     0.039 C 
ATOM      9  C   UNL     1      28.579  58.780  13.101  1.00  0.00     0.012 C 
ENDBRANCH   6   8
ENDBRANCH   5   6
ENDBRANCH   1   5
TORSDOF 5
ENDMDL
MODEL 2
REMARK VINA RESULT:    -3.985      8.391      9.653
REMARK INTER + INTRA:          -5.670
REMARK INTER:                  -5.140
REMARK INTRA:                  -0.531
REMARK UNBOUND:                -0.520
REMARK SMILES C=CC(=O)CCCCC
REMARK SMILES IDX 6 1 7 2 8 3 9 4 5 5 3 6 4 7 2 8 1 9
REMARK H PARENT
REMARK Flexibility Score: inf
ROOT
ATOM      1  C   UNL     1      29.147  50.689  16.586  1.00  0.00     0.008 C 
ENDROOT
BRANCH   1   2
ATOM      2  C   UNL     1      27.628  50.833  16.415  1.00  0.00     0.000 C 
BRANCH   2   3
ATOM      3  C   UNL     1      26.850  49.665  17.038  1.00  0.00    -0.003 C 
ATOM      4  C   UNL     1      25.642  49.244  16.200  1.00  0.00     0.004 C 
ENDBRANCH   2   3
ENDBRANCH   1   2
BRANCH   1   5
ATOM      5  C   UNL     1      29.511  49.291  17.110  1.00  0.00     0.080 C 
BRANCH   5   6
ATOM      6  C   UNL     1      30.375  48.505  16.150  1.00  0.00     0.155 C 
ATOM      7  O   UNL     1      31.585  48.822  15.984  1.00  0.00    -0.295 OA
BRANCH   6   8
ATOM      8  C   UNL     1      29.844  47.362  15.381  1.00  0.00     0.039 C 
ATOM      9  C   UNL     1      28.725  47.415  14.659  1.00  0.00     0.012 C 
ENDBRANCH   6   8
ENDBRANCH   5   6
ENDBRANCH   1   5
TORSDOF 5
ENDMDL
MODEL 3
REMARK VINA RESULT:    -3.951      1.550      3.543
REMARK INTER + INTRA:          -5.626
REMARK INTER:                  -5.053
REMARK INTRA:                  -0.573
REMARK UNBOUND:                -0.520
REMARK SMILES C=CC(=O)CCCCC
REMARK SMILES IDX 6 1 7 2 8 3 9 4 5 5 3 6 4 7 2 8 1 9
REMARK H PARENT
REMARK Flexibility Score: inf
ROOT
ATOM      1  C   UNL     1      30.066  56.975  10.581  1.00  0.00     0.008 C 
ENDROOT
BRANCH   1   2
ATOM      2  C   UNL     1      30.510  57.797  11.800  1.00  0.00     0.000 C 
BRANCH   2   3
ATOM      3  C   UNL     1      29.582  58.989  12.078  1.00  0.00    -0.003 C 
ATOM      4  C   UNL     1      28.604  58.723  13.222  1.00  0.00     0.004 C 
ENDBRANCH   2   3
ENDBRANCH   1   2
BRANCH   1   5
ATOM      5  C   UNL     1      29.618  55.566  11.003  1.00  0.00     0.080 C 
BRANCH   5   6
ATOM      6  C   UNL     1      28.174  55.512  11.448  1.00  0.00     0.155 C 
ATOM      7  O   UNL     1      27.873  54.998  12.559  1.00  0.00    -0.295 OA
BRANCH   6   8
ATOM      8  C   UNL     1      27.081  56.046  10.610  1.00  0.00     0.039 C 
ATOM      9  C   UNL     1      26.018  56.683  11.102  1.00  0.00     0.012 C 
ENDBRANCH   6   8
ENDBRANCH   5   6
ENDBRANCH   1   5
TORSDOF 5
ENDMDL
MODEL 4
REMARK VINA RESULT:    -3.891      8.202      9.486
REMARK INTER + INTRA:          -5.548
REMARK INTER:                  -5.014
REMARK INTRA:                  -0.534
REMARK UNBOUND:                -0.520
REMARK SMILES C=CC(=O)CCCCC
REMARK SMILES IDX 6 1 7 2 8 3 9 4 5 5 3 6 4 7 2 8 1 9
REMARK H PARENT
REMARK Flexibility Score: inf
ROOT
ATOM      1  C   UNL     1      29.906  49.240  17.067  1.00  0.00     0.008 C 
ENDROOT
BRANCH   1   2
ATOM      2  C   UNL     1      30.561  48.479  15.906  1.00  0.00     0.000 C 
BRANCH   2   3
ATOM      3  C   UNL     1      29.819  47.180  15.558  1.00  0.00    -0.003 C 
ATOM      4  C   UNL     1      28.710  47.390  14.526  1.00  0.00     0.004 C 
ENDBRANCH   2   3
ENDBRANCH   1   2
BRANCH   1   5
ATOM      5  C   UNL     1      29.493  50.656  16.634  1.00  0.00     0.080 C 
BRANCH   5   6
ATOM      6  C   UNL     1      28.024  50.766  16.294  1.00  0.00     0.155 C 
ATOM      7  O   UNL     1      27.645  51.530  15.365  1.00  0.00    -0.295 OA
BRANCH   6   8
ATOM      8  C   UNL     1      26.995  49.998  17.026  1.00  0.00     0.039 C 
ATOM      9  C   UNL     1      26.029  49.304  16.427  1.00  0.00     0.012 C 
ENDBRANCH   6   8
ENDBRANCH   5   6
ENDBRANCH   1   5
TORSDOF 5
ENDMDL
MODEL 5
REMARK VINA RESULT:    -3.856      5.862      7.532
REMARK INTER + INTRA:          -5.503
REMARK INTER:                  -5.039
REMARK INTRA:                  -0.464
REMARK UNBOUND:                -0.520
REMARK SMILES C=CC(=O)CCCCC
REMARK SMILES IDX 6 1 7 2 8 3 9 4 5 5 3 6 4 7 2 8 1 9
REMARK H PARENT
REMARK Flexibility Score: inf
ROOT
ATOM      1  C   UNL     1      25.453  52.836   7.489  1.00  0.00     0.008 C 
ENDROOT
BRANCH   1   2
ATOM      2  C   UNL     1      26.260  51.652   8.040  1.00  0.00     0.000 C 
BRANCH   2   3
ATOM      3  C   UNL     1      27.034  52.009   9.318  1.00  0.00    -0.003 C 
ATOM      4  C   UNL     1      26.505  53.273   9.997  1.00  0.00     0.004 C 
ENDBRANCH   2   3
ENDBRANCH   1   2
BRANCH   1   5
ATOM      5  C   UNL     1      23.982  52.446   7.273  1.00  0.00     0.080 C 
BRANCH   5   6
ATOM      6  C   UNL     1      23.241  52.192   8.566  1.00  0.00     0.155 C 
ATOM      7  O   UNL     1      22.983  51.012   8.926  1.00  0.00    -0.295 OA
BRANCH   6   8
ATOM      8  C   UNL     1      22.797  53.298   9.439  1.00  0.00     0.039 C 
ATOM      9  C   UNL     1      22.697  54.564   9.033  1.00  0.00     0.012 C 
ENDBRANCH   6   8
ENDBRANCH   5   6
ENDBRANCH   1   5
TORSDOF 5
ENDMDL
MODEL 6
REMARK VINA RESULT:    -3.841      1.973      3.469
REMARK INTER + INTRA:          -5.484
REMARK INTER:                  -4.970
REMARK INTRA:                  -0.514
REMARK UNBOUND:                -0.520
REMARK SMILES C=CC(=O)CCCCC
REMARK SMILES IDX 6 1 7 2 8 3 9 4 5 5 3 6 4 7 2 8 1 9
REMARK H PARENT
REMARK Flexibility Score: inf
ROOT
ATOM      1  C   UNL     1      30.405  57.063  10.691  1.00  0.00     0.008 C 
ENDROOT
BRANCH   1   2
ATOM      2  C   UNL     1      30.519  57.873  11.991  1.00  0.00     0.000 C 
BRANCH   2   3
ATOM      3  C   UNL     1      29.460  58.981  12.090  1.00  0.00    -0.003 C 
ATOM      4  C   UNL     1      28.585  58.853  13.337  1.00  0.00     0.004 C 
ENDBRANCH   2   3
ENDBRANCH   1   2
BRANCH   1   5
ATOM      5  C   UNL     1      29.073  56.300  10.632  1.00  0.00     0.080 C 
BRANCH   5   6
ATOM      6  C   UNL     1      29.124  54.964  11.339  1.00  0.00     0.155 C 
ATOM      7  O   UNL     1      29.976  54.100  10.996  1.00  0.00    -0.295 OA
BRANCH   6   8
ATOM      8  C   UNL     1      28.193  54.627  12.434  1.00  0.00     0.039 C 
ATOM      9  C   UNL     1      28.220  55.210  13.632  1.00  0.00     0.012 C 
ENDBRANCH   6   8
ENDBRANCH   5   6
ENDBRANCH   1   5
TORSDOF 5
ENDMDL
MODEL 7
REMARK VINA RESULT:    -3.831      8.666      9.997
REMARK INTER + INTRA:          -5.472
REMARK INTER:                  -5.022
REMARK INTRA:                  -0.449
REMARK UNBOUND:                -0.520
REMARK SMILES C=CC(=O)CCCCC
REMARK SMILES IDX 6 1 7 2 8 3 9 4 5 5 3 6 4 7 2 8 1 9
REMARK H PARENT
REMARK Flexibility Score: inf
ROOT
ATOM      1  C   UNL     1      25.612  53.202  20.119  1.00  0.00     0.008 C 
ENDROOT
BRANCH   1   2
ATOM      2  C   UNL     1      26.361  54.454  19.640  1.00  0.00     0.000 C 
BRANCH   2   3
ATOM      3  C   UNL     1      27.314  54.161  18.471  1.00  0.00    -0.003 C 
ATOM      4  C   UNL     1      26.577  53.762  17.192  1.00  0.00     0.004 C 
ENDBRANCH   2   3
ENDBRANCH   1   2
BRANCH   1   5
ATOM      5  C   UNL     1      24.125  53.508  20.359  1.00  0.00     0.080 C 
BRANCH   5   6
ATOM      6  C   UNL     1      23.344  53.688  19.077  1.00  0.00     0.155 C 
ATOM      7  O   UNL     1      22.940  54.833  18.738  1.00  0.00    -0.295 OA
BRANCH   6   8
ATOM      8  C   UNL     1      23.027  52.548  18.192  1.00  0.00     0.039 C 
ATOM      9  C   UNL     1      22.715  51.332  18.640  1.00  0.00     0.012 C 
ENDBRANCH   6   8
ENDBRANCH   5   6
ENDBRANCH   1   5
TORSDOF 5
ENDMDL
MODEL 8
REMARK VINA RESULT:    -3.795      5.226      6.997
REMARK INTER + INTRA:          -5.424
REMARK INTER:                  -4.963
REMARK INTRA:                  -0.461
REMARK UNBOUND:                -0.520
REMARK SMILES C=CC(=O)CCCCC
REMARK SMILES IDX 6 1 7 2 8 3 9 4 5 5 3 6 4 7 2 8 1 9
REMARK H PARENT
REMARK Flexibility Score: inf
ROOT
ATOM      1  C   UNL     1      24.922  54.448   7.351  1.00  0.00     0.008 C 
ENDROOT
BRANCH   1   2
ATOM      2  C   UNL     1      23.876  54.731   8.438  1.00  0.00     0.000 C 
BRANCH   2   3
ATOM      3  C   UNL     1      24.380  55.720   9.500  1.00  0.00    -0.003 C 
ATOM      4  C   UNL     1      25.830  55.459   9.910  1.00  0.00     0.004 C 
ENDBRANCH   2   3
ENDBRANCH   1   2
BRANCH   1   5
ATOM      5  C   UNL     1      24.789  53.011   6.821  1.00  0.00     0.080 C 
BRANCH   5   6
ATOM      6  C   UNL     1      24.896  51.967   7.909  1.00  0.00     0.155 C 
ATOM      7  O   UNL     1      23.954  51.149   8.096  1.00  0.00    -0.295 OA
BRANCH   6   8
ATOM      8  C   UNL     1      26.084  51.869   8.781  1.00  0.00     0.039 C 
ATOM      9  C   UNL     1      27.311  51.612   8.329  1.00  0.00     0.012 C 
ENDBRANCH   6   8
ENDBRANCH   5   6
ENDBRANCH   1   5
TORSDOF 5
ENDMDL
MODEL 9
REMARK VINA RESULT:    -3.738      7.378      8.747
REMARK INTER + INTRA:          -5.350
REMARK INTER:                  -4.891
REMARK INTRA:                  -0.460
REMARK UNBOUND:                -0.520
REMARK SMILES C=CC(=O)CCCCC
REMARK SMILES IDX 6 1 7 2 8 3 9 4 5 5 3 6 4 7 2 8 1 9
REMARK H PARENT
REMARK Flexibility Score: inf
ROOT
ATOM      1  C   UNL     1      28.642  49.154  16.753  1.00  0.00     0.008 C 
ENDROOT
BRANCH   1   2
ATOM      2  C   UNL     1      29.981  48.524  16.345  1.00  0.00     0.000 C 
BRANCH   2   3
ATOM      3  C   UNL     1      29.803  47.213  15.564  1.00  0.00    -0.003 C 
ATOM      4  C   UNL     1      28.729  47.311  14.480  1.00  0.00     0.004 C 
ENDBRANCH   2   3
ENDBRANCH   1   2
BRANCH   1   5
ATOM      5  C   UNL     1      28.669  50.678  16.558  1.00  0.00     0.080 C 
BRANCH   5   6
ATOM      6  C   UNL     1      28.869  51.086  15.116  1.00  0.00     0.155 C 
ATOM      7  O   UNL     1      29.921  51.690  14.770  1.00  0.00    -0.295 OA
BRANCH   6   8
ATOM      8  C   UNL     1      27.857  50.802  14.078  1.00  0.00     0.039 C 
ATOM      9  C   UNL     1      28.053  51.020  12.778  1.00  0.00     0.012 C 
ENDBRANCH   6   8
ENDBRANCH   5   6
ENDBRANCH   1   5
TORSDOF 5
ENDMDL
