MODEL 1
REMARK VINA RESULT:    -5.074      0.000      0.000
REMARK INTER + INTRA:          -7.512
REMARK INTER:                  -6.854
REMARK INTRA:                  -0.658
REMARK UNBOUND:                -0.658
REMARK SMILES COc1ccc(-c2cc(=O)c3c(OC)c(OC)c(OC)cc3o2)cc1OC
REMARK SMILES IDX 7 1 8 2 9 3 10 4 11 5 12 6 15 7 18 8 21 9 22 10 23 11 6 12
REMARK SMILES IDX 3 13 25 14 4 15 24 16 5 17 2 18 1 19 26 20 27 21 13 22 14 23
REMARK SMILES IDX 19 24 20 25 16 26 17 27
REMARK H PARENT
REMARK Flexibility Score: inf
ROOT
ATOM      1  C   UNL     1      15.712  51.063  30.613  1.00  0.00     0.138 A 
ATOM      2  C   UNL     1      15.373  51.902  29.542  1.00  0.00     0.100 A 
ATOM      3  C   UNL     1      14.999  53.221  29.796  1.00  0.00     0.197 A 
ATOM      4  O   UNL     1      14.680  53.961  28.826  1.00  0.00    -0.289 OA
ATOM      5  C   UNL     1      14.971  53.695  31.125  1.00  0.00     0.111 A 
ATOM      6  C   UNL     1      14.613  55.022  31.468  1.00  0.00     0.179 A 
ATOM      7  C   UNL     1      14.542  55.401  32.830  1.00  0.00     0.204 A 
ATOM      8  C   UNL     1      14.922  54.496  33.831  1.00  0.00     0.168 A 
ATOM      9  C   UNL     1      15.313  53.194  33.482  1.00  0.00     0.098 A 
ATOM     10  C   UNL     1      15.322  52.788  32.148  1.00  0.00     0.146 A 
ATOM     11  O   UNL     1      15.667  51.537  31.855  1.00  0.00    -0.456 OA
ENDROOT
BRANCH   1  12
ATOM     12  C   UNL     1      16.104  49.646  30.403  1.00  0.00     0.021 A 
ATOM     13  C   UNL     1      16.856  46.964  29.942  1.00  0.00     0.160 A 
ATOM     14  C   UNL     1      16.068  47.288  31.058  1.00  0.00     0.161 A 
ATOM     15  C   UNL     1      17.255  47.983  29.057  1.00  0.00     0.051 A 
ATOM     16  C   UNL     1      15.694  48.628  31.283  1.00  0.00     0.062 A 
ATOM     17  C   UNL     1      16.877  49.306  29.283  1.00  0.00     0.016 A 
BRANCH  13  18
ATOM     18  O   UNL     1      17.218  45.622  29.746  1.00  0.00    -0.493 OA
ATOM     19  C   UNL     1      18.017  45.153  28.665  1.00  0.00     0.278 C 
ENDBRANCH  13  18
BRANCH  14  20
ATOM     20  O   UNL     1      15.675  46.249  31.916  1.00  0.00    -0.493 OA
ATOM     21  C   UNL     1      15.054  46.439  33.183  1.00  0.00     0.278 C 
ENDBRANCH  14  20
ENDBRANCH   1  12
BRANCH   6  22
ATOM     22  O   UNL     1      14.364  55.961  30.464  1.00  0.00    -0.492 OA
ATOM     23  C   UNL     1      15.320  56.979  30.159  1.00  0.00     0.278 C 
ENDBRANCH   6  22
BRANCH   8  24
ATOM     24  O   UNL     1      14.873  54.925  35.167  1.00  0.00    -0.493 OA
ATOM     25  C   UNL     1      13.862  54.556  36.099  1.00  0.00     0.278 C 
ENDBRANCH   8  24
BRANCH   7  26
ATOM     26  O   UNL     1      14.098  56.670  33.243  1.00  0.00    -0.490 OA
ATOM     27  C   UNL     1      12.728  57.032  33.426  1.00  0.00     0.278 C 
ENDBRANCH   7  26
TORSDOF 6
ENDMDL
MODEL 2
REMARK VINA RESULT:    -5.007      1.220      1.999
REMARK INTER + INTRA:          -7.421
REMARK INTER:                  -6.796
REMARK INTRA:                  -0.625
REMARK UNBOUND:                -0.658
REMARK SMILES COc1ccc(-c2cc(=O)c3c(OC)c(OC)c(OC)cc3o2)cc1OC
REMARK SMILES IDX 7 1 8 2 9 3 10 4 11 5 12 6 15 7 18 8 21 9 22 10 23 11 6 12
REMARK SMILES IDX 3 13 25 14 4 15 24 16 5 17 2 18 1 19 26 20 27 21 13 22 14 23
REMARK SMILES IDX 19 24 20 25 16 26 17 27
REMARK H PARENT
REMARK Flexibility Score: inf
ROOT
ATOM      1  C   UNL     1      15.120  50.699  31.015  1.00  0.00     0.138 A 
ATOM      2  C   UNL     1      15.324  51.536  29.908  1.00  0.00     0.100 A 
ATOM      3  C   UNL     1      15.390  52.916  30.094  1.00  0.00     0.197 A 
ATOM      4  O   UNL     1      15.557  53.658  29.090  1.00  0.00    -0.289 OA
ATOM      5  C   UNL     1      15.255  53.452  31.393  1.00  0.00     0.111 A 
ATOM      6  C   UNL     1      15.320  54.839  31.670  1.00  0.00     0.179 A 
ATOM      7  C   UNL     1      15.106  55.304  32.990  1.00  0.00     0.204 A 
ATOM      8  C   UNL     1      14.930  54.387  34.036  1.00  0.00     0.168 A 
ATOM      9  C   UNL     1      14.906  53.011  33.761  1.00  0.00     0.098 A 
ATOM     10  C   UNL     1      15.049  52.545  32.454  1.00  0.00     0.146 A 
ATOM     11  O   UNL     1      14.988  51.236  32.225  1.00  0.00    -0.456 OA
ENDROOT
BRANCH   1  12
ATOM     12  C   UNL     1      15.027  49.224  30.874  1.00  0.00     0.021 A 
ATOM     13  C   UNL     1      14.797  46.420  30.641  1.00  0.00     0.160 A 
ATOM     14  C   UNL     1      16.057  47.029  30.536  1.00  0.00     0.161 A 
ATOM     15  C   UNL     1      13.659  47.215  30.872  1.00  0.00     0.051 A 
ATOM     16  C   UNL     1      16.166  48.430  30.655  1.00  0.00     0.062 A 
ATOM     17  C   UNL     1      13.776  48.600  30.993  1.00  0.00     0.016 A 
BRANCH  13  18
ATOM     18  O   UNL     1      14.717  45.024  30.513  1.00  0.00    -0.493 OA
ATOM     19  C   UNL     1      14.532  44.124  31.600  1.00  0.00     0.278 C 
ENDBRANCH  13  18
BRANCH  14  20
ATOM     20  O   UNL     1      17.175  46.209  30.318  1.00  0.00    -0.493 OA
ATOM     21  C   UNL     1      17.719  45.908  29.038  1.00  0.00     0.278 C 
ENDBRANCH  14  20
ENDBRANCH   1  12
BRANCH   6  22
ATOM     22  O   UNL     1      15.627  55.743  30.650  1.00  0.00    -0.492 OA
ATOM     23  C   UNL     1      16.901  56.389  30.601  1.00  0.00     0.278 C 
ENDBRANCH   6  22
BRANCH   8  24
ATOM     24  O   UNL     1      14.760  54.888  35.337  1.00  0.00    -0.493 OA
ATOM     25  C   UNL     1      13.607  54.669  36.143  1.00  0.00     0.278 C 
ENDBRANCH   8  24
BRANCH   7  26
ATOM     26  O   UNL     1      15.057  56.671  33.316  1.00  0.00    -0.490 OA
ATOM     27  C   UNL     1      13.913  57.508  33.142  1.00  0.00     0.278 C 
ENDBRANCH   7  26
TORSDOF 6
ENDMDL
MODEL 3
REMARK VINA RESULT:    -4.936      1.682      8.203
REMARK INTER + INTRA:          -7.325
REMARK INTER:                  -6.818
REMARK INTRA:                  -0.507
REMARK UNBOUND:                -0.658
REMARK SMILES COc1ccc(-c2cc(=O)c3c(OC)c(OC)c(OC)cc3o2)cc1OC
REMARK SMILES IDX 7 1 8 2 9 3 10 4 11 5 12 6 15 7 18 8 21 9 22 10 23 11 6 12
REMARK SMILES IDX 3 13 25 14 4 15 24 16 5 17 2 18 1 19 26 20 27 21 13 22 14 23
REMARK SMILES IDX 19 24 20 25 16 26 17 27
REMARK H PARENT
REMARK Flexibility Score: inf
ROOT
ATOM      1  C   UNL     1      15.513  50.437  30.951  1.00  0.00     0.138 A 
ATOM      2  C   UNL     1      16.511  49.832  30.173  1.00  0.00     0.100 A 
ATOM      3  C   UNL     1      16.605  48.441  30.139  1.00  0.00     0.197 A 
ATOM      4  O   UNL     1      17.517  47.910  29.449  1.00  0.00    -0.289 OA
ATOM      5  C   UNL     1      15.695  47.661  30.884  1.00  0.00     0.111 A 
ATOM      6  C   UNL     1      15.716  46.245  30.897  1.00  0.00     0.179 A 
ATOM      7  C   UNL     1      14.813  45.536  31.724  1.00  0.00     0.204 A 
ATOM      8  C   UNL     1      13.835  46.230  32.451  1.00  0.00     0.168 A 
ATOM      9  C   UNL     1      13.794  47.632  32.404  1.00  0.00     0.098 A 
ATOM     10  C   UNL     1      14.722  48.345  31.645  1.00  0.00     0.146 A 
ATOM     11  O   UNL     1      14.675  49.674  31.648  1.00  0.00    -0.456 OA
ENDROOT
BRANCH   1  12
ATOM     12  C   UNL     1      15.373  51.912  31.036  1.00  0.00     0.021 A 
ATOM     13  C   UNL     1      15.128  54.723  31.136  1.00  0.00     0.160 A 
ATOM     14  C   UNL     1      15.330  53.996  32.319  1.00  0.00     0.161 A 
ATOM     15  C   UNL     1      15.060  54.042  29.906  1.00  0.00     0.051 A 
ATOM     16  C   UNL     1      15.453  52.593  32.263  1.00  0.00     0.062 A 
ATOM     17  C   UNL     1      15.188  52.653  29.859  1.00  0.00     0.016 A 
BRANCH  13  18
ATOM     18  O   UNL     1      15.003  56.119  31.222  1.00  0.00    -0.493 OA
ATOM     19  C   UNL     1      16.052  57.041  30.947  1.00  0.00     0.278 C 
ENDBRANCH  13  18
BRANCH  14  20
ATOM     20  O   UNL     1      15.406  54.705  33.528  1.00  0.00    -0.493 OA
ATOM     21  C   UNL     1      15.329  54.110  34.819  1.00  0.00     0.278 C 
ENDBRANCH  14  20
ENDBRANCH   1  12
BRANCH   6  22
ATOM     22  O   UNL     1      16.603  45.551  30.070  1.00  0.00    -0.492 OA
ATOM     23  C   UNL     1      16.167  45.000  28.825  1.00  0.00     0.278 C 
ENDBRANCH   6  22
BRANCH   8  24
ATOM     24  O   UNL     1      12.934  45.485  33.229  1.00  0.00    -0.493 OA
ATOM     25  C   UNL     1      12.970  45.401  34.650  1.00  0.00     0.278 C 
ENDBRANCH   8  24
BRANCH   7  26
ATOM     26  O   UNL     1      14.846  44.137  31.860  1.00  0.00    -0.490 OA
ATOM     27  C   UNL     1      14.055  43.227  31.093  1.00  0.00     0.278 C 
ENDBRANCH   7  26
TORSDOF 6
ENDMDL
MODEL 4
REMARK VINA RESULT:    -4.871      1.759      2.124
REMARK INTER + INTRA:          -7.237
REMARK INTER:                  -6.633
REMARK INTRA:                  -0.604
REMARK UNBOUND:                -0.658
REMARK SMILES COc1ccc(-c2cc(=O)c3c(OC)c(OC)c(OC)cc3o2)cc1OC
REMARK SMILES IDX 7 1 8 2 9 3 10 4 11 5 12 6 15 7 18 8 21 9 22 10 23 11 6 12
REMARK SMILES IDX 3 13 25 14 4 15 24 16 5 17 2 18 1 19 26 20 27 21 13 22 14 23
REMARK SMILES IDX 19 24 20 25 16 26 17 27
REMARK H PARENT
REMARK Flexibility Score: inf
ROOT
ATOM      1  C   UNL     1      14.689  50.995  31.102  1.00  0.00     0.138 A 
ATOM      2  C   UNL     1      13.312  51.083  30.849  1.00  0.00     0.100 A 
ATOM      3  C   UNL     1      12.644  52.280  31.101  1.00  0.00     0.197 A 
ATOM      4  O   UNL     1      11.403  52.342  30.885  1.00  0.00    -0.289 OA
ATOM      5  C   UNL     1      13.360  53.388  31.603  1.00  0.00     0.111 A 
ATOM      6  C   UNL     1      12.760  54.641  31.876  1.00  0.00     0.179 A 
ATOM      7  C   UNL     1      13.533  55.683  32.444  1.00  0.00     0.204 A 
ATOM      8  C   UNL     1      14.910  55.506  32.641  1.00  0.00     0.168 A 
ATOM      9  C   UNL     1      15.507  54.274  32.331  1.00  0.00     0.098 A 
ATOM     10  C   UNL     1      14.742  53.219  31.835  1.00  0.00     0.146 A 
ATOM     11  O   UNL     1      15.335  52.055  31.583  1.00  0.00    -0.456 OA
ENDROOT
BRANCH   1  12
ATOM     12  C   UNL     1      15.450  49.743  30.866  1.00  0.00     0.021 A 
ATOM     13  C   UNL     1      16.917  47.384  30.361  1.00  0.00     0.160 A 
ATOM     14  C   UNL     1      15.789  47.341  31.194  1.00  0.00     0.161 A 
ATOM     15  C   UNL     1      17.301  48.605  29.776  1.00  0.00     0.051 A 
ATOM     16  C   UNL     1      15.059  48.521  31.442  1.00  0.00     0.062 A 
ATOM     17  C   UNL     1      16.570  49.768  30.022  1.00  0.00     0.016 A 
BRANCH  13  18
ATOM     18  O   UNL     1      17.629  46.195  30.137  1.00  0.00    -0.493 OA
ATOM     19  C   UNL     1      17.756  45.558  28.870  1.00  0.00     0.278 C 
ENDBRANCH  13  18
BRANCH  14  20
ATOM     20  O   UNL     1      15.424  46.106  31.754  1.00  0.00    -0.493 OA
ATOM     21  C   UNL     1      14.608  45.952  32.910  1.00  0.00     0.278 C 
ENDBRANCH  14  20
ENDBRANCH   1  12
BRANCH   6  22
ATOM     22  O   UNL     1      11.418  54.859  31.555  1.00  0.00    -0.492 OA
ATOM     23  C   UNL     1      11.053  55.662  30.430  1.00  0.00     0.278 C 
ENDBRANCH   6  22
BRANCH   8  24
ATOM     24  O   UNL     1      15.647  56.578  33.170  1.00  0.00    -0.493 OA
ATOM     25  C   UNL     1      16.439  57.474  32.397  1.00  0.00     0.278 C 
ENDBRANCH   8  24
BRANCH   7  26
ATOM     26  O   UNL     1      12.979  56.915  32.831  1.00  0.00    -0.490 OA
ATOM     27  C   UNL     1      12.226  57.129  34.026  1.00  0.00     0.278 C 
ENDBRANCH   7  26
TORSDOF 6
ENDMDL
MODEL 5
REMARK VINA RESULT:    -4.750      1.764      4.038
REMARK INTER + INTRA:          -7.073
REMARK INTER:                  -6.482
REMARK INTRA:                  -0.591
REMARK UNBOUND:                -0.658
REMARK SMILES COc1ccc(-c2cc(=O)c3c(OC)c(OC)c(OC)cc3o2)cc1OC
REMARK SMILES IDX 7 1 8 2 9 3 10 4 11 5 12 6 15 7 18 8 21 9 22 10 23 11 6 12
REMARK SMILES IDX 3 13 25 14 4 15 24 16 5 17 2 18 1 19 26 20 27 21 13 22 14 23
REMARK SMILES IDX 19 24 20 25 16 26 17 27
REMARK H PARENT
REMARK Flexibility Score: inf
ROOT
ATOM      1  C   UNL     1      15.330  52.203  31.287  1.00  0.00     0.138 A 
ATOM      2  C   UNL     1      15.184  52.726  32.581  1.00  0.00     0.100 A 
ATOM      3  C   UNL     1      15.227  54.107  32.771  1.00  0.00     0.197 A 
ATOM      4  O   UNL     1      15.112  54.564  33.940  1.00  0.00    -0.289 OA
ATOM      5  C   UNL     1      15.413  54.959  31.662  1.00  0.00     0.111 A 
ATOM      6  C   UNL     1      15.460  56.370  31.766  1.00  0.00     0.179 A 
ATOM      7  C   UNL     1      15.719  57.153  30.615  1.00  0.00     0.204 A 
ATOM      8  C   UNL     1      15.829  56.539  29.360  1.00  0.00     0.168 A 
ATOM      9  C   UNL     1      15.743  55.142  29.257  1.00  0.00     0.098 A 
ATOM     10  C   UNL     1      15.556  54.355  30.393  1.00  0.00     0.146 A 
ATOM     11  O   UNL     1      15.512  53.032  30.263  1.00  0.00    -0.456 OA
ENDROOT
BRANCH   1  12
ATOM     12  C   UNL     1      15.306  50.742  31.027  1.00  0.00     0.021 A 
ATOM     13  C   UNL     1      15.226  47.954  30.587  1.00  0.00     0.160 A 
ATOM     14  C   UNL     1      16.260  48.721  30.028  1.00  0.00     0.161 A 
ATOM     15  C   UNL     1      14.242  48.583  31.372  1.00  0.00     0.051 A 
ATOM     16  C   UNL     1      16.296  50.113  30.252  1.00  0.00     0.062 A 
ATOM     17  C   UNL     1      14.287  49.960  31.593  1.00  0.00     0.016 A 
BRANCH  13  18
ATOM     18  O   UNL     1      15.212  46.572  30.342  1.00  0.00    -0.493 OA
ATOM     19  C   UNL     1      15.318  45.573  31.351  1.00  0.00     0.278 C 
ENDBRANCH  13  18
BRANCH  14  20
ATOM     20  O   UNL     1      17.234  48.064  29.260  1.00  0.00    -0.493 OA
ATOM     21  C   UNL     1      17.184  47.918  27.845  1.00  0.00     0.278 C 
ENDBRANCH  14  20
ENDBRANCH   1  12
BRANCH   6  22
ATOM     22  O   UNL     1      15.216  56.989  32.995  1.00  0.00    -0.492 OA
ATOM     23  C   UNL     1      13.990  57.682  33.238  1.00  0.00     0.278 C 
ENDBRANCH   6  22
BRANCH   8  24
ATOM     24  O   UNL     1      16.047  57.355  28.238  1.00  0.00    -0.493 OA
ATOM     25  C   UNL     1      16.341  56.873  26.931  1.00  0.00     0.278 C 
ENDBRANCH   8  24
BRANCH   7  26
ATOM     26  O   UNL     1      15.876  58.549  30.666  1.00  0.00    -0.490 OA
ATOM     27  C   UNL     1      17.028  59.220  31.179  1.00  0.00     0.278 C 
ENDBRANCH   7  26
TORSDOF 6
ENDMDL
MODEL 6
REMARK VINA RESULT:    -4.749      1.783      8.738
REMARK INTER + INTRA:          -7.072
REMARK INTER:                  -6.477
REMARK INTRA:                  -0.596
REMARK UNBOUND:                -0.658
REMARK SMILES COc1ccc(-c2cc(=O)c3c(OC)c(OC)c(OC)cc3o2)cc1OC
REMARK SMILES IDX 7 1 8 2 9 3 10 4 11 5 12 6 15 7 18 8 21 9 22 10 23 11 6 12
REMARK SMILES IDX 3 13 25 14 4 15 24 16 5 17 2 18 1 19 26 20 27 21 13 22 14 23
REMARK SMILES IDX 19 24 20 25 16 26 17 27
REMARK H PARENT
REMARK Flexibility Score: inf
ROOT
ATOM      1  C   UNL     1      15.067  50.080  31.023  1.00  0.00     0.138 A 
ATOM      2  C   UNL     1      13.978  49.423  31.613  1.00  0.00     0.100 A 
ATOM      3  C   UNL     1      13.904  48.031  31.556  1.00  0.00     0.197 A 
ATOM      4  O   UNL     1      12.912  47.453  32.075  1.00  0.00    -0.289 OA
ATOM      5  C   UNL     1      14.926  47.304  30.910  1.00  0.00     0.111 A 
ATOM      6  C   UNL     1      14.932  45.891  30.815  1.00  0.00     0.179 A 
ATOM      7  C   UNL     1      15.958  45.238  30.090  1.00  0.00     0.204 A 
ATOM      8  C   UNL     1      17.018  45.982  29.553  1.00  0.00     0.168 A 
ATOM      9  C   UNL     1      17.027  47.379  29.683  1.00  0.00     0.098 A 
ATOM     10  C   UNL     1      15.987  48.039  30.337  1.00  0.00     0.146 A 
ATOM     11  O   UNL     1      16.010  49.366  30.414  1.00  0.00    -0.456 OA
ENDROOT
BRANCH   1  12
ATOM     12  C   UNL     1      15.191  51.559  31.041  1.00  0.00     0.021 A 
ATOM     13  C   UNL     1      15.453  54.370  31.017  1.00  0.00     0.160 A 
ATOM     14  C   UNL     1      15.400  53.683  32.239  1.00  0.00     0.161 A 
ATOM     15  C   UNL     1      15.385  53.647  29.811  1.00  0.00     0.051 A 
ATOM     16  C   UNL     1      15.270  52.280  32.246  1.00  0.00     0.062 A 
ATOM     17  C   UNL     1      15.262  52.258  29.826  1.00  0.00     0.016 A 
BRANCH  13  18
ATOM     18  O   UNL     1      15.576  55.769  31.041  1.00  0.00    -0.493 OA
ATOM     19  C   UNL     1      16.777  56.477  30.755  1.00  0.00     0.278 C 
ENDBRANCH  13  18
BRANCH  14  20
ATOM     20  O   UNL     1      15.482  54.431  33.425  1.00  0.00    -0.493 OA
ATOM     21  C   UNL     1      15.337  53.889  34.733  1.00  0.00     0.278 C 
ENDBRANCH  14  20
ENDBRANCH   1  12
BRANCH   6  22
ATOM     22  O   UNL     1      13.948  45.142  31.465  1.00  0.00    -0.492 OA
ATOM     23  C   UNL     1      14.253  44.395  32.644  1.00  0.00     0.278 C 
ENDBRANCH   6  22
BRANCH   8  24
ATOM     24  O   UNL     1      18.036  45.292  28.874  1.00  0.00    -0.493 OA
ATOM     25  C   UNL     1      18.053  45.051  27.471  1.00  0.00     0.278 C 
ENDBRANCH   8  24
BRANCH   7  26
ATOM     26  O   UNL     1      15.970  43.849  29.874  1.00  0.00    -0.490 OA
ATOM     27  C   UNL     1      15.184  43.172  28.892  1.00  0.00     0.278 C 
ENDBRANCH   7  26
TORSDOF 6
ENDMDL
MODEL 7
REMARK VINA RESULT:    -4.679      1.651      2.093
REMARK INTER + INTRA:          -6.978
REMARK INTER:                  -6.362
REMARK INTRA:                  -0.617
REMARK UNBOUND:                -0.658
REMARK SMILES COc1ccc(-c2cc(=O)c3c(OC)c(OC)c(OC)cc3o2)cc1OC
REMARK SMILES IDX 7 1 8 2 9 3 10 4 11 5 12 6 15 7 18 8 21 9 22 10 23 11 6 12
REMARK SMILES IDX 3 13 25 14 4 15 24 16 5 17 2 18 1 19 26 20 27 21 13 22 14 23
REMARK SMILES IDX 19 24 20 25 16 26 17 27
REMARK H PARENT
REMARK Flexibility Score: inf
ROOT
ATOM      1  C   UNL     1      15.038  50.084  30.995  1.00  0.00     0.138 A 
ATOM      2  C   UNL     1      15.071  50.618  29.698  1.00  0.00     0.100 A 
ATOM      3  C   UNL     1      15.116  52.001  29.526  1.00  0.00     0.197 A 
ATOM      4  O   UNL     1      15.128  52.469  28.356  1.00  0.00    -0.289 OA
ATOM      5  C   UNL     1      15.132  52.844  30.657  1.00  0.00     0.111 A 
ATOM      6  C   UNL     1      15.186  54.257  30.571  1.00  0.00     0.179 A 
ATOM      7  C   UNL     1      15.129  55.037  31.752  1.00  0.00     0.204 A 
ATOM      8  C   UNL     1      15.120  54.410  33.006  1.00  0.00     0.168 A 
ATOM      9  C   UNL     1      15.105  53.009  33.086  1.00  0.00     0.098 A 
ATOM     10  C   UNL     1      15.093  52.231  31.928  1.00  0.00     0.146 A 
ATOM     11  O   UNL     1      15.046  50.906  32.041  1.00  0.00    -0.456 OA
ENDROOT
BRANCH   1  12
ATOM     12  C   UNL     1      14.976  48.621  31.237  1.00  0.00     0.021 A 
ATOM     13  C   UNL     1      14.902  45.829  31.651  1.00  0.00     0.160 A 
ATOM     14  C   UNL     1      13.797  46.619  32.006  1.00  0.00     0.161 A 
ATOM     15  C   UNL     1      16.035  46.438  31.082  1.00  0.00     0.051 A 
ATOM     16  C   UNL     1      13.839  48.012  31.795  1.00  0.00     0.062 A 
ATOM     17  C   UNL     1      16.067  47.817  30.872  1.00  0.00     0.016 A 
BRANCH  13  18
ATOM     18  O   UNL     1      14.835  44.445  31.878  1.00  0.00    -0.493 OA
ATOM     19  C   UNL     1      14.562  43.476  30.871  1.00  0.00     0.278 C 
ENDBRANCH  13  18
BRANCH  14  20
ATOM     20  O   UNL     1      12.676  45.981  32.560  1.00  0.00    -0.493 OA
ATOM     21  C   UNL     1      12.171  46.227  33.868  1.00  0.00     0.278 C 
ENDBRANCH  14  20
ENDBRANCH   1  12
BRANCH   6  22
ATOM     22  O   UNL     1      15.331  54.877  29.328  1.00  0.00    -0.492 OA
ATOM     23  C   UNL     1      16.577  55.456  28.937  1.00  0.00     0.278 C 
ENDBRANCH   6  22
BRANCH   8  24
ATOM     24  O   UNL     1      15.103  55.220  34.153  1.00  0.00    -0.493 OA
ATOM     25  C   UNL     1      14.825  54.753  35.469  1.00  0.00     0.278 C 
ENDBRANCH   8  24
BRANCH   7  26
ATOM     26  O   UNL     1      15.079  56.441  31.733  1.00  0.00    -0.490 OA
ATOM     27  C   UNL     1      13.894  57.210  31.518  1.00  0.00     0.278 C 
ENDBRANCH   7  26
TORSDOF 6
ENDMDL
MODEL 8
REMARK VINA RESULT:    -4.675      1.649      8.374
REMARK INTER + INTRA:          -6.972
REMARK INTER:                  -6.451
REMARK INTRA:                  -0.522
REMARK UNBOUND:                -0.658
REMARK SMILES COc1ccc(-c2cc(=O)c3c(OC)c(OC)c(OC)cc3o2)cc1OC
REMARK SMILES IDX 7 1 8 2 9 3 10 4 11 5 12 6 15 7 18 8 21 9 22 10 23 11 6 12
REMARK SMILES IDX 3 13 25 14 4 15 24 16 5 17 2 18 1 19 26 20 27 21 13 22 14 23
REMARK SMILES IDX 19 24 20 25 16 26 17 27
REMARK H PARENT
REMARK Flexibility Score: inf
ROOT
ATOM      1  C   UNL     1      15.255  50.862  31.057  1.00  0.00     0.138 A 
ATOM      2  C   UNL     1      16.068  50.492  29.976  1.00  0.00     0.100 A 
ATOM      3  C   UNL     1      16.241  49.140  29.680  1.00  0.00     0.197 A 
ATOM      4  O   UNL     1      16.987  48.819  28.717  1.00  0.00    -0.289 OA
ATOM      5  C   UNL     1      15.594  48.165  30.468  1.00  0.00     0.111 A 
ATOM      6  C   UNL     1      15.708  46.773  30.229  1.00  0.00     0.179 A 
ATOM      7  C   UNL     1      15.083  45.855  31.107  1.00  0.00     0.204 A 
ATOM      8  C   UNL     1      14.271  46.323  32.149  1.00  0.00     0.168 A 
ATOM      9  C   UNL     1      14.130  47.704  32.357  1.00  0.00     0.098 A 
ATOM     10  C   UNL     1      14.795  48.618  31.540  1.00  0.00     0.146 A 
ATOM     11  O   UNL     1      14.665  49.918  31.786  1.00  0.00    -0.456 OA
ENDROOT
BRANCH   1  12
ATOM     12  C   UNL     1      15.046  52.285  31.427  1.00  0.00     0.021 A 
ATOM     13  C   UNL     1      14.614  54.971  32.182  1.00  0.00     0.160 A 
ATOM     14  C   UNL     1      14.882  54.655  30.841  1.00  0.00     0.161 A 
ATOM     15  C   UNL     1      14.553  53.940  33.138  1.00  0.00     0.051 A 
ATOM     16  C   UNL     1      15.095  53.312  30.469  1.00  0.00     0.062 A 
ATOM     17  C   UNL     1      14.761  52.613  32.762  1.00  0.00     0.016 A 
BRANCH  13  18
ATOM     18  O   UNL     1      14.411  56.317  32.524  1.00  0.00    -0.493 OA
ATOM     19  C   UNL     1      15.413  57.170  33.068  1.00  0.00     0.278 C 
ENDBRANCH  13  18
BRANCH  14  20
ATOM     20  O   UNL     1      14.924  55.704  29.908  1.00  0.00    -0.493 OA
ATOM     21  C   UNL     1      16.117  56.239  29.348  1.00  0.00     0.278 C 
ENDBRANCH  14  20
ENDBRANCH   1  12
BRANCH   6  22
ATOM     22  O   UNL     1      16.408  46.311  29.111  1.00  0.00    -0.492 OA
ATOM     23  C   UNL     1      17.667  45.652  29.255  1.00  0.00     0.278 C 
ENDBRANCH   6  22
BRANCH   8  24
ATOM     24  O   UNL     1      13.638  45.378  32.973  1.00  0.00    -0.493 OA
ATOM     25  C   UNL     1      13.251  45.613  34.323  1.00  0.00     0.278 C 
ENDBRANCH   8  24
BRANCH   7  26
ATOM     26  O   UNL     1      15.239  44.463  30.986  1.00  0.00    -0.490 OA
ATOM     27  C   UNL     1      14.471  43.632  30.113  1.00  0.00     0.278 C 
ENDBRANCH   7  26
TORSDOF 6
ENDMDL
MODEL 9
REMARK VINA RESULT:    -4.652      3.398      5.938
REMARK INTER + INTRA:          -6.942
REMARK INTER:                  -6.403
REMARK INTRA:                  -0.538
REMARK UNBOUND:                -0.658
REMARK SMILES COc1ccc(-c2cc(=O)c3c(OC)c(OC)c(OC)cc3o2)cc1OC
REMARK SMILES IDX 7 1 8 2 9 3 10 4 11 5 12 6 15 7 18 8 21 9 22 10 23 11 6 12
REMARK SMILES IDX 3 13 25 14 4 15 24 16 5 17 2 18 1 19 26 20 27 21 13 22 14 23
REMARK SMILES IDX 19 24 20 25 16 26 17 27
REMARK H PARENT
REMARK Flexibility Score: inf
ROOT
ATOM      1  C   UNL     1      14.880  47.904  31.203  1.00  0.00     0.138 A 
ATOM      2  C   UNL     1      14.342  49.112  31.670  1.00  0.00     0.100 A 
ATOM      3  C   UNL     1      14.647  50.300  31.006  1.00  0.00     0.197 A 
ATOM      4  O   UNL     1      14.171  51.382  31.445  1.00  0.00    -0.289 OA
ATOM      5  C   UNL     1      15.489  50.271  29.874  1.00  0.00     0.111 A 
ATOM      6  C   UNL     1      15.840  51.429  29.139  1.00  0.00     0.179 A 
ATOM      7  C   UNL     1      16.746  51.327  28.055  1.00  0.00     0.204 A 
ATOM      8  C   UNL     1      17.214  50.069  27.650  1.00  0.00     0.168 A 
ATOM      9  C   UNL     1      16.832  48.920  28.359  1.00  0.00     0.098 A 
ATOM     10  C   UNL     1      15.993  49.016  29.470  1.00  0.00     0.146 A 
ATOM     11  O   UNL     1      15.677  47.911  30.138  1.00  0.00    -0.456 OA
ENDROOT
BRANCH   1  12
ATOM     12  C   UNL     1      14.601  46.611  31.878  1.00  0.00     0.021 A 
ATOM     13  C   UNL     1      14.070  44.124  33.103  1.00  0.00     0.160 A 
ATOM     14  C   UNL     1      13.678  45.313  33.736  1.00  0.00     0.161 A 
ATOM     15  C   UNL     1      14.717  44.184  31.855  1.00  0.00     0.051 A 
ATOM     16  C   UNL     1      13.944  46.552  33.120  1.00  0.00     0.062 A 
ATOM     17  C   UNL     1      14.972  45.414  31.248  1.00  0.00     0.016 A 
BRANCH  13  18
ATOM     18  O   UNL     1      13.798  42.904  33.743  1.00  0.00    -0.493 OA
ATOM     19  C   UNL     1      14.430  41.669  33.426  1.00  0.00     0.278 C 
ENDBRANCH  13  18
BRANCH  14  20
ATOM     20  O   UNL     1      13.024  45.221  34.975  1.00  0.00    -0.493 OA
ATOM     21  C   UNL     1      11.701  45.681  35.227  1.00  0.00     0.278 C 
ENDBRANCH  14  20
ENDBRANCH   1  12
BRANCH   6  22
ATOM     22  O   UNL     1      15.268  52.663  29.460  1.00  0.00    -0.492 OA
ATOM     23  C   UNL     1      14.145  53.163  28.731  1.00  0.00     0.278 C 
ENDBRANCH   6  22
BRANCH   8  24
ATOM     24  O   UNL     1      18.081  50.008  26.546  1.00  0.00    -0.493 OA
ATOM     25  C   UNL     1      17.723  49.499  25.265  1.00  0.00     0.278 C 
ENDBRANCH   8  24
BRANCH   7  26
ATOM     26  O   UNL     1      17.213  52.448  27.347  1.00  0.00    -0.490 OA
ATOM     27  C   UNL     1      16.603  52.977  26.168  1.00  0.00     0.278 C 
ENDBRANCH   7  26
TORSDOF 6
ENDMDL
