MODEL 1
REMARK VINA RESULT:    -6.682      0.000      0.000
REMARK INTER + INTRA:         -10.033
REMARK INTER:                  -9.026
REMARK INTRA:                  -1.007
REMARK UNBOUND:                -1.007
REMARK SMILES CC(=O)CCC=C(C)CCC=C(C)C
REMARK SMILES IDX 7 1 6 2 8 3 9 4 10 5 11 6 13 7 12 8 14 9 5 10 4 11 2 12 3 13
REMARK SMILES IDX 1 14
REMARK H PARENT
REMARK Flexibility Score: inf
ROOT
ATOM      1  C   UNL     1      17.370  25.595   5.183  1.00  0.00    -0.077 C 
ATOM      2  C   UNL     1      16.401  25.578   6.129  1.00  0.00    -0.028 C 
ATOM      3  C   UNL     1      16.955  25.834   3.753  1.00  0.00     0.039 C 
ENDROOT
BRANCH   1   4
ATOM      4  C   UNL     1      18.839  25.368   5.490  1.00  0.00     0.034 C 
BRANCH   4   5
ATOM      5  C   UNL     1      19.636  26.677   5.413  1.00  0.00     0.032 C 
BRANCH   5   6
ATOM      6  C   UNL     1      20.823  26.543   4.490  1.00  0.00    -0.028 C 
ATOM      7  C   UNL     1      20.055  28.459   3.084  1.00  0.00     0.039 C 
ATOM      8  C   UNL     1      21.022  27.349   3.426  1.00  0.00    -0.080 C 
ATOM      9  C   UNL     1      22.241  27.129   2.569  1.00  0.00     0.039 C 
ENDBRANCH   5   6
ENDBRANCH   4   5
ENDBRANCH   1   4
BRANCH   2  10
ATOM     10  C   UNL     1      16.620  25.385   7.610  1.00  0.00     0.035 C 
BRANCH  10  11
ATOM     11  C   UNL     1      16.869  26.736   8.289  1.00  0.00     0.079 C 
BRANCH  11  12
ATOM     12  C   UNL     1      18.021  26.646   9.250  1.00  0.00     0.130 C 
ATOM     13  O   UNL     1      18.161  27.501  10.111  1.00  0.00    -0.300 OA
ATOM     14  C   UNL     1      19.003  25.518   9.152  1.00  0.00     0.087 C 
ENDBRANCH  11  12
ENDBRANCH  10  11
ENDBRANCH   2  10
TORSDOF 6
ENDMDL
MODEL 2
REMARK VINA RESULT:    -6.508      1.429      2.002
REMARK INTER + INTRA:          -9.798
REMARK INTER:                  -9.091
REMARK INTRA:                  -0.707
REMARK UNBOUND:                -1.007
REMARK SMILES CC(=O)CCC=C(C)CCC=C(C)C
REMARK SMILES IDX 7 1 6 2 8 3 9 4 10 5 11 6 13 7 12 8 14 9 5 10 4 11 2 12 3 13
REMARK SMILES IDX 1 14
REMARK H PARENT
REMARK Flexibility Score: inf
ROOT
ATOM      1  C   UNL     1      16.539  25.838   5.749  1.00  0.00    -0.077 C 
ATOM      2  C   UNL     1      16.527  26.571   6.889  1.00  0.00    -0.028 C 
ATOM      3  C   UNL     1      15.265  25.764   4.945  1.00  0.00     0.039 C 
ENDROOT
BRANCH   1   4
ATOM      4  C   UNL     1      17.759  25.080   5.259  1.00  0.00     0.034 C 
BRANCH   4   5
ATOM      5  C   UNL     1      18.050  25.381   3.783  1.00  0.00     0.032 C 
BRANCH   5   6
ATOM      6  C   UNL     1      18.685  26.740   3.615  1.00  0.00    -0.028 C 
ATOM      7  C   UNL     1      20.986  25.776   3.729  1.00  0.00     0.039 C 
ATOM      8  C   UNL     1      20.021  26.931   3.591  1.00  0.00    -0.080 C 
ATOM      9  C   UNL     1      20.551  28.330   3.419  1.00  0.00     0.039 C 
ENDBRANCH   5   6
ENDBRANCH   4   5
ENDBRANCH   1   4
BRANCH   2  10
ATOM     10  C   UNL     1      17.705  26.787   7.808  1.00  0.00     0.035 C 
BRANCH  10  11
ATOM     11  C   UNL     1      17.649  25.801   8.980  1.00  0.00     0.079 C 
BRANCH  11  12
ATOM     12  C   UNL     1      18.945  25.806   9.743  1.00  0.00     0.130 C 
ATOM     13  O   UNL     1      19.789  24.954   9.509  1.00  0.00    -0.300 OA
ATOM     14  C   UNL     1      19.202  26.843  10.793  1.00  0.00     0.087 C 
ENDBRANCH  11  12
ENDBRANCH  10  11
ENDBRANCH   2  10
TORSDOF 6
ENDMDL
MODEL 3
REMARK VINA RESULT:    -6.326      2.232      5.578
REMARK INTER + INTRA:          -9.552
REMARK INTER:                  -8.922
REMARK INTRA:                  -0.629
REMARK UNBOUND:                -1.007
REMARK SMILES CC(=O)CCC=C(C)CCC=C(C)C
REMARK SMILES IDX 7 1 6 2 8 3 9 4 10 5 11 6 13 7 12 8 14 9 5 10 4 11 2 12 3 13
REMARK SMILES IDX 1 14
REMARK H PARENT
REMARK Flexibility Score: inf
ROOT
ATOM      1  C   UNL     1      16.634  26.039   5.342  1.00  0.00    -0.077 C 
ATOM      2  C   UNL     1      17.694  25.630   4.605  1.00  0.00    -0.028 C 
ATOM      3  C   UNL     1      15.253  25.692   4.845  1.00  0.00     0.039 C 
ENDROOT
BRANCH   1   4
ATOM      4  C   UNL     1      16.770  26.841   6.624  1.00  0.00     0.034 C 
BRANCH   4   5
ATOM      5  C   UNL     1      16.846  25.925   7.852  1.00  0.00     0.032 C 
BRANCH   5   6
ATOM      6  C   UNL     1      17.265  26.691   9.083  1.00  0.00    -0.028 C 
ATOM      7  C   UNL     1      19.377  25.374   9.289  1.00  0.00     0.039 C 
ATOM      8  C   UNL     1      18.415  26.446   9.746  1.00  0.00    -0.080 C 
ATOM      9  C   UNL     1      18.739  27.270  10.965  1.00  0.00     0.039 C 
ENDBRANCH   5   6
ENDBRANCH   4   5
ENDBRANCH   1   4
BRANCH   2  10
ATOM     10  C   UNL     1      19.146  25.854   4.951  1.00  0.00     0.035 C 
BRANCH  10  11
ATOM     11  C   UNL     1      19.760  26.892   4.006  1.00  0.00     0.079 C 
BRANCH  11  12
ATOM     12  C   UNL     1      21.112  26.442   3.525  1.00  0.00     0.130 C 
ATOM     13  O   UNL     1      21.547  25.353   3.869  1.00  0.00    -0.300 OA
ATOM     14  C   UNL     1      21.931  27.325   2.633  1.00  0.00     0.087 C 
ENDBRANCH  11  12
ENDBRANCH  10  11
ENDBRANCH   2  10
TORSDOF 6
ENDMDL
MODEL 4
REMARK VINA RESULT:    -6.156      2.057      3.650
REMARK INTER + INTRA:          -9.322
REMARK INTER:                  -8.587
REMARK INTRA:                  -0.735
REMARK UNBOUND:                -1.007
REMARK SMILES CC(=O)CCC=C(C)CCC=C(C)C
REMARK SMILES IDX 7 1 6 2 8 3 9 4 10 5 11 6 13 7 12 8 14 9 5 10 4 11 2 12 3 13
REMARK SMILES IDX 1 14
REMARK H PARENT
REMARK Flexibility Score: inf
ROOT
ATOM      1  C   UNL     1      18.122  25.965   8.198  1.00  0.00    -0.077 C 
ATOM      2  C   UNL     1      16.938  25.310   8.264  1.00  0.00    -0.028 C 
ATOM      3  C   UNL     1      19.093  25.785   9.337  1.00  0.00     0.039 C 
ENDROOT
BRANCH   1   4
ATOM      4  C   UNL     1      18.504  26.880   7.047  1.00  0.00     0.034 C 
BRANCH   4   5
ATOM      5  C   UNL     1      19.636  26.277   6.205  1.00  0.00     0.032 C 
BRANCH   5   6
ATOM      6  C   UNL     1      20.063  27.218   5.106  1.00  0.00    -0.028 C 
ATOM      7  C   UNL     1      21.157  25.371   3.831  1.00  0.00     0.039 C 
ATOM      8  C   UNL     1      20.757  26.816   4.021  1.00  0.00    -0.080 C 
ATOM      9  C   UNL     1      21.135  27.839   2.981  1.00  0.00     0.039 C 
ENDBRANCH   5   6
ENDBRANCH   4   5
ENDBRANCH   1   4
BRANCH   2  10
ATOM     10  C   UNL     1      15.854  25.340   7.214  1.00  0.00     0.035 C 
BRANCH  10  11
ATOM     11  C   UNL     1      16.317  24.600   5.955  1.00  0.00     0.079 C 
BRANCH  11  12
ATOM     12  C   UNL     1      16.016  25.406   4.722  1.00  0.00     0.130 C 
ATOM     13  O   UNL     1      14.875  25.789   4.510  1.00  0.00    -0.300 OA
ATOM     14  C   UNL     1      17.106  25.733   3.747  1.00  0.00     0.087 C 
ENDBRANCH  11  12
ENDBRANCH  10  11
ENDBRANCH   2  10
TORSDOF 6
ENDMDL
MODEL 5
REMARK VINA RESULT:    -6.118      1.517      2.012
REMARK INTER + INTRA:          -9.271
REMARK INTER:                  -8.792
REMARK INTRA:                  -0.480
REMARK UNBOUND:                -1.007
REMARK SMILES CC(=O)CCC=C(C)CCC=C(C)C
REMARK SMILES IDX 7 1 6 2 8 3 9 4 10 5 11 6 13 7 12 8 14 9 5 10 4 11 2 12 3 13
REMARK SMILES IDX 1 14
REMARK H PARENT
REMARK Flexibility Score: inf
ROOT
ATOM      1  C   UNL     1      17.367  26.028   6.899  1.00  0.00    -0.077 C 
ATOM      2  C   UNL     1      17.362  25.565   8.172  1.00  0.00    -0.028 C 
ATOM      3  C   UNL     1      16.162  25.742   6.039  1.00  0.00     0.039 C 
ENDROOT
BRANCH   1   4
ATOM      4  C   UNL     1      18.529  26.799   6.297  1.00  0.00     0.034 C 
BRANCH   4   5
ATOM      5  C   UNL     1      18.553  26.673   4.768  1.00  0.00     0.032 C 
BRANCH   5   6
ATOM      6  C   UNL     1      19.907  26.227   4.275  1.00  0.00    -0.028 C 
ATOM      7  C   UNL     1      20.288  28.396   3.097  1.00  0.00     0.039 C 
ATOM      8  C   UNL     1      20.705  27.003   3.512  1.00  0.00    -0.080 C 
ATOM      9  C   UNL     1      22.040  26.461   3.072  1.00  0.00     0.039 C 
ENDBRANCH   5   6
ENDBRANCH   4   5
ENDBRANCH   1   4
BRANCH   2  10
ATOM     10  C   UNL     1      18.458  25.775   9.189  1.00  0.00     0.035 C 
BRANCH  10  11
ATOM     11  C   UNL     1      18.190  27.046  10.001  1.00  0.00     0.079 C 
BRANCH  11  12
ATOM     12  C   UNL     1      18.855  26.970  11.347  1.00  0.00     0.130 C 
ATOM     13  O   UNL     1      18.605  26.038  12.096  1.00  0.00    -0.300 OA
ATOM     14  C   UNL     1      19.816  28.037  11.778  1.00  0.00     0.087 C 
ENDBRANCH  11  12
ENDBRANCH  10  11
ENDBRANCH   2  10
TORSDOF 6
ENDMDL
MODEL 6
REMARK VINA RESULT:    -5.775      2.553      6.122
REMARK INTER + INTRA:          -8.808
REMARK INTER:                  -8.398
REMARK INTRA:                  -0.410
REMARK UNBOUND:                -1.007
REMARK SMILES CC(=O)CCC=C(C)CCC=C(C)C
REMARK SMILES IDX 7 1 6 2 8 3 9 4 10 5 11 6 13 7 12 8 14 9 5 10 4 11 2 12 3 13
REMARK SMILES IDX 1 14
REMARK H PARENT
REMARK Flexibility Score: inf
ROOT
ATOM      1  C   UNL     1      17.653  26.057   6.874  1.00  0.00    -0.077 C 
ATOM      2  C   UNL     1      18.160  26.497   5.697  1.00  0.00    -0.028 C 
ATOM      3  C   UNL     1      16.172  25.784   6.946  1.00  0.00     0.039 C 
ENDROOT
BRANCH   1   4
ATOM      4  C   UNL     1      18.497  25.845   8.118  1.00  0.00     0.034 C 
BRANCH   4   5
ATOM      5  C   UNL     1      17.819  26.434   9.362  1.00  0.00     0.032 C 
BRANCH   5   6
ATOM      6  C   UNL     1      18.833  26.810  10.414  1.00  0.00    -0.028 C 
ATOM      7  C   UNL     1      17.327  28.562  11.363  1.00  0.00     0.039 C 
ATOM      8  C   UNL     1      18.619  27.778  11.329  1.00  0.00    -0.080 C 
ATOM      9  C   UNL     1      19.699  28.075  12.337  1.00  0.00     0.039 C 
ENDBRANCH   5   6
ENDBRANCH   4   5
ENDBRANCH   1   4
BRANCH   2  10
ATOM     10  C   UNL     1      19.614  26.795   5.422  1.00  0.00     0.035 C 
BRANCH  10  11
ATOM     11  C   UNL     1      19.971  26.404   3.984  1.00  0.00     0.079 C 
BRANCH  11  12
ATOM     12  C   UNL     1      20.777  27.485   3.321  1.00  0.00     0.130 C 
ATOM     13  O   UNL     1      20.328  28.620   3.249  1.00  0.00    -0.300 OA
ATOM     14  C   UNL     1      22.125  27.178   2.741  1.00  0.00     0.087 C 
ENDBRANCH  11  12
ENDBRANCH  10  11
ENDBRANCH   2  10
TORSDOF 6
ENDMDL
MODEL 7
REMARK VINA RESULT:    -5.608      2.161      5.415
REMARK INTER + INTRA:          -8.583
REMARK INTER:                  -7.614
REMARK INTRA:                  -0.969
REMARK UNBOUND:                -1.007
REMARK SMILES CC(=O)CCC=C(C)CCC=C(C)C
REMARK SMILES IDX 7 1 6 2 8 3 9 4 10 5 11 6 13 7 12 8 14 9 5 10 4 11 2 12 3 13
REMARK SMILES IDX 1 14
REMARK H PARENT
REMARK Flexibility Score: inf
ROOT
ATOM      1  C   UNL     1      18.749  26.019   8.546  1.00  0.00    -0.077 C 
ATOM      2  C   UNL     1      19.509  26.292   7.458  1.00  0.00    -0.028 C 
ATOM      3  C   UNL     1      19.417  25.357   9.725  1.00  0.00     0.039 C 
ENDROOT
BRANCH   1   4
ATOM      4  C   UNL     1      17.265  26.330   8.625  1.00  0.00     0.034 C 
BRANCH   4   5
ATOM      5  C   UNL     1      16.420  25.171   8.082  1.00  0.00     0.032 C 
BRANCH   5   6
ATOM      6  C   UNL     1      15.661  25.578   6.843  1.00  0.00    -0.028 C 
ATOM      7  C   UNL     1      17.198  24.275   5.367  1.00  0.00     0.039 C 
ATOM      8  C   UNL     1      16.008  25.177   5.602  1.00  0.00    -0.080 C 
ATOM      9  C   UNL     1      15.181  25.642   4.432  1.00  0.00     0.039 C 
ENDBRANCH   5   6
ENDBRANCH   4   5
ENDBRANCH   1   4
BRANCH   2  10
ATOM     10  C   UNL     1      19.031  26.974   6.199  1.00  0.00     0.035 C 
BRANCH  10  11
ATOM     11  C   UNL     1      19.958  26.632   5.028  1.00  0.00     0.079 C 
BRANCH  11  12
ATOM     12  C   UNL     1      19.498  27.309   3.767  1.00  0.00     0.130 C 
ATOM     13  O   UNL     1      18.381  27.078   3.328  1.00  0.00    -0.300 OA
ATOM     14  C   UNL     1      20.403  28.257   3.042  1.00  0.00     0.087 C 
ENDBRANCH  11  12
ENDBRANCH  10  11
ENDBRANCH   2  10
TORSDOF 6
ENDMDL
MODEL 8
REMARK VINA RESULT:    -5.483      1.942      4.591
REMARK INTER + INTRA:          -8.413
REMARK INTER:                  -7.224
REMARK INTRA:                  -1.189
REMARK UNBOUND:                -1.007
REMARK SMILES CC(=O)CCC=C(C)CCC=C(C)C
REMARK SMILES IDX 7 1 6 2 8 3 9 4 10 5 11 6 13 7 12 8 14 9 5 10 4 11 2 12 3 13
REMARK SMILES IDX 1 14
REMARK H PARENT
REMARK Flexibility Score: inf
ROOT
ATOM      1  C   UNL     1      19.572  27.032   3.878  1.00  0.00    -0.077 C 
ATOM      2  C   UNL     1      18.395  26.866   3.228  1.00  0.00    -0.028 C 
ATOM      3  C   UNL     1      20.367  28.280   3.591  1.00  0.00     0.039 C 
ENDROOT
BRANCH   1   4
ATOM      4  C   UNL     1      20.132  26.017   4.860  1.00  0.00     0.034 C 
BRANCH   4   5
ATOM      5  C   UNL     1      20.171  26.581   6.286  1.00  0.00     0.032 C 
BRANCH   5   6
ATOM      6  C   UNL     1      18.781  26.856   6.806  1.00  0.00    -0.028 C 
ATOM      7  C   UNL     1      19.209  25.549   8.891  1.00  0.00     0.039 C 
ATOM      8  C   UNL     1      18.333  26.390   7.991  1.00  0.00    -0.080 C 
ATOM      9  C   UNL     1      16.927  26.723   8.416  1.00  0.00     0.039 C 
ENDBRANCH   5   6
ENDBRANCH   4   5
ENDBRANCH   1   4
BRANCH   2  10
ATOM     10  C   UNL     1      17.448  25.704   3.404  1.00  0.00     0.035 C 
BRANCH  10  11
ATOM     11  C   UNL     1      16.297  26.095   4.336  1.00  0.00     0.079 C 
BRANCH  11  12
ATOM     12  C   UNL     1      16.071  25.036   5.378  1.00  0.00     0.130 C 
ATOM     13  O   UNL     1      15.017  25.008   5.997  1.00  0.00    -0.300 OA
ATOM     14  C   UNL     1      17.133  24.019   5.668  1.00  0.00     0.087 C 
ENDBRANCH  11  12
ENDBRANCH  10  11
ENDBRANCH   2  10
TORSDOF 6
ENDMDL
MODEL 9
REMARK VINA RESULT:    -5.225      2.804      4.965
REMARK INTER + INTRA:          -8.064
REMARK INTER:                  -7.664
REMARK INTRA:                  -0.400
REMARK UNBOUND:                -1.007
REMARK SMILES CC(=O)CCC=C(C)CCC=C(C)C
REMARK SMILES IDX 7 1 6 2 8 3 9 4 10 5 11 6 13 7 12 8 14 9 5 10 4 11 2 12 3 13
REMARK SMILES IDX 1 14
REMARK H PARENT
REMARK Flexibility Score: inf
ROOT
ATOM      1  C   UNL     1      18.406  26.436   9.647  1.00  0.00    -0.077 C 
ATOM      2  C   UNL     1      18.516  27.094  10.825  1.00  0.00    -0.028 C 
ATOM      3  C   UNL     1      19.345  25.285   9.391  1.00  0.00     0.039 C 
ENDROOT
BRANCH   1   4
ATOM      4  C   UNL     1      17.401  26.813   8.573  1.00  0.00     0.034 C 
BRANCH   4   5
ATOM      5  C   UNL     1      17.147  25.646   7.609  1.00  0.00     0.032 C 
BRANCH   5   6
ATOM      6  C   UNL     1      17.702  25.938   6.236  1.00  0.00    -0.028 C 
ATOM      7  C   UNL     1      15.452  25.699   5.180  1.00  0.00     0.039 C 
ATOM      8  C   UNL     1      16.939  25.963   5.124  1.00  0.00    -0.080 C 
ATOM      9  C   UNL     1      17.594  26.265   3.801  1.00  0.00     0.039 C 
ENDBRANCH   5   6
ENDBRANCH   4   5
ENDBRANCH   1   4
BRANCH   2  10
ATOM     10  C   UNL     1      17.651  28.247  11.274  1.00  0.00     0.035 C 
BRANCH  10  11
ATOM     11  C   UNL     1      18.406  29.110  12.290  1.00  0.00     0.079 C 
BRANCH  11  12
ATOM     12  C   UNL     1      17.782  30.474  12.400  1.00  0.00     0.130 C 
ATOM     13  O   UNL     1      16.661  30.666  11.953  1.00  0.00    -0.300 OA
ATOM     14  C   UNL     1      18.530  31.599  13.048  1.00  0.00     0.087 C 
ENDBRANCH  11  12
ENDBRANCH  10  11
ENDBRANCH   2  10
TORSDOF 6
ENDMDL
