MODEL 1
REMARK VINA RESULT:    -3.401      0.000      0.000
REMARK INTER + INTRA:          -4.588
REMARK INTER:                  -4.395
REMARK INTRA:                  -0.193
REMARK UNBOUND:                -0.193
REMARK SMILES CCCCCCC(=O)[O-]
REMARK SMILES IDX 5 1 6 2 7 3 8 4 9 5 4 6 3 7 2 8 1 9
REMARK H PARENT
REMARK Flexibility Score: inf
ROOT
ATOM      1  C   UNL     1       7.702   8.777  33.390  1.00  0.00     0.006 C 
ENDROOT
BRANCH   1   2
ATOM      2  C   UNL     1       7.262   7.333  33.695  1.00  0.00     0.053 C 
BRANCH   2   3
ATOM      3  C   UNL     1       7.838   6.811  34.977  1.00  0.00     0.041 C 
ATOM      4  O   UNL     1       8.794   5.991  34.957  1.00  0.00    -0.550 OA
ATOM      5  O   UNL     1       7.338   7.253  36.194  1.00  0.00    -0.550 OA
ENDBRANCH   2   3
ENDBRANCH   1   2
BRANCH   1   6
ATOM      6  C   UNL     1       6.535   9.736  33.092  1.00  0.00     0.000 C 
BRANCH   6   7
ATOM      7  C   UNL     1       5.603   9.942  34.293  1.00  0.00    -0.000 C 
BRANCH   7   8
ATOM      8  C   UNL     1       5.222  11.419  34.447  1.00  0.00    -0.003 C 
ATOM      9  C   UNL     1       4.875  12.043  33.098  1.00  0.00     0.004 C 
ENDBRANCH   7   8
ENDBRANCH   6   7
ENDBRANCH   1   6
TORSDOF 5
ENDMDL
MODEL 2
REMARK VINA RESULT:    -3.379      3.063      5.078
REMARK INTER + INTRA:          -4.560
REMARK INTER:                  -4.404
REMARK INTRA:                  -0.156
REMARK UNBOUND:                -0.193
REMARK SMILES CCCCCCC(=O)[O-]
REMARK SMILES IDX 5 1 6 2 7 3 8 4 9 5 4 6 3 7 2 8 1 9
REMARK H PARENT
REMARK Flexibility Score: inf
ROOT
ATOM      1  C   UNL     1       6.087  10.659  32.995  1.00  0.00     0.006 C 
ENDROOT
BRANCH   1   2
ATOM      2  C   UNL     1       4.875  11.441  33.534  1.00  0.00     0.053 C 
BRANCH   2   3
ATOM      3  C   UNL     1       5.257  12.466  34.558  1.00  0.00     0.041 C 
ATOM      4  O   UNL     1       5.306  12.158  35.778  1.00  0.00    -0.550 OA
ATOM      5  O   UNL     1       5.587  13.755  34.161  1.00  0.00    -0.550 OA
ENDBRANCH   2   3
ENDBRANCH   1   2
BRANCH   1   6
ATOM      6  C   UNL     1       6.386   9.359  33.765  1.00  0.00     0.000 C 
BRANCH   6   7
ATOM      7  C   UNL     1       7.733   8.730  33.386  1.00  0.00    -0.000 C 
BRANCH   7   8
ATOM      8  C   UNL     1       7.790   7.257  33.807  1.00  0.00    -0.003 C 
ATOM      9  C   UNL     1       6.404   6.618  33.770  1.00  0.00     0.004 C 
ENDBRANCH   7   8
ENDBRANCH   6   7
ENDBRANCH   1   6
TORSDOF 5
ENDMDL
MODEL 3
REMARK VINA RESULT:    -3.297      1.504      1.811
REMARK INTER + INTRA:          -4.453
REMARK INTER:                  -4.265
REMARK INTRA:                  -0.188
REMARK UNBOUND:                -0.193
REMARK SMILES CCCCCCC(=O)[O-]
REMARK SMILES IDX 5 1 6 2 7 3 8 4 9 5 4 6 3 7 2 8 1 9
REMARK H PARENT
REMARK Flexibility Score: inf
ROOT
ATOM      1  C   UNL     1       7.778   8.830  33.750  1.00  0.00     0.006 C 
ENDROOT
BRANCH   1   2
ATOM      2  C   UNL     1       7.739   7.291  33.720  1.00  0.00     0.053 C 
BRANCH   2   3
ATOM      3  C   UNL     1       6.396   6.739  34.091  1.00  0.00     0.041 C 
ATOM      4  O   UNL     1       5.952   6.878  35.261  1.00  0.00    -0.550 OA
ATOM      5  O   UNL     1       5.621   6.096  33.134  1.00  0.00    -0.550 OA
ENDBRANCH   2   3
ENDBRANCH   1   2
BRANCH   1   6
ATOM      6  C   UNL     1       6.589   9.499  33.038  1.00  0.00     0.000 C 
BRANCH   6   7
ATOM      7  C   UNL     1       5.760  10.398  33.966  1.00  0.00    -0.000 C 
BRANCH   7   8
ATOM      8  C   UNL     1       5.160  11.580  33.195  1.00  0.00    -0.003 C 
ATOM      9  C   UNL     1       5.350  12.889  33.956  1.00  0.00     0.004 C 
ENDBRANCH   7   8
ENDBRANCH   6   7
ENDBRANCH   1   6
TORSDOF 5
ENDMDL
MODEL 4
REMARK VINA RESULT:    -3.270      1.169      1.683
REMARK INTER + INTRA:          -4.419
REMARK INTER:                  -4.320
REMARK INTRA:                  -0.099
REMARK UNBOUND:                -0.193
REMARK SMILES CCCCCCC(=O)[O-]
REMARK SMILES IDX 5 1 6 2 7 3 8 4 9 5 4 6 3 7 2 8 1 9
REMARK H PARENT
REMARK Flexibility Score: inf
ROOT
ATOM      1  C   UNL     1       8.086   7.189  33.804  1.00  0.00     0.006 C 
ENDROOT
BRANCH   1   2
ATOM      2  C   UNL     1       7.751   6.816  35.260  1.00  0.00     0.053 C 
BRANCH   2   3
ATOM      3  C   UNL     1       8.585   5.682  35.775  1.00  0.00     0.041 C 
ATOM      4  O   UNL     1       9.689   5.408  35.234  1.00  0.00    -0.550 OA
ATOM      5  O   UNL     1       8.155   4.945  36.871  1.00  0.00    -0.550 OA
ENDBRANCH   2   3
ENDBRANCH   1   2
BRANCH   1   6
ATOM      6  C   UNL     1       7.869   8.677  33.474  1.00  0.00     0.000 C 
BRANCH   6   7
ATOM      7  C   UNL     1       6.440   9.156  33.763  1.00  0.00    -0.000 C 
BRANCH   7   8
ATOM      8  C   UNL     1       6.130  10.450  33.002  1.00  0.00    -0.003 C 
ATOM      9  C   UNL     1       5.161  11.332  33.785  1.00  0.00     0.004 C 
ENDBRANCH   7   8
ENDBRANCH   6   7
ENDBRANCH   1   6
TORSDOF 5
ENDMDL
MODEL 5
REMARK VINA RESULT:    -3.136      1.500      1.767
REMARK INTER + INTRA:          -4.245
REMARK INTER:                  -4.077
REMARK INTRA:                  -0.169
REMARK UNBOUND:                -0.193
REMARK SMILES CCCCCCC(=O)[O-]
REMARK SMILES IDX 5 1 6 2 7 3 8 4 9 5 4 6 3 7 2 8 1 9
REMARK H PARENT
REMARK Flexibility Score: inf
ROOT
ATOM      1  C   UNL     1       7.889   7.470  33.773  1.00  0.00     0.006 C 
ENDROOT
BRANCH   1   2
ATOM      2  C   UNL     1       6.529   6.754  33.676  1.00  0.00     0.053 C 
BRANCH   2   3
ATOM      3  C   UNL     1       6.319   5.759  34.777  1.00  0.00     0.041 C 
ATOM      4  O   UNL     1       7.168   5.643  35.700  1.00  0.00    -0.550 OA
ATOM      5  O   UNL     1       5.170   4.979  34.799  1.00  0.00    -0.550 OA
ENDBRANCH   2   3
ENDBRANCH   1   2
BRANCH   1   6
ATOM      6  C   UNL     1       7.803   8.999  33.617  1.00  0.00     0.000 C 
BRANCH   6   7
ATOM      7  C   UNL     1       6.451   9.473  33.068  1.00  0.00    -0.000 C 
BRANCH   7   8
ATOM      8  C   UNL     1       5.730  10.371  34.082  1.00  0.00    -0.003 C 
ATOM      9  C   UNL     1       5.240  11.659  33.427  1.00  0.00     0.004 C 
ENDBRANCH   7   8
ENDBRANCH   6   7
ENDBRANCH   1   6
TORSDOF 5
ENDMDL
MODEL 6
REMARK VINA RESULT:    -3.097      2.439      4.561
REMARK INTER + INTRA:          -4.195
REMARK INTER:                  -3.924
REMARK INTRA:                  -0.271
REMARK UNBOUND:                -0.193
REMARK SMILES CCCCCCC(=O)[O-]
REMARK SMILES IDX 5 1 6 2 7 3 8 4 9 5 4 6 3 7 2 8 1 9
REMARK H PARENT
REMARK Flexibility Score: inf
ROOT
ATOM      1  C   UNL     1       7.686   9.098  33.594  1.00  0.00     0.006 C 
ENDROOT
BRANCH   1   2
ATOM      2  C   UNL     1       6.389   9.709  33.031  1.00  0.00     0.053 C 
BRANCH   2   3
ATOM      3  C   UNL     1       5.673  10.569  34.028  1.00  0.00     0.041 C 
ATOM      4  O   UNL     1       5.484  10.157  35.203  1.00  0.00    -0.550 OA
ATOM      5  O   UNL     1       5.242  11.839  33.667  1.00  0.00    -0.550 OA
ENDBRANCH   2   3
ENDBRANCH   1   2
BRANCH   1   6
ATOM      6  C   UNL     1       7.653   7.564  33.717  1.00  0.00     0.000 C 
BRANCH   6   7
ATOM      7  C   UNL     1       6.293   6.959  33.343  1.00  0.00    -0.000 C 
BRANCH   7   8
ATOM      8  C   UNL     1       5.919   5.817  34.296  1.00  0.00    -0.003 C 
ATOM      9  C   UNL     1       7.042   5.539  35.291  1.00  0.00     0.004 C 
ENDBRANCH   7   8
ENDBRANCH   6   7
ENDBRANCH   1   6
TORSDOF 5
ENDMDL
MODEL 7
REMARK VINA RESULT:    -3.000      2.672      5.304
REMARK INTER + INTRA:          -4.069
REMARK INTER:                  -3.907
REMARK INTRA:                  -0.163
REMARK UNBOUND:                -0.193
REMARK SMILES CCCCCCC(=O)[O-]
REMARK SMILES IDX 5 1 6 2 7 3 8 4 9 5 4 6 3 7 2 8 1 9
REMARK H PARENT
REMARK Flexibility Score: inf
ROOT
ATOM      1  C   UNL     1       8.095   7.585  33.892  1.00  0.00     0.006 C 
ENDROOT
BRANCH   1   2
ATOM      2  C   UNL     1       6.708   8.016  33.380  1.00  0.00     0.053 C 
BRANCH   2   3
ATOM      3  C   UNL     1       6.369   9.430  33.746  1.00  0.00     0.041 C 
ATOM      4  O   UNL     1       6.270  10.312  32.852  1.00  0.00    -0.550 OA
ATOM      5  O   UNL     1       6.133   9.766  35.072  1.00  0.00    -0.550 OA
ENDBRANCH   2   3
ENDBRANCH   1   2
BRANCH   1   6
ATOM      6  C   UNL     1       8.076   6.303  34.743  1.00  0.00     0.000 C 
BRANCH   6   7
ATOM      7  C   UNL     1       9.477   5.737  35.011  1.00  0.00    -0.000 C 
BRANCH   7   8
ATOM      8  C   UNL     1      10.414   6.008  33.828  1.00  0.00    -0.003 C 
ATOM      9  C   UNL     1      11.542   4.981  33.772  1.00  0.00     0.004 C 
ENDBRANCH   7   8
ENDBRANCH   6   7
ENDBRANCH   1   6
TORSDOF 5
ENDMDL
MODEL 8
REMARK VINA RESULT:    -2.966      2.416      5.000
REMARK INTER + INTRA:          -4.026
REMARK INTER:                  -3.764
REMARK INTRA:                  -0.262
REMARK UNBOUND:                -0.193
REMARK SMILES CCCCCCC(=O)[O-]
REMARK SMILES IDX 5 1 6 2 7 3 8 4 9 5 4 6 3 7 2 8 1 9
REMARK H PARENT
REMARK Flexibility Score: inf
ROOT
ATOM      1  C   UNL     1       6.333   6.584  33.674  1.00  0.00     0.006 C 
ENDROOT
BRANCH   1   2
ATOM      2  C   UNL     1       6.037   8.025  34.130  1.00  0.00     0.053 C 
BRANCH   2   3
ATOM      3  C   UNL     1       6.933   9.034  33.479  1.00  0.00     0.041 C 
ATOM      4  O   UNL     1       8.168   8.812  33.372  1.00  0.00    -0.550 OA
ATOM      5  O   UNL     1       6.399  10.208  32.964  1.00  0.00    -0.550 OA
ENDBRANCH   2   3
ENDBRANCH   1   2
BRANCH   1   6
ATOM      6  C   UNL     1       6.523   5.588  34.833  1.00  0.00     0.000 C 
BRANCH   6   7
ATOM      7  C   UNL     1       7.529   6.074  35.885  1.00  0.00    -0.000 C 
BRANCH   7   8
ATOM      8  C   UNL     1       8.963   5.710  35.484  1.00  0.00    -0.003 C 
ATOM      9  C   UNL     1       9.375   4.362  36.069  1.00  0.00     0.004 C 
ENDBRANCH   7   8
ENDBRANCH   6   7
ENDBRANCH   1   6
TORSDOF 5
ENDMDL
