MODEL 1
REMARK VINA RESULT:    -5.973      0.000      0.000
REMARK INTER + INTRA:          -7.044
REMARK INTER:                  -7.195
REMARK INTRA:                   0.152
REMARK UNBOUND:                 0.152
REMARK SMILES Oc1cc(O)c2c(c1)O[C@@H](c1ccc(O)c(O)c1)[C@H](O)C2
REMARK SMILES IDX 21 1 19 2 10 3 9 4 7 5 8 6 2 7 3 8 4 9 6 10 20 11 11 13
REMARK SMILES IDX 18 14 12 15 16 16 13 17 14 18 17 19 15 21 5 23 1 25
REMARK H PARENT 20 12 17 20 15 22 5 24 1 26
REMARK Flexibility Score: inf
ROOT
ATOM      1  C   UNL     1     -32.916   9.039 -41.381  1.00  0.00     0.079 C 
ATOM      2  C   UNL     1     -32.670   8.999 -39.868  1.00  0.00     0.164 C 
ATOM      3  C   UNL     1     -33.329  10.235 -39.216  1.00  0.00     0.232 C 
ATOM      4  O   UNL     1     -34.742  10.162 -39.458  1.00  0.00    -0.482 OA
ATOM      5  C   UNL     1     -35.229   9.882 -40.733  1.00  0.00     0.131 A 
ATOM      6  C   UNL     1     -36.481  10.408 -41.116  1.00  0.00     0.093 A 
ATOM      7  C   UNL     1     -36.817  10.503 -42.473  1.00  0.00     0.122 A 
ATOM      8  C   UNL     1     -35.962   9.959 -43.448  1.00  0.00     0.092 A 
ATOM      9  C   UNL     1     -34.731   9.405 -43.096  1.00  0.00     0.126 A 
ATOM     10  C   UNL     1     -34.366   9.338 -41.724  1.00  0.00     0.039 A 
ENDROOT
BRANCH   2  11
ATOM     11  O   UNL     1     -31.284   8.943 -39.631  1.00  0.00    -0.389 OA
ATOM     12  H   UNL     1     -31.034   9.773 -39.142  1.00  0.00     0.211 HD
ENDBRANCH   2  11
BRANCH   3  13
ATOM     13  C   UNL     1     -33.106  10.275 -37.727  1.00  0.00    -0.001 A 
ATOM     14  C   UNL     1     -33.376  11.422 -36.951  1.00  0.00     0.057 A 
ATOM     15  C   UNL     1     -32.572   9.140 -37.112  1.00  0.00     0.012 A 
ATOM     16  C   UNL     1     -33.160  11.399 -35.559  1.00  0.00     0.157 A 
ATOM     17  C   UNL     1     -32.373   9.098 -35.737  1.00  0.00     0.050 A 
ATOM     18  C   UNL     1     -32.666  10.224 -34.953  1.00  0.00     0.157 A 
BRANCH  16  19
ATOM     19  O   UNL     1     -33.415  12.530 -34.779  1.00  0.00    -0.504 OA
ATOM     20  H   UNL     1     -33.346  12.495 -33.766  1.00  0.00     0.293 HD
ENDBRANCH  16  19
BRANCH  18  21
ATOM     21  O   UNL     1     -32.457  10.188 -33.576  1.00  0.00    -0.504 OA
ATOM     22  H   UNL     1     -32.261   9.319 -33.094  1.00  0.00     0.293 HD
ENDBRANCH  18  21
ENDBRANCH   3  13
BRANCH   9  23
ATOM     23  O   UNL     1     -33.932   8.879 -44.114  1.00  0.00    -0.507 OA
ATOM     24  H   UNL     1     -33.636   9.404 -44.927  1.00  0.00     0.293 HD
ENDBRANCH   9  23
BRANCH   7  25
ATOM     25  O   UNL     1     -38.002  11.139 -42.844  1.00  0.00    -0.508 OA
ATOM     26  H   UNL     1     -38.738  11.316 -42.161  1.00  0.00     0.293 HD
ENDBRANCH   7  25
TORSDOF 6
ENDMDL
MODEL 2
REMARK VINA RESULT:    -5.886      0.781      1.456
REMARK INTER + INTRA:          -6.939
REMARK INTER:                  -6.635
REMARK INTRA:                  -0.304
REMARK UNBOUND:                 0.152
REMARK SMILES Oc1cc(O)c2c(c1)O[C@@H](c1ccc(O)c(O)c1)[C@H](O)C2
REMARK SMILES IDX 21 1 19 2 10 3 9 4 7 5 8 6 2 7 3 8 4 9 6 10 20 11 11 13
REMARK SMILES IDX 18 14 12 15 16 16 13 17 14 18 17 19 15 21 5 23 1 25
REMARK H PARENT 20 12 17 20 15 22 5 24 1 26
REMARK Flexibility Score: inf
ROOT
ATOM      1  C   UNL     1     -33.201   9.305 -41.385  1.00  0.00     0.079 C 
ATOM      2  C   UNL     1     -32.978   9.395 -39.871  1.00  0.00     0.164 C 
ATOM      3  C   UNL     1     -33.725  10.631 -39.322  1.00  0.00     0.232 C 
ATOM      4  O   UNL     1     -35.127  10.450 -39.576  1.00  0.00    -0.482 OA
ATOM      5  C   UNL     1     -35.573  10.044 -40.831  1.00  0.00     0.131 A 
ATOM      6  C   UNL     1     -36.849  10.459 -41.268  1.00  0.00     0.093 A 
ATOM      7  C   UNL     1     -37.168  10.430 -42.633  1.00  0.00     0.122 A 
ATOM      8  C   UNL     1     -36.264   9.870 -43.553  1.00  0.00     0.092 A 
ATOM      9  C   UNL     1     -35.007   9.424 -43.145  1.00  0.00     0.126 A 
ATOM     10  C   UNL     1     -34.661   9.484 -41.768  1.00  0.00     0.039 A 
ENDROOT
BRANCH   2  11
ATOM     11  O   UNL     1     -31.596   9.446 -39.613  1.00  0.00    -0.389 OA
ATOM     12  H   UNL     1     -31.351   8.601 -39.147  1.00  0.00     0.211 HD
ENDBRANCH   2  11
BRANCH   3  13
ATOM     13  C   UNL     1     -33.531  10.798 -37.838  1.00  0.00    -0.001 A 
ATOM     14  C   UNL     1     -33.633   9.720 -36.935  1.00  0.00     0.057 A 
ATOM     15  C   UNL     1     -33.282  12.083 -37.348  1.00  0.00     0.012 A 
ATOM     16  C   UNL     1     -33.428   9.932 -35.557  1.00  0.00     0.157 A 
ATOM     17  C   UNL     1     -33.059  12.302 -35.994  1.00  0.00     0.050 A 
ATOM     18  C   UNL     1     -33.129  11.230 -35.092  1.00  0.00     0.157 A 
BRANCH  16  19
ATOM     19  O   UNL     1     -33.534   8.875 -34.649  1.00  0.00    -0.504 OA
ATOM     20  H   UNL     1     -34.304   8.214 -34.700  1.00  0.00     0.293 HD
ENDBRANCH  16  19
BRANCH  18  21
ATOM     21  O   UNL     1     -32.917  11.449 -33.732  1.00  0.00    -0.504 OA
ATOM     22  H   UNL     1     -32.161  10.993 -33.235  1.00  0.00     0.293 HD
ENDBRANCH  18  21
ENDBRANCH   3  13
BRANCH   9  23
ATOM     23  O   UNL     1     -34.159   8.875 -44.110  1.00  0.00    -0.507 OA
ATOM     24  H   UNL     1     -34.369   8.034 -44.633  1.00  0.00     0.293 HD
ENDBRANCH   9  23
BRANCH   7  25
ATOM     25  O   UNL     1     -38.383  10.959 -43.065  1.00  0.00    -0.508 OA
ATOM     26  H   UNL     1     -39.246  10.419 -42.993  1.00  0.00     0.293 HD
ENDBRANCH   7  25
TORSDOF 6
ENDMDL
MODEL 3
REMARK VINA RESULT:    -4.097      1.384      7.148
REMARK INTER + INTRA:          -4.783
REMARK INTER:                  -4.962
REMARK INTRA:                   0.179
REMARK UNBOUND:                 0.152
REMARK SMILES Oc1cc(O)c2c(c1)O[C@@H](c1ccc(O)c(O)c1)[C@H](O)C2
REMARK SMILES IDX 21 1 19 2 10 3 9 4 7 5 8 6 2 7 3 8 4 9 6 10 20 11 11 13
REMARK SMILES IDX 18 14 12 15 16 16 13 17 14 18 17 19 15 21 5 23 1 25
REMARK H PARENT 20 12 17 20 15 22 5 24 1 26
REMARK Flexibility Score: inf
ROOT
ATOM      1  C   UNL     1     -33.977  12.920 -37.564  1.00  0.00     0.079 C 
ATOM      2  C   UNL     1     -34.664  12.381 -38.824  1.00  0.00     0.164 C 
ATOM      3  C   UNL     1     -33.878  11.156 -39.344  1.00  0.00     0.232 C 
ATOM      4  O   UNL     1     -33.912  10.144 -38.327  1.00  0.00    -0.482 OA
ATOM      5  C   UNL     1     -33.630  10.462 -37.001  1.00  0.00     0.131 A 
ATOM      6  C   UNL     1     -33.056   9.475 -36.171  1.00  0.00     0.093 A 
ATOM      7  C   UNL     1     -32.393   9.847 -34.993  1.00  0.00     0.122 A 
ATOM      8  C   UNL     1     -32.407  11.189 -34.574  1.00  0.00     0.092 A 
ATOM      9  C   UNL     1     -32.993  12.182 -35.359  1.00  0.00     0.126 A 
ATOM     10  C   UNL     1     -33.635  11.818 -36.574  1.00  0.00     0.039 A 
ENDROOT
BRANCH   2  11
ATOM     11  O   UNL     1     -34.744  13.411 -39.779  1.00  0.00    -0.389 OA
ATOM     12  H   UNL     1     -35.560  13.245 -40.325  1.00  0.00     0.211 HD
ENDBRANCH   2  11
BRANCH   3  13
ATOM     13  C   UNL     1     -34.483  10.587 -40.600  1.00  0.00    -0.001 A 
ATOM     14  C   UNL     1     -35.623  11.147 -41.213  1.00  0.00     0.057 A 
ATOM     15  C   UNL     1     -33.908   9.434 -41.142  1.00  0.00     0.012 A 
ATOM     16  C   UNL     1     -36.139  10.579 -42.395  1.00  0.00     0.157 A 
ATOM     17  C   UNL     1     -34.396   8.876 -42.318  1.00  0.00     0.050 A 
ATOM     18  C   UNL     1     -35.512   9.444 -42.951  1.00  0.00     0.157 A 
BRANCH  16  19
ATOM     19  O   UNL     1     -37.272  11.118 -43.009  1.00  0.00    -0.504 OA
ATOM     20  H   UNL     1     -38.154  11.195 -42.510  1.00  0.00     0.293 HD
ENDBRANCH  16  19
BRANCH  18  21
ATOM     21  O   UNL     1     -36.009   8.880 -44.124  1.00  0.00    -0.504 OA
ATOM     22  H   UNL     1     -36.730   9.340 -44.668  1.00  0.00     0.293 HD
ENDBRANCH  18  21
ENDBRANCH   3  13
BRANCH   9  23
ATOM     23  O   UNL     1     -32.975  13.495 -34.882  1.00  0.00    -0.507 OA
ATOM     24  H   UNL     1     -32.465  14.249 -35.325  1.00  0.00     0.293 HD
ENDBRANCH   9  23
BRANCH   7  25
ATOM     25  O   UNL     1     -31.723   8.878 -34.247  1.00  0.00    -0.508 OA
ATOM     26  H   UNL     1     -32.201   8.031 -33.938  1.00  0.00     0.293 HD
ENDBRANCH   7  25
TORSDOF 6
ENDMDL
MODEL 4
REMARK VINA RESULT:    -3.928      1.290      6.921
REMARK INTER + INTRA:          -4.580
REMARK INTER:                  -4.731
REMARK INTRA:                   0.151
REMARK UNBOUND:                 0.152
REMARK SMILES Oc1cc(O)c2c(c1)O[C@@H](c1ccc(O)c(O)c1)[C@H](O)C2
REMARK SMILES IDX 21 1 19 2 10 3 9 4 7 5 8 6 2 7 3 8 4 9 6 10 20 11 11 13
REMARK SMILES IDX 18 14 12 15 16 16 13 17 14 18 17 19 15 21 5 23 1 25
REMARK H PARENT 20 12 17 20 15 22 5 24 1 26
REMARK Flexibility Score: inf
ROOT
ATOM      1  C   UNL     1     -31.824   9.730 -37.827  1.00  0.00     0.079 C 
ATOM      2  C   UNL     1     -32.404   9.967 -39.227  1.00  0.00     0.164 C 
ATOM      3  C   UNL     1     -33.931  10.173 -39.113  1.00  0.00     0.232 C 
ATOM      4  O   UNL     1     -34.161  11.342 -38.311  1.00  0.00    -0.482 OA
ATOM      5  C   UNL     1     -33.486  11.518 -37.106  1.00  0.00     0.131 A 
ATOM      6  C   UNL     1     -34.113  12.246 -36.073  1.00  0.00     0.093 A 
ATOM      7  C   UNL     1     -33.675  12.107 -34.748  1.00  0.00     0.122 A 
ATOM      8  C   UNL     1     -32.532  11.339 -34.464  1.00  0.00     0.092 A 
ATOM      9  C   UNL     1     -31.873  10.632 -35.470  1.00  0.00     0.126 A 
ATOM     10  C   UNL     1     -32.333  10.738 -36.811  1.00  0.00     0.039 A 
ENDROOT
BRANCH   2  11
ATOM     11  O   UNL     1     -32.071   8.877 -40.052  1.00  0.00    -0.389 OA
ATOM     12  H   UNL     1     -31.409   8.322 -39.556  1.00  0.00     0.211 HD
ENDBRANCH   2  11
BRANCH   3  13
ATOM     13  C   UNL     1     -34.575  10.388 -40.457  1.00  0.00    -0.001 A 
ATOM     14  C   UNL     1     -34.392   9.499 -41.536  1.00  0.00     0.057 A 
ATOM     15  C   UNL     1     -35.347  11.539 -40.639  1.00  0.00     0.012 A 
ATOM     16  C   UNL     1     -35.029   9.743 -42.768  1.00  0.00     0.157 A 
ATOM     17  C   UNL     1     -35.997  11.781 -41.844  1.00  0.00     0.050 A 
ATOM     18  C   UNL     1     -35.844  10.886 -42.913  1.00  0.00     0.157 A 
BRANCH  16  19
ATOM     19  O   UNL     1     -34.850   8.875 -43.848  1.00  0.00    -0.504 OA
ATOM     20  H   UNL     1     -35.014   9.183 -44.802  1.00  0.00     0.293 HD
ENDBRANCH  16  19
BRANCH  18  21
ATOM     21  O   UNL     1     -36.486  11.133 -44.125  1.00  0.00    -0.504 OA
ATOM     22  H   UNL     1     -35.965  11.369 -44.961  1.00  0.00     0.293 HD
ENDBRANCH  18  21
ENDBRANCH   3  13
BRANCH   9  23
ATOM     23  O   UNL     1     -30.741   9.891 -35.120  1.00  0.00    -0.507 OA
ATOM     24  H   UNL     1     -30.750   8.894 -34.949  1.00  0.00     0.293 HD
ENDBRANCH   9  23
BRANCH   7  25
ATOM     25  O   UNL     1     -34.381  12.733 -33.722  1.00  0.00    -0.508 OA
ATOM     26  H   UNL     1     -34.081  12.649 -32.751  1.00  0.00     0.293 HD
ENDBRANCH   7  25
TORSDOF 6
ENDMDL
