MODEL 1
REMARK VINA RESULT:    -5.222      0.000      0.000
REMARK INTER + INTRA:         -10.630
REMARK INTER:                  -9.495
REMARK INTRA:                  -1.135
REMARK UNBOUND:                -1.135
REMARK SMILES CCCCCCCCCCCCCCCC(=O)[O-]
REMARK SMILES IDX 9 1 10 2 11 3 12 4 13 5 14 6 15 7 16 8 17 9 18 10 8 11 7 12
REMARK SMILES IDX 6 13 5 14 4 15 3 16 2 17 1 18
REMARK H PARENT
REMARK Flexibility Score: inf
ROOT
ATOM      1  C   UNL     1      -3.117  25.843  52.070  1.00  0.00     0.000 C 
ENDROOT
BRANCH   1   2
ATOM      2  C   UNL     1      -2.804  26.792  50.901  1.00  0.00     0.000 C 
BRANCH   2   3
ATOM      3  C   UNL     1      -1.391  26.580  50.332  1.00  0.00     0.000 C 
BRANCH   3   4
ATOM      4  C   UNL     1      -0.507  25.698  51.232  1.00  0.00     0.000 C 
BRANCH   4   5
ATOM      5  C   UNL     1       0.961  25.569  50.786  1.00  0.00     0.000 C 
BRANCH   5   6
ATOM      6  C   UNL     1       1.843  24.846  51.820  1.00  0.00     0.006 C 
BRANCH   6   7
ATOM      7  C   UNL     1       1.046  24.409  53.056  1.00  0.00     0.053 C 
BRANCH   7   8
ATOM      8  C   UNL     1       1.643  24.945  54.321  1.00  0.00     0.041 C 
ATOM      9  O   UNL     1       2.661  24.400  54.823  1.00  0.00    -0.550 OA
ATOM     10  O   UNL     1       1.058  26.032  54.960  1.00  0.00    -0.550 OA
ENDBRANCH   7   8
ENDBRANCH   6   7
ENDBRANCH   5   6
ENDBRANCH   4   5
ENDBRANCH   3   4
ENDBRANCH   2   3
ENDBRANCH   1   2
BRANCH   1  11
ATOM     11  C   UNL     1      -3.447  26.594  53.373  1.00  0.00     0.000 C 
BRANCH  11  12
ATOM     12  C   UNL     1      -2.360  26.420  54.444  1.00  0.00    -0.000 C 
BRANCH  12  13
ATOM     13  C   UNL     1      -2.859  26.770  55.857  1.00  0.00    -0.000 C 
BRANCH  13  14
ATOM     14  C   UNL     1      -4.201  27.534  55.827  1.00  0.00    -0.000 C 
BRANCH  14  15
ATOM     15  C   UNL     1      -4.078  29.010  56.240  1.00  0.00    -0.000 C 
BRANCH  15  16
ATOM     16  C   UNL     1      -2.918  29.263  57.217  1.00  0.00    -0.000 C 
BRANCH  16  17
ATOM     17  C   UNL     1      -3.183  30.456  58.149  1.00  0.00    -0.003 C 
ATOM     18  C   UNL     1      -4.545  30.378  58.839  1.00  0.00     0.004 C 
ENDBRANCH  16  17
ENDBRANCH  15  16
ENDBRANCH  14  15
ENDBRANCH  13  14
ENDBRANCH  12  13
ENDBRANCH  11  12
ENDBRANCH   1  11
TORSDOF 14
ENDMDL
MODEL 2
REMARK VINA RESULT:    -4.857      3.184      7.176
REMARK INTER + INTRA:          -9.967
REMARK INTER:                  -8.922
REMARK INTRA:                  -1.045
REMARK UNBOUND:                -1.135
REMARK SMILES CCCCCCCCCCCCCCCC(=O)[O-]
REMARK SMILES IDX 9 1 10 2 11 3 12 4 13 5 14 6 15 7 16 8 17 9 18 10 8 11 7 12
REMARK SMILES IDX 6 13 5 14 4 15 3 16 2 17 1 18
REMARK H PARENT
REMARK Flexibility Score: inf
ROOT
ATOM      1  C   UNL     1      -3.918  31.939  59.009  1.00  0.00     0.000 C 
ENDROOT
BRANCH   1   2
ATOM      2  C   UNL     1      -4.037  30.802  57.980  1.00  0.00     0.000 C 
BRANCH   2   3
ATOM      3  C   UNL     1      -2.723  30.021  57.809  1.00  0.00     0.000 C 
BRANCH   3   4
ATOM      4  C   UNL     1      -2.846  28.850  56.816  1.00  0.00     0.000 C 
BRANCH   4   5
ATOM      5  C   UNL     1      -4.261  28.607  56.260  1.00  0.00     0.000 C 
BRANCH   5   6
ATOM      6  C   UNL     1      -4.339  27.383  55.331  1.00  0.00     0.006 C 
BRANCH   6   7
ATOM      7  C   UNL     1      -3.091  26.499  55.431  1.00  0.00     0.053 C 
BRANCH   7   8
ATOM      8  C   UNL     1      -2.401  26.357  54.109  1.00  0.00     0.041 C 
ATOM      9  O   UNL     1      -1.149  26.233  54.056  1.00  0.00    -0.550 OA
ATOM     10  O   UNL     1      -3.140  26.388  52.932  1.00  0.00    -0.550 OA
ENDBRANCH   7   8
ENDBRANCH   6   7
ENDBRANCH   5   6
ENDBRANCH   4   5
ENDBRANCH   3   4
ENDBRANCH   2   3
ENDBRANCH   1   2
BRANCH   1  11
ATOM     11  C   UNL     1      -3.958  31.431  60.462  1.00  0.00     0.000 C 
BRANCH  11  12
ATOM     12  C   UNL     1      -3.521  32.503  61.472  1.00  0.00    -0.000 C 
BRANCH  12  13
ATOM     13  C   UNL     1      -2.070  32.965  61.256  1.00  0.00    -0.000 C 
BRANCH  13  14
ATOM     14  C   UNL     1      -1.119  32.429  62.348  1.00  0.00    -0.000 C 
BRANCH  14  15
ATOM     15  C   UNL     1       0.247  31.974  61.807  1.00  0.00    -0.000 C 
BRANCH  15  16
ATOM     16  C   UNL     1       0.160  31.378  60.392  1.00  0.00    -0.000 C 
BRANCH  16  17
ATOM     17  C   UNL     1       1.379  30.510  60.043  1.00  0.00    -0.003 C 
ATOM     18  C   UNL     1       1.375  30.041  58.588  1.00  0.00     0.004 C 
ENDBRANCH  16  17
ENDBRANCH  15  16
ENDBRANCH  14  15
ENDBRANCH  13  14
ENDBRANCH  12  13
ENDBRANCH  11  12
ENDBRANCH   1  11
TORSDOF 14
ENDMDL
MODEL 3
REMARK VINA RESULT:    -4.741      5.065     10.004
REMARK INTER + INTRA:          -9.756
REMARK INTER:                  -9.271
REMARK INTRA:                  -0.484
REMARK UNBOUND:                -1.135
REMARK SMILES CCCCCCCCCCCCCCCC(=O)[O-]
REMARK SMILES IDX 9 1 10 2 11 3 12 4 13 5 14 6 15 7 16 8 17 9 18 10 8 11 7 12
REMARK SMILES IDX 6 13 5 14 4 15 3 16 2 17 1 18
REMARK H PARENT
REMARK Flexibility Score: inf
ROOT
ATOM      1  C   UNL     1      -4.094  31.218  58.045  1.00  0.00     0.000 C 
ENDROOT
BRANCH   1   2
ATOM      2  C   UNL     1      -4.220  31.179  59.577  1.00  0.00     0.000 C 
BRANCH   2   3
ATOM      3  C   UNL     1      -3.237  32.136  60.274  1.00  0.00     0.000 C 
BRANCH   3   4
ATOM      4  C   UNL     1      -3.604  32.407  61.745  1.00  0.00     0.000 C 
BRANCH   4   5
ATOM      5  C   UNL     1      -2.856  33.581  62.402  1.00  0.00     0.000 C 
BRANCH   5   6
ATOM      6  C   UNL     1      -2.522  33.329  63.883  1.00  0.00     0.006 C 
BRANCH   6   7
ATOM      7  C   UNL     1      -1.145  33.882  64.269  1.00  0.00     0.053 C 
BRANCH   7   8
ATOM      8  C   UNL     1      -0.131  32.790  64.426  1.00  0.00     0.041 C 
ATOM      9  O   UNL     1      -0.112  32.086  65.470  1.00  0.00    -0.550 OA
ATOM     10  O   UNL     1       0.810  32.566  63.429  1.00  0.00    -0.550 OA
ENDBRANCH   7   8
ENDBRANCH   6   7
ENDBRANCH   5   6
ENDBRANCH   4   5
ENDBRANCH   3   4
ENDBRANCH   2   3
ENDBRANCH   1   2
BRANCH   1  11
ATOM     11  C   UNL     1      -3.632  29.874  57.452  1.00  0.00     0.000 C 
BRANCH  11  12
ATOM     12  C   UNL     1      -4.806  29.013  56.962  1.00  0.00    -0.000 C 
BRANCH  12  13
ATOM     13  C   UNL     1      -4.401  28.049  55.833  1.00  0.00    -0.000 C 
BRANCH  13  14
ATOM     14  C   UNL     1      -2.947  27.552  55.985  1.00  0.00    -0.000 C 
BRANCH  14  15
ATOM     15  C   UNL     1      -2.586  26.402  55.029  1.00  0.00    -0.000 C 
BRANCH  15  16
ATOM     16  C   UNL     1      -3.329  26.486  53.686  1.00  0.00    -0.000 C 
BRANCH  16  17
ATOM     17  C   UNL     1      -2.417  26.178  52.488  1.00  0.00    -0.003 C 
ATOM     18  C   UNL     1      -3.018  26.625  51.155  1.00  0.00     0.004 C 
ENDBRANCH  16  17
ENDBRANCH  15  16
ENDBRANCH  14  15
ENDBRANCH  13  14
ENDBRANCH  12  13
ENDBRANCH  11  12
ENDBRANCH   1  11
TORSDOF 14
ENDMDL
MODEL 4
REMARK VINA RESULT:    -4.735      3.136      6.969
REMARK INTER + INTRA:          -9.745
REMARK INTER:                  -8.517
REMARK INTRA:                  -1.228
REMARK UNBOUND:                -1.135
REMARK SMILES CCCCCCCCCCCCCCCC(=O)[O-]
REMARK SMILES IDX 9 1 10 2 11 3 12 4 13 5 14 6 15 7 16 8 17 9 18 10 8 11 7 12
REMARK SMILES IDX 6 13 5 14 4 15 3 16 2 17 1 18
REMARK H PARENT
REMARK Flexibility Score: inf
ROOT
ATOM      1  C   UNL     1      -1.320  26.007  53.587  1.00  0.00     0.000 C 
ENDROOT
BRANCH   1   2
ATOM      2  C   UNL     1      -1.246  26.450  55.057  1.00  0.00     0.000 C 
BRANCH   2   3
ATOM      3  C   UNL     1      -2.591  26.296  55.788  1.00  0.00     0.000 C 
BRANCH   3   4
ATOM      4  C   UNL     1      -3.799  26.665  54.907  1.00  0.00     0.000 C 
BRANCH   4   5
ATOM      5  C   UNL     1      -4.743  27.727  55.499  1.00  0.00     0.000 C 
BRANCH   5   6
ATOM      6  C   UNL     1      -3.994  28.863  56.219  1.00  0.00     0.006 C 
BRANCH   6   7
ATOM      7  C   UNL     1      -4.750  29.361  57.457  1.00  0.00     0.053 C 
BRANCH   7   8
ATOM      8  C   UNL     1      -3.947  30.360  58.234  1.00  0.00     0.041 C 
ATOM      9  O   UNL     1      -4.525  31.227  58.941  1.00  0.00    -0.550 OA
ATOM     10  O   UNL     1      -2.559  30.348  58.157  1.00  0.00    -0.550 OA
ENDBRANCH   7   8
ENDBRANCH   6   7
ENDBRANCH   5   6
ENDBRANCH   4   5
ENDBRANCH   3   4
ENDBRANCH   2   3
ENDBRANCH   1   2
BRANCH   1  11
ATOM     11  C   UNL     1      -0.042  25.289  53.118  1.00  0.00     0.000 C 
BRANCH  11  12
ATOM     12  C   UNL     1       0.819  24.792  54.290  1.00  0.00    -0.000 C 
BRANCH  12  13
ATOM     13  C   UNL     1       2.258  24.451  53.865  1.00  0.00    -0.000 C 
BRANCH  13  14
ATOM     14  C   UNL     1       3.294  25.397  54.510  1.00  0.00    -0.000 C 
BRANCH  14  15
ATOM     15  C   UNL     1       3.692  24.992  55.939  1.00  0.00    -0.000 C 
BRANCH  15  16
ATOM     16  C   UNL     1       3.817  26.195  56.888  1.00  0.00    -0.000 C 
BRANCH  16  17
ATOM     17  C   UNL     1       2.778  27.288  56.593  1.00  0.00    -0.003 C 
ATOM     18  C   UNL     1       1.491  27.116  57.400  1.00  0.00     0.004 C 
ENDBRANCH  16  17
ENDBRANCH  15  16
ENDBRANCH  14  15
ENDBRANCH  13  14
ENDBRANCH  12  13
ENDBRANCH  11  12
ENDBRANCH   1  11
TORSDOF 14
ENDMDL
MODEL 5
REMARK VINA RESULT:    -4.704      4.067      6.796
REMARK INTER + INTRA:          -9.689
REMARK INTER:                  -8.410
REMARK INTRA:                  -1.279
REMARK UNBOUND:                -1.135
REMARK SMILES CCCCCCCCCCCCCCCC(=O)[O-]
REMARK SMILES IDX 9 1 10 2 11 3 12 4 13 5 14 6 15 7 16 8 17 9 18 10 8 11 7 12
REMARK SMILES IDX 6 13 5 14 4 15 3 16 2 17 1 18
REMARK H PARENT
REMARK Flexibility Score: inf
ROOT
ATOM      1  C   UNL     1      -0.521  26.821  56.568  1.00  0.00     0.000 C 
ENDROOT
BRANCH   1   2
ATOM      2  C   UNL     1      -0.543  26.053  55.235  1.00  0.00     0.000 C 
BRANCH   2   3
ATOM      3  C   UNL     1      -1.806  26.347  54.407  1.00  0.00     0.000 C 
BRANCH   3   4
ATOM      4  C   UNL     1      -3.109  26.065  55.179  1.00  0.00     0.000 C 
BRANCH   4   5
ATOM      5  C   UNL     1      -4.283  27.006  54.849  1.00  0.00     0.000 C 
BRANCH   5   6
ATOM      6  C   UNL     1      -4.555  28.038  55.958  1.00  0.00     0.006 C 
BRANCH   6   7
ATOM      7  C   UNL     1      -3.390  29.018  56.136  1.00  0.00     0.053 C 
BRANCH   7   8
ATOM      8  C   UNL     1      -3.473  29.751  57.441  1.00  0.00     0.041 C 
ATOM      9  O   UNL     1      -4.594  30.010  57.953  1.00  0.00    -0.550 OA
ATOM     10  O   UNL     1      -2.311  30.168  58.079  1.00  0.00    -0.550 OA
ENDBRANCH   7   8
ENDBRANCH   6   7
ENDBRANCH   5   6
ENDBRANCH   4   5
ENDBRANCH   3   4
ENDBRANCH   2   3
ENDBRANCH   1   2
BRANCH   1  11
ATOM     11  C   UNL     1       0.902  27.227  56.995  1.00  0.00     0.000 C 
BRANCH  11  12
ATOM     12  C   UNL     1       1.980  26.681  56.047  1.00  0.00    -0.000 C 
BRANCH  12  13
ATOM     13  C   UNL     1       3.404  27.062  56.488  1.00  0.00    -0.000 C 
BRANCH  13  14
ATOM     14  C   UNL     1       4.105  27.981  55.463  1.00  0.00    -0.000 C 
BRANCH  14  15
ATOM     15  C   UNL     1       4.462  29.368  56.023  1.00  0.00    -0.000 C 
BRANCH  15  16
ATOM     16  C   UNL     1       4.291  29.458  57.548  1.00  0.00    -0.000 C 
BRANCH  16  17
ATOM     17  C   UNL     1       3.115  30.359  57.956  1.00  0.00    -0.003 C 
ATOM     18  C   UNL     1       2.607  31.228  56.806  1.00  0.00     0.004 C 
ENDBRANCH  16  17
ENDBRANCH  15  16
ENDBRANCH  14  15
ENDBRANCH  13  14
ENDBRANCH  12  13
ENDBRANCH  11  12
ENDBRANCH   1  11
TORSDOF 14
ENDMDL
MODEL 6
REMARK VINA RESULT:    -4.703      1.713      2.136
REMARK INTER + INTRA:          -9.686
REMARK INTER:                  -8.904
REMARK INTRA:                  -0.783
REMARK UNBOUND:                -1.135
REMARK SMILES CCCCCCCCCCCCCCCC(=O)[O-]
REMARK SMILES IDX 9 1 10 2 11 3 12 4 13 5 14 6 15 7 16 8 17 9 18 10 8 11 7 12
REMARK SMILES IDX 6 13 5 14 4 15 3 16 2 17 1 18
REMARK H PARENT
REMARK Flexibility Score: inf
ROOT
ATOM      1  C   UNL     1      -3.015  25.791  52.033  1.00  0.00     0.000 C 
ENDROOT
BRANCH   1   2
ATOM      2  C   UNL     1      -2.984  26.776  50.854  1.00  0.00     0.000 C 
BRANCH   2   3
ATOM      3  C   UNL     1      -1.642  26.754  50.102  1.00  0.00     0.000 C 
BRANCH   3   4
ATOM      4  C   UNL     1      -0.533  26.016  50.875  1.00  0.00     0.000 C 
BRANCH   4   5
ATOM      5  C   UNL     1       0.663  25.552  50.023  1.00  0.00     0.000 C 
BRANCH   5   6
ATOM      6  C   UNL     1       1.903  25.206  50.867  1.00  0.00     0.006 C 
BRANCH   6   7
ATOM      7  C   UNL     1       3.164  25.920  50.363  1.00  0.00     0.053 C 
BRANCH   7   8
ATOM      8  C   UNL     1       4.401  25.400  51.029  1.00  0.00     0.041 C 
ATOM      9  O   UNL     1       5.446  25.196  50.357  1.00  0.00    -0.550 OA
ATOM     10  O   UNL     1       4.392  25.118  52.390  1.00  0.00    -0.550 OA
ENDBRANCH   7   8
ENDBRANCH   6   7
ENDBRANCH   5   6
ENDBRANCH   4   5
ENDBRANCH   3   4
ENDBRANCH   2   3
ENDBRANCH   1   2
BRANCH   1  11
ATOM     11  C   UNL     1      -3.331  26.479  53.374  1.00  0.00     0.000 C 
BRANCH  11  12
ATOM     12  C   UNL     1      -2.182  26.352  54.386  1.00  0.00    -0.000 C 
BRANCH  12  13
ATOM     13  C   UNL     1      -2.621  26.676  55.825  1.00  0.00    -0.000 C 
BRANCH  13  14
ATOM     14  C   UNL     1      -3.930  27.496  55.863  1.00  0.00    -0.000 C 
BRANCH  14  15
ATOM     15  C   UNL     1      -3.707  29.001  56.084  1.00  0.00    -0.000 C 
BRANCH  15  16
ATOM     16  C   UNL     1      -2.833  29.301  57.313  1.00  0.00    -0.000 C 
BRANCH  16  17
ATOM     17  C   UNL     1      -3.330  30.521  58.105  1.00  0.00    -0.003 C 
ATOM     18  C   UNL     1      -4.662  30.267  58.811  1.00  0.00     0.004 C 
ENDBRANCH  16  17
ENDBRANCH  15  16
ENDBRANCH  14  15
ENDBRANCH  13  14
ENDBRANCH  12  13
ENDBRANCH  11  12
ENDBRANCH   1  11
TORSDOF 14
ENDMDL
MODEL 7
REMARK VINA RESULT:    -4.653      2.291      3.819
REMARK INTER + INTRA:          -9.596
REMARK INTER:                  -8.432
REMARK INTRA:                  -1.164
REMARK UNBOUND:                -1.135
REMARK SMILES CCCCCCCCCCCCCCCC(=O)[O-]
REMARK SMILES IDX 9 1 10 2 11 3 12 4 13 5 14 6 15 7 16 8 17 9 18 10 8 11 7 12
REMARK SMILES IDX 6 13 5 14 4 15 3 16 2 17 1 18
REMARK H PARENT
REMARK Flexibility Score: inf
ROOT
ATOM      1  C   UNL     1      -0.228  24.864  54.755  1.00  0.00     0.000 C 
ENDROOT
BRANCH   1   2
ATOM      2  C   UNL     1       0.919  24.906  53.732  1.00  0.00     0.000 C 
BRANCH   2   3
ATOM      3  C   UNL     1       1.820  23.661  53.804  1.00  0.00     0.000 C 
BRANCH   3   4
ATOM      4  C   UNL     1       3.040  23.856  54.723  1.00  0.00     0.000 C 
BRANCH   4   5
ATOM      5  C   UNL     1       3.502  25.314  54.899  1.00  0.00     0.000 C 
BRANCH   5   6
ATOM      6  C   UNL     1       3.453  25.787  56.363  1.00  0.00     0.006 C 
BRANCH   6   7
ATOM      7  C   UNL     1       2.446  26.925  56.571  1.00  0.00     0.053 C 
BRANCH   7   8
ATOM      8  C   UNL     1       2.368  27.344  58.007  1.00  0.00     0.041 C 
ATOM      9  O   UNL     1       2.096  28.536  58.307  1.00  0.00    -0.550 OA
ATOM     10  O   UNL     1       2.620  26.421  59.015  1.00  0.00    -0.550 OA
ENDBRANCH   7   8
ENDBRANCH   6   7
ENDBRANCH   5   6
ENDBRANCH   4   5
ENDBRANCH   3   4
ENDBRANCH   2   3
ENDBRANCH   1   2
BRANCH   1  11
ATOM     11  C   UNL     1      -1.028  26.179  54.806  1.00  0.00     0.000 C 
BRANCH  11  12
ATOM     12  C   UNL     1      -1.900  26.386  53.558  1.00  0.00    -0.000 C 
BRANCH  12  13
ATOM     13  C   UNL     1      -3.402  26.439  53.887  1.00  0.00    -0.000 C 
BRANCH  13  14
ATOM     14  C   UNL     1      -3.664  26.905  55.336  1.00  0.00    -0.000 C 
BRANCH  14  15
ATOM     15  C   UNL     1      -4.798  27.936  55.455  1.00  0.00    -0.000 C 
BRANCH  15  16
ATOM     16  C   UNL     1      -4.714  28.771  56.743  1.00  0.00    -0.000 C 
BRANCH  16  17
ATOM     17  C   UNL     1      -3.360  29.483  56.895  1.00  0.00    -0.003 C 
ATOM     18  C   UNL     1      -3.327  30.444  58.084  1.00  0.00     0.004 C 
ENDBRANCH  16  17
ENDBRANCH  15  16
ENDBRANCH  14  15
ENDBRANCH  13  14
ENDBRANCH  12  13
ENDBRANCH  11  12
ENDBRANCH   1  11
TORSDOF 14
ENDMDL
MODEL 8
REMARK VINA RESULT:    -4.626      3.853      6.691
REMARK INTER + INTRA:          -9.548
REMARK INTER:                  -8.370
REMARK INTRA:                  -1.178
REMARK UNBOUND:                -1.135
REMARK SMILES CCCCCCCCCCCCCCCC(=O)[O-]
REMARK SMILES IDX 9 1 10 2 11 3 12 4 13 5 14 6 15 7 16 8 17 9 18 10 8 11 7 12
REMARK SMILES IDX 6 13 5 14 4 15 3 16 2 17 1 18
REMARK H PARENT
REMARK Flexibility Score: inf
ROOT
ATOM      1  C   UNL     1      -2.295  29.303  56.923  1.00  0.00     0.000 C 
ENDROOT
BRANCH   1   2
ATOM      2  C   UNL     1      -0.785  29.019  56.974  1.00  0.00     0.000 C 
BRANCH   2   3
ATOM      3  C   UNL     1      -0.468  27.513  56.987  1.00  0.00     0.000 C 
BRANCH   3   4
ATOM      4  C   UNL     1       1.035  27.218  57.147  1.00  0.00     0.000 C 
BRANCH   4   5
ATOM      5  C   UNL     1       1.910  28.437  57.492  1.00  0.00     0.000 C 
BRANCH   5   6
ATOM      6  C   UNL     1       2.175  28.579  59.001  1.00  0.00     0.006 C 
BRANCH   6   7
ATOM      7  C   UNL     1       2.843  29.915  59.349  1.00  0.00     0.053 C 
BRANCH   7   8
ATOM      8  C   UNL     1       1.868  30.887  59.939  1.00  0.00     0.041 C 
ATOM      9  O   UNL     1       0.632  30.746  59.743  1.00  0.00    -0.550 OA
ATOM     10  O   UNL     1       2.328  31.965  60.687  1.00  0.00    -0.550 OA
ENDBRANCH   7   8
ENDBRANCH   6   7
ENDBRANCH   5   6
ENDBRANCH   4   5
ENDBRANCH   3   4
ENDBRANCH   2   3
ENDBRANCH   1   2
BRANCH   1  11
ATOM     11  C   UNL     1      -3.138  28.018  56.819  1.00  0.00     0.000 C 
BRANCH  11  12
ATOM     12  C   UNL     1      -4.280  28.144  55.799  1.00  0.00    -0.000 C 
BRANCH  12  13
ATOM     13  C   UNL     1      -4.302  26.983  54.789  1.00  0.00    -0.000 C 
BRANCH  13  14
ATOM     14  C   UNL     1      -3.037  26.103  54.887  1.00  0.00    -0.000 C 
BRANCH  14  15
ATOM     15  C   UNL     1      -2.038  26.332  53.740  1.00  0.00    -0.000 C 
BRANCH  15  16
ATOM     16  C   UNL     1      -2.706  26.325  52.355  1.00  0.00    -0.000 C 
BRANCH  16  17
ATOM     17  C   UNL     1      -1.683  26.334  51.208  1.00  0.00    -0.003 C 
ATOM     18  C   UNL     1      -2.086  27.263  50.063  1.00  0.00     0.004 C 
ENDBRANCH  16  17
ENDBRANCH  15  16
ENDBRANCH  14  15
ENDBRANCH  13  14
ENDBRANCH  12  13
ENDBRANCH  11  12
ENDBRANCH   1  11
TORSDOF 14
ENDMDL
MODEL 9
REMARK VINA RESULT:    -4.596     12.077     14.475
REMARK INTER + INTRA:          -9.493
REMARK INTER:                  -7.652
REMARK INTRA:                  -1.841
REMARK UNBOUND:                -1.135
REMARK SMILES CCCCCCCCCCCCCCCC(=O)[O-]
REMARK SMILES IDX 9 1 10 2 11 3 12 4 13 5 14 6 15 7 16 8 17 9 18 10 8 11 7 12
REMARK SMILES IDX 6 13 5 14 4 15 3 16 2 17 1 18
REMARK H PARENT
REMARK Flexibility Score: inf
ROOT
ATOM      1  C   UNL     1      -4.024  41.105  51.843  1.00  0.00     0.000 C 
ENDROOT
BRANCH   1   2
ATOM      2  C   UNL     1      -3.273  41.364  53.159  1.00  0.00     0.000 C 
BRANCH   2   3
ATOM      3  C   UNL     1      -3.513  40.258  54.202  1.00  0.00     0.000 C 
BRANCH   3   4
ATOM      4  C   UNL     1      -2.513  40.310  55.373  1.00  0.00     0.000 C 
BRANCH   4   5
ATOM      5  C   UNL     1      -2.498  41.632  56.164  1.00  0.00     0.000 C 
BRANCH   5   6
ATOM      6  C   UNL     1      -2.301  41.425  57.676  1.00  0.00     0.006 C 
BRANCH   6   7
ATOM      7  C   UNL     1      -2.110  39.947  58.038  1.00  0.00     0.053 C 
BRANCH   7   8
ATOM      8  C   UNL     1      -2.688  39.624  59.383  1.00  0.00     0.041 C 
ATOM      9  O   UNL     1      -2.116  38.795  60.137  1.00  0.00    -0.550 OA
ATOM     10  O   UNL     1      -3.874  40.223  59.791  1.00  0.00    -0.550 OA
ENDBRANCH   7   8
ENDBRANCH   6   7
ENDBRANCH   5   6
ENDBRANCH   4   5
ENDBRANCH   3   4
ENDBRANCH   2   3
ENDBRANCH   1   2
BRANCH   1  11
ATOM     11  C   UNL     1      -5.279  40.235  52.036  1.00  0.00     0.000 C 
BRANCH  11  12
ATOM     12  C   UNL     1      -5.457  39.200  50.915  1.00  0.00    -0.000 C 
BRANCH  12  13
ATOM     13  C   UNL     1      -4.219  39.093  50.006  1.00  0.00    -0.000 C 
BRANCH  13  14
ATOM     14  C   UNL     1      -3.640  37.661  49.978  1.00  0.00    -0.000 C 
BRANCH  14  15
ATOM     15  C   UNL     1      -2.134  37.601  50.286  1.00  0.00    -0.000 C 
BRANCH  15  16
ATOM     16  C   UNL     1      -1.813  37.889  51.761  1.00  0.00    -0.000 C 
BRANCH  16  17
ATOM     17  C   UNL     1      -0.797  39.029  51.930  1.00  0.00    -0.003 C 
ATOM     18  C   UNL     1      -0.557  39.807  50.636  1.00  0.00     0.004 C 
ENDBRANCH  16  17
ENDBRANCH  15  16
ENDBRANCH  14  15
ENDBRANCH  13  14
ENDBRANCH  12  13
ENDBRANCH  11  12
ENDBRANCH   1  11
TORSDOF 14
ENDMDL
