MODEL 1
REMARK VINA RESULT:    -3.700      0.000      0.000
REMARK INTER + INTRA:          -4.830
REMARK INTER:                  -4.782
REMARK INTRA:                  -0.049
REMARK UNBOUND:                -0.049
REMARK SMILES C=CC(=O)CCCCC
REMARK SMILES IDX 6 1 7 2 8 3 9 4 5 5 3 6 4 7 2 8 1 9
REMARK H PARENT
REMARK Flexibility Score: inf
ROOT
ATOM      1  C   UNL     1      -2.081   8.319  -1.463  1.00  0.00     0.008 C 
ENDROOT
BRANCH   1   2
ATOM      2  C   UNL     1      -0.607   8.305  -1.028  1.00  0.00     0.000 C 
BRANCH   2   3
ATOM      3  C   UNL     1       0.290   7.526  -2.001  1.00  0.00    -0.003 C 
ATOM      4  C   UNL     1       1.623   7.166  -1.351  1.00  0.00     0.004 C 
ENDBRANCH   2   3
ENDBRANCH   1   2
BRANCH   1   5
ATOM      5  C   UNL     1      -3.048   8.077  -0.291  1.00  0.00     0.080 C 
BRANCH   5   6
ATOM      6  C   UNL     1      -3.769   9.332   0.146  1.00  0.00     0.155 C 
ATOM      7  O   UNL     1      -3.448   9.903   1.224  1.00  0.00    -0.295 OA
BRANCH   6   8
ATOM      8  C   UNL     1      -4.869   9.916  -0.649  1.00  0.00     0.039 C 
ATOM      9  C   UNL     1      -5.295   9.406  -1.804  1.00  0.00     0.012 C 
ENDBRANCH   6   8
ENDBRANCH   5   6
ENDBRANCH   1   5
TORSDOF 5
ENDMDL
MODEL 2
REMARK VINA RESULT:    -3.662     10.348     10.872
REMARK INTER + INTRA:          -4.781
REMARK INTER:                  -4.620
REMARK INTRA:                  -0.161
REMARK UNBOUND:                -0.049
REMARK SMILES C=CC(=O)CCCCC
REMARK SMILES IDX 6 1 7 2 8 3 9 4 5 5 3 6 4 7 2 8 1 9
REMARK H PARENT
REMARK Flexibility Score: inf
ROOT
ATOM      1  C   UNL     1      -2.218   6.518   9.126  1.00  0.00     0.008 C 
ENDROOT
BRANCH   1   2
ATOM      2  C   UNL     1      -1.126   7.101  10.038  1.00  0.00     0.000 C 
BRANCH   2   3
ATOM      3  C   UNL     1      -1.109   8.637  10.035  1.00  0.00    -0.003 C 
ATOM      4  C   UNL     1       0.318   9.170  10.125  1.00  0.00     0.004 C 
ENDBRANCH   2   3
ENDBRANCH   1   2
BRANCH   1   5
ATOM      5  C   UNL     1      -3.544   6.279   9.868  1.00  0.00     0.080 C 
BRANCH   5   6
ATOM      6  C   UNL     1      -4.457   5.314   9.146  1.00  0.00     0.155 C 
ATOM      7  O   UNL     1      -5.663   5.204   9.494  1.00  0.00    -0.295 OA
BRANCH   6   8
ATOM      8  C   UNL     1      -3.973   4.466   8.036  1.00  0.00     0.039 C 
ATOM      9  C   UNL     1      -4.330   3.192   7.872  1.00  0.00     0.012 C 
ENDBRANCH   6   8
ENDBRANCH   5   6
ENDBRANCH   1   5
TORSDOF 5
ENDMDL
MODEL 3
REMARK VINA RESULT:    -3.467     10.428     11.029
REMARK INTER + INTRA:          -4.528
REMARK INTER:                  -4.448
REMARK INTRA:                  -0.081
REMARK UNBOUND:                -0.049
REMARK SMILES C=CC(=O)CCCCC
REMARK SMILES IDX 6 1 7 2 8 3 9 4 5 5 3 6 4 7 2 8 1 9
REMARK H PARENT
REMARK Flexibility Score: inf
ROOT
ATOM      1  C   UNL     1      -2.318   6.537   9.141  1.00  0.00     0.008 C 
ENDROOT
BRANCH   1   2
ATOM      2  C   UNL     1      -1.286   7.110  10.125  1.00  0.00     0.000 C 
BRANCH   2   3
ATOM      3  C   UNL     1      -1.138   8.635  10.006  1.00  0.00    -0.003 C 
ATOM      4  C   UNL     1       0.325   9.055  10.125  1.00  0.00     0.004 C 
ENDBRANCH   2   3
ENDBRANCH   1   2
BRANCH   1   5
ATOM      5  C   UNL     1      -3.586   6.022   9.844  1.00  0.00     0.080 C 
BRANCH   5   6
ATOM      6  C   UNL     1      -4.428   5.130   8.961  1.00  0.00     0.155 C 
ATOM      7  O   UNL     1      -4.468   5.328   7.717  1.00  0.00    -0.295 OA
BRANCH   6   8
ATOM      8  C   UNL     1      -5.236   4.023   9.515  1.00  0.00     0.039 C 
ATOM      9  C   UNL     1      -6.545   4.112   9.750  1.00  0.00     0.012 C 
ENDBRANCH   6   8
ENDBRANCH   5   6
ENDBRANCH   1   5
TORSDOF 5
ENDMDL
MODEL 4
REMARK VINA RESULT:    -3.357     10.614     11.442
REMARK INTER + INTRA:          -4.387
REMARK INTER:                  -4.229
REMARK INTRA:                  -0.158
REMARK UNBOUND:                -0.049
REMARK SMILES C=CC(=O)CCCCC
REMARK SMILES IDX 6 1 7 2 8 3 9 4 5 5 3 6 4 7 2 8 1 9
REMARK H PARENT
REMARK Flexibility Score: inf
ROOT
ATOM      1  C   UNL     1      -4.438   5.621   9.233  1.00  0.00     0.008 C 
ENDROOT
BRANCH   1   2
ATOM      2  C   UNL     1      -5.352   4.680  10.036  1.00  0.00     0.000 C 
BRANCH   2   3
ATOM      3  C   UNL     1      -5.596   3.342   9.324  1.00  0.00    -0.003 C 
ATOM      4  C   UNL     1      -4.546   3.094   8.245  1.00  0.00     0.004 C 
ENDBRANCH   2   3
ENDBRANCH   1   2
BRANCH   1   5
ATOM      5  C   UNL     1      -3.452   6.394  10.125  1.00  0.00     0.080 C 
BRANCH   5   6
ATOM      6  C   UNL     1      -2.149   6.709   9.426  1.00  0.00     0.155 C 
ATOM      7  O   UNL     1      -1.937   6.278   8.260  1.00  0.00    -0.295 OA
BRANCH   6   8
ATOM      8  C   UNL     1      -1.087   7.504  10.077  1.00  0.00     0.039 C 
ATOM      9  C   UNL     1      -1.029   8.835  10.030  1.00  0.00     0.012 C 
ENDBRANCH   6   8
ENDBRANCH   5   6
ENDBRANCH   1   5
TORSDOF 5
ENDMDL
MODEL 5
REMARK VINA RESULT:    -3.352      9.801     11.061
REMARK INTER + INTRA:          -4.380
REMARK INTER:                  -4.167
REMARK INTRA:                  -0.213
REMARK UNBOUND:                -0.049
REMARK SMILES C=CC(=O)CCCCC
REMARK SMILES IDX 6 1 7 2 8 3 9 4 5 5 3 6 4 7 2 8 1 9
REMARK H PARENT
REMARK Flexibility Score: inf
ROOT
ATOM      1  C   UNL     1      -5.295   5.517   9.684  1.00  0.00     0.008 C 
ENDROOT
BRANCH   1   2
ATOM      2  C   UNL     1      -5.613   4.079  10.125  1.00  0.00     0.000 C 
BRANCH   2   3
ATOM      3  C   UNL     1      -5.965   3.162   8.944  1.00  0.00    -0.003 C 
ATOM      4  C   UNL     1      -4.705   2.588   8.301  1.00  0.00     0.004 C 
ENDBRANCH   2   3
ENDBRANCH   1   2
BRANCH   1   5
ATOM      5  C   UNL     1      -3.895   5.977  10.124  1.00  0.00     0.080 C 
BRANCH   5   6
ATOM      6  C   UNL     1      -2.886   5.953   8.998  1.00  0.00     0.155 C 
ATOM      7  O   UNL     1      -1.732   6.430   9.173  1.00  0.00    -0.295 OA
BRANCH   6   8
ATOM      8  C   UNL     1      -3.215   5.398   7.669  1.00  0.00     0.039 C 
ATOM      9  C   UNL     1      -3.449   6.149   6.593  1.00  0.00     0.012 C 
ENDBRANCH   6   8
ENDBRANCH   5   6
ENDBRANCH   1   5
TORSDOF 5
ENDMDL
MODEL 6
REMARK VINA RESULT:    -3.274     12.875     13.362
REMARK INTER + INTRA:          -4.280
REMARK INTER:                  -4.161
REMARK INTRA:                  -0.119
REMARK UNBOUND:                -0.049
REMARK SMILES C=CC(=O)CCCCC
REMARK SMILES IDX 6 1 7 2 8 3 9 4 5 5 3 6 4 7 2 8 1 9
REMARK H PARENT
REMARK Flexibility Score: inf
ROOT
ATOM      1  C   UNL     1       8.587   7.641  -7.349  1.00  0.00     0.008 C 
ENDROOT
BRANCH   1   2
ATOM      2  C   UNL     1       9.473   6.800  -6.415  1.00  0.00     0.000 C 
BRANCH   2   3
ATOM      3  C   UNL     1       8.680   5.723  -5.659  1.00  0.00    -0.003 C 
ATOM      4  C   UNL     1       9.616   4.780  -4.908  1.00  0.00     0.004 C 
ENDBRANCH   2   3
ENDBRANCH   1   2
BRANCH   1   5
ATOM      5  C   UNL     1       9.328   8.856  -7.933  1.00  0.00     0.080 C 
BRANCH   5   6
ATOM      6  C   UNL     1       8.576   9.514  -9.068  1.00  0.00     0.155 C 
ATOM      7  O   UNL     1       9.206  10.125  -9.973  1.00  0.00    -0.295 OA
BRANCH   6   8
ATOM      8  C   UNL     1       7.101   9.482  -9.147  1.00  0.00     0.039 C 
ATOM      9  C   UNL     1       6.425   8.716 -10.003  1.00  0.00     0.012 C 
ENDBRANCH   6   8
ENDBRANCH   5   6
ENDBRANCH   1   5
TORSDOF 5
ENDMDL
MODEL 7
REMARK VINA RESULT:    -3.032      1.702      4.884
REMARK INTER + INTRA:          -3.967
REMARK INTER:                  -3.778
REMARK INTRA:                  -0.190
REMARK UNBOUND:                -0.049
REMARK SMILES C=CC(=O)CCCCC
REMARK SMILES IDX 6 1 7 2 8 3 9 4 5 5 3 6 4 7 2 8 1 9
REMARK H PARENT
REMARK Flexibility Score: inf
ROOT
ATOM      1  C   UNL     1      -3.256   8.242  -0.374  1.00  0.00     0.008 C 
ENDROOT
BRANCH   1   2
ATOM      2  C   UNL     1      -4.155   9.431   0.002  1.00  0.00     0.000 C 
BRANCH   2   3
ATOM      3  C   UNL     1      -5.092   9.849  -1.141  1.00  0.00    -0.003 C 
ATOM      4  C   UNL     1      -4.742   9.118  -2.434  1.00  0.00     0.004 C 
ENDBRANCH   2   3
ENDBRANCH   1   2
BRANCH   1   5
ATOM      5  C   UNL     1      -1.758   8.568  -0.249  1.00  0.00     0.080 C 
BRANCH   5   6
ATOM      6  C   UNL     1      -0.965   8.176  -1.476  1.00  0.00     0.155 C 
ATOM      7  O   UNL     1      -1.562   7.894  -2.550  1.00  0.00    -0.295 OA
BRANCH   6   8
ATOM      8  C   UNL     1       0.510   8.093  -1.457  1.00  0.00     0.039 C 
ATOM      9  C   UNL     1       1.184   6.943  -1.474  1.00  0.00     0.012 C 
ENDBRANCH   6   8
ENDBRANCH   5   6
ENDBRANCH   1   5
TORSDOF 5
ENDMDL
MODEL 8
REMARK VINA RESULT:    -2.851     12.783     13.781
REMARK INTER + INTRA:          -3.733
REMARK INTER:                  -3.490
REMARK INTRA:                  -0.243
REMARK UNBOUND:                -0.049
REMARK SMILES C=CC(=O)CCCCC
REMARK SMILES IDX 6 1 7 2 8 3 9 4 5 5 3 6 4 7 2 8 1 9
REMARK H PARENT
REMARK Flexibility Score: inf
ROOT
ATOM      1  C   UNL     1       9.604   8.400  -8.379  1.00  0.00     0.008 C 
ENDROOT
BRANCH   1   2
ATOM      2  C   UNL     1       9.029   9.826  -8.392  1.00  0.00     0.000 C 
BRANCH   2   3
ATOM      3  C   UNL     1       7.496   9.845  -8.482  1.00  0.00    -0.003 C 
ATOM      4  C   UNL     1       6.988   8.755  -9.421  1.00  0.00     0.004 C 
ENDBRANCH   2   3
ENDBRANCH   1   2
BRANCH   1   5
ATOM      5  C   UNL     1      10.123   7.982  -6.992  1.00  0.00     0.080 C 
BRANCH   5   6
ATOM      6  C   UNL     1       9.436   6.748  -6.453  1.00  0.00     0.155 C 
ATOM      7  O   UNL     1       8.239   6.505  -6.764  1.00  0.00    -0.295 OA
BRANCH   6   8
ATOM      8  C   UNL     1      10.123   5.808  -5.543  1.00  0.00     0.039 C 
ATOM      9  C   UNL     1       9.673   4.583  -5.271  1.00  0.00     0.012 C 
ENDBRANCH   6   8
ENDBRANCH   5   6
ENDBRANCH   1   5
TORSDOF 5
ENDMDL
