MODEL 1
REMARK VINA RESULT:    -3.250      0.000      0.000
REMARK INTER + INTRA:          -5.859
REMARK INTER:                  -4.960
REMARK INTRA:                  -0.898
REMARK UNBOUND:                -0.898
REMARK SMILES O=C([O-])CCCCCCCCC(=O)[O-]
REMARK SMILES IDX 7 1 6 2 5 3 4 4 2 5 1 6 3 7 8 8 9 9 10 10 11 11 12 12 13 13
REMARK SMILES IDX 14 14
REMARK H PARENT
REMARK Flexibility Score: inf
ROOT
ATOM      1  C   UNL     1      24.830  -6.389 -26.136  1.00  0.00     0.000 C 
ENDROOT
BRANCH   1   2
ATOM      2  C   UNL     1      23.728  -5.643 -26.907  1.00  0.00     0.000 C 
BRANCH   2   3
ATOM      3  C   UNL     1      24.208  -4.303 -27.491  1.00  0.00     0.006 C 
BRANCH   3   4
ATOM      4  C   UNL     1      24.878  -4.475 -28.861  1.00  0.00     0.053 C 
BRANCH   4   5
ATOM      5  C   UNL     1      23.868  -4.564 -29.964  1.00  0.00     0.041 C 
ATOM      6  O   UNL     1      23.282  -3.527 -30.371  1.00  0.00    -0.550 OA
ATOM      7  O   UNL     1      23.548  -5.798 -30.517  1.00  0.00    -0.550 OA
ENDBRANCH   4   5
ENDBRANCH   3   4
ENDBRANCH   2   3
ENDBRANCH   1   2
BRANCH   1   8
ATOM      8  C   UNL     1      25.140  -7.810 -26.650  1.00  0.00     0.000 C 
BRANCH   8   9
ATOM      9  C   UNL     1      24.753  -8.075 -28.116  1.00  0.00     0.000 C 
BRANCH   9  10
ATOM     10  C   UNL     1      25.937  -7.910 -29.085  1.00  0.00     0.006 C 
BRANCH  10  11
ATOM     11  C   UNL     1      27.284  -7.855 -28.351  1.00  0.00     0.053 C 
BRANCH  11  12
ATOM     12  C   UNL     1      28.152  -6.746 -28.861  1.00  0.00     0.041 C 
ATOM     13  O   UNL     1      27.790  -6.066 -29.857  1.00  0.00    -0.550 OA
ATOM     14  O   UNL     1      29.346  -6.445 -28.219  1.00  0.00    -0.550 OA
ENDBRANCH  11  12
ENDBRANCH  10  11
ENDBRANCH   9  10
ENDBRANCH   8   9
ENDBRANCH   1   8
TORSDOF 9
ENDMDL
MODEL 2
REMARK VINA RESULT:    -3.231     15.175     16.463
REMARK INTER + INTRA:          -5.829
REMARK INTER:                  -5.376
REMARK INTRA:                  -0.453
REMARK UNBOUND:                -0.898
REMARK SMILES O=C([O-])CCCCCCCCC(=O)[O-]
REMARK SMILES IDX 7 1 6 2 5 3 4 4 2 5 1 6 3 7 8 8 9 9 10 10 11 11 12 12 13 13
REMARK SMILES IDX 14 14
REMARK H PARENT
REMARK Flexibility Score: inf
ROOT
ATOM      1  C   UNL     1      33.535   7.921 -30.556  1.00  0.00     0.000 C 
ENDROOT
BRANCH   1   2
ATOM      2  C   UNL     1      32.897   9.308 -30.745  1.00  0.00     0.000 C 
BRANCH   2   3
ATOM      3  C   UNL     1      32.366   9.906 -29.430  1.00  0.00     0.006 C 
BRANCH   3   4
ATOM      4  C   UNL     1      32.740   9.050 -28.213  1.00  0.00     0.053 C 
BRANCH   4   5
ATOM      5  C   UNL     1      33.173   9.893 -27.053  1.00  0.00     0.041 C 
ATOM      6  O   UNL     1      33.750  10.994 -27.252  1.00  0.00    -0.550 OA
ATOM      7  O   UNL     1      32.972   9.446 -25.753  1.00  0.00    -0.550 OA
ENDBRANCH   4   5
ENDBRANCH   3   4
ENDBRANCH   2   3
ENDBRANCH   1   2
BRANCH   1   8
ATOM      8  C   UNL     1      34.646   7.570 -31.567  1.00  0.00     0.000 C 
BRANCH   8   9
ATOM      9  C   UNL     1      35.705   6.576 -31.058  1.00  0.00     0.000 C 
BRANCH   9  10
ATOM     10  C   UNL     1      35.429   5.129 -31.502  1.00  0.00     0.006 C 
BRANCH  10  11
ATOM     11  C   UNL     1      35.089   5.036 -32.996  1.00  0.00     0.053 C 
BRANCH  11  12
ATOM     12  C   UNL     1      33.828   4.263 -33.234  1.00  0.00     0.041 C 
ATOM     13  O   UNL     1      33.880   3.106 -33.728  1.00  0.00    -0.550 OA
ATOM     14  O   UNL     1      32.600   4.807 -32.882  1.00  0.00    -0.550 OA
ENDBRANCH  11  12
ENDBRANCH  10  11
ENDBRANCH   9  10
ENDBRANCH   8   9
ENDBRANCH   1   8
TORSDOF 9
ENDMDL
MODEL 3
REMARK VINA RESULT:    -3.211      2.246      2.956
REMARK INTER + INTRA:          -5.798
REMARK INTER:                  -5.118
REMARK INTRA:                  -0.681
REMARK UNBOUND:                -0.898
REMARK SMILES O=C([O-])CCCCCCCCC(=O)[O-]
REMARK SMILES IDX 7 1 6 2 5 3 4 4 2 5 1 6 3 7 8 8 9 9 10 10 11 11 12 12 13 13
REMARK SMILES IDX 14 14
REMARK H PARENT
REMARK Flexibility Score: inf
ROOT
ATOM      1  C   UNL     1      24.380  -5.240 -28.796  1.00  0.00     0.000 C 
ENDROOT
BRANCH   1   2
ATOM      2  C   UNL     1      23.734  -5.495 -30.169  1.00  0.00     0.000 C 
BRANCH   2   3
ATOM      3  C   UNL     1      24.751  -5.461 -31.323  1.00  0.00     0.006 C 
BRANCH   3   4
ATOM      4  C   UNL     1      24.134  -4.925 -32.622  1.00  0.00     0.053 C 
BRANCH   4   5
ATOM      5  C   UNL     1      25.183  -4.430 -33.571  1.00  0.00     0.041 C 
ATOM      6  O   UNL     1      25.852  -5.247 -34.256  1.00  0.00    -0.550 OA
ATOM      7  O   UNL     1      25.445  -3.070 -33.671  1.00  0.00    -0.550 OA
ENDBRANCH   4   5
ENDBRANCH   3   4
ENDBRANCH   2   3
ENDBRANCH   1   2
BRANCH   1   8
ATOM      8  C   UNL     1      24.112  -6.326 -27.735  1.00  0.00     0.000 C 
BRANCH   8   9
ATOM      9  C   UNL     1      24.593  -7.739 -28.109  1.00  0.00     0.000 C 
BRANCH   9  10
ATOM     10  C   UNL     1      26.032  -8.023 -27.643  1.00  0.00     0.006 C 
BRANCH  10  11
ATOM     11  C   UNL     1      27.034  -7.992 -28.805  1.00  0.00     0.053 C 
BRANCH  11  12
ATOM     12  C   UNL     1      27.886  -6.760 -28.775  1.00  0.00     0.041 C 
ATOM     13  O   UNL     1      28.733  -6.554 -29.684  1.00  0.00    -0.550 OA
ATOM     14  O   UNL     1      27.725  -5.826 -27.760  1.00  0.00    -0.550 OA
ENDBRANCH  11  12
ENDBRANCH  10  11
ENDBRANCH   9  10
ENDBRANCH   8   9
ENDBRANCH   1   8
TORSDOF 9
ENDMDL
MODEL 4
REMARK VINA RESULT:    -3.194     15.274     16.821
REMARK INTER + INTRA:          -5.773
REMARK INTER:                  -5.318
REMARK INTRA:                  -0.455
REMARK UNBOUND:                -0.898
REMARK SMILES O=C([O-])CCCCCCCCC(=O)[O-]
REMARK SMILES IDX 7 1 6 2 5 3 4 4 2 5 1 6 3 7 8 8 9 9 10 10 11 11 12 12 13 13
REMARK SMILES IDX 14 14
REMARK H PARENT
REMARK Flexibility Score: inf
ROOT
ATOM      1  C   UNL     1      34.361   7.782 -31.516  1.00  0.00     0.000 C 
ENDROOT
BRANCH   1   2
ATOM      2  C   UNL     1      35.656   6.962 -31.385  1.00  0.00     0.000 C 
BRANCH   2   3
ATOM      3  C   UNL     1      35.434   5.455 -31.603  1.00  0.00     0.006 C 
BRANCH   3   4
ATOM      4  C   UNL     1      35.148   5.119 -33.072  1.00  0.00     0.053 C 
BRANCH   4   5
ATOM      5  C   UNL     1      33.885   4.328 -33.224  1.00  0.00     0.041 C 
ATOM      6  O   UNL     1      32.779   4.833 -32.898  1.00  0.00    -0.550 OA
ATOM      7  O   UNL     1      33.934   3.021 -33.692  1.00  0.00    -0.550 OA
ENDBRANCH   4   5
ENDBRANCH   3   4
ENDBRANCH   2   3
ENDBRANCH   1   2
BRANCH   1   8
ATOM      8  C   UNL     1      33.267   7.446 -30.484  1.00  0.00     0.000 C 
BRANCH   8   9
ATOM      9  C   UNL     1      32.242   8.565 -30.227  1.00  0.00     0.000 C 
BRANCH   9  10
ATOM     10  C   UNL     1      32.799   9.693 -29.341  1.00  0.00     0.006 C 
BRANCH  10  11
ATOM     11  C   UNL     1      32.752   9.335 -27.850  1.00  0.00     0.053 C 
BRANCH  11  12
ATOM     12  C   UNL     1      32.849  10.552 -26.981  1.00  0.00     0.041 C 
ATOM     13  O   UNL     1      31.901  10.857 -26.210  1.00  0.00    -0.550 OA
ATOM     14  O   UNL     1      33.998  11.331 -27.000  1.00  0.00    -0.550 OA
ENDBRANCH  11  12
ENDBRANCH  10  11
ENDBRANCH   9  10
ENDBRANCH   8   9
ENDBRANCH   1   8
TORSDOF 9
ENDMDL
MODEL 5
REMARK VINA RESULT:    -3.159     15.772     17.010
REMARK INTER + INTRA:          -5.720
REMARK INTER:                  -5.308
REMARK INTRA:                  -0.412
REMARK UNBOUND:                -0.898
REMARK SMILES O=C([O-])CCCCCCCCC(=O)[O-]
REMARK SMILES IDX 7 1 6 2 5 3 4 4 2 5 1 6 3 7 8 8 9 9 10 10 11 11 12 12 13 13
REMARK SMILES IDX 14 14
REMARK H PARENT
REMARK Flexibility Score: inf
ROOT
ATOM      1  C   UNL     1      32.722   7.966 -29.080  1.00  0.00     0.000 C 
ENDROOT
BRANCH   1   2
ATOM      2  C   UNL     1      32.799   9.496 -29.219  1.00  0.00     0.000 C 
BRANCH   2   3
ATOM      3  C   UNL     1      32.435  10.234 -27.919  1.00  0.00     0.006 C 
BRANCH   3   4
ATOM      4  C   UNL     1      33.095   9.599 -26.689  1.00  0.00     0.053 C 
BRANCH   4   5
ATOM      5  C   UNL     1      33.619  10.636 -25.743  1.00  0.00     0.041 C 
ATOM      6  O   UNL     1      33.877  11.797 -26.156  1.00  0.00    -0.550 OA
ATOM      7  O   UNL     1      33.858  10.309 -24.414  1.00  0.00    -0.550 OA
ENDBRANCH   4   5
ENDBRANCH   3   4
ENDBRANCH   2   3
ENDBRANCH   1   2
BRANCH   1   8
ATOM      8  C   UNL     1      33.071   7.175 -30.357  1.00  0.00     0.000 C 
BRANCH   8   9
ATOM      9  C   UNL     1      34.126   7.830 -31.266  1.00  0.00     0.000 C 
BRANCH   9  10
ATOM     10  C   UNL     1      35.375   6.953 -31.459  1.00  0.00     0.006 C 
BRANCH  10  11
ATOM     11  C   UNL     1      35.025   5.464 -31.580  1.00  0.00     0.053 C 
BRANCH  11  12
ATOM     12  C   UNL     1      35.031   5.004 -33.006  1.00  0.00     0.041 C 
ATOM     13  O   UNL     1      34.281   4.058 -33.368  1.00  0.00    -0.550 OA
ATOM     14  O   UNL     1      35.840   5.637 -33.939  1.00  0.00    -0.550 OA
ENDBRANCH  11  12
ENDBRANCH  10  11
ENDBRANCH   9  10
ENDBRANCH   8   9
ENDBRANCH   1   8
TORSDOF 9
ENDMDL
MODEL 6
REMARK VINA RESULT:    -3.143     14.117     15.712
REMARK INTER + INTRA:          -5.695
REMARK INTER:                  -5.347
REMARK INTRA:                  -0.348
REMARK UNBOUND:                -0.898
REMARK SMILES O=C([O-])CCCCCCCCC(=O)[O-]
REMARK SMILES IDX 7 1 6 2 5 3 4 4 2 5 1 6 3 7 8 8 9 9 10 10 11 11 12 12 13 13
REMARK SMILES IDX 14 14
REMARK H PARENT
REMARK Flexibility Score: inf
ROOT
ATOM      1  C   UNL     1      35.473   5.408 -33.025  1.00  0.00     0.000 C 
ENDROOT
BRANCH   1   2
ATOM      2  C   UNL     1      34.021   4.914 -33.143  1.00  0.00     0.000 C 
BRANCH   2   3
ATOM      3  C   UNL     1      33.925   3.419 -33.493  1.00  0.00     0.006 C 
BRANCH   3   4
ATOM      4  C   UNL     1      32.482   2.902 -33.433  1.00  0.00     0.053 C 
BRANCH   4   5
ATOM      5  C   UNL     1      32.271   1.737 -34.351  1.00  0.00     0.041 C 
ATOM      6  O   UNL     1      32.868   0.649 -34.141  1.00  0.00    -0.550 OA
ATOM      7  O   UNL     1      31.443   1.866 -35.460  1.00  0.00    -0.550 OA
ENDBRANCH   4   5
ENDBRANCH   3   4
ENDBRANCH   2   3
ENDBRANCH   1   2
BRANCH   1   8
ATOM      8  C   UNL     1      35.786   6.221 -31.752  1.00  0.00     0.000 C 
BRANCH   8   9
ATOM      9  C   UNL     1      34.939   7.492 -31.562  1.00  0.00     0.000 C 
BRANCH   9  10
ATOM     10  C   UNL     1      33.849   7.329 -30.489  1.00  0.00     0.006 C 
BRANCH  10  11
ATOM     11  C   UNL     1      32.626   8.214 -30.766  1.00  0.00     0.053 C 
BRANCH  11  12
ATOM     12  C   UNL     1      32.900   9.655 -30.458  1.00  0.00     0.041 C 
ATOM     13  O   UNL     1      32.892  10.059 -29.265  1.00  0.00    -0.550 OA
ATOM     14  O   UNL     1      33.192  10.543 -31.484  1.00  0.00    -0.550 OA
ENDBRANCH  11  12
ENDBRANCH  10  11
ENDBRANCH   9  10
ENDBRANCH   8   9
ENDBRANCH   1   8
TORSDOF 9
ENDMDL
MODEL 7
REMARK VINA RESULT:    -3.115     16.122     17.718
REMARK INTER + INTRA:          -5.652
REMARK INTER:                  -5.319
REMARK INTRA:                  -0.333
REMARK UNBOUND:                -0.898
REMARK SMILES O=C([O-])CCCCCCCCC(=O)[O-]
REMARK SMILES IDX 7 1 6 2 5 3 4 4 2 5 1 6 3 7 8 8 9 9 10 10 11 11 12 12 13 13
REMARK SMILES IDX 14 14
REMARK H PARENT
REMARK Flexibility Score: inf
ROOT
ATOM      1  C   UNL     1      32.331   8.716 -30.316  1.00  0.00     0.000 C 
ENDROOT
BRANCH   1   2
ATOM      2  C   UNL     1      33.408   7.621 -30.413  1.00  0.00     0.000 C 
BRANCH   2   3
ATOM      3  C   UNL     1      34.470   7.921 -31.485  1.00  0.00     0.006 C 
BRANCH   3   4
ATOM      4  C   UNL     1      35.665   6.963 -31.400  1.00  0.00     0.053 C 
BRANCH   4   5
ATOM      5  C   UNL     1      35.369   5.647 -32.052  1.00  0.00     0.041 C 
ATOM      6  O   UNL     1      35.072   4.645 -31.350  1.00  0.00    -0.550 OA
ATOM      7  O   UNL     1      35.456   5.519 -33.432  1.00  0.00    -0.550 OA
ENDBRANCH   4   5
ENDBRANCH   3   4
ENDBRANCH   2   3
ENDBRANCH   1   2
BRANCH   1   8
ATOM      8  C   UNL     1      32.711   9.932 -29.447  1.00  0.00     0.000 C 
BRANCH   8   9
ATOM      9  C   UNL     1      32.794   9.656 -27.935  1.00  0.00     0.000 C 
BRANCH   9  10
ATOM     10  C   UNL     1      33.560  10.749 -27.170  1.00  0.00     0.006 C 
BRANCH  10  11
ATOM     11  C   UNL     1      32.672  11.472 -26.148  1.00  0.00     0.053 C 
BRANCH  11  12
ATOM     12  C   UNL     1      32.664  10.773 -24.823  1.00  0.00     0.041 C 
ATOM     13  O   UNL     1      31.590  10.303 -24.362  1.00  0.00    -0.550 OA
ATOM     14  O   UNL     1      33.846  10.615 -24.112  1.00  0.00    -0.550 OA
ENDBRANCH  11  12
ENDBRANCH  10  11
ENDBRANCH   9  10
ENDBRANCH   8   9
ENDBRANCH   1   8
TORSDOF 9
ENDMDL
MODEL 8
REMARK VINA RESULT:    -3.107      2.256      3.637
REMARK INTER + INTRA:          -5.639
REMARK INTER:                  -4.664
REMARK INTRA:                  -0.975
REMARK UNBOUND:                -0.898
REMARK SMILES O=C([O-])CCCCCCCCC(=O)[O-]
REMARK SMILES IDX 7 1 6 2 5 3 4 4 2 5 1 6 3 7 8 8 9 9 10 10 11 11 12 12 13 13
REMARK SMILES IDX 14 14
REMARK H PARENT
REMARK Flexibility Score: inf
ROOT
ATOM      1  C   UNL     1      27.599  -5.800 -29.594  1.00  0.00     0.000 C 
ENDROOT
BRANCH   1   2
ATOM      2  C   UNL     1      27.015  -4.416 -29.258  1.00  0.00     0.000 C 
BRANCH   2   3
ATOM      3  C   UNL     1      26.016  -3.917 -30.315  1.00  0.00     0.006 C 
BRANCH   3   4
ATOM      4  C   UNL     1      25.849  -4.913 -31.470  1.00  0.00     0.053 C 
BRANCH   4   5
ATOM      5  C   UNL     1      24.407  -5.224 -31.730  1.00  0.00     0.041 C 
ATOM      6  O   UNL     1      23.795  -6.048 -31.000  1.00  0.00    -0.550 OA
ATOM      7  O   UNL     1      23.749  -4.632 -32.801  1.00  0.00    -0.550 OA
ENDBRANCH   4   5
ENDBRANCH   3   4
ENDBRANCH   2   3
ENDBRANCH   1   2
BRANCH   1   8
ATOM      8  C   UNL     1      27.259  -6.915 -28.584  1.00  0.00     0.000 C 
BRANCH   8   9
ATOM      9  C   UNL     1      26.185  -7.914 -29.050  1.00  0.00     0.000 C 
BRANCH   9  10
ATOM     10  C   UNL     1      24.887  -7.821 -28.229  1.00  0.00     0.006 C 
BRANCH  10  11
ATOM     11  C   UNL     1      25.076  -7.019 -26.935  1.00  0.00     0.053 C 
BRANCH  11  12
ATOM     12  C   UNL     1      24.088  -5.898 -26.824  1.00  0.00     0.041 C 
ATOM     13  O   UNL     1      23.470  -5.704 -25.743  1.00  0.00    -0.550 OA
ATOM     14  O   UNL     1      23.871  -5.051 -27.902  1.00  0.00    -0.550 OA
ENDBRANCH  11  12
ENDBRANCH  10  11
ENDBRANCH   9  10
ENDBRANCH   8   9
ENDBRANCH   1   8
TORSDOF 9
ENDMDL
MODEL 9
REMARK VINA RESULT:    -3.105     15.587     17.174
REMARK INTER + INTRA:          -5.637
REMARK INTER:                  -5.286
REMARK INTRA:                  -0.351
REMARK UNBOUND:                -0.898
REMARK SMILES O=C([O-])CCCCCCCCC(=O)[O-]
REMARK SMILES IDX 7 1 6 2 5 3 4 4 2 5 1 6 3 7 8 8 9 9 10 10 11 11 12 12 13 13
REMARK SMILES IDX 14 14
REMARK H PARENT
REMARK Flexibility Score: inf
ROOT
ATOM      1  C   UNL     1      33.567   7.501 -30.452  1.00  0.00     0.000 C 
ENDROOT
BRANCH   1   2
ATOM      2  C   UNL     1      34.638   7.669 -31.544  1.00  0.00     0.000 C 
BRANCH   2   3
ATOM      3  C   UNL     1      35.643   6.504 -31.580  1.00  0.00     0.006 C 
BRANCH   3   4
ATOM      4  C   UNL     1      35.461   5.620 -32.821  1.00  0.00     0.053 C 
BRANCH   4   5
ATOM      5  C   UNL     1      34.538   4.471 -32.552  1.00  0.00     0.041 C 
ATOM      6  O   UNL     1      34.264   4.142 -31.368  1.00  0.00    -0.550 OA
ATOM      7  O   UNL     1      34.011   3.739 -33.610  1.00  0.00    -0.550 OA
ENDBRANCH   4   5
ENDBRANCH   3   4
ENDBRANCH   2   3
ENDBRANCH   1   2
BRANCH   1   8
ATOM      8  C   UNL     1      32.436   8.549 -30.479  1.00  0.00     0.000 C 
BRANCH   8   9
ATOM      9  C   UNL     1      32.709   9.828 -29.668  1.00  0.00     0.000 C 
BRANCH   9  10
ATOM     10  C   UNL     1      32.772   9.573 -28.153  1.00  0.00     0.006 C 
BRANCH  10  11
ATOM     11  C   UNL     1      33.478  10.709 -27.402  1.00  0.00     0.053 C 
BRANCH  11  12
ATOM     12  C   UNL     1      33.154  10.697 -25.939  1.00  0.00     0.041 C 
ATOM     13  O   UNL     1      32.264  11.462 -25.481  1.00  0.00    -0.550 OA
ATOM     14  O   UNL     1      33.813   9.821 -25.087  1.00  0.00    -0.550 OA
ENDBRANCH  11  12
ENDBRANCH  10  11
ENDBRANCH   9  10
ENDBRANCH   8   9
ENDBRANCH   1   8
TORSDOF 9
ENDMDL
