MODEL 1
REMARK VINA RESULT:    -4.089      0.000      0.000
REMARK INTER + INTRA:          -4.209
REMARK INTER:                  -4.209
REMARK INTRA:                   0.000
REMARK UNBOUND:                 0.000
REMARK SMILES C[C@H]1CC[C@@H]2C(C)(C)[C@@H]3C[C@@]21CC[C@]3(C)O
REMARK SMILES IDX 1 1 2 2 3 3 4 4 5 5 11 6 12 7 13 8 14 9 9 10 10 11 6 12 7 13
REMARK SMILES IDX 8 14 15 15 16 16
REMARK H PARENT 16 17
REMARK Flexibility Score: inf
ROOT
ATOM      1  C   UNL     1     166.134 159.248 167.303  1.00  0.00     0.008 C 
ATOM      2  C   UNL     1     167.345 159.963 167.929  1.00  0.00    -0.008 C 
ATOM      3  C   UNL     1     166.911 161.293 168.549  1.00  0.00     0.004 C 
ATOM      4  C   UNL     1     166.548 160.980 169.994  1.00  0.00     0.005 C 
ATOM      5  C   UNL     1     167.382 159.747 170.406  1.00  0.00     0.001 C 
ATOM      6  C   UNL     1     168.007 159.193 169.103  1.00  0.00    -0.023 C 
ATOM      7  C   UNL     1     167.914 157.638 169.038  1.00  0.00     0.010 C 
ATOM      8  C   UNL     1     168.529 156.954 170.285  1.00  0.00     0.036 C 
ATOM      9  C   UNL     1     169.831 157.628 170.824  1.00  0.00     0.065 C 
ATOM     10  C   UNL     1     169.774 159.205 170.679  1.00  0.00     0.027 C 
ATOM     11  C   UNL     1     169.492 159.542 169.218  1.00  0.00     0.014 C 
ATOM     12  C   UNL     1     168.585 159.943 171.401  1.00  0.00    -0.026 C 
ATOM     13  C   UNL     1     168.237 159.388 172.804  1.00  0.00     0.012 C 
ATOM     14  C   UNL     1     168.990 161.431 171.619  1.00  0.00     0.012 C 
ATOM     15  C   UNL     1     171.047 157.041 170.063  1.00  0.00     0.042 C 
ENDROOT
BRANCH   9  16
ATOM     16  O   UNL     1     169.983 157.269 172.177  1.00  0.00    -0.390 OA
ATOM     17  H   UNL     1     169.624 158.010 172.732  1.00  0.00     0.211 HD
ENDBRANCH   9  16
TORSDOF 1
ENDMDL
MODEL 2
REMARK VINA RESULT:    -4.089      8.455     10.298
REMARK INTER + INTRA:          -4.208
REMARK INTER:                  -4.208
REMARK INTRA:                   0.000
REMARK UNBOUND:                 0.000
REMARK SMILES C[C@H]1CC[C@@H]2C(C)(C)[C@@H]3C[C@@]21CC[C@]3(C)O
REMARK SMILES IDX 1 1 2 2 3 3 4 4 5 5 11 6 12 7 13 8 14 9 9 10 10 11 6 12 7 13
REMARK SMILES IDX 8 14 15 15 16 16
REMARK H PARENT 16 17
REMARK Flexibility Score: inf
ROOT
ATOM      1  C   UNL     1     159.276 165.030 167.227  1.00  0.00     0.008 C 
ATOM      2  C   UNL     1     160.000 163.842 167.886  1.00  0.00    -0.008 C 
ATOM      3  C   UNL     1     161.323 164.306 168.502  1.00  0.00     0.004 C 
ATOM      4  C   UNL     1     160.999 164.702 169.935  1.00  0.00     0.005 C 
ATOM      5  C   UNL     1     159.772 163.865 170.362  1.00  0.00     0.001 C 
ATOM      6  C   UNL     1     159.231 163.202 169.073  1.00  0.00    -0.023 C 
ATOM      7  C   UNL     1     157.676 163.277 168.999  1.00  0.00     0.010 C 
ATOM      8  C   UNL     1     156.992 162.687 170.258  1.00  0.00     0.036 C 
ATOM      9  C   UNL     1     157.677 161.406 170.832  1.00  0.00     0.065 C 
ATOM     10  C   UNL     1     159.254 161.476 170.693  1.00  0.00     0.027 C 
ATOM     11  C   UNL     1     159.595 161.724 169.228  1.00  0.00     0.014 C 
ATOM     12  C   UNL     1     159.976 162.690 171.389  1.00  0.00    -0.026 C 
ATOM     13  C   UNL     1     159.411 163.068 172.780  1.00  0.00     0.012 C 
ATOM     14  C   UNL     1     161.467 162.306 171.624  1.00  0.00     0.012 C 
ATOM     15  C   UNL     1     157.107 160.164 170.100  1.00  0.00     0.042 C 
ENDROOT
BRANCH   9  16
ATOM     16  O   UNL     1     157.313 161.284 172.187  1.00  0.00    -0.390 OA
ATOM     17  H   UNL     1     157.357 162.188 172.598  1.00  0.00     0.211 HD
ENDBRANCH   9  16
TORSDOF 1
ENDMDL
MODEL 3
REMARK VINA RESULT:    -4.077      8.380     10.264
REMARK INTER + INTRA:          -4.196
REMARK INTER:                  -4.196
REMARK INTRA:                   0.000
REMARK UNBOUND:                 0.000
REMARK SMILES C[C@H]1CC[C@@H]2C(C)(C)[C@@H]3C[C@@]21CC[C@]3(C)O
REMARK SMILES IDX 1 1 2 2 3 3 4 4 5 5 11 6 12 7 13 8 14 9 9 10 10 11 6 12 7 13
REMARK SMILES IDX 8 14 15 15 16 16
REMARK H PARENT 16 17
REMARK Flexibility Score: inf
ROOT
ATOM      1  C   UNL     1     171.977 166.145 167.307  1.00  0.00     0.008 C 
ATOM      2  C   UNL     1     171.238 167.336 167.943  1.00  0.00    -0.008 C 
ATOM      3  C   UNL     1     169.898 166.877 168.525  1.00  0.00     0.004 C 
ATOM      4  C   UNL     1     170.183 166.486 169.968  1.00  0.00     0.005 C 
ATOM      5  C   UNL     1     171.400 167.322 170.424  1.00  0.00     0.001 C 
ATOM      6  C   UNL     1     171.976 167.979 169.147  1.00  0.00    -0.023 C 
ATOM      7  C   UNL     1     173.533 167.902 169.114  1.00  0.00     0.010 C 
ATOM      8  C   UNL     1     174.184 168.496 170.389  1.00  0.00     0.036 C 
ATOM      9  C   UNL     1     173.486 169.780 170.940  1.00  0.00     0.065 C 
ATOM     10  C   UNL     1     171.913 169.712 170.759  1.00  0.00     0.027 C 
ATOM     11  C   UNL     1     171.610 169.458 169.286  1.00  0.00     0.014 C 
ATOM     12  C   UNL     1     171.171 168.502 171.440  1.00  0.00    -0.026 C 
ATOM     13  C   UNL     1     171.699 168.128 172.847  1.00  0.00     0.012 C 
ATOM     14  C   UNL     1     169.675 168.889 171.635  1.00  0.00     0.012 C 
ATOM     15  C   UNL     1     174.077 171.018 170.218  1.00  0.00     0.042 C 
ENDROOT
BRANCH   9  16
ATOM     16  O   UNL     1     173.815 169.907 172.304  1.00  0.00    -0.390 OA
ATOM     17  H   UNL     1     174.517 170.605 172.384  1.00  0.00     0.211 HD
ENDBRANCH   9  16
TORSDOF 1
ENDMDL
MODEL 4
REMARK VINA RESULT:    -4.074     12.188     14.540
REMARK INTER + INTRA:          -4.193
REMARK INTER:                  -4.193
REMARK INTRA:                   0.000
REMARK UNBOUND:                 0.000
REMARK SMILES C[C@H]1CC[C@@H]2C(C)(C)[C@@H]3C[C@@]21CC[C@]3(C)O
REMARK SMILES IDX 1 1 2 2 3 3 4 4 5 5 11 6 12 7 13 8 14 9 9 10 10 11 6 12 7 13
REMARK SMILES IDX 8 14 15 15 16 16
REMARK H PARENT 16 17
REMARK Flexibility Score: inf
ROOT
ATOM      1  C   UNL     1     165.042 171.961 167.271  1.00  0.00     0.008 C 
ATOM      2  C   UNL     1     163.855 171.234 167.928  1.00  0.00    -0.008 C 
ATOM      3  C   UNL     1     164.314 169.898 168.518  1.00  0.00     0.004 C 
ATOM      4  C   UNL     1     164.723 170.195 169.953  1.00  0.00     0.005 C 
ATOM      5  C   UNL     1     163.899 171.420 170.407  1.00  0.00     0.001 C 
ATOM      6  C   UNL     1     163.230 171.987 169.133  1.00  0.00    -0.023 C 
ATOM      7  C   UNL     1     163.315 173.544 169.084  1.00  0.00     0.010 C 
ATOM      8  C   UNL     1     162.740 174.210 170.359  1.00  0.00     0.036 C 
ATOM      9  C   UNL     1     161.459 173.524 170.932  1.00  0.00     0.065 C 
ATOM     10  C   UNL     1     161.516 171.949 170.766  1.00  0.00     0.027 C 
ATOM     11  C   UNL     1     161.750 171.631 169.293  1.00  0.00     0.014 C 
ATOM     12  C   UNL     1     162.730 171.208 171.440  1.00  0.00    -0.026 C 
ATOM     13  C   UNL     1     163.123 171.747 172.837  1.00  0.00     0.012 C 
ATOM     14  C   UNL     1     162.337 169.715 171.653  1.00  0.00     0.012 C 
ATOM     15  C   UNL     1     160.215 174.116 170.220  1.00  0.00     0.042 C 
ENDROOT
BRANCH   9  16
ATOM     16  O   UNL     1     161.350 173.867 172.294  1.00  0.00    -0.390 OA
ATOM     17  H   UNL     1     162.083 173.409 172.783  1.00  0.00     0.211 HD
ENDBRANCH   9  16
TORSDOF 1
ENDMDL
MODEL 5
REMARK VINA RESULT:    -4.025      8.124     10.219
REMARK INTER + INTRA:          -4.142
REMARK INTER:                  -4.142
REMARK INTRA:                   0.000
REMARK UNBOUND:                 0.000
REMARK SMILES C[C@H]1CC[C@@H]2C(C)(C)[C@@H]3C[C@@]21CC[C@]3(C)O
REMARK SMILES IDX 1 1 2 2 3 3 4 4 5 5 11 6 12 7 13 8 14 9 9 10 10 11 6 12 7 13
REMARK SMILES IDX 8 14 15 15 16 16
REMARK H PARENT 16 17
REMARK Flexibility Score: inf
ROOT
ATOM      1  C   UNL     1     169.264 169.743 172.253  1.00  0.00     0.008 C 
ATOM      2  C   UNL     1     170.472 170.066 171.356  1.00  0.00    -0.008 C 
ATOM      3  C   UNL     1     171.583 170.720 172.182  1.00  0.00     0.004 C 
ATOM      4  C   UNL     1     172.458 169.579 172.680  1.00  0.00     0.005 C 
ATOM      5  C   UNL     1     172.323 168.433 171.653  1.00  0.00     0.001 C 
ATOM      6  C   UNL     1     171.151 168.823 170.722  1.00  0.00    -0.023 C 
ATOM      7  C   UNL     1     170.217 167.607 170.435  1.00  0.00     0.010 C 
ATOM      8  C   UNL     1     170.988 166.385 169.877  1.00  0.00     0.036 C 
ATOM      9  C   UNL     1     172.129 166.737 168.870  1.00  0.00     0.065 C 
ATOM     10  C   UNL     1     172.869 168.079 169.273  1.00  0.00     0.027 C 
ATOM     11  C   UNL     1     171.825 169.183 169.397  1.00  0.00     0.014 C 
ATOM     12  C   UNL     1     173.535 168.122 170.699  1.00  0.00    -0.026 C 
ATOM     13  C   UNL     1     174.248 166.813 171.120  1.00  0.00     0.012 C 
ATOM     14  C   UNL     1     174.636 169.225 170.694  1.00  0.00     0.012 C 
ATOM     15  C   UNL     1     171.523 166.840 167.447  1.00  0.00     0.042 C 
ENDROOT
BRANCH   9  16
ATOM     16  O   UNL     1     173.041 165.664 168.848  1.00  0.00    -0.390 OA
ATOM     17  H   UNL     1     172.865 165.098 169.645  1.00  0.00     0.211 HD
ENDBRANCH   9  16
TORSDOF 1
ENDMDL
MODEL 6
REMARK VINA RESULT:    -4.010     12.428     14.259
REMARK INTER + INTRA:          -4.127
REMARK INTER:                  -4.127
REMARK INTRA:                   0.000
REMARK UNBOUND:                 0.000
REMARK SMILES C[C@H]1CC[C@@H]2C(C)(C)[C@@H]3C[C@@]21CC[C@]3(C)O
REMARK SMILES IDX 1 1 2 2 3 3 4 4 5 5 11 6 12 7 13 8 14 9 9 10 10 11 6 12 7 13
REMARK SMILES IDX 8 14 15 15 16 16
REMARK H PARENT 16 17
REMARK Flexibility Score: inf
ROOT
ATOM      1  C   UNL     1     161.485 169.217 172.240  1.00  0.00     0.008 C 
ATOM      2  C   UNL     1     161.171 170.449 171.373  1.00  0.00    -0.008 C 
ATOM      3  C   UNL     1     160.558 171.558 172.233  1.00  0.00     0.004 C 
ATOM      4  C   UNL     1     161.729 172.398 172.724  1.00  0.00     0.005 C 
ATOM      5  C   UNL     1     162.851 172.258 171.672  1.00  0.00     0.001 C 
ATOM      6  C   UNL     1     162.417 171.112 170.727  1.00  0.00    -0.023 C 
ATOM      7  C   UNL     1     163.605 170.158 170.397  1.00  0.00     0.010 C 
ATOM      8  C   UNL     1     164.833 170.913 169.830  1.00  0.00     0.036 C 
ATOM      9  C   UNL     1     164.487 172.080 168.852  1.00  0.00     0.065 C 
ATOM     10  C   UNL     1     163.170 172.842 169.296  1.00  0.00     0.027 C 
ATOM     11  C   UNL     1     162.045 171.820 169.422  1.00  0.00     0.014 C 
ATOM     12  C   UNL     1     163.170 173.481 170.735  1.00  0.00    -0.026 C 
ATOM     13  C   UNL     1     164.502 174.157 171.143  1.00  0.00     0.012 C 
ATOM     14  C   UNL     1     162.092 174.605 170.773  1.00  0.00     0.012 C 
ATOM     15  C   UNL     1     164.342 171.505 167.420  1.00  0.00     0.042 C 
ENDROOT
BRANCH   9  16
ATOM     16  O   UNL     1     165.579 172.969 168.826  1.00  0.00    -0.390 OA
ATOM     17  H   UNL     1     165.770 173.189 167.876  1.00  0.00     0.211 HD
ENDBRANCH   9  16
TORSDOF 1
ENDMDL
MODEL 7
REMARK VINA RESULT:    -4.006      8.486     10.859
REMARK INTER + INTRA:          -4.123
REMARK INTER:                  -4.123
REMARK INTRA:                   0.000
REMARK UNBOUND:                 0.000
REMARK SMILES C[C@H]1CC[C@@H]2C(C)(C)[C@@H]3C[C@@]21CC[C@]3(C)O
REMARK SMILES IDX 1 1 2 2 3 3 4 4 5 5 11 6 12 7 13 8 14 9 9 10 10 11 6 12 7 13
REMARK SMILES IDX 8 14 15 15 16 16
REMARK H PARENT 16 17
REMARK Flexibility Score: inf
ROOT
ATOM      1  C   UNL     1     161.979 161.487 172.253  1.00  0.00     0.008 C 
ATOM      2  C   UNL     1     160.743 161.170 171.393  1.00  0.00    -0.008 C 
ATOM      3  C   UNL     1     159.644 160.547 172.258  1.00  0.00     0.004 C 
ATOM      4  C   UNL     1     158.800 161.709 172.761  1.00  0.00     0.005 C 
ATOM      5  C   UNL     1     158.927 162.838 171.713  1.00  0.00     0.001 C 
ATOM      6  C   UNL     1     160.068 162.415 170.758  1.00  0.00    -0.023 C 
ATOM      7  C   UNL     1     161.013 163.610 170.428  1.00  0.00     0.010 C 
ATOM      8  C   UNL     1     160.247 164.837 169.872  1.00  0.00     0.036 C 
ATOM      9  C   UNL     1     159.074 164.489 168.900  1.00  0.00     0.065 C 
ATOM     10  C   UNL     1     158.324 163.165 169.343  1.00  0.00     0.027 C 
ATOM     11  C   UNL     1     159.353 162.045 169.457  1.00  0.00     0.014 C 
ATOM     12  C   UNL     1     157.695 163.154 170.787  1.00  0.00    -0.026 C 
ATOM     13  C   UNL     1     157.014 164.480 171.206  1.00  0.00     0.012 C 
ATOM     14  C   UNL     1     156.577 162.070 170.827  1.00  0.00     0.012 C 
ATOM     15  C   UNL     1     159.641 164.355 167.464  1.00  0.00     0.042 C 
ENDROOT
BRANCH   9  16
ATOM     16  O   UNL     1     158.179 165.575 168.886  1.00  0.00    -0.390 OA
ATOM     17  H   UNL     1     157.473 165.380 168.215  1.00  0.00     0.211 HD
ENDBRANCH   9  16
TORSDOF 1
ENDMDL
MODEL 8
REMARK VINA RESULT:    -3.994      1.793      4.148
REMARK INTER + INTRA:          -4.110
REMARK INTER:                  -4.110
REMARK INTRA:                   0.000
REMARK UNBOUND:                 0.000
REMARK SMILES C[C@H]1CC[C@@H]2C(C)(C)[C@@H]3C[C@@]21CC[C@]3(C)O
REMARK SMILES IDX 1 1 2 2 3 3 4 4 5 5 11 6 12 7 13 8 14 9 9 10 10 11 6 12 7 13
REMARK SMILES IDX 8 14 15 15 16 16
REMARK H PARENT 16 17
REMARK Flexibility Score: inf
ROOT
ATOM      1  C   UNL     1     169.721 161.994 172.242  1.00  0.00     0.008 C 
ATOM      2  C   UNL     1     170.036 160.744 171.400  1.00  0.00    -0.008 C 
ATOM      3  C   UNL     1     170.652 159.655 172.283  1.00  0.00     0.004 C 
ATOM      4  C   UNL     1     169.484 158.824 172.794  1.00  0.00     0.005 C 
ATOM      5  C   UNL     1     168.360 158.940 171.740  1.00  0.00     0.001 C 
ATOM      6  C   UNL     1     168.791 160.065 170.770  1.00  0.00    -0.023 C 
ATOM      7  C   UNL     1     167.600 161.010 170.422  1.00  0.00     0.010 C 
ATOM      8  C   UNL     1     166.373 160.241 169.873  1.00  0.00     0.036 C 
ATOM      9  C   UNL     1     166.720 159.053 168.919  1.00  0.00     0.065 C 
ATOM     10  C   UNL     1     168.039 158.304 169.378  1.00  0.00     0.027 C 
ATOM     11  C   UNL     1     169.162 159.330 169.481  1.00  0.00     0.014 C 
ATOM     12  C   UNL     1     168.042 157.696 170.830  1.00  0.00    -0.026 C 
ATOM     13  C   UNL     1     166.712 157.027 171.254  1.00  0.00     0.012 C 
ATOM     14  C   UNL     1     169.122 156.574 170.891  1.00  0.00     0.012 C 
ATOM     15  C   UNL     1     166.862 159.599 167.475  1.00  0.00     0.042 C 
ENDROOT
BRANCH   9  16
ATOM     16  O   UNL     1     165.630 158.162 168.914  1.00  0.00    -0.390 OA
ATOM     17  H   UNL     1     164.908 158.560 169.469  1.00  0.00     0.211 HD
ENDBRANCH   9  16
TORSDOF 1
ENDMDL
MODEL 9
REMARK VINA RESULT:    -3.767     12.713     14.229
REMARK INTER + INTRA:          -3.877
REMARK INTER:                  -3.877
REMARK INTRA:                   0.000
REMARK UNBOUND:                 0.000
REMARK SMILES C[C@H]1CC[C@@H]2C(C)(C)[C@@H]3C[C@@]21CC[C@]3(C)O
REMARK SMILES IDX 1 1 2 2 3 3 4 4 5 5 11 6 12 7 13 8 14 9 9 10 10 11 6 12 7 13
REMARK SMILES IDX 8 14 15 15 16 16
REMARK H PARENT 16 17
REMARK Flexibility Score: inf
ROOT
ATOM      1  C   UNL     1     165.251 170.726 173.592  1.00  0.00     0.008 C 
ATOM      2  C   UNL     1     163.975 170.483 172.767  1.00  0.00    -0.008 C 
ATOM      3  C   UNL     1     162.748 170.990 173.529  1.00  0.00     0.004 C 
ATOM      4  C   UNL     1     162.561 172.438 173.099  1.00  0.00     0.005 C 
ATOM      5  C   UNL     1     163.154 172.561 171.678  1.00  0.00     0.001 C 
ATOM      6  C   UNL     1     163.929 171.248 171.417  1.00  0.00    -0.023 C 
ATOM      7  C   UNL     1     165.306 171.519 170.739  1.00  0.00     0.010 C 
ATOM      8  C   UNL     1     165.175 172.354 169.440  1.00  0.00     0.036 C 
ATOM      9  C   UNL     1     163.936 171.998 168.558  1.00  0.00     0.065 C 
ATOM     10  C   UNL     1     162.676 171.626 169.445  1.00  0.00     0.027 C 
ATOM     11  C   UNL     1     163.072 170.500 170.394  1.00  0.00     0.014 C 
ATOM     12  C   UNL     1     162.172 172.722 170.458  1.00  0.00    -0.026 C 
ATOM     13  C   UNL     1     162.202 174.170 169.912  1.00  0.00     0.012 C 
ATOM     14  C   UNL     1     160.682 172.425 170.801  1.00  0.00     0.012 C 
ATOM     15  C   UNL     1     164.317 170.829 167.613  1.00  0.00     0.042 C 
ENDROOT
BRANCH   9  16
ATOM     16  O   UNL     1     163.646 173.106 167.740  1.00  0.00    -0.390 OA
ATOM     17  H   UNL     1     163.416 172.766 166.835  1.00  0.00     0.211 HD
ENDBRANCH   9  16
TORSDOF 1
ENDMDL
