MODEL 1
REMARK VINA RESULT:    -5.170      0.000      0.000
REMARK INTER + INTRA:          -5.814
REMARK INTER:                  -5.775
REMARK INTRA:                  -0.039
REMARK UNBOUND:                -0.039
REMARK SMILES O=C([O-])c1ccc(O)c(O)c1
REMARK SMILES IDX 4 1 11 2 5 3 9 4 6 5 7 6 2 7 1 8 3 9 10 10 8 12
REMARK H PARENT 10 11 8 13
REMARK Flexibility Score: inf
ROOT
ATOM      1  C   UNL     1     -49.539 -13.551  11.990  1.00  0.00     0.001 A 
ATOM      2  C   UNL     1     -48.840 -12.653  11.163  1.00  0.00     0.060 A 
ATOM      3  C   UNL     1     -48.906 -14.739  12.394  1.00  0.00     0.014 A 
ATOM      4  C   UNL     1     -47.532 -12.938  10.746  1.00  0.00     0.158 A 
ATOM      5  C   UNL     1     -47.602 -15.022  11.979  1.00  0.00     0.051 A 
ATOM      6  C   UNL     1     -46.912 -14.125  11.155  1.00  0.00     0.157 A 
ENDROOT
BRANCH   1   7
ATOM      7  C   UNL     1     -50.919 -13.253  12.432  1.00  0.00     0.072 C 
ATOM      8  O   UNL     1     -51.806 -12.934  11.596  1.00  0.00    -0.545 OA
ATOM      9  O   UNL     1     -51.259 -13.321  13.779  1.00  0.00    -0.545 OA
ENDBRANCH   1   7
BRANCH   4  10
ATOM     10  O   UNL     1     -46.843 -12.046   9.926  1.00  0.00    -0.504 OA
ATOM     11  H   UNL     1     -47.100 -11.068   9.871  1.00  0.00     0.293 HD
ENDBRANCH   4  10
BRANCH   6  12
ATOM     12  O   UNL     1     -45.612 -14.405  10.739  1.00  0.00    -0.504 OA
ATOM     13  H   UNL     1     -44.925 -13.670  10.612  1.00  0.00     0.293 HD
ENDBRANCH   6  12
TORSDOF 3
ENDMDL
MODEL 2
REMARK VINA RESULT:    -5.056      2.404      4.930
REMARK INTER + INTRA:          -5.686
REMARK INTER:                  -5.642
REMARK INTRA:                  -0.044
REMARK UNBOUND:                -0.039
REMARK SMILES O=C([O-])c1ccc(O)c(O)c1
REMARK SMILES IDX 4 1 11 2 5 3 9 4 6 5 7 6 2 7 1 8 3 9 10 10 8 12
REMARK H PARENT 10 11 8 13
REMARK Flexibility Score: inf
ROOT
ATOM      1  C   UNL     1     -45.740 -12.845  11.677  1.00  0.00     0.001 A 
ATOM      2  C   UNL     1     -46.341 -13.721  12.600  1.00  0.00     0.060 A 
ATOM      3  C   UNL     1     -46.433 -12.516  10.499  1.00  0.00     0.014 A 
ATOM      4  C   UNL     1     -47.612 -14.258  12.349  1.00  0.00     0.158 A 
ATOM      5  C   UNL     1     -47.700 -13.051  10.251  1.00  0.00     0.051 A 
ATOM      6  C   UNL     1     -48.292 -13.922  11.173  1.00  0.00     0.157 A 
ENDROOT
BRANCH   1   7
ATOM      7  C   UNL     1     -44.399 -12.277  11.938  1.00  0.00     0.072 C 
ATOM      8  O   UNL     1     -43.759 -12.593  12.977  1.00  0.00    -0.545 OA
ATOM      9  O   UNL     1     -43.824 -11.386  11.038  1.00  0.00    -0.545 OA
ENDBRANCH   1   7
BRANCH   4  10
ATOM     10  O   UNL     1     -48.204 -15.125  13.266  1.00  0.00    -0.504 OA
ATOM     11  H   UNL     1     -47.661 -15.591  13.983  1.00  0.00     0.293 HD
ENDBRANCH   4  10
BRANCH   6  12
ATOM     12  O   UNL     1     -49.555 -14.457  10.928  1.00  0.00    -0.504 OA
ATOM     13  H   UNL     1     -49.952 -15.175  11.523  1.00  0.00     0.293 HD
ENDBRANCH   6  12
TORSDOF 3
ENDMDL
MODEL 3
REMARK VINA RESULT:    -5.022      1.278      4.198
REMARK INTER + INTRA:          -5.648
REMARK INTER:                  -5.609
REMARK INTRA:                  -0.039
REMARK UNBOUND:                -0.039
REMARK SMILES O=C([O-])c1ccc(O)c(O)c1
REMARK SMILES IDX 4 1 11 2 5 3 9 4 6 5 7 6 2 7 1 8 3 9 10 10 8 12
REMARK H PARENT 10 11 8 13
REMARK Flexibility Score: inf
ROOT
ATOM      1  C   UNL     1     -46.954 -13.380  11.330  1.00  0.00     0.001 A 
ATOM      2  C   UNL     1     -48.082 -12.549  11.195  1.00  0.00     0.060 A 
ATOM      3  C   UNL     1     -47.106 -14.642  11.928  1.00  0.00     0.014 A 
ATOM      4  C   UNL     1     -49.338 -12.972  11.651  1.00  0.00     0.158 A 
ATOM      5  C   UNL     1     -48.359 -15.064  12.383  1.00  0.00     0.051 A 
ATOM      6  C   UNL     1     -49.477 -14.232  12.246  1.00  0.00     0.157 A 
ENDROOT
BRANCH   1   7
ATOM      7  C   UNL     1     -45.627 -12.936  10.849  1.00  0.00     0.072 C 
ATOM      8  O   UNL     1     -45.487 -12.481   9.682  1.00  0.00    -0.545 OA
ATOM      9  O   UNL     1     -44.514 -13.015  11.679  1.00  0.00    -0.545 OA
ENDBRANCH   1   7
BRANCH   4  10
ATOM     10  O   UNL     1     -50.453 -12.146  11.516  1.00  0.00    -0.504 OA
ATOM     11  H   UNL     1     -51.054 -12.195  10.703  1.00  0.00     0.293 HD
ENDBRANCH   4  10
BRANCH   6  12
ATOM     12  O   UNL     1     -50.727 -14.649  12.698  1.00  0.00    -0.504 OA
ATOM     13  H   UNL     1     -51.469 -14.897  12.053  1.00  0.00     0.293 HD
ENDBRANCH   6  12
TORSDOF 3
ENDMDL
MODEL 4
REMARK VINA RESULT:    -5.006     10.222     11.620
REMARK INTER + INTRA:          -5.630
REMARK INTER:                  -5.587
REMARK INTRA:                  -0.044
REMARK UNBOUND:                -0.039
REMARK SMILES O=C([O-])c1ccc(O)c(O)c1
REMARK SMILES IDX 4 1 11 2 5 3 9 4 6 5 7 6 2 7 1 8 3 9 10 10 8 12
REMARK H PARENT 10 11 8 13
REMARK Flexibility Score: inf
ROOT
ATOM      1  C   UNL     1     -41.324  -9.450   4.498  1.00  0.00     0.001 A 
ATOM      2  C   UNL     1     -42.707  -9.700   4.438  1.00  0.00     0.060 A 
ATOM      3  C   UNL     1     -40.551  -9.608   3.334  1.00  0.00     0.014 A 
ATOM      4  C   UNL     1     -43.307 -10.103   3.236  1.00  0.00     0.158 A 
ATOM      5  C   UNL     1     -41.150 -10.009   2.137  1.00  0.00     0.051 A 
ATOM      6  C   UNL     1     -42.528 -10.257   2.084  1.00  0.00     0.157 A 
ENDROOT
BRANCH   1   7
ATOM      7  C   UNL     1     -40.687  -9.025   5.763  1.00  0.00     0.072 C 
ATOM      8  O   UNL     1     -41.310  -9.109   6.855  1.00  0.00    -0.545 OA
ATOM      9  O   UNL     1     -39.389  -8.525   5.767  1.00  0.00    -0.545 OA
ENDBRANCH   1   7
BRANCH   4  10
ATOM     10  O   UNL     1     -44.677 -10.351   3.181  1.00  0.00    -0.504 OA
ATOM     11  H   UNL     1     -45.353  -9.678   3.523  1.00  0.00     0.293 HD
ENDBRANCH   4  10
BRANCH   6  12
ATOM     12  O   UNL     1     -43.127 -10.658   0.892  1.00  0.00    -0.504 OA
ATOM     13  H   UNL     1     -43.977 -10.221   0.552  1.00  0.00     0.293 HD
ENDBRANCH   6  12
TORSDOF 3
ENDMDL
MODEL 5
REMARK VINA RESULT:    -4.922      2.553      3.435
REMARK INTER + INTRA:          -5.536
REMARK INTER:                  -5.499
REMARK INTRA:                  -0.037
REMARK UNBOUND:                -0.039
REMARK SMILES O=C([O-])c1ccc(O)c(O)c1
REMARK SMILES IDX 4 1 11 2 5 3 9 4 6 5 7 6 2 7 1 8 3 9 10 10 8 12
REMARK H PARENT 10 11 8 13
REMARK Flexibility Score: inf
ROOT
ATOM      1  C   UNL     1     -47.220 -13.158  11.554  1.00  0.00     0.001 A 
ATOM      2  C   UNL     1     -46.640 -13.510  12.786  1.00  0.00     0.060 A 
ATOM      3  C   UNL     1     -46.428 -12.515  10.587  1.00  0.00     0.014 A 
ATOM      4  C   UNL     1     -45.293 -13.223  13.047  1.00  0.00     0.158 A 
ATOM      5  C   UNL     1     -45.085 -12.231  10.848  1.00  0.00     0.051 A 
ATOM      6  C   UNL     1     -44.514 -12.584  12.077  1.00  0.00     0.157 A 
ENDROOT
BRANCH   1   7
ATOM      7  C   UNL     1     -48.641 -13.458  11.274  1.00  0.00     0.072 C 
ATOM      8  O   UNL     1     -49.036 -14.650  11.166  1.00  0.00    -0.545 OA
ATOM      9  O   UNL     1     -49.564 -12.428  11.127  1.00  0.00    -0.545 OA
ENDBRANCH   1   7
BRANCH   4  10
ATOM     10  O   UNL     1     -44.722 -13.574  14.270  1.00  0.00    -0.504 OA
ATOM     11  H   UNL     1     -45.244 -13.517  15.136  1.00  0.00     0.293 HD
ENDBRANCH   4  10
BRANCH   6  12
ATOM     12  O   UNL     1     -43.175 -12.301  12.340  1.00  0.00    -0.504 OA
ATOM     13  H   UNL     1     -42.437 -12.954  12.099  1.00  0.00     0.293 HD
ENDBRANCH   6  12
TORSDOF 3
ENDMDL
MODEL 6
REMARK VINA RESULT:    -4.848      1.443      2.421
REMARK INTER + INTRA:          -5.454
REMARK INTER:                  -5.418
REMARK INTRA:                  -0.036
REMARK UNBOUND:                -0.039
REMARK SMILES O=C([O-])c1ccc(O)c(O)c1
REMARK SMILES IDX 4 1 11 2 5 3 9 4 6 5 7 6 2 7 1 8 3 9 10 10 8 12
REMARK H PARENT 10 11 8 13
REMARK Flexibility Score: inf
ROOT
ATOM      1  C   UNL     1     -50.272 -13.734  13.131  1.00  0.00     0.001 A 
ATOM      2  C   UNL     1     -49.046 -14.383  13.367  1.00  0.00     0.060 A 
ATOM      3  C   UNL     1     -50.397 -12.904  12.004  1.00  0.00     0.014 A 
ATOM      4  C   UNL     1     -47.965 -14.205  12.491  1.00  0.00     0.158 A 
ATOM      5  C   UNL     1     -49.320 -12.727  11.132  1.00  0.00     0.051 A 
ATOM      6  C   UNL     1     -48.103 -13.376  11.372  1.00  0.00     0.157 A 
ENDROOT
BRANCH   1   7
ATOM      7  C   UNL     1     -51.414 -13.919  14.053  1.00  0.00     0.072 C 
ATOM      8  O   UNL     1     -52.311 -14.768  13.800  1.00  0.00    -0.545 OA
ATOM      9  O   UNL     1     -51.515 -13.159  15.213  1.00  0.00    -0.545 OA
ENDBRANCH   1   7
BRANCH   4  10
ATOM     10  O   UNL     1     -46.752 -14.849  12.728  1.00  0.00    -0.504 OA
ATOM     11  H   UNL     1     -46.707 -15.726  13.234  1.00  0.00     0.293 HD
ENDBRANCH   4  10
BRANCH   6  12
ATOM     12  O   UNL     1     -47.027 -13.202  10.504  1.00  0.00    -0.504 OA
ATOM     13  H   UNL     1     -46.262 -13.866  10.466  1.00  0.00     0.293 HD
ENDBRANCH   6  12
TORSDOF 3
ENDMDL
MODEL 7
REMARK VINA RESULT:    -4.842      1.211      4.488
REMARK INTER + INTRA:          -5.447
REMARK INTER:                  -5.410
REMARK INTRA:                  -0.037
REMARK UNBOUND:                -0.039
REMARK SMILES O=C([O-])c1ccc(O)c(O)c1
REMARK SMILES IDX 4 1 11 2 5 3 9 4 6 5 7 6 2 7 1 8 3 9 10 10 8 12
REMARK H PARENT 10 11 8 13
REMARK Flexibility Score: inf
ROOT
ATOM      1  C   UNL     1     -48.605 -13.292  12.104  1.00  0.00     0.001 A 
ATOM      2  C   UNL     1     -49.907 -13.316  11.572  1.00  0.00     0.060 A 
ATOM      3  C   UNL     1     -48.440 -13.240  13.499  1.00  0.00     0.014 A 
ATOM      4  C   UNL     1     -51.024 -13.286  12.420  1.00  0.00     0.158 A 
ATOM      5  C   UNL     1     -49.553 -13.210  14.343  1.00  0.00     0.051 A 
ATOM      6  C   UNL     1     -50.847 -13.234  13.807  1.00  0.00     0.157 A 
ENDROOT
BRANCH   1   7
ATOM      7  C   UNL     1     -47.424 -13.324  11.214  1.00  0.00     0.072 C 
ATOM      8  O   UNL     1     -46.687 -14.345  11.161  1.00  0.00    -0.545 OA
ATOM      9  O   UNL     1     -47.110 -12.225  10.420  1.00  0.00    -0.545 OA
ENDBRANCH   1   7
BRANCH   4  10
ATOM     10  O   UNL     1     -52.312 -13.309  11.889  1.00  0.00    -0.504 OA
ATOM     11  H   UNL     1     -53.131 -13.362  12.483  1.00  0.00     0.293 HD
ENDBRANCH   4  10
BRANCH   6  12
ATOM     12  O   UNL     1     -51.959 -13.205  14.646  1.00  0.00    -0.504 OA
ATOM     13  H   UNL     1     -51.909 -12.812  15.579  1.00  0.00     0.293 HD
ENDBRANCH   6  12
TORSDOF 3
ENDMDL
MODEL 8
REMARK VINA RESULT:    -4.636      2.460      3.244
REMARK INTER + INTRA:          -5.216
REMARK INTER:                  -5.173
REMARK INTRA:                  -0.044
REMARK UNBOUND:                -0.039
REMARK SMILES O=C([O-])c1ccc(O)c(O)c1
REMARK SMILES IDX 4 1 11 2 5 3 9 4 6 5 7 6 2 7 1 8 3 9 10 10 8 12
REMARK H PARENT 10 11 8 13
REMARK Flexibility Score: inf
ROOT
ATOM      1  C   UNL     1     -48.097 -12.861  13.784  1.00  0.00     0.001 A 
ATOM      2  C   UNL     1     -49.042 -13.568  13.018  1.00  0.00     0.060 A 
ATOM      3  C   UNL     1     -46.982 -12.298  13.140  1.00  0.00     0.014 A 
ATOM      4  C   UNL     1     -48.874 -13.710  11.633  1.00  0.00     0.158 A 
ATOM      5  C   UNL     1     -46.816 -12.439  11.759  1.00  0.00     0.051 A 
ATOM      6  C   UNL     1     -47.760 -13.144  11.003  1.00  0.00     0.157 A 
ENDROOT
BRANCH   1   7
ATOM      7  C   UNL     1     -48.270 -12.710  15.245  1.00  0.00     0.072 C 
ATOM      8  O   UNL     1     -47.614 -11.842  15.882  1.00  0.00    -0.545 OA
ATOM      9  O   UNL     1     -49.160 -13.523  15.938  1.00  0.00    -0.545 OA
ENDBRANCH   1   7
BRANCH   4  10
ATOM     10  O   UNL     1     -49.813 -14.411  10.877  1.00  0.00    -0.504 OA
ATOM     11  H   UNL     1     -50.635 -13.957  10.497  1.00  0.00     0.293 HD
ENDBRANCH   4  10
BRANCH   6  12
ATOM     12  O   UNL     1     -47.597 -13.286   9.626  1.00  0.00    -0.504 OA
ATOM     13  H   UNL     1     -47.831 -14.151   9.151  1.00  0.00     0.293 HD
ENDBRANCH   6  12
TORSDOF 3
ENDMDL
MODEL 9
REMARK VINA RESULT:    -4.630      2.789      4.479
REMARK INTER + INTRA:          -5.210
REMARK INTER:                  -5.167
REMARK INTRA:                  -0.043
REMARK UNBOUND:                -0.039
REMARK SMILES O=C([O-])c1ccc(O)c(O)c1
REMARK SMILES IDX 4 1 11 2 5 3 9 4 6 5 7 6 2 7 1 8 3 9 10 10 8 12
REMARK H PARENT 10 11 8 13
REMARK Flexibility Score: inf
ROOT
ATOM      1  C   UNL     1     -48.812 -12.882  14.408  1.00  0.00     0.001 A 
ATOM      2  C   UNL     1     -48.871 -13.164  13.031  1.00  0.00     0.060 A 
ATOM      3  C   UNL     1     -49.987 -12.979  15.174  1.00  0.00     0.014 A 
ATOM      4  C   UNL     1     -50.083 -13.535  12.431  1.00  0.00     0.158 A 
ATOM      5  C   UNL     1     -51.193 -13.351  14.576  1.00  0.00     0.051 A 
ATOM      6  C   UNL     1     -51.246 -13.630  13.204  1.00  0.00     0.157 A 
ENDROOT
BRANCH   1   7
ATOM      7  C   UNL     1     -47.536 -12.489  15.044  1.00  0.00     0.072 C 
ATOM      8  O   UNL     1     -46.585 -12.038  14.351  1.00  0.00    -0.545 OA
ATOM      9  O   UNL     1     -47.367 -12.612  16.419  1.00  0.00    -0.545 OA
ENDBRANCH   1   7
BRANCH   4  10
ATOM     10  O   UNL     1     -50.138 -13.814  11.066  1.00  0.00    -0.504 OA
ATOM     11  H   UNL     1     -49.431 -13.472  10.425  1.00  0.00     0.293 HD
ENDBRANCH   4  10
BRANCH   6  12
ATOM     12  O   UNL     1     -52.448 -14.000  12.605  1.00  0.00    -0.504 OA
ATOM     13  H   UNL     1     -52.759 -13.580  11.736  1.00  0.00     0.293 HD
ENDBRANCH   6  12
TORSDOF 3
ENDMDL
