MODEL 1
REMARK VINA RESULT:    -4.110      0.000      0.000
REMARK INTER + INTRA:         -11.869
REMARK INTER:                  -8.915
REMARK INTRA:                  -2.954
REMARK UNBOUND:                -2.954
REMARK SMILES CCCCCCCCCCCCCCCCCCCCCC(=O)[O-]
REMARK SMILES IDX 12 1 11 2 10 3 9 4 8 5 7 6 6 7 5 8 4 9 3 10 2 11 1 12 13 13
REMARK SMILES IDX 14 14 15 15 16 16 17 17 18 18 19 19 20 20 21 21 22 22 23 23
REMARK SMILES IDX 24 24
REMARK H PARENT
REMARK Flexibility Score: inf
ROOT
ATOM      1  C   UNL     1      26.589 -18.370  25.087  1.00  0.00     0.000 C 
ENDROOT
BRANCH   1   2
ATOM      2  C   UNL     1      26.604 -16.990  25.768  1.00  0.00     0.000 C 
BRANCH   2   3
ATOM      3  C   UNL     1      26.471 -17.075  27.300  1.00  0.00     0.000 C 
BRANCH   3   4
ATOM      4  C   UNL     1      26.191 -18.482  27.858  1.00  0.00    -0.000 C 
BRANCH   4   5
ATOM      5  C   UNL     1      24.819 -18.597  28.540  1.00  0.00    -0.000 C 
BRANCH   5   6
ATOM      6  C   UNL     1      23.917 -19.589  27.790  1.00  0.00    -0.000 C 
BRANCH   6   7
ATOM      7  C   UNL     1      22.633 -18.932  27.261  1.00  0.00    -0.000 C 
BRANCH   7   8
ATOM      8  C   UNL     1      22.675 -17.397  27.357  1.00  0.00    -0.000 C 
BRANCH   8   9
ATOM      9  C   UNL     1      22.752 -16.729  25.967  1.00  0.00    -0.000 C 
BRANCH   9  10
ATOM     10  C   UNL     1      22.530 -15.204  26.000  1.00  0.00    -0.000 C 
BRANCH  10  11
ATOM     11  C   UNL     1      23.302 -14.467  27.107  1.00  0.00    -0.003 C 
ATOM     12  C   UNL     1      24.635 -13.897  26.622  1.00  0.00     0.004 C 
ENDBRANCH  10  11
ENDBRANCH   9  10
ENDBRANCH   8   9
ENDBRANCH   7   8
ENDBRANCH   6   7
ENDBRANCH   5   6
ENDBRANCH   4   5
ENDBRANCH   3   4
ENDBRANCH   2   3
ENDBRANCH   1   2
BRANCH   1  13
ATOM     13  C   UNL     1      27.953 -18.758  24.486  1.00  0.00     0.000 C 
BRANCH  13  14
ATOM     14  C   UNL     1      28.904 -19.513  25.436  1.00  0.00     0.000 C 
BRANCH  14  15
ATOM     15  C   UNL     1      30.337 -18.955  25.420  1.00  0.00     0.000 C 
BRANCH  15  16
ATOM     16  C   UNL     1      30.713 -18.243  26.730  1.00  0.00     0.000 C 
BRANCH  16  17
ATOM     17  C   UNL     1      29.806 -18.643  27.907  1.00  0.00     0.000 C 
BRANCH  17  18
ATOM     18  C   UNL     1      30.289 -18.053  29.243  1.00  0.00     0.000 C 
BRANCH  18  19
ATOM     19  C   UNL     1      29.275 -17.067  29.846  1.00  0.00     0.000 C 
BRANCH  19  20
ATOM     20  C   UNL     1      29.948 -15.843  30.488  1.00  0.00     0.006 C 
BRANCH  20  21
ATOM     21  C   UNL     1      28.987 -14.657  30.658  1.00  0.00     0.053 C 
BRANCH  21  22
ATOM     22  C   UNL     1      29.628 -13.578  31.472  1.00  0.00     0.041 C 
ATOM     23  O   UNL     1      28.939 -12.900  32.279  1.00  0.00    -0.550 OA
ATOM     24  O   UNL     1      30.977 -13.292  31.307  1.00  0.00    -0.550 OA
ENDBRANCH  21  22
ENDBRANCH  20  21
ENDBRANCH  19  20
ENDBRANCH  18  19
ENDBRANCH  17  18
ENDBRANCH  16  17
ENDBRANCH  15  16
ENDBRANCH  14  15
ENDBRANCH  13  14
ENDBRANCH   1  13
TORSDOF 20
ENDMDL
MODEL 2
REMARK VINA RESULT:    -4.014      5.254      9.205
REMARK INTER + INTRA:         -11.663
REMARK INTER:                  -9.716
REMARK INTRA:                  -1.947
REMARK UNBOUND:                -2.954
REMARK SMILES CCCCCCCCCCCCCCCCCCCCCC(=O)[O-]
REMARK SMILES IDX 12 1 11 2 10 3 9 4 8 5 7 6 6 7 5 8 4 9 3 10 2 11 1 12 13 13
REMARK SMILES IDX 14 14 15 15 16 16 17 17 18 18 19 19 20 20 21 21 22 22 23 23
REMARK SMILES IDX 24 24
REMARK H PARENT
REMARK Flexibility Score: inf
ROOT
ATOM      1  C   UNL     1      24.484 -15.107  26.718  1.00  0.00     0.000 C 
ENDROOT
BRANCH   1   2
ATOM      2  C   UNL     1      24.959 -16.476  26.201  1.00  0.00     0.000 C 
BRANCH   2   3
ATOM      3  C   UNL     1      26.377 -16.432  25.601  1.00  0.00     0.000 C 
BRANCH   3   4
ATOM      4  C   UNL     1      26.684 -17.524  24.560  1.00  0.00    -0.000 C 
BRANCH   4   5
ATOM      5  C   UNL     1      26.562 -18.947  25.127  1.00  0.00    -0.000 C 
BRANCH   5   6
ATOM      6  C   UNL     1      27.813 -19.776  24.798  1.00  0.00    -0.000 C 
BRANCH   6   7
ATOM      7  C   UNL     1      29.020 -18.898  24.433  1.00  0.00    -0.000 C 
BRANCH   7   8
ATOM      8  C   UNL     1      30.255 -19.206  25.297  1.00  0.00    -0.000 C 
BRANCH   8   9
ATOM      9  C   UNL     1      30.315 -18.324  26.562  1.00  0.00    -0.000 C 
BRANCH   9  10
ATOM     10  C   UNL     1      30.171 -19.116  27.876  1.00  0.00    -0.000 C 
BRANCH  10  11
ATOM     11  C   UNL     1      28.721 -19.320  28.346  1.00  0.00    -0.003 C 
ATOM     12  C   UNL     1      27.958 -18.006  28.507  1.00  0.00     0.004 C 
ENDBRANCH  10  11
ENDBRANCH   9  10
ENDBRANCH   8   9
ENDBRANCH   7   8
ENDBRANCH   6   7
ENDBRANCH   5   6
ENDBRANCH   4   5
ENDBRANCH   3   4
ENDBRANCH   2   3
ENDBRANCH   1   2
BRANCH   1  13
ATOM     13  C   UNL     1      22.976 -14.875  26.508  1.00  0.00     0.000 C 
BRANCH  13  14
ATOM     14  C   UNL     1      22.113 -14.935  27.783  1.00  0.00     0.000 C 
BRANCH  14  15
ATOM     15  C   UNL     1      21.743 -16.371  28.191  1.00  0.00     0.000 C 
BRANCH  15  16
ATOM     16  C   UNL     1      20.826 -16.421  29.425  1.00  0.00     0.000 C 
BRANCH  16  17
ATOM     17  C   UNL     1      20.233 -15.048  29.783  1.00  0.00     0.000 C 
BRANCH  17  18
ATOM     18  C   UNL     1      18.929 -15.167  30.589  1.00  0.00     0.000 C 
BRANCH  18  19
ATOM     19  C   UNL     1      19.117 -15.966  31.890  1.00  0.00     0.000 C 
BRANCH  19  20
ATOM     20  C   UNL     1      18.236 -17.224  31.946  1.00  0.00     0.006 C 
BRANCH  20  21
ATOM     21  C   UNL     1      17.221 -17.289  30.796  1.00  0.00     0.053 C 
BRANCH  21  22
ATOM     22  C   UNL     1      15.850 -16.947  31.289  1.00  0.00     0.041 C 
ATOM     23  O   UNL     1      14.870 -16.966  30.498  1.00  0.00    -0.550 OA
ATOM     24  O   UNL     1      15.662 -16.567  32.611  1.00  0.00    -0.550 OA
ENDBRANCH  21  22
ENDBRANCH  20  21
ENDBRANCH  19  20
ENDBRANCH  18  19
ENDBRANCH  17  18
ENDBRANCH  16  17
ENDBRANCH  15  16
ENDBRANCH  14  15
ENDBRANCH  13  14
ENDBRANCH   1  13
TORSDOF 20
ENDMDL
MODEL 3
REMARK VINA RESULT:    -3.954      2.695      6.742
REMARK INTER + INTRA:         -11.531
REMARK INTER:                  -8.074
REMARK INTRA:                  -3.457
REMARK UNBOUND:                -2.954
REMARK SMILES CCCCCCCCCCCCCCCCCCCCCC(=O)[O-]
REMARK SMILES IDX 12 1 11 2 10 3 9 4 8 5 7 6 6 7 5 8 4 9 3 10 2 11 1 12 13 13
REMARK SMILES IDX 14 14 15 15 16 16 17 17 18 18 19 19 20 20 21 21 22 22 23 23
REMARK SMILES IDX 24 24
REMARK H PARENT
REMARK Flexibility Score: inf
ROOT
ATOM      1  C   UNL     1      26.320 -16.740  25.618  1.00  0.00     0.000 C 
ENDROOT
BRANCH   1   2
ATOM      2  C   UNL     1      26.592 -17.817  24.553  1.00  0.00     0.000 C 
BRANCH   2   3
ATOM      3  C   UNL     1      27.573 -18.903  25.033  1.00  0.00     0.000 C 
BRANCH   3   4
ATOM      4  C   UNL     1      28.933 -18.925  24.313  1.00  0.00    -0.000 C 
BRANCH   4   5
ATOM      5  C   UNL     1      30.125 -19.004  25.280  1.00  0.00    -0.000 C 
BRANCH   5   6
ATOM      6  C   UNL     1      29.660 -19.399  26.690  1.00  0.00    -0.000 C 
BRANCH   6   7
ATOM      7  C   UNL     1      30.677 -19.009  27.774  1.00  0.00    -0.000 C 
BRANCH   7   8
ATOM      8  C   UNL     1      30.130 -17.939  28.736  1.00  0.00    -0.000 C 
BRANCH   8   9
ATOM      9  C   UNL     1      29.338 -18.561  29.906  1.00  0.00    -0.000 C 
BRANCH   9  10
ATOM     10  C   UNL     1      28.852 -17.528  30.942  1.00  0.00    -0.000 C 
BRANCH  10  11
ATOM     11  C   UNL     1      28.390 -16.189  30.344  1.00  0.00    -0.003 C 
ATOM     12  C   UNL     1      28.413 -15.046  31.358  1.00  0.00     0.004 C 
ENDBRANCH  10  11
ENDBRANCH   9  10
ENDBRANCH   8   9
ENDBRANCH   7   8
ENDBRANCH   6   7
ENDBRANCH   5   6
ENDBRANCH   4   5
ENDBRANCH   3   4
ENDBRANCH   2   3
ENDBRANCH   1   2
BRANCH   1  13
ATOM     13  C   UNL     1      26.878 -17.113  27.004  1.00  0.00     0.000 C 
BRANCH  13  14
ATOM     14  C   UNL     1      25.846 -17.667  28.006  1.00  0.00     0.000 C 
BRANCH  14  15
ATOM     15  C   UNL     1      26.130 -19.120  28.419  1.00  0.00     0.000 C 
BRANCH  15  16
ATOM     16  C   UNL     1      24.921 -20.046  28.209  1.00  0.00     0.000 C 
BRANCH  16  17
ATOM     17  C   UNL     1      24.183 -19.771  26.887  1.00  0.00     0.000 C 
BRANCH  17  18
ATOM     18  C   UNL     1      22.741 -19.285  27.114  1.00  0.00     0.000 C 
BRANCH  18  19
ATOM     19  C   UNL     1      22.102 -18.733  25.828  1.00  0.00     0.000 C 
BRANCH  19  20
ATOM     20  C   UNL     1      22.563 -17.304  25.502  1.00  0.00     0.006 C 
BRANCH  20  21
ATOM     21  C   UNL     1      22.620 -16.402  26.743  1.00  0.00     0.053 C 
BRANCH  21  22
ATOM     22  C   UNL     1      22.866 -14.980  26.344  1.00  0.00     0.041 C 
ATOM     23  O   UNL     1      23.790 -14.320  26.889  1.00  0.00    -0.550 OA
ATOM     24  O   UNL     1      22.047 -14.371  25.402  1.00  0.00    -0.550 OA
ENDBRANCH  21  22
ENDBRANCH  20  21
ENDBRANCH  19  20
ENDBRANCH  18  19
ENDBRANCH  17  18
ENDBRANCH  16  17
ENDBRANCH  15  16
ENDBRANCH  14  15
ENDBRANCH  13  14
ENDBRANCH   1  13
TORSDOF 20
ENDMDL
MODEL 4
REMARK VINA RESULT:    -3.941      4.768      8.411
REMARK INTER + INTRA:         -11.502
REMARK INTER:                  -8.832
REMARK INTRA:                  -2.670
REMARK UNBOUND:                -2.954
REMARK SMILES CCCCCCCCCCCCCCCCCCCCCC(=O)[O-]
REMARK SMILES IDX 12 1 11 2 10 3 9 4 8 5 7 6 6 7 5 8 4 9 3 10 2 11 1 12 13 13
REMARK SMILES IDX 14 14 15 15 16 16 17 17 18 18 19 19 20 20 21 21 22 22 23 23
REMARK SMILES IDX 24 24
REMARK H PARENT
REMARK Flexibility Score: inf
ROOT
ATOM      1  C   UNL     1      25.120 -15.715  26.445  1.00  0.00     0.000 C 
ENDROOT
BRANCH   1   2
ATOM      2  C   UNL     1      26.281 -16.160  25.538  1.00  0.00     0.000 C 
BRANCH   2   3
ATOM      3  C   UNL     1      26.139 -17.614  25.050  1.00  0.00     0.000 C 
BRANCH   3   4
ATOM      4  C   UNL     1      27.427 -18.251  24.501  1.00  0.00    -0.000 C 
BRANCH   4   5
ATOM      5  C   UNL     1      27.525 -19.757  24.790  1.00  0.00    -0.000 C 
BRANCH   5   6
ATOM      6  C   UNL     1      28.626 -20.046  25.822  1.00  0.00    -0.000 C 
BRANCH   6   7
ATOM      7  C   UNL     1      29.508 -18.818  26.098  1.00  0.00    -0.000 C 
BRANCH   7   8
ATOM      8  C   UNL     1      29.630 -18.507  27.601  1.00  0.00    -0.000 C 
BRANCH   8   9
ATOM      9  C   UNL     1      28.410 -19.014  28.400  1.00  0.00    -0.000 C 
BRANCH   9  10
ATOM     10  C   UNL     1      27.302 -17.957  28.574  1.00  0.00    -0.000 C 
BRANCH  10  11
ATOM     11  C   UNL     1      25.929 -18.526  28.971  1.00  0.00    -0.003 C 
ATOM     12  C   UNL     1      25.402 -19.556  27.973  1.00  0.00     0.004 C 
ENDBRANCH  10  11
ENDBRANCH   9  10
ENDBRANCH   8   9
ENDBRANCH   7   8
ENDBRANCH   6   7
ENDBRANCH   5   6
ENDBRANCH   4   5
ENDBRANCH   3   4
ENDBRANCH   2   3
ENDBRANCH   1   2
BRANCH   1  13
ATOM     13  C   UNL     1      23.867 -16.598  26.294  1.00  0.00     0.000 C 
BRANCH  13  14
ATOM     14  C   UNL     1      22.520 -15.857  26.388  1.00  0.00     0.000 C 
BRANCH  14  15
ATOM     15  C   UNL     1      22.135 -15.492  27.831  1.00  0.00     0.000 C 
BRANCH  15  16
ATOM     16  C   UNL     1      21.594 -16.693  28.625  1.00  0.00     0.000 C 
BRANCH  16  17
ATOM     17  C   UNL     1      20.337 -16.350  29.442  1.00  0.00     0.000 C 
BRANCH  17  18
ATOM     18  C   UNL     1      20.672 -15.945  30.888  1.00  0.00     0.000 C 
BRANCH  18  19
ATOM     19  C   UNL     1      19.427 -15.925  31.792  1.00  0.00     0.000 C 
BRANCH  19  20
ATOM     20  C   UNL     1      18.116 -15.846  30.994  1.00  0.00     0.006 C 
BRANCH  20  21
ATOM     21  C   UNL     1      16.999 -16.708  31.601  1.00  0.00     0.053 C 
BRANCH  21  22
ATOM     22  C   UNL     1      17.448 -18.129  31.729  1.00  0.00     0.041 C 
ATOM     23  O   UNL     1      17.450 -18.694  32.856  1.00  0.00    -0.550 OA
ATOM     24  O   UNL     1      17.904 -18.818  30.613  1.00  0.00    -0.550 OA
ENDBRANCH  21  22
ENDBRANCH  20  21
ENDBRANCH  19  20
ENDBRANCH  18  19
ENDBRANCH  17  18
ENDBRANCH  16  17
ENDBRANCH  15  16
ENDBRANCH  14  15
ENDBRANCH  13  14
ENDBRANCH   1  13
TORSDOF 20
ENDMDL
MODEL 5
REMARK VINA RESULT:    -3.904      1.608      2.390
REMARK INTER + INTRA:         -11.423
REMARK INTER:                  -7.893
REMARK INTRA:                  -3.529
REMARK UNBOUND:                -2.954
REMARK SMILES CCCCCCCCCCCCCCCCCCCCCC(=O)[O-]
REMARK SMILES IDX 12 1 11 2 10 3 9 4 8 5 7 6 6 7 5 8 4 9 3 10 2 11 1 12 13 13
REMARK SMILES IDX 14 14 15 15 16 16 17 17 18 18 19 19 20 20 21 21 22 22 23 23
REMARK SMILES IDX 24 24
REMARK H PARENT
REMARK Flexibility Score: inf
ROOT
ATOM      1  C   UNL     1      26.018 -16.974  26.216  1.00  0.00     0.000 C 
ENDROOT
BRANCH   1   2
ATOM      2  C   UNL     1      26.067 -17.704  27.570  1.00  0.00     0.000 C 
BRANCH   2   3
ATOM      3  C   UNL     1      26.026 -19.237  27.427  1.00  0.00     0.000 C 
BRANCH   3   4
ATOM      4  C   UNL     1      24.891 -19.785  26.543  1.00  0.00    -0.000 C 
BRANCH   4   5
ATOM      5  C   UNL     1      23.493 -19.488  27.106  1.00  0.00    -0.000 C 
BRANCH   5   6
ATOM      6  C   UNL     1      22.564 -18.949  26.007  1.00  0.00    -0.000 C 
BRANCH   6   7
ATOM      7  C   UNL     1      22.428 -17.419  26.051  1.00  0.00    -0.000 C 
BRANCH   7   8
ATOM      8  C   UNL     1      22.516 -16.861  27.482  1.00  0.00    -0.000 C 
BRANCH   8   9
ATOM      9  C   UNL     1      22.137 -15.366  27.548  1.00  0.00    -0.000 C 
BRANCH   9  10
ATOM     10  C   UNL     1      22.898 -14.490  26.533  1.00  0.00    -0.000 C 
BRANCH  10  11
ATOM     11  C   UNL     1      24.197 -13.867  27.070  1.00  0.00    -0.003 C 
ATOM     12  C   UNL     1      25.128 -13.386  25.958  1.00  0.00     0.004 C 
ENDBRANCH  10  11
ENDBRANCH   9  10
ENDBRANCH   8   9
ENDBRANCH   7   8
ENDBRANCH   6   7
ENDBRANCH   5   6
ENDBRANCH   4   5
ENDBRANCH   3   4
ENDBRANCH   2   3
ENDBRANCH   1   2
BRANCH   1  13
ATOM     13  C   UNL     1      27.339 -17.077  25.430  1.00  0.00     0.000 C 
BRANCH  13  14
ATOM     14  C   UNL     1      27.333 -18.072  24.254  1.00  0.00     0.000 C 
BRANCH  14  15
ATOM     15  C   UNL     1      28.505 -19.066  24.302  1.00  0.00     0.000 C 
BRANCH  15  16
ATOM     16  C   UNL     1      29.409 -18.861  25.528  1.00  0.00     0.000 C 
BRANCH  16  17
ATOM     17  C   UNL     1      29.532 -20.125  26.397  1.00  0.00     0.000 C 
BRANCH  17  18
ATOM     18  C   UNL     1      29.872 -19.798  27.860  1.00  0.00     0.000 C 
BRANCH  18  19
ATOM     19  C   UNL     1      29.513 -18.349  28.234  1.00  0.00     0.000 C 
BRANCH  19  20
ATOM     20  C   UNL     1      29.121 -18.198  29.712  1.00  0.00     0.006 C 
BRANCH  20  21
ATOM     21  C   UNL     1      28.732 -16.759  30.079  1.00  0.00     0.053 C 
BRANCH  21  22
ATOM     22  C   UNL     1      27.956 -16.737  31.358  1.00  0.00     0.041 C 
ATOM     23  O   UNL     1      27.082 -17.616  31.583  1.00  0.00    -0.550 OA
ATOM     24  O   UNL     1      28.167 -15.723  32.283  1.00  0.00    -0.550 OA
ENDBRANCH  21  22
ENDBRANCH  20  21
ENDBRANCH  19  20
ENDBRANCH  18  19
ENDBRANCH  17  18
ENDBRANCH  16  17
ENDBRANCH  15  16
ENDBRANCH  14  15
ENDBRANCH  13  14
ENDBRANCH   1  13
TORSDOF 20
ENDMDL
MODEL 6
REMARK VINA RESULT:    -3.896      3.042      4.326
REMARK INTER + INTRA:         -11.405
REMARK INTER:                  -9.229
REMARK INTRA:                  -2.175
REMARK UNBOUND:                -2.954
REMARK SMILES CCCCCCCCCCCCCCCCCCCCCC(=O)[O-]
REMARK SMILES IDX 12 1 11 2 10 3 9 4 8 5 7 6 6 7 5 8 4 9 3 10 2 11 1 12 13 13
REMARK SMILES IDX 14 14 15 15 16 16 17 17 18 18 19 19 20 20 21 21 22 22 23 23
REMARK SMILES IDX 24 24
REMARK H PARENT
REMARK Flexibility Score: inf
ROOT
ATOM      1  C   UNL     1      26.400 -16.210  25.499  1.00  0.00     0.000 C 
ENDROOT
BRANCH   1   2
ATOM      2  C   UNL     1      25.499 -16.212  26.746  1.00  0.00     0.000 C 
BRANCH   2   3
ATOM      3  C   UNL     1      24.329 -15.215  26.643  1.00  0.00     0.000 C 
BRANCH   3   4
ATOM      4  C   UNL     1      22.941 -15.848  26.437  1.00  0.00    -0.000 C 
BRANCH   4   5
ATOM      5  C   UNL     1      22.725 -17.113  27.282  1.00  0.00    -0.000 C 
BRANCH   5   6
ATOM      6  C   UNL     1      21.711 -16.853  28.406  1.00  0.00    -0.000 C 
BRANCH   6   7
ATOM      7  C   UNL     1      21.402 -15.358  28.585  1.00  0.00    -0.000 C 
BRANCH   7   8
ATOM      8  C   UNL     1      20.294 -15.106  29.622  1.00  0.00    -0.000 C 
BRANCH   8   9
ATOM      9  C   UNL     1      20.506 -15.930  30.910  1.00  0.00    -0.000 C 
BRANCH   9  10
ATOM     10  C   UNL     1      19.210 -16.174  31.708  1.00  0.00    -0.000 C 
BRANCH  10  11
ATOM     11  C   UNL     1      17.981 -16.512  30.848  1.00  0.00    -0.003 C 
ATOM     12  C   UNL     1      16.703 -16.665  31.673  1.00  0.00     0.004 C 
ENDBRANCH  10  11
ENDBRANCH   9  10
ENDBRANCH   8   9
ENDBRANCH   7   8
ENDBRANCH   6   7
ENDBRANCH   5   6
ENDBRANCH   4   5
ENDBRANCH   3   4
ENDBRANCH   2   3
ENDBRANCH   1   2
BRANCH   1  13
ATOM     13  C   UNL     1      26.246 -17.482  24.645  1.00  0.00     0.000 C 
BRANCH  13  14
ATOM     14  C   UNL     1      26.231 -18.808  25.430  1.00  0.00     0.000 C 
BRANCH  14  15
ATOM     15  C   UNL     1      27.366 -19.762  25.019  1.00  0.00     0.000 C 
BRANCH  15  16
ATOM     16  C   UNL     1      28.470 -19.060  24.212  1.00  0.00     0.000 C 
BRANCH  16  17
ATOM     17  C   UNL     1      29.684 -18.672  25.075  1.00  0.00     0.000 C 
BRANCH  17  18
ATOM     18  C   UNL     1      29.797 -19.533  26.344  1.00  0.00     0.000 C 
BRANCH  18  19
ATOM     19  C   UNL     1      29.835 -18.682  27.626  1.00  0.00     0.000 C 
BRANCH  19  20
ATOM     20  C   UNL     1      28.648 -18.965  28.561  1.00  0.00     0.006 C 
BRANCH  20  21
ATOM     21  C   UNL     1      27.816 -17.710  28.860  1.00  0.00     0.053 C 
BRANCH  21  22
ATOM     22  C   UNL     1      28.296 -17.053  30.116  1.00  0.00     0.041 C 
ATOM     23  O   UNL     1      28.210 -15.803  30.249  1.00  0.00    -0.550 OA
ATOM     24  O   UNL     1      28.877 -17.815  31.121  1.00  0.00    -0.550 OA
ENDBRANCH  21  22
ENDBRANCH  20  21
ENDBRANCH  19  20
ENDBRANCH  18  19
ENDBRANCH  17  18
ENDBRANCH  16  17
ENDBRANCH  15  16
ENDBRANCH  14  15
ENDBRANCH  13  14
ENDBRANCH   1  13
TORSDOF 20
ENDMDL
MODEL 7
REMARK VINA RESULT:    -3.880      3.281      5.204
REMARK INTER + INTRA:         -11.372
REMARK INTER:                  -8.675
REMARK INTRA:                  -2.697
REMARK UNBOUND:                -2.954
REMARK SMILES CCCCCCCCCCCCCCCCCCCCCC(=O)[O-]
REMARK SMILES IDX 12 1 11 2 10 3 9 4 8 5 7 6 6 7 5 8 4 9 3 10 2 11 1 12 13 13
REMARK SMILES IDX 14 14 15 15 16 16 17 17 18 18 19 19 20 20 21 21 22 22 23 23
REMARK SMILES IDX 24 24
REMARK H PARENT
REMARK Flexibility Score: inf
ROOT
ATOM      1  C   UNL     1      24.773 -14.682  26.372  1.00  0.00     0.000 C 
ENDROOT
BRANCH   1   2
ATOM      2  C   UNL     1      23.320 -14.915  26.821  1.00  0.00     0.000 C 
BRANCH   2   3
ATOM      3  C   UNL     1      22.569 -15.920  25.928  1.00  0.00     0.000 C 
BRANCH   3   4
ATOM      4  C   UNL     1      22.396 -17.328  26.523  1.00  0.00    -0.000 C 
BRANCH   4   5
ATOM      5  C   UNL     1      22.631 -17.373  28.041  1.00  0.00    -0.000 C 
BRANCH   5   6
ATOM      6  C   UNL     1      21.300 -17.293  28.804  1.00  0.00    -0.000 C 
BRANCH   6   7
ATOM      7  C   UNL     1      20.980 -15.865  29.276  1.00  0.00    -0.000 C 
BRANCH   7   8
ATOM      8  C   UNL     1      20.259 -15.843  30.635  1.00  0.00    -0.000 C 
BRANCH   8   9
ATOM      9  C   UNL     1      18.855 -15.208  30.538  1.00  0.00    -0.000 C 
BRANCH   9  10
ATOM     10  C   UNL     1      17.748 -16.050  31.204  1.00  0.00    -0.000 C 
BRANCH  10  11
ATOM     11  C   UNL     1      18.005 -17.566  31.200  1.00  0.00    -0.003 C 
ATOM     12  C   UNL     1      17.604 -18.232  29.885  1.00  0.00     0.004 C 
ENDBRANCH  10  11
ENDBRANCH   9  10
ENDBRANCH   8   9
ENDBRANCH   7   8
ENDBRANCH   6   7
ENDBRANCH   5   6
ENDBRANCH   4   5
ENDBRANCH   3   4
ENDBRANCH   2   3
ENDBRANCH   1   2
BRANCH   1  13
ATOM     13  C   UNL     1      25.623 -15.966  26.397  1.00  0.00     0.000 C 
BRANCH  13  14
ATOM     14  C   UNL     1      26.629 -16.115  25.240  1.00  0.00     0.000 C 
BRANCH  14  15
ATOM     15  C   UNL     1      26.493 -17.452  24.493  1.00  0.00     0.000 C 
BRANCH  15  16
ATOM     16  C   UNL     1      27.633 -18.432  24.814  1.00  0.00     0.000 C 
BRANCH  16  17
ATOM     17  C   UNL     1      27.128 -19.767  25.389  1.00  0.00     0.000 C 
BRANCH  17  18
ATOM     18  C   UNL     1      25.613 -19.755  25.649  1.00  0.00     0.000 C 
BRANCH  18  19
ATOM     19  C   UNL     1      25.269 -20.070  27.115  1.00  0.00     0.000 C 
BRANCH  19  20
ATOM     20  C   UNL     1      26.459 -19.852  28.063  1.00  0.00     0.006 C 
BRANCH  20  21
ATOM     21  C   UNL     1      26.357 -18.540  28.853  1.00  0.00     0.053 C 
BRANCH  21  22
ATOM     22  C   UNL     1      27.680 -17.842  28.880  1.00  0.00     0.041 C 
ATOM     23  O   UNL     1      27.802 -16.738  29.474  1.00  0.00    -0.550 OA
ATOM     24  O   UNL     1      28.769 -18.390  28.214  1.00  0.00    -0.550 OA
ENDBRANCH  21  22
ENDBRANCH  20  21
ENDBRANCH  19  20
ENDBRANCH  18  19
ENDBRANCH  17  18
ENDBRANCH  16  17
ENDBRANCH  15  16
ENDBRANCH  14  15
ENDBRANCH  13  14
ENDBRANCH   1  13
TORSDOF 20
ENDMDL
MODEL 8
REMARK VINA RESULT:    -3.810      4.035      6.081
REMARK INTER + INTRA:         -11.219
REMARK INTER:                  -9.118
REMARK INTRA:                  -2.101
REMARK UNBOUND:                -2.954
REMARK SMILES CCCCCCCCCCCCCCCCCCCCCC(=O)[O-]
REMARK SMILES IDX 12 1 11 2 10 3 9 4 8 5 7 6 6 7 5 8 4 9 3 10 2 11 1 12 13 13
REMARK SMILES IDX 14 14 15 15 16 16 17 17 18 18 19 19 20 20 21 21 22 22 23 23
REMARK SMILES IDX 24 24
REMARK H PARENT
REMARK Flexibility Score: inf
ROOT
ATOM      1  C   UNL     1      23.023 -15.412  26.558  1.00  0.00     0.000 C 
ENDROOT
BRANCH   1   2
ATOM      2  C   UNL     1      22.171 -15.301  27.834  1.00  0.00     0.000 C 
BRANCH   2   3
ATOM      3  C   UNL     1      21.729 -16.671  28.382  1.00  0.00     0.000 C 
BRANCH   3   4
ATOM      4  C   UNL     1      20.612 -16.627  29.440  1.00  0.00    -0.000 C 
BRANCH   4   5
ATOM      5  C   UNL     1      20.146 -15.200  29.764  1.00  0.00    -0.000 C 
BRANCH   5   6
ATOM      6  C   UNL     1      19.132 -15.204  30.918  1.00  0.00    -0.000 C 
BRANCH   6   7
ATOM      7  C   UNL     1      19.637 -15.987  32.140  1.00  0.00    -0.000 C 
BRANCH   7   8
ATOM      8  C   UNL     1      18.580 -16.960  32.694  1.00  0.00    -0.000 C 
BRANCH   8   9
ATOM      9  C   UNL     1      17.264 -16.908  31.888  1.00  0.00    -0.000 C 
BRANCH   9  10
ATOM     10  C   UNL     1      16.955 -18.210  31.124  1.00  0.00    -0.000 C 
BRANCH  10  11
ATOM     11  C   UNL     1      17.200 -18.138  29.607  1.00  0.00    -0.003 C 
ATOM     12  C   UNL     1      15.913 -17.949  28.806  1.00  0.00     0.004 C 
ENDBRANCH  10  11
ENDBRANCH   9  10
ENDBRANCH   8   9
ENDBRANCH   7   8
ENDBRANCH   6   7
ENDBRANCH   5   6
ENDBRANCH   4   5
ENDBRANCH   3   4
ENDBRANCH   2   3
ENDBRANCH   1   2
BRANCH   1  13
ATOM     13  C   UNL     1      23.068 -16.842  25.988  1.00  0.00     0.000 C 
BRANCH  13  14
ATOM     14  C   UNL     1      24.444 -17.534  26.047  1.00  0.00     0.000 C 
BRANCH  14  15
ATOM     15  C   UNL     1      25.581 -16.578  26.443  1.00  0.00     0.000 C 
BRANCH  15  16
ATOM     16  C   UNL     1      26.650 -16.438  25.346  1.00  0.00     0.000 C 
BRANCH  16  17
ATOM     17  C   UNL     1      26.622 -17.597  24.335  1.00  0.00     0.000 C 
BRANCH  17  18
ATOM     18  C   UNL     1      27.794 -18.573  24.532  1.00  0.00     0.000 C 
BRANCH  18  19
ATOM     19  C   UNL     1      28.734 -18.135  25.669  1.00  0.00     0.000 C 
BRANCH  19  20
ATOM     20  C   UNL     1      28.775 -19.146  26.827  1.00  0.00     0.006 C 
BRANCH  20  21
ATOM     21  C   UNL     1      28.244 -18.561  28.143  1.00  0.00     0.053 C 
BRANCH  21  22
ATOM     22  C   UNL     1      29.374 -18.055  28.983  1.00  0.00     0.041 C 
ATOM     23  O   UNL     1      30.562 -18.358  28.695  1.00  0.00    -0.550 OA
ATOM     24  O   UNL     1      29.113 -17.284  30.108  1.00  0.00    -0.550 OA
ENDBRANCH  21  22
ENDBRANCH  20  21
ENDBRANCH  19  20
ENDBRANCH  18  19
ENDBRANCH  17  18
ENDBRANCH  16  17
ENDBRANCH  15  16
ENDBRANCH  14  15
ENDBRANCH  13  14
ENDBRANCH   1  13
TORSDOF 20
ENDMDL
MODEL 9
REMARK VINA RESULT:    -3.791      2.863      6.234
REMARK INTER + INTRA:         -11.178
REMARK INTER:                  -7.946
REMARK INTRA:                  -3.232
REMARK UNBOUND:                -2.954
REMARK SMILES CCCCCCCCCCCCCCCCCCCCCC(=O)[O-]
REMARK SMILES IDX 12 1 11 2 10 3 9 4 8 5 7 6 6 7 5 8 4 9 3 10 2 11 1 12 13 13
REMARK SMILES IDX 14 14 15 15 16 16 17 17 18 18 19 19 20 20 21 21 22 22 23 23
REMARK SMILES IDX 24 24
REMARK H PARENT
REMARK Flexibility Score: inf
ROOT
ATOM      1  C   UNL     1      24.092 -19.020  27.642  1.00  0.00     0.000 C 
ENDROOT
BRANCH   1   2
ATOM      2  C   UNL     1      25.286 -19.981  27.500  1.00  0.00     0.000 C 
BRANCH   2   3
ATOM      3  C   UNL     1      26.303 -19.850  28.649  1.00  0.00     0.000 C 
BRANCH   3   4
ATOM      4  C   UNL     1      25.883 -18.911  29.794  1.00  0.00    -0.000 C 
BRANCH   4   5
ATOM      5  C   UNL     1      25.467 -19.662  31.068  1.00  0.00    -0.000 C 
BRANCH   5   6
ATOM      6  C   UNL     1      26.390 -19.303  32.242  1.00  0.00    -0.000 C 
BRANCH   6   7
ATOM      7  C   UNL     1      26.522 -17.785  32.442  1.00  0.00    -0.000 C 
BRANCH   7   8
ATOM      8  C   UNL     1      27.989 -17.319  32.456  1.00  0.00    -0.000 C 
BRANCH   8   9
ATOM      9  C   UNL     1      28.171 -15.953  31.759  1.00  0.00    -0.000 C 
BRANCH   9  10
ATOM     10  C   UNL     1      28.499 -16.064  30.257  1.00  0.00    -0.000 C 
BRANCH  10  11
ATOM     11  C   UNL     1      29.101 -17.414  29.830  1.00  0.00    -0.003 C 
ATOM     12  C   UNL     1      30.617 -17.355  29.643  1.00  0.00     0.004 C 
ENDBRANCH  10  11
ENDBRANCH   9  10
ENDBRANCH   8   9
ENDBRANCH   7   8
ENDBRANCH   6   7
ENDBRANCH   5   6
ENDBRANCH   4   5
ENDBRANCH   3   4
ENDBRANCH   2   3
ENDBRANCH   1   2
BRANCH   1  13
ATOM     13  C   UNL     1      23.296 -18.854  26.334  1.00  0.00     0.000 C 
BRANCH  13  14
ATOM     14  C   UNL     1      22.797 -17.426  26.040  1.00  0.00     0.000 C 
BRANCH  14  15
ATOM     15  C   UNL     1      23.361 -16.380  27.015  1.00  0.00     0.000 C 
BRANCH  15  16
ATOM     16  C   UNL     1      24.473 -15.521  26.389  1.00  0.00     0.000 C 
BRANCH  16  17
ATOM     17  C   UNL     1      25.878 -16.100  26.628  1.00  0.00     0.000 C 
BRANCH  17  18
ATOM     18  C   UNL     1      26.646 -16.332  25.316  1.00  0.00     0.000 C 
BRANCH  18  19
ATOM     19  C   UNL     1      26.563 -17.793  24.841  1.00  0.00     0.000 C 
BRANCH  19  20
ATOM     20  C   UNL     1      27.932 -18.492  24.831  1.00  0.00     0.006 C 
BRANCH  20  21
ATOM     21  C   UNL     1      28.673 -18.366  26.169  1.00  0.00     0.053 C 
BRANCH  21  22
ATOM     22  C   UNL     1      30.124 -18.686  25.995  1.00  0.00     0.041 C 
ATOM     23  O   UNL     1      30.880 -17.886  25.382  1.00  0.00    -0.550 OA
ATOM     24  O   UNL     1      30.633 -19.887  26.472  1.00  0.00    -0.550 OA
ENDBRANCH  21  22
ENDBRANCH  20  21
ENDBRANCH  19  20
ENDBRANCH  18  19
ENDBRANCH  17  18
ENDBRANCH  16  17
ENDBRANCH  15  16
ENDBRANCH  14  15
ENDBRANCH  13  14
ENDBRANCH   1  13
TORSDOF 20
ENDMDL
