MODEL 1
REMARK VINA RESULT:    -4.099      0.000      0.000
REMARK INTER + INTRA:          -4.198
REMARK INTER:                  -5.057
REMARK INTRA:                   0.859
REMARK UNBOUND:                 0.859
REMARK SMILES CC1=CC=CC(C)(C)CC1=O
REMARK SMILES IDX 1 1 2 2 3 3 10 4 11 5 9 6 4 8 5 9 6 10 7 11 8 12
REMARK H PARENT
REMARK Flexibility Score: 80.00
ROOT
ATOM      1  C   UNL     1      -9.401   4.598 -16.798  1.00  0.00     0.048 C 
ATOM      2  C   UNL     1      -9.630   3.528 -17.840  1.00  0.00    -0.008 C 
ATOM      3  C   UNL     1      -8.591   2.727 -18.161  1.00  0.00     0.007 C 
ENDROOT
BRANCH   2   4
ATOM      4  C   UNL     1     -10.978   3.484 -18.468  1.00  0.00     0.159 C 
ATOM      5  O   UNL     1     -11.867   4.273 -18.044  1.00  0.00    -0.295 OA
BRANCH   4   6
ATOM      6  C   UNL     1     -11.346   2.581 -19.608  1.00  0.00     0.091 CG0
ATOM      7  G   UNL     1     -10.996   1.095 -19.370  1.00  0.00     0.000 G0
ENDBRANCH   4   6
ENDBRANCH   2   4
BRANCH   3   8
ATOM      8  C   UNL     1      -8.523   1.603 -19.122  1.00  0.00    -0.003 C 
ATOM      9  C   UNL     1      -9.526   0.875 -19.629  1.00  0.00    -0.020 C 
BRANCH   9  10
ATOM     10  C   UNL     1     -10.999   1.091 -19.374  1.00  0.00    -0.010 CG0
ATOM     11  C   UNL     1     -11.795   0.241 -20.390  1.00  0.00     0.016 C 
ATOM     12  C   UNL     1     -11.374   0.606 -17.953  1.00  0.00     0.016 C 
ATOM     13  G   UNL     1     -11.350   2.577 -19.609  1.00  0.00     0.000 G0
ENDBRANCH   9  10
ENDBRANCH   3   8
TORSDOF 0
ENDMDL
MODEL 2
REMARK VINA RESULT:    -4.000      1.451      3.488
REMARK INTER + INTRA:          -4.076
REMARK INTER:                  -4.919
REMARK INTRA:                   0.843
REMARK UNBOUND:                 0.859
REMARK SMILES CC1=CC=CC(C)(C)CC1=O
REMARK SMILES IDX 1 1 2 2 3 3 10 4 11 5 9 6 4 8 5 9 6 10 7 11 8 12
REMARK H PARENT
REMARK Flexibility Score: 80.00
ROOT
ATOM      1  C   UNL     1     -11.239  -0.079 -20.343  1.00  0.00     0.048 C 
ATOM      2  C   UNL     1     -10.463   0.851 -19.440  1.00  0.00    -0.008 C 
ATOM      3  C   UNL     1      -9.123   0.909 -19.597  1.00  0.00     0.007 C 
ENDROOT
BRANCH   2   4
ATOM      4  C   UNL     1     -11.243   1.588 -18.411  1.00  0.00     0.159 C 
ATOM      5  O   UNL     1     -12.500   1.477 -18.412  1.00  0.00    -0.295 OA
BRANCH   4   6
ATOM      6  C   UNL     1     -10.629   2.435 -17.337  1.00  0.00     0.091 CG0
ATOM      7  G   UNL     1      -9.644   3.502 -17.865  1.00  0.00     0.000 G0
ENDBRANCH   4   6
ENDBRANCH   2   4
BRANCH   3   8
ATOM      8  C   UNL     1      -8.120   1.724 -18.876  1.00  0.00    -0.003 C 
ATOM      9  C   UNL     1      -8.309   2.838 -18.157  1.00  0.00    -0.020 C 
BRANCH   9  10
ATOM     10  C   UNL     1      -9.638   3.489 -17.860  1.00  0.00    -0.010 CG0
ATOM     11  C   UNL     1      -9.427   4.528 -16.735  1.00  0.00     0.016 C 
ATOM     12  C   UNL     1     -10.158   4.242 -19.107  1.00  0.00     0.016 C 
ATOM     13  G   UNL     1     -10.632   2.422 -17.349  1.00  0.00     0.000 G0
ENDBRANCH   9  10
ENDBRANCH   3   8
TORSDOF 0
ENDMDL
MODEL 3
REMARK VINA RESULT:    -3.873      1.686      3.397
REMARK INTER + INTRA:          -3.919
REMARK INTER:                  -4.759
REMARK INTRA:                   0.840
REMARK UNBOUND:                 0.859
REMARK SMILES CC1=CC=CC(C)(C)CC1=O
REMARK SMILES IDX 1 1 2 2 3 3 10 4 11 5 9 6 4 8 5 9 6 10 7 11 8 12
REMARK H PARENT
REMARK Flexibility Score: 80.00
ROOT
ATOM      1  C   UNL     1      -9.338   0.426 -20.470  1.00  0.00     0.048 C 
ATOM      2  C   UNL     1      -9.652   1.363 -19.327  1.00  0.00    -0.008 C 
ATOM      3  C   UNL     1      -8.645   2.116 -18.835  1.00  0.00     0.007 C 
ENDROOT
BRANCH   2   4
ATOM      4  C   UNL     1     -11.042   1.334 -18.801  1.00  0.00     0.159 C 
ATOM      5  O   UNL     1     -11.895   0.614 -19.390  1.00  0.00    -0.295 OA
BRANCH   4   6
ATOM      6  C   UNL     1     -11.497   2.082 -17.584  1.00  0.00     0.091 CG0
ATOM      7  G   UNL     1     -11.156   3.589 -17.610  1.00  0.00     0.000 G0
ENDBRANCH   4   6
ENDBRANCH   2   4
BRANCH   3   8
ATOM      8  C   UNL     1      -8.656   3.116 -17.742  1.00  0.00    -0.003 C 
ATOM      9  C   UNL     1      -9.699   3.776 -17.225  1.00  0.00    -0.020 C 
BRANCH   9  10
ATOM     10  C   UNL     1     -11.147   3.591 -17.610  1.00  0.00    -0.010 CG0
ATOM     11  C   UNL     1     -12.023   4.289 -16.544  1.00  0.00     0.016 C 
ATOM     12  C   UNL     1     -11.432   4.266 -18.972  1.00  0.00     0.016 C 
ATOM     13  G   UNL     1     -11.494   2.085 -17.606  1.00  0.00     0.000 G0
ENDBRANCH   9  10
ENDBRANCH   3   8
TORSDOF 0
ENDMDL
MODEL 4
REMARK VINA RESULT:    -3.781      1.781      3.668
REMARK INTER + INTRA:          -3.806
REMARK INTER:                  -4.654
REMARK INTRA:                   0.848
REMARK UNBOUND:                 0.859
REMARK SMILES CC1=CC=CC(C)(C)CC1=O
REMARK SMILES IDX 1 1 2 2 3 3 10 4 11 5 9 6 4 8 5 9 6 10 7 11 8 12
REMARK H PARENT
REMARK Flexibility Score: 80.00
ROOT
ATOM      1  C   UNL     1     -11.915  -0.245 -18.189  1.00  0.00     0.048 C 
ATOM      2  C   UNL     1     -11.534   1.210 -18.333  1.00  0.00    -0.008 C 
ATOM      3  C   UNL     1     -11.863   2.051 -17.328  1.00  0.00     0.007 C 
ENDROOT
BRANCH   2   4
ATOM      4  C   UNL     1     -10.871   1.605 -19.604  1.00  0.00     0.159 C 
ATOM      5  O   UNL     1     -10.584   0.704 -20.440  1.00  0.00    -0.295 OA
BRANCH   4   6
ATOM      6  C   UNL     1     -10.551   3.020 -19.982  1.00  0.00     0.091 CG0
ATOM      7  G   UNL     1      -9.760   3.794 -18.904  1.00  0.00     0.000 G0
ENDBRANCH   4   6
ENDBRANCH   2   4
BRANCH   3   8
ATOM      8  C   UNL     1     -11.612   3.503 -17.188  1.00  0.00    -0.003 C 
ATOM      9  C   UNL     1     -10.711   4.260 -17.825  1.00  0.00    -0.020 C 
BRANCH   9  10
ATOM     10  C   UNL     1      -9.766   3.797 -18.908  1.00  0.00    -0.010 CG0
ATOM     11  C   UNL     1      -9.154   5.046 -19.583  1.00  0.00     0.016 C 
ATOM     12  C   UNL     1      -8.608   2.975 -18.295  1.00  0.00     0.016 C 
ATOM     13  G   UNL     1     -10.555   3.010 -19.978  1.00  0.00     0.000 G0
ENDBRANCH   9  10
ENDBRANCH   3   8
TORSDOF 0
ENDMDL
MODEL 5
REMARK VINA RESULT:    -3.587      1.477      2.339
REMARK INTER + INTRA:          -3.567
REMARK INTER:                  -4.433
REMARK INTRA:                   0.866
REMARK UNBOUND:                 0.859
REMARK SMILES CC1=CC=CC(C)(C)CC1=O
REMARK SMILES IDX 1 1 2 2 3 3 10 4 11 5 9 6 4 8 5 9 6 10 7 11 8 12
REMARK H PARENT
REMARK Flexibility Score: 80.00
ROOT
ATOM      1  C   UNL     1      -8.840   4.502 -17.319  1.00  0.00     0.048 C 
ATOM      2  C   UNL     1      -9.570   3.242 -17.720  1.00  0.00    -0.008 C 
ATOM      3  C   UNL     1     -10.664   2.893 -17.009  1.00  0.00     0.007 C 
ENDROOT
BRANCH   2   4
ATOM      4  C   UNL     1      -8.985   2.458 -18.840  1.00  0.00     0.159 C 
ATOM      5  O   UNL     1      -7.997   2.938 -19.462  1.00  0.00    -0.295 OA
BRANCH   4   6
ATOM      6  C   UNL     1      -9.469   1.102 -19.261  1.00  0.00     0.091 CG0
ATOM      7  G   UNL     1     -10.984   1.042 -19.560  1.00  0.00     0.000 G0
ENDBRANCH   4   6
ENDBRANCH   2   4
BRANCH   3   8
ATOM      8  C   UNL     1     -11.573   1.737 -17.175  1.00  0.00    -0.003 C 
ATOM      9  C   UNL     1     -11.749   0.960 -18.250  1.00  0.00    -0.020 C 
BRANCH   9  10
ATOM     10  C   UNL     1     -10.985   1.055 -19.550  1.00  0.00    -0.010 CG0
ATOM     11  C   UNL     1     -11.280  -0.217 -20.378  1.00  0.00     0.016 C 
ATOM     12  C   UNL     1     -11.468   2.276 -20.368  1.00  0.00     0.016 C 
ATOM     13  G   UNL     1      -9.469   1.096 -19.255  1.00  0.00     0.000 G0
ENDBRANCH   9  10
ENDBRANCH   3   8
TORSDOF 0
ENDMDL
MODEL 6
REMARK VINA RESULT:    -3.459      2.420      3.602
REMARK INTER + INTRA:          -3.408
REMARK INTER:                  -4.519
REMARK INTRA:                   1.111
REMARK UNBOUND:                 0.859
REMARK SMILES CC1=CC=CC(C)(C)CC1=O
REMARK SMILES IDX 1 1 2 2 3 3 10 4 11 5 9 6 4 8 5 9 6 10 7 11 8 12
REMARK H PARENT
REMARK Flexibility Score: 80.00
ROOT
ATOM      1  C   UNL     1      -7.944   2.045 -18.852  1.00  0.00     0.048 C 
ATOM      2  C   UNL     1      -9.154   2.902 -18.564  1.00  0.00    -0.008 C 
ATOM      3  C   UNL     1     -10.178   2.341 -17.886  1.00  0.00     0.007 C 
ENDROOT
BRANCH   2   4
ATOM      4  C   UNL     1      -9.135   4.288 -19.104  1.00  0.00     0.159 C 
ATOM      5  O   UNL     1      -8.234   4.601 -19.930  1.00  0.00    -0.295 OA
BRANCH   4   6
ATOM      6  C   UNL     1     -10.147   5.339 -18.759  1.00  0.00     0.091 CG0
ATOM      7  G   UNL     1     -11.608   4.919 -19.038  1.00  0.00     0.000 G0
ENDBRANCH   4   6
ENDBRANCH   2   4
BRANCH   3   8
ATOM      8  C   UNL     1     -11.466   2.931 -17.456  1.00  0.00    -0.003 C 
ATOM      9  C   UNL     1     -12.070   4.036 -17.908  1.00  0.00    -0.020 C 
BRANCH   9  10
ATOM     10  C   UNL     1     -11.587   4.916 -19.036  1.00  0.00    -0.010 CG0
ATOM     11  C   UNL     1     -11.613   4.086 -20.341  1.00  0.00     0.016 C 
ATOM     12  C   UNL     1     -12.539   6.120 -19.223  1.00  0.00     0.016 C 
ATOM     13  G   UNL     1     -10.128   5.345 -18.767  1.00  0.00     0.000 G0
ENDBRANCH   9  10
ENDBRANCH   3   8
TORSDOF 0
ENDMDL
MODEL 7
REMARK VINA RESULT:    -3.358      1.991      3.265
REMARK INTER + INTRA:          -3.283
REMARK INTER:                  -4.128
REMARK INTRA:                   0.844
REMARK UNBOUND:                 0.859
REMARK SMILES CC1=CC=CC(C)(C)CC1=O
REMARK SMILES IDX 1 1 2 2 3 3 10 4 11 5 9 6 4 8 5 9 6 10 7 11 8 12
REMARK H PARENT
REMARK Flexibility Score: 80.00
ROOT
ATOM      1  C   UNL     1     -12.572   5.750 -19.435  1.00  0.00     0.048 C 
ATOM      2  C   UNL     1     -11.424   4.982 -18.824  1.00  0.00    -0.008 C 
ATOM      3  C   UNL     1     -11.516   4.640 -17.520  1.00  0.00     0.007 C 
ENDROOT
BRANCH   2   4
ATOM      4  C   UNL     1     -10.256   4.713 -19.704  1.00  0.00     0.159 C 
ATOM      5  O   UNL     1     -10.338   5.017 -20.926  1.00  0.00    -0.295 OA
BRANCH   4   6
ATOM      6  C   UNL     1      -8.958   4.134 -19.225  1.00  0.00     0.091 CG0
ATOM      7  G   UNL     1      -9.111   2.812 -18.442  1.00  0.00     0.000 G0
ENDBRANCH   4   6
ENDBRANCH   2   4
BRANCH   3   8
ATOM      8  C   UNL     1     -10.567   3.889 -16.668  1.00  0.00    -0.003 C 
ATOM      9  C   UNL     1      -9.565   3.084 -17.043  1.00  0.00    -0.020 C 
BRANCH   9  10
ATOM     10  C   UNL     1      -9.128   2.810 -18.462  1.00  0.00    -0.010 CG0
ATOM     11  C   UNL     1      -7.746   2.119 -18.417  1.00  0.00     0.016 C 
ATOM     12  C   UNL     1     -10.119   1.842 -19.151  1.00  0.00     0.016 C 
ATOM     13  G   UNL     1      -8.973   4.147 -19.221  1.00  0.00     0.000 G0
ENDBRANCH   9  10
ENDBRANCH   3   8
TORSDOF 0
ENDMDL
MODEL 8
REMARK VINA RESULT:    -3.133      2.038      3.063
REMARK INTER + INTRA:          -3.007
REMARK INTER:                  -3.858
REMARK INTRA:                   0.851
REMARK UNBOUND:                 0.859
REMARK SMILES CC1=CC=CC(C)(C)CC1=O
REMARK SMILES IDX 1 1 2 2 3 3 10 4 11 5 9 6 4 8 5 9 6 10 7 11 8 12
REMARK H PARENT
REMARK Flexibility Score: 80.00
ROOT
ATOM      1  C   UNL     1      -8.186   4.990 -20.272  1.00  0.00     0.048 C 
ATOM      2  C   UNL     1      -9.266   4.404 -19.394  1.00  0.00    -0.008 C 
ATOM      3  C   UNL     1     -10.508   4.926 -19.488  1.00  0.00     0.007 C 
ENDROOT
BRANCH   2   4
ATOM      4  C   UNL     1      -8.853   3.328 -18.454  1.00  0.00     0.159 C 
ATOM      5  O   UNL     1      -7.656   2.930 -18.482  1.00  0.00    -0.295 OA
BRANCH   4   6
ATOM      6  C   UNL     1      -9.763   2.702 -17.440  1.00  0.00     0.091 CG0
ATOM      7  G   UNL     1     -11.117   2.233 -18.016  1.00  0.00     0.000 G0
ENDBRANCH   4   6
ENDBRANCH   2   4
BRANCH   3   8
ATOM      8  C   UNL     1     -11.749   4.553 -18.772  1.00  0.00    -0.003 C 
ATOM      9  C   UNL     1     -12.045   3.401 -18.159  1.00  0.00    -0.020 C 
BRANCH   9  10
ATOM     10  C   UNL     1     -11.124   2.215 -18.000  1.00  0.00    -0.010 CG0
ATOM     11  C   UNL     1     -11.748   1.253 -16.963  1.00  0.00     0.016 C 
ATOM     12  C   UNL     1     -10.997   1.451 -19.339  1.00  0.00     0.016 C 
ATOM     13  G   UNL     1      -9.759   2.693 -17.454  1.00  0.00     0.000 G0
ENDBRANCH   9  10
ENDBRANCH   3   8
TORSDOF 0
ENDMDL
MODEL 9
REMARK VINA RESULT:    -2.866     15.388     16.740
REMARK INTER + INTRA:          -2.676
REMARK INTER:                  -3.524
REMARK INTRA:                   0.847
REMARK UNBOUND:                 0.859
REMARK SMILES CC1=CC=CC(C)(C)CC1=O
REMARK SMILES IDX 1 1 2 2 3 3 10 4 11 5 9 6 4 8 5 9 6 10 7 11 8 12
REMARK H PARENT
REMARK Flexibility Score: 80.00
ROOT
ATOM      1  C   UNL     1       4.781   6.949 -17.937  1.00  0.00     0.048 C 
ATOM      2  C   UNL     1       4.574   8.234 -17.171  1.00  0.00    -0.008 C 
ATOM      3  C   UNL     1       4.562   9.390 -17.869  1.00  0.00     0.007 C 
ENDROOT
BRANCH   2   4
ATOM      4  C   UNL     1       4.456   8.120 -15.693  1.00  0.00     0.159 C 
ATOM      5  O   UNL     1       4.458   6.970 -15.174  1.00  0.00    -0.295 OA
BRANCH   4   6
ATOM      6  C   UNL     1       4.372   9.293 -14.762  1.00  0.00     0.091 CG0
ATOM      7  G   UNL     1       3.289  10.325 -15.149  1.00  0.00     0.000 G0
ENDBRANCH   4   6
ENDBRANCH   2   4
BRANCH   3   8
ATOM      8  C   UNL     1       4.371  10.780 -17.398  1.00  0.00    -0.003 C 
ATOM      9  C   UNL     1       3.811  11.206 -16.260  1.00  0.00    -0.020 C 
BRANCH   9  10
ATOM     10  C   UNL     1       3.294  10.333 -15.141  1.00  0.00    -0.010 CG0
ATOM     11  C   UNL     1       3.039  11.229 -13.907  1.00  0.00     0.016 C 
ATOM     12  C   UNL     1       1.947   9.687 -15.543  1.00  0.00     0.016 C 
ATOM     13  G   UNL     1       4.368   9.288 -14.765  1.00  0.00     0.000 G0
ENDBRANCH   9  10
ENDBRANCH   3   8
TORSDOF 0
ENDMDL
