MODEL 1
REMARK VINA RESULT:    -5.296      0.000      0.000
REMARK INTER + INTRA:         -11.079
REMARK INTER:                  -9.941
REMARK INTRA:                  -1.138
REMARK UNBOUND:                -1.138
REMARK SMILES O=C([O-])CCCCCCCCCCCCCCC(=O)[O-]
REMARK SMILES IDX 10 1 9 2 8 3 7 4 6 5 5 6 4 7 2 8 1 9 3 10 11 11 12 12 13 13
REMARK SMILES IDX 14 14 15 15 16 16 17 17 18 18 19 19 20 20
REMARK H PARENT
REMARK Flexibility Score: inf
ROOT
ATOM      1  C   UNL     1      27.200   0.798  29.213  1.00  0.00     0.000 C 
ENDROOT
BRANCH   1   2
ATOM      2  C   UNL     1      26.465   0.182  30.409  1.00  0.00     0.000 C 
BRANCH   2   3
ATOM      3  C   UNL     1      26.905  -1.269  30.639  1.00  0.00     0.000 C 
BRANCH   3   4
ATOM      4  C   UNL     1      28.142  -1.333  31.547  1.00  0.00     0.000 C 
BRANCH   4   5
ATOM      5  C   UNL     1      29.409  -1.760  30.776  1.00  0.00     0.000 C 
BRANCH   5   6
ATOM      6  C   UNL     1      29.138  -2.793  29.669  1.00  0.00     0.006 C 
BRANCH   6   7
ATOM      7  C   UNL     1      29.983  -4.063  29.818  1.00  0.00     0.053 C 
BRANCH   7   8
ATOM      8  C   UNL     1      29.161  -5.174  30.393  1.00  0.00     0.041 C 
ATOM      9  O   UNL     1      27.924  -5.019  30.572  1.00  0.00    -0.550 OA
ATOM     10  O   UNL     1      29.769  -6.362  30.777  1.00  0.00    -0.550 OA
ENDBRANCH   7   8
ENDBRANCH   6   7
ENDBRANCH   5   6
ENDBRANCH   4   5
ENDBRANCH   3   4
ENDBRANCH   2   3
ENDBRANCH   1   2
BRANCH   1  11
ATOM     11  C   UNL     1      27.821   2.149  29.585  1.00  0.00     0.000 C 
BRANCH  11  12
ATOM     12  C   UNL     1      28.071   2.244  31.095  1.00  0.00     0.000 C 
BRANCH  12  13
ATOM     13  C   UNL     1      28.388   3.688  31.511  1.00  0.00     0.000 C 
BRANCH  13  14
ATOM     14  C   UNL     1      27.682   4.733  30.628  1.00  0.00     0.000 C 
BRANCH  14  15
ATOM     15  C   UNL     1      28.621   5.724  29.909  1.00  0.00     0.000 C 
BRANCH  15  16
ATOM     16  C   UNL     1      28.313   7.211  30.155  1.00  0.00     0.006 C 
BRANCH  16  17
ATOM     17  C   UNL     1      26.893   7.446  30.684  1.00  0.00     0.053 C 
BRANCH  17  18
ATOM     18  C   UNL     1      26.586   8.909  30.723  1.00  0.00     0.041 C 
ATOM     19  O   UNL     1      26.060   9.473  29.729  1.00  0.00    -0.550 OA
ATOM     20  O   UNL     1      26.928   9.661  31.840  1.00  0.00    -0.550 OA
ENDBRANCH  17  18
ENDBRANCH  16  17
ENDBRANCH  15  16
ENDBRANCH  14  15
ENDBRANCH  13  14
ENDBRANCH  12  13
ENDBRANCH  11  12
ENDBRANCH   1  11
TORSDOF 15
ENDMDL
MODEL 2
REMARK VINA RESULT:    -5.249      2.640      4.613
REMARK INTER + INTRA:         -10.991
REMARK INTER:                  -9.772
REMARK INTRA:                  -1.219
REMARK UNBOUND:                -1.138
REMARK SMILES O=C([O-])CCCCCCCCCCCCCCC(=O)[O-]
REMARK SMILES IDX 10 1 9 2 8 3 7 4 6 5 5 6 4 7 2 8 1 9 3 10 11 11 12 12 13 13
REMARK SMILES IDX 14 14 15 15 16 16 17 17 18 18 19 19 20 20
REMARK H PARENT
REMARK Flexibility Score: inf
ROOT
ATOM      1  C   UNL     1      29.476  -1.794  29.896  1.00  0.00     0.000 C 
ENDROOT
BRANCH   1   2
ATOM      2  C   UNL     1      29.007  -3.252  29.956  1.00  0.00     0.000 C 
BRANCH   2   3
ATOM      3  C   UNL     1      30.186  -4.218  29.788  1.00  0.00     0.000 C 
BRANCH   3   4
ATOM      4  C   UNL     1      30.074  -5.399  30.764  1.00  0.00     0.000 C 
BRANCH   4   5
ATOM      5  C   UNL     1      28.666  -6.032  30.754  1.00  0.00     0.000 C 
BRANCH   5   6
ATOM      6  C   UNL     1      28.646  -7.500  31.209  1.00  0.00     0.006 C 
BRANCH   6   7
ATOM      7  C   UNL     1      29.541  -8.403  30.352  1.00  0.00     0.053 C 
BRANCH   7   8
ATOM      8  C   UNL     1      28.720  -9.153  29.350  1.00  0.00     0.041 C 
ATOM      9  O   UNL     1      27.657  -9.727  29.704  1.00  0.00    -0.550 OA
ATOM     10  O   UNL     1      29.156  -9.261  28.035  1.00  0.00    -0.550 OA
ENDBRANCH   7   8
ENDBRANCH   6   7
ENDBRANCH   5   6
ENDBRANCH   4   5
ENDBRANCH   3   4
ENDBRANCH   2   3
ENDBRANCH   1   2
BRANCH   1  11
ATOM     11  C   UNL     1      29.382  -1.128  31.273  1.00  0.00     0.000 C 
BRANCH  11  12
ATOM     12  C   UNL     1      27.956  -1.215  31.830  1.00  0.00     0.000 C 
BRANCH  12  13
ATOM     13  C   UNL     1      27.159   0.058  31.503  1.00  0.00     0.000 C 
BRANCH  13  14
ATOM     14  C   UNL     1      26.360  -0.057  30.192  1.00  0.00     0.000 C 
BRANCH  14  15
ATOM     15  C   UNL     1      26.851   0.849  29.045  1.00  0.00     0.000 C 
BRANCH  15  16
ATOM     16  C   UNL     1      27.987   1.818  29.418  1.00  0.00     0.006 C 
BRANCH  16  17
ATOM     17  C   UNL     1      27.608   3.289  29.208  1.00  0.00     0.053 C 
BRANCH  17  18
ATOM     18  C   UNL     1      27.831   4.070  30.464  1.00  0.00     0.041 C 
ATOM     19  O   UNL     1      28.343   3.517  31.472  1.00  0.00    -0.550 OA
ATOM     20  O   UNL     1      27.426   5.397  30.538  1.00  0.00    -0.550 OA
ENDBRANCH  17  18
ENDBRANCH  16  17
ENDBRANCH  15  16
ENDBRANCH  14  15
ENDBRANCH  13  14
ENDBRANCH  12  13
ENDBRANCH  11  12
ENDBRANCH   1  11
TORSDOF 15
ENDMDL
MODEL 3
REMARK VINA RESULT:    -5.245      1.413     10.288
REMARK INTER + INTRA:         -10.982
REMARK INTER:                  -9.825
REMARK INTRA:                  -1.157
REMARK UNBOUND:                -1.138
REMARK SMILES O=C([O-])CCCCCCCCCCCCCCC(=O)[O-]
REMARK SMILES IDX 10 1 9 2 8 3 7 4 6 5 5 6 4 7 2 8 1 9 3 10 11 11 12 12 13 13
REMARK SMILES IDX 14 14 15 15 16 16 17 17 18 18 19 19 20 20
REMARK H PARENT
REMARK Flexibility Score: inf
ROOT
ATOM      1  C   UNL     1      29.495   0.981  31.620  1.00  0.00     0.000 C 
ENDROOT
BRANCH   1   2
ATOM      2  C   UNL     1      28.467   1.974  31.065  1.00  0.00     0.000 C 
BRANCH   2   3
ATOM      3  C   UNL     1      28.656   3.366  31.681  1.00  0.00     0.000 C 
BRANCH   3   4
ATOM      4  C   UNL     1      27.645   4.367  31.100  1.00  0.00     0.000 C 
BRANCH   4   5
ATOM      5  C   UNL     1      28.338   5.538  30.372  1.00  0.00     0.000 C 
BRANCH   5   6
ATOM      6  C   UNL     1      27.516   6.838  30.373  1.00  0.00     0.006 C 
BRANCH   6   7
ATOM      7  C   UNL     1      28.391   8.096  30.332  1.00  0.00     0.053 C 
BRANCH   7   8
ATOM      8  C   UNL     1      27.539   9.326  30.381  1.00  0.00     0.041 C 
ATOM      9  O   UNL     1      26.909   9.619  31.431  1.00  0.00    -0.550 OA
ATOM     10  O   UNL     1      27.401  10.122  29.251  1.00  0.00    -0.550 OA
ENDBRANCH   7   8
ENDBRANCH   6   7
ENDBRANCH   5   6
ENDBRANCH   4   5
ENDBRANCH   3   4
ENDBRANCH   2   3
ENDBRANCH   1   2
BRANCH   1  11
ATOM     11  C   UNL     1      30.201   0.229  30.486  1.00  0.00     0.000 C 
BRANCH  11  12
ATOM     12  C   UNL     1      29.423   0.360  29.171  1.00  0.00     0.000 C 
BRANCH  12  13
ATOM     13  C   UNL     1      28.772  -0.977  28.782  1.00  0.00     0.000 C 
BRANCH  13  14
ATOM     14  C   UNL     1      27.248  -0.984  28.996  1.00  0.00     0.000 C 
BRANCH  14  15
ATOM     15  C   UNL     1      26.774  -1.644  30.307  1.00  0.00     0.000 C 
BRANCH  15  16
ATOM     16  C   UNL     1      27.759  -2.653  30.923  1.00  0.00     0.006 C 
BRANCH  16  17
ATOM     17  C   UNL     1      27.390  -4.110  30.616  1.00  0.00     0.053 C 
BRANCH  17  18
ATOM     18  C   UNL     1      28.622  -4.915  30.352  1.00  0.00     0.041 C 
ATOM     19  O   UNL     1      28.869  -5.940  31.038  1.00  0.00    -0.550 OA
ATOM     20  O   UNL     1      29.525  -4.504  29.379  1.00  0.00    -0.550 OA
ENDBRANCH  17  18
ENDBRANCH  16  17
ENDBRANCH  15  16
ENDBRANCH  14  15
ENDBRANCH  13  14
ENDBRANCH  12  13
ENDBRANCH  11  12
ENDBRANCH   1  11
TORSDOF 15
ENDMDL
MODEL 4
REMARK VINA RESULT:    -5.240      1.322     10.565
REMARK INTER + INTRA:         -10.973
REMARK INTER:                 -10.023
REMARK INTRA:                  -0.950
REMARK UNBOUND:                -1.138
REMARK SMILES O=C([O-])CCCCCCCCCCCCCCC(=O)[O-]
REMARK SMILES IDX 10 1 9 2 8 3 7 4 6 5 5 6 4 7 2 8 1 9 3 10 11 11 12 12 13 13
REMARK SMILES IDX 14 14 15 15 16 16 17 17 18 18 19 19 20 20
REMARK H PARENT
REMARK Flexibility Score: inf
ROOT
ATOM      1  C   UNL     1      26.870   0.830  29.105  1.00  0.00     0.000 C 
ENDROOT
BRANCH   1   2
ATOM      2  C   UNL     1      28.028   1.745  29.518  1.00  0.00     0.000 C 
BRANCH   2   3
ATOM      3  C   UNL     1      27.637   3.223  29.386  1.00  0.00     0.000 C 
BRANCH   3   4
ATOM      4  C   UNL     1      27.979   4.000  30.666  1.00  0.00     0.000 C 
BRANCH   4   5
ATOM      5  C   UNL     1      27.245   5.356  30.738  1.00  0.00     0.000 C 
BRANCH   5   6
ATOM      6  C   UNL     1      28.016   6.510  30.074  1.00  0.00     0.006 C 
BRANCH   6   7
ATOM      7  C   UNL     1      27.446   7.888  30.426  1.00  0.00     0.053 C 
BRANCH   7   8
ATOM      8  C   UNL     1      28.408   8.967  30.039  1.00  0.00     0.041 C 
ATOM      9  O   UNL     1      28.980   8.932  28.917  1.00  0.00    -0.550 OA
ATOM     10  O   UNL     1      28.713   9.982  30.936  1.00  0.00    -0.550 OA
ENDBRANCH   7   8
ENDBRANCH   6   7
ENDBRANCH   5   6
ENDBRANCH   4   5
ENDBRANCH   3   4
ENDBRANCH   2   3
ENDBRANCH   1   2
BRANCH   1  11
ATOM     11  C   UNL     1      26.412  -0.043  30.278  1.00  0.00     0.000 C 
BRANCH  11  12
ATOM     12  C   UNL     1      27.347   0.120  31.484  1.00  0.00     0.000 C 
BRANCH  12  13
ATOM     13  C   UNL     1      28.016  -1.215  31.844  1.00  0.00     0.000 C 
BRANCH  13  14
ATOM     14  C   UNL     1      29.027  -1.684  30.783  1.00  0.00     0.000 C 
BRANCH  14  15
ATOM     15  C   UNL     1      28.628  -2.963  30.019  1.00  0.00     0.000 C 
BRANCH  15  16
ATOM     16  C   UNL     1      27.732  -3.938  30.802  1.00  0.00     0.006 C 
BRANCH  16  17
ATOM     17  C   UNL     1      27.785  -5.369  30.251  1.00  0.00     0.053 C 
BRANCH  17  18
ATOM     18  C   UNL     1      28.829  -6.165  30.967  1.00  0.00     0.041 C 
ATOM     19  O   UNL     1      28.495  -7.036  31.810  1.00  0.00    -0.550 OA
ATOM     20  O   UNL     1      30.176  -5.907  30.739  1.00  0.00    -0.550 OA
ENDBRANCH  17  18
ENDBRANCH  16  17
ENDBRANCH  15  16
ENDBRANCH  14  15
ENDBRANCH  13  14
ENDBRANCH  12  13
ENDBRANCH  11  12
ENDBRANCH   1  11
TORSDOF 15
ENDMDL
MODEL 5
REMARK VINA RESULT:    -5.228      1.169     10.094
REMARK INTER + INTRA:         -10.950
REMARK INTER:                  -9.618
REMARK INTRA:                  -1.332
REMARK UNBOUND:                -1.138
REMARK SMILES O=C([O-])CCCCCCCCCCCCCCC(=O)[O-]
REMARK SMILES IDX 10 1 9 2 8 3 7 4 6 5 5 6 4 7 2 8 1 9 3 10 11 11 12 12 13 13
REMARK SMILES IDX 14 14 15 15 16 16 17 17 18 18 19 19 20 20
REMARK H PARENT
REMARK Flexibility Score: inf
ROOT
ATOM      1  C   UNL     1      28.154   2.070  29.555  1.00  0.00     0.000 C 
ENDROOT
BRANCH   1   2
ATOM      2  C   UNL     1      27.557   3.468  29.361  1.00  0.00     0.000 C 
BRANCH   2   3
ATOM      3  C   UNL     1      27.545   4.252  30.680  1.00  0.00     0.000 C 
BRANCH   3   4
ATOM      4  C   UNL     1      27.280   5.744  30.431  1.00  0.00     0.000 C 
BRANCH   4   5
ATOM      5  C   UNL     1      28.544   6.488  29.952  1.00  0.00     0.000 C 
BRANCH   5   6
ATOM      6  C   UNL     1      28.359   8.011  29.842  1.00  0.00     0.006 C 
BRANCH   6   7
ATOM      7  C   UNL     1      27.267   8.548  30.774  1.00  0.00     0.053 C 
BRANCH   7   8
ATOM      8  C   UNL     1      26.447   9.586  30.075  1.00  0.00     0.041 C 
ATOM      9  O   UNL     1      25.343   9.951  30.557  1.00  0.00    -0.550 OA
ATOM     10  O   UNL     1      26.878  10.113  28.865  1.00  0.00    -0.550 OA
ENDBRANCH   7   8
ENDBRANCH   6   7
ENDBRANCH   5   6
ENDBRANCH   4   5
ENDBRANCH   3   4
ENDBRANCH   2   3
ENDBRANCH   1   2
BRANCH   1  11
ATOM     11  C   UNL     1      27.206   0.988  29.027  1.00  0.00     0.000 C 
BRANCH  11  12
ATOM     12  C   UNL     1      26.438   0.321  30.174  1.00  0.00     0.000 C 
BRANCH  12  13
ATOM     13  C   UNL     1      27.231   0.403  31.487  1.00  0.00     0.000 C 
BRANCH  13  14
ATOM     14  C   UNL     1      27.925  -0.922  31.851  1.00  0.00     0.000 C 
BRANCH  14  15
ATOM     15  C   UNL     1      29.456  -0.931  31.662  1.00  0.00     0.000 C 
BRANCH  15  16
ATOM     16  C   UNL     1      29.935  -1.195  30.224  1.00  0.00     0.006 C 
BRANCH  16  17
ATOM     17  C   UNL     1      29.087  -2.245  29.497  1.00  0.00     0.053 C 
BRANCH  17  18
ATOM     18  C   UNL     1      29.412  -3.616  29.998  1.00  0.00     0.041 C 
ATOM     19  O   UNL     1      28.496  -4.373  30.413  1.00  0.00    -0.550 OA
ATOM     20  O   UNL     1      30.734  -4.040  30.054  1.00  0.00    -0.550 OA
ENDBRANCH  17  18
ENDBRANCH  16  17
ENDBRANCH  15  16
ENDBRANCH  14  15
ENDBRANCH  13  14
ENDBRANCH  12  13
ENDBRANCH  11  12
ENDBRANCH   1  11
TORSDOF 15
ENDMDL
MODEL 6
REMARK VINA RESULT:    -5.227      1.481      2.345
REMARK INTER + INTRA:         -10.949
REMARK INTER:                 -10.056
REMARK INTRA:                  -0.894
REMARK UNBOUND:                -1.138
REMARK SMILES O=C([O-])CCCCCCCCCCCCCCC(=O)[O-]
REMARK SMILES IDX 10 1 9 2 8 3 7 4 6 5 5 6 4 7 2 8 1 9 3 10 11 11 12 12 13 13
REMARK SMILES IDX 14 14 15 15 16 16 17 17 18 18 19 19 20 20
REMARK H PARENT
REMARK Flexibility Score: inf
ROOT
ATOM      1  C   UNL     1      26.525  -0.035  30.451  1.00  0.00     0.000 C 
ENDROOT
BRANCH   1   2
ATOM      2  C   UNL     1      26.727  -1.539  30.231  1.00  0.00     0.000 C 
BRANCH   2   3
ATOM      3  C   UNL     1      28.108  -1.827  29.629  1.00  0.00     0.000 C 
BRANCH   3   4
ATOM      4  C   UNL     1      28.712  -3.108  30.225  1.00  0.00     0.000 C 
BRANCH   4   5
ATOM      5  C   UNL     1      27.631  -4.055  30.787  1.00  0.00     0.000 C 
BRANCH   5   6
ATOM      6  C   UNL     1      27.786  -5.512  30.322  1.00  0.00     0.006 C 
BRANCH   6   7
ATOM      7  C   UNL     1      28.729  -6.326  31.215  1.00  0.00     0.053 C 
BRANCH   7   8
ATOM      8  C   UNL     1      28.890  -7.714  30.677  1.00  0.00     0.041 C 
ATOM      9  O   UNL     1      29.326  -8.633  31.419  1.00  0.00    -0.550 OA
ATOM     10  O   UNL     1      28.606  -7.980  29.344  1.00  0.00    -0.550 OA
ENDBRANCH   7   8
ENDBRANCH   6   7
ENDBRANCH   5   6
ENDBRANCH   4   5
ENDBRANCH   3   4
ENDBRANCH   2   3
ENDBRANCH   1   2
BRANCH   1  11
ATOM     11  C   UNL     1      27.519   0.510  31.482  1.00  0.00     0.000 C 
BRANCH  11  12
ATOM     12  C   UNL     1      28.365   1.643  30.887  1.00  0.00     0.000 C 
BRANCH  12  13
ATOM     13  C   UNL     1      27.889   1.997  29.470  1.00  0.00     0.000 C 
BRANCH  13  14
ATOM     14  C   UNL     1      27.674   3.509  29.271  1.00  0.00     0.000 C 
BRANCH  14  15
ATOM     15  C   UNL     1      27.844   4.366  30.542  1.00  0.00     0.000 C 
BRANCH  15  16
ATOM     16  C   UNL     1      27.305   5.803  30.437  1.00  0.00     0.006 C 
BRANCH  16  17
ATOM     17  C   UNL     1      28.378   6.811  30.004  1.00  0.00     0.053 C 
BRANCH  17  18
ATOM     18  C   UNL     1      27.938   8.206  30.315  1.00  0.00     0.041 C 
ATOM     19  O   UNL     1      28.784   9.082  30.633  1.00  0.00    -0.550 OA
ATOM     20  O   UNL     1      26.586   8.527  30.302  1.00  0.00    -0.550 OA
ENDBRANCH  17  18
ENDBRANCH  16  17
ENDBRANCH  15  16
ENDBRANCH  14  15
ENDBRANCH  13  14
ENDBRANCH  12  13
ENDBRANCH  11  12
ENDBRANCH   1  11
TORSDOF 15
ENDMDL
MODEL 7
REMARK VINA RESULT:    -5.175      1.590     11.110
REMARK INTER + INTRA:         -10.851
REMARK INTER:                 -10.042
REMARK INTRA:                  -0.810
REMARK UNBOUND:                -1.138
REMARK SMILES O=C([O-])CCCCCCCCCCCCCCC(=O)[O-]
REMARK SMILES IDX 10 1 9 2 8 3 7 4 6 5 5 6 4 7 2 8 1 9 3 10 11 11 12 12 13 13
REMARK SMILES IDX 14 14 15 15 16 16 17 17 18 18 19 19 20 20
REMARK H PARENT
REMARK Flexibility Score: inf
ROOT
ATOM      1  C   UNL     1      29.395   0.734  31.369  1.00  0.00     0.000 C 
ENDROOT
BRANCH   1   2
ATOM      2  C   UNL     1      28.364   1.841  31.122  1.00  0.00     0.000 C 
BRANCH   2   3
ATOM      3  C   UNL     1      27.978   1.915  29.639  1.00  0.00     0.000 C 
BRANCH   3   4
ATOM      4  C   UNL     1      27.725   3.367  29.208  1.00  0.00     0.000 C 
BRANCH   4   5
ATOM      5  C   UNL     1      27.787   4.348  30.398  1.00  0.00     0.000 C 
BRANCH   5   6
ATOM      6  C   UNL     1      28.127   5.791  29.992  1.00  0.00     0.006 C 
BRANCH   6   7
ATOM      7  C   UNL     1      27.157   6.821  30.583  1.00  0.00     0.053 C 
BRANCH   7   8
ATOM      8  C   UNL     1      27.623   8.211  30.281  1.00  0.00     0.041 C 
ATOM      9  O   UNL     1      26.982   9.203  30.717  1.00  0.00    -0.550 OA
ATOM     10  O   UNL     1      28.738   8.411  29.477  1.00  0.00    -0.550 OA
ENDBRANCH   7   8
ENDBRANCH   6   7
ENDBRANCH   5   6
ENDBRANCH   4   5
ENDBRANCH   3   4
ENDBRANCH   2   3
ENDBRANCH   1   2
BRANCH   1  11
ATOM     11  C   UNL     1      29.830   0.083  30.052  1.00  0.00     0.000 C 
BRANCH  11  12
ATOM     12  C   UNL     1      29.870  -1.445  30.179  1.00  0.00     0.000 C 
BRANCH  12  13
ATOM     13  C   UNL     1      28.461  -2.044  30.051  1.00  0.00     0.000 C 
BRANCH  13  14
ATOM     14  C   UNL     1      28.429  -3.560  30.314  1.00  0.00     0.000 C 
BRANCH  14  15
ATOM     15  C   UNL     1      29.699  -4.325  29.890  1.00  0.00     0.000 C 
BRANCH  15  16
ATOM     16  C   UNL     1      29.964  -5.630  30.660  1.00  0.00     0.006 C 
BRANCH  16  17
ATOM     17  C   UNL     1      28.781  -6.604  30.607  1.00  0.00     0.053 C 
BRANCH  17  18
ATOM     18  C   UNL     1      29.204  -7.907  30.008  1.00  0.00     0.041 C 
ATOM     19  O   UNL     1      28.972  -8.153  28.796  1.00  0.00    -0.550 OA
ATOM     20  O   UNL     1      29.811  -8.872  30.803  1.00  0.00    -0.550 OA
ENDBRANCH  17  18
ENDBRANCH  16  17
ENDBRANCH  15  16
ENDBRANCH  14  15
ENDBRANCH  13  14
ENDBRANCH  12  13
ENDBRANCH  11  12
ENDBRANCH   1  11
TORSDOF 15
ENDMDL
MODEL 8
REMARK VINA RESULT:    -5.174      2.640      4.344
REMARK INTER + INTRA:         -10.849
REMARK INTER:                  -9.647
REMARK INTRA:                  -1.202
REMARK UNBOUND:                -1.138
REMARK SMILES O=C([O-])CCCCCCCCCCCCCCC(=O)[O-]
REMARK SMILES IDX 10 1 9 2 8 3 7 4 6 5 5 6 4 7 2 8 1 9 3 10 11 11 12 12 13 13
REMARK SMILES IDX 14 14 15 15 16 16 17 17 18 18 19 19 20 20
REMARK H PARENT
REMARK Flexibility Score: inf
ROOT
ATOM      1  C   UNL     1      27.369  -2.024  29.826  1.00  0.00     0.000 C 
ENDROOT
BRANCH   1   2
ATOM      2  C   UNL     1      27.388  -3.153  30.863  1.00  0.00     0.000 C 
BRANCH   2   3
ATOM      3  C   UNL     1      26.489  -4.317  30.428  1.00  0.00     0.000 C 
BRANCH   3   4
ATOM      4  C   UNL     1      27.319  -5.579  30.150  1.00  0.00     0.000 C 
BRANCH   4   5
ATOM      5  C   UNL     1      28.553  -5.679  31.072  1.00  0.00     0.000 C 
BRANCH   5   6
ATOM      6  C   UNL     1      29.490  -6.848  30.724  1.00  0.00     0.006 C 
BRANCH   6   7
ATOM      7  C   UNL     1      28.742  -8.171  30.522  1.00  0.00     0.053 C 
BRANCH   7   8
ATOM      8  C   UNL     1      29.108  -9.147  31.597  1.00  0.00     0.041 C 
ATOM      9  O   UNL     1      28.578  -9.064  32.735  1.00  0.00    -0.550 OA
ATOM     10  O   UNL     1      30.073 -10.117  31.355  1.00  0.00    -0.550 OA
ENDBRANCH   7   8
ENDBRANCH   6   7
ENDBRANCH   5   6
ENDBRANCH   4   5
ENDBRANCH   3   4
ENDBRANCH   2   3
ENDBRANCH   1   2
BRANCH   1  11
ATOM     11  C   UNL     1      28.737  -1.874  29.152  1.00  0.00     0.000 C 
BRANCH  11  12
ATOM     12  C   UNL     1      29.859  -1.786  30.195  1.00  0.00     0.000 C 
BRANCH  12  13
ATOM     13  C   UNL     1      30.299  -0.330  30.407  1.00  0.00     0.000 C 
BRANCH  13  14
ATOM     14  C   UNL     1      29.732   0.285  31.699  1.00  0.00     0.000 C 
BRANCH  14  15
ATOM     15  C   UNL     1      28.313   0.878  31.573  1.00  0.00     0.000 C 
BRANCH  15  16
ATOM     16  C   UNL     1      28.203   2.122  30.674  1.00  0.00     0.006 C 
BRANCH  16  17
ATOM     17  C   UNL     1      28.317   3.435  31.458  1.00  0.00     0.053 C 
BRANCH  17  18
ATOM     18  C   UNL     1      28.001   4.599  30.574  1.00  0.00     0.041 C 
ATOM     19  O   UNL     1      27.151   4.485  29.653  1.00  0.00    -0.550 OA
ATOM     20  O   UNL     1      28.685   5.798  30.735  1.00  0.00    -0.550 OA
ENDBRANCH  17  18
ENDBRANCH  16  17
ENDBRANCH  15  16
ENDBRANCH  14  15
ENDBRANCH  13  14
ENDBRANCH  12  13
ENDBRANCH  11  12
ENDBRANCH   1  11
TORSDOF 15
ENDMDL
MODEL 9
REMARK VINA RESULT:    -5.105      2.370     10.842
REMARK INTER + INTRA:         -10.719
REMARK INTER:                  -9.730
REMARK INTRA:                  -0.990
REMARK UNBOUND:                -1.138
REMARK SMILES O=C([O-])CCCCCCCCCCCCCCC(=O)[O-]
REMARK SMILES IDX 10 1 9 2 8 3 7 4 6 5 5 6 4 7 2 8 1 9 3 10 11 11 12 12 13 13
REMARK SMILES IDX 14 14 15 15 16 16 17 17 18 18 19 19 20 20
REMARK H PARENT
REMARK Flexibility Score: inf
ROOT
ATOM      1  C   UNL     1      28.337  -1.196  31.677  1.00  0.00     0.000 C 
ENDROOT
BRANCH   1   2
ATOM      2  C   UNL     1      27.496   0.061  31.430  1.00  0.00     0.000 C 
BRANCH   2   3
ATOM      3  C   UNL     1      26.600  -0.107  30.196  1.00  0.00     0.000 C 
BRANCH   3   4
ATOM      4  C   UNL     1      26.877   0.992  29.160  1.00  0.00     0.000 C 
BRANCH   4   5
ATOM      5  C   UNL     1      27.825   2.081  29.706  1.00  0.00     0.000 C 
BRANCH   5   6
ATOM      6  C   UNL     1      27.718   3.422  28.961  1.00  0.00     0.006 C 
BRANCH   6   7
ATOM      7  C   UNL     1      27.215   4.562  29.856  1.00  0.00     0.053 C 
BRANCH   7   8
ATOM      8  C   UNL     1      28.360   5.410  30.313  1.00  0.00     0.041 C 
ATOM      9  O   UNL     1      28.587   6.519  29.761  1.00  0.00    -0.550 OA
ATOM     10  O   UNL     1      29.207   4.954  31.316  1.00  0.00    -0.550 OA
ENDBRANCH   7   8
ENDBRANCH   6   7
ENDBRANCH   5   6
ENDBRANCH   4   5
ENDBRANCH   3   4
ENDBRANCH   2   3
ENDBRANCH   1   2
BRANCH   1  11
ATOM     11  C   UNL     1      29.075  -1.622  30.403  1.00  0.00     0.000 C 
BRANCH  11  12
ATOM     12  C   UNL     1      28.684  -3.047  29.991  1.00  0.00     0.000 C 
BRANCH  12  13
ATOM     13  C   UNL     1      27.587  -3.604  30.910  1.00  0.00     0.000 C 
BRANCH  13  14
ATOM     14  C   UNL     1      26.848  -4.808  30.300  1.00  0.00     0.000 C 
BRANCH  14  15
ATOM     15  C   UNL     1      27.733  -6.037  30.006  1.00  0.00     0.000 C 
BRANCH  15  16
ATOM     16  C   UNL     1      28.706  -6.427  31.132  1.00  0.00     0.006 C 
BRANCH  16  17
ATOM     17  C   UNL     1      29.491  -7.707  30.824  1.00  0.00     0.053 C 
BRANCH  17  18
ATOM     18  C   UNL     1      28.749  -8.907  31.321  1.00  0.00     0.041 C 
ATOM     19  O   UNL     1      28.195  -9.691  30.508  1.00  0.00    -0.550 OA
ATOM     20  O   UNL     1      28.625  -9.131  32.687  1.00  0.00    -0.550 OA
ENDBRANCH  17  18
ENDBRANCH  16  17
ENDBRANCH  15  16
ENDBRANCH  14  15
ENDBRANCH  13  14
ENDBRANCH  12  13
ENDBRANCH  11  12
ENDBRANCH   1  11
TORSDOF 15
ENDMDL
