MODEL 1
REMARK VINA RESULT:    -3.244      0.000      0.000
REMARK INTER + INTRA:          -3.835
REMARK INTER:                  -3.813
REMARK INTRA:                  -0.021
REMARK UNBOUND:                -0.021
REMARK SMILES CCCCC(=O)[O-]
REMARK SMILES IDX 4 1 5 2 6 3 7 4 3 5 2 6 1 7
REMARK H PARENT
REMARK Flexibility Score: inf
ROOT
ATOM      1  C   UNL     1      17.253  -6.471  16.281  1.00  0.00     0.053 C 
ENDROOT
BRANCH   1   2
ATOM      2  C   UNL     1      16.749  -6.444  14.873  1.00  0.00     0.041 C 
ATOM      3  O   UNL     1      17.413  -6.987  13.951  1.00  0.00    -0.550 OA
ATOM      4  O   UNL     1      15.569  -5.776  14.569  1.00  0.00    -0.550 OA
ENDBRANCH   1   2
BRANCH   1   5
ATOM      5  C   UNL     1      16.238  -5.823  17.226  1.00  0.00     0.006 C 
BRANCH   5   6
ATOM      6  C   UNL     1      16.901  -5.410  18.546  1.00  0.00    -0.003 C 
ATOM      7  C   UNL     1      16.115  -4.297  19.232  1.00  0.00     0.004 C 
ENDBRANCH   5   6
ENDBRANCH   1   5
TORSDOF 3
ENDMDL
MODEL 2
REMARK VINA RESULT:    -3.107      2.976      3.922
REMARK INTER + INTRA:          -3.674
REMARK INTER:                  -3.578
REMARK INTRA:                  -0.096
REMARK UNBOUND:                -0.021
REMARK SMILES CCCCC(=O)[O-]
REMARK SMILES IDX 4 1 5 2 6 3 7 4 3 5 2 6 1 7
REMARK H PARENT
REMARK Flexibility Score: inf
ROOT
ATOM      1  C   UNL     1      18.142  -7.903  13.260  1.00  0.00     0.053 C 
ENDROOT
BRANCH   1   2
ATOM      2  C   UNL     1      18.165  -9.345  13.658  1.00  0.00     0.041 C 
ATOM      3  O   UNL     1      17.684 -10.222  12.894  1.00  0.00    -0.550 OA
ATOM      4  O   UNL     1      18.673  -9.716  14.897  1.00  0.00    -0.550 OA
ENDBRANCH   1   2
BRANCH   1   5
ATOM      5  C   UNL     1      16.826  -7.249  13.688  1.00  0.00     0.006 C 
BRANCH   5   6
ATOM      6  C   UNL     1      17.080  -6.059  14.621  1.00  0.00    -0.003 C 
ATOM      7  C   UNL     1      17.225  -6.516  16.069  1.00  0.00     0.004 C 
ENDBRANCH   5   6
ENDBRANCH   1   5
TORSDOF 3
ENDMDL
MODEL 3
REMARK VINA RESULT:    -3.104      5.274      6.293
REMARK INTER + INTRA:          -3.670
REMARK INTER:                  -3.619
REMARK INTRA:                  -0.050
REMARK UNBOUND:                -0.021
REMARK SMILES CCCCC(=O)[O-]
REMARK SMILES IDX 4 1 5 2 6 3 7 4 3 5 2 6 1 7
REMARK H PARENT
REMARK Flexibility Score: inf
ROOT
ATOM      1  C   UNL     1      17.161 -10.794  12.226  1.00  0.00     0.053 C 
ENDROOT
BRANCH   1   2
ATOM      2  C   UNL     1      15.929 -11.618  12.431  1.00  0.00     0.041 C 
ATOM      3  O   UNL     1      14.817 -11.060  12.621  1.00  0.00    -0.550 OA
ATOM      4  O   UNL     1      16.017 -13.004  12.462  1.00  0.00    -0.550 OA
ENDBRANCH   1   2
BRANCH   1   5
ATOM      5  C   UNL     1      16.949  -9.373  12.753  1.00  0.00     0.006 C 
BRANCH   5   6
ATOM      6  C   UNL     1      18.222  -8.840  13.424  1.00  0.00    -0.003 C 
ATOM      7  C   UNL     1      18.505  -9.575  14.731  1.00  0.00     0.004 C 
ENDBRANCH   5   6
ENDBRANCH   1   5
TORSDOF 3
ENDMDL
MODEL 4
REMARK VINA RESULT:    -3.054      5.303      6.229
REMARK INTER + INTRA:          -3.612
REMARK INTER:                  -3.566
REMARK INTRA:                  -0.045
REMARK UNBOUND:                -0.021
REMARK SMILES CCCCC(=O)[O-]
REMARK SMILES IDX 4 1 5 2 6 3 7 4 3 5 2 6 1 7
REMARK H PARENT
REMARK Flexibility Score: inf
ROOT
ATOM      1  C   UNL     1      17.041 -10.857  12.248  1.00  0.00     0.053 C 
ENDROOT
BRANCH   1   2
ATOM      2  C   UNL     1      15.788 -11.657  12.416  1.00  0.00     0.041 C 
ATOM      3  O   UNL     1      15.817 -12.911  12.312  1.00  0.00    -0.550 OA
ATOM      4  O   UNL     1      14.577 -11.013  12.638  1.00  0.00    -0.550 OA
ENDBRANCH   1   2
BRANCH   1   5
ATOM      5  C   UNL     1      16.805  -9.400  12.651  1.00  0.00     0.006 C 
BRANCH   5   6
ATOM      6  C   UNL     1      18.077  -8.780  13.242  1.00  0.00    -0.003 C 
ATOM      7  C   UNL     1      18.481  -9.479  14.536  1.00  0.00     0.004 C 
ENDBRANCH   5   6
ENDBRANCH   1   5
TORSDOF 3
ENDMDL
MODEL 5
REMARK VINA RESULT:    -3.042      5.044      5.770
REMARK INTER + INTRA:          -3.597
REMARK INTER:                  -3.573
REMARK INTRA:                  -0.024
REMARK UNBOUND:                -0.021
REMARK SMILES CCCCC(=O)[O-]
REMARK SMILES IDX 4 1 5 2 6 3 7 4 3 5 2 6 1 7
REMARK H PARENT
REMARK Flexibility Score: inf
ROOT
ATOM      1  C   UNL     1      16.126  -9.551  12.173  1.00  0.00     0.053 C 
ENDROOT
BRANCH   1   2
ATOM      2  C   UNL     1      14.847 -10.224  12.560  1.00  0.00     0.041 C 
ATOM      3  O   UNL     1      14.771 -11.481  12.575  1.00  0.00    -0.550 OA
ATOM      4  O   UNL     1      13.722  -9.464  12.855  1.00  0.00    -0.550 OA
ENDBRANCH   1   2
BRANCH   1   5
ATOM      5  C   UNL     1      17.315 -10.220  12.865  1.00  0.00     0.006 C 
BRANCH   5   6
ATOM      6  C   UNL     1      18.187  -9.184  13.586  1.00  0.00    -0.003 C 
ATOM      7  C   UNL     1      18.587  -9.672  14.975  1.00  0.00     0.004 C 
ENDBRANCH   5   6
ENDBRANCH   1   5
TORSDOF 3
ENDMDL
MODEL 6
REMARK VINA RESULT:    -3.018      5.953      7.269
REMARK INTER + INTRA:          -3.569
REMARK INTER:                  -3.539
REMARK INTRA:                  -0.029
REMARK UNBOUND:                -0.021
REMARK SMILES CCCCC(=O)[O-]
REMARK SMILES IDX 4 1 5 2 6 3 7 4 3 5 2 6 1 7
REMARK H PARENT
REMARK Flexibility Score: inf
ROOT
ATOM      1  C   UNL     1      16.018 -12.121  12.228  1.00  0.00     0.053 C 
ENDROOT
BRANCH   1   2
ATOM      2  C   UNL     1      14.603 -12.516  12.509  1.00  0.00     0.041 C 
ATOM      3  O   UNL     1      13.708 -11.637  12.620  1.00  0.00    -0.550 OA
ATOM      4  O   UNL     1      14.278 -13.854  12.696  1.00  0.00    -0.550 OA
ENDBRANCH   1   2
BRANCH   1   5
ATOM      5  C   UNL     1      16.178 -10.601  12.318  1.00  0.00     0.006 C 
BRANCH   5   6
ATOM      6  C   UNL     1      17.488 -10.227  13.022  1.00  0.00    -0.003 C 
ATOM      7  C   UNL     1      17.840  -8.761  12.787  1.00  0.00     0.004 C 
ENDBRANCH   5   6
ENDBRANCH   1   5
TORSDOF 3
ENDMDL
MODEL 7
REMARK VINA RESULT:    -3.001      6.244      7.659
REMARK INTER + INTRA:          -3.549
REMARK INTER:                  -3.487
REMARK INTRA:                  -0.062
REMARK UNBOUND:                -0.021
REMARK SMILES CCCCC(=O)[O-]
REMARK SMILES IDX 4 1 5 2 6 3 7 4 3 5 2 6 1 7
REMARK H PARENT
REMARK Flexibility Score: inf
ROOT
ATOM      1  C   UNL     1      16.228 -12.060  12.616  1.00  0.00     0.053 C 
ENDROOT
BRANCH   1   2
ATOM      2  C   UNL     1      16.428 -10.577  12.634  1.00  0.00     0.041 C 
ATOM      3  O   UNL     1      15.435  -9.804  12.668  1.00  0.00    -0.550 OA
ATOM      4  O   UNL     1      17.711 -10.048  12.564  1.00  0.00    -0.550 OA
ENDBRANCH   1   2
BRANCH   1   5
ATOM      5  C   UNL     1      14.937 -12.418  11.876  1.00  0.00     0.006 C 
BRANCH   5   6
ATOM      6  C   UNL     1      14.144 -13.486  12.639  1.00  0.00    -0.003 C 
ATOM      7  C   UNL     1      12.859 -12.905  13.222  1.00  0.00     0.004 C 
ENDBRANCH   5   6
ENDBRANCH   1   5
TORSDOF 3
ENDMDL
MODEL 8
REMARK VINA RESULT:    -2.980      5.095      6.453
REMARK INTER + INTRA:          -3.524
REMARK INTER:                  -3.487
REMARK INTRA:                  -0.037
REMARK UNBOUND:                -0.021
REMARK SMILES CCCCC(=O)[O-]
REMARK SMILES IDX 4 1 5 2 6 3 7 4 3 5 2 6 1 7
REMARK H PARENT
REMARK Flexibility Score: inf
ROOT
ATOM      1  C   UNL     1      17.352 -10.293  12.689  1.00  0.00     0.053 C 
ENDROOT
BRANCH   1   2
ATOM      2  C   UNL     1      18.120  -9.228  13.408  1.00  0.00     0.041 C 
ATOM      3  O   UNL     1      18.536  -9.427  14.579  1.00  0.00    -0.550 OA
ATOM      4  O   UNL     1      18.334  -7.996  12.802  1.00  0.00    -0.550 OA
ENDBRANCH   1   2
BRANCH   1   5
ATOM      5  C   UNL     1      15.886  -9.882  12.531  1.00  0.00     0.006 C 
BRANCH   5   6
ATOM      6  C   UNL     1      15.013 -11.089  12.165  1.00  0.00    -0.003 C 
ATOM      7  C   UNL     1      15.794 -12.393  12.294  1.00  0.00     0.004 C 
ENDBRANCH   5   6
ENDBRANCH   1   5
TORSDOF 3
ENDMDL
MODEL 9
REMARK VINA RESULT:    -2.920      3.009      4.266
REMARK INTER + INTRA:          -3.453
REMARK INTER:                  -3.357
REMARK INTRA:                  -0.096
REMARK UNBOUND:                -0.021
REMARK SMILES CCCCC(=O)[O-]
REMARK SMILES IDX 4 1 5 2 6 3 7 4 3 5 2 6 1 7
REMARK H PARENT
REMARK Flexibility Score: inf
ROOT
ATOM      1  C   UNL     1      16.582  -7.536  13.445  1.00  0.00     0.053 C 
ENDROOT
BRANCH   1   2
ATOM      2  C   UNL     1      16.424  -6.340  14.330  1.00  0.00     0.041 C 
ATOM      3  O   UNL     1      17.319  -6.047  15.166  1.00  0.00    -0.550 OA
ATOM      4  O   UNL     1      15.266  -5.576  14.266  1.00  0.00    -0.550 OA
ENDBRANCH   1   2
BRANCH   1   5
ATOM      5  C   UNL     1      18.050  -7.964  13.378  1.00  0.00     0.006 C 
BRANCH   5   6
ATOM      6  C   UNL     1      18.210  -9.443  13.747  1.00  0.00    -0.003 C 
ATOM      7  C   UNL     1      18.677  -9.604  15.190  1.00  0.00     0.004 C 
ENDBRANCH   5   6
ENDBRANCH   1   5
TORSDOF 3
ENDMDL
