MODEL 1
REMARK VINA RESULT:    -5.054      0.000      0.000
REMARK INTER + INTRA:          -6.173
REMARK INTER:                  -5.940
REMARK INTRA:                  -0.233
REMARK UNBOUND:                -0.233
REMARK SMILES C=C(C)[C@@H]1CC[C@]2(CO)CC[C@]3(C)[C@@H](CC[C@H]4[C@@]5(C)CC[C@H](O)C(C)(C)[C@H]5CC[C@]43C)[C@@H]12
REMARK SMILES IDX 4 1 5 2 6 3 7 4 32 5 14 6 15 7 16 8 17 9 18 10 20 11 21 12
REMARK SMILES IDX 22 13 24 14 27 15 28 16 29 17 30 18 12 19 11 20 10 21 13 22
REMARK SMILES IDX 31 23 25 24 26 25 19 26 2 27 3 28 1 29 8 30 9 31 23 33
REMARK H PARENT 9 32 23 34
REMARK Flexibility Score: inf
ROOT
ATOM      1  C   UNL     1      16.512  27.370  29.649  1.00  0.00     0.018 C 
ATOM      2  C   UNL     1      15.020  27.614  29.948  1.00  0.00     0.009 C 
ATOM      3  C   UNL     1      14.876  29.110  30.325  1.00  0.00     0.010 C 
ATOM      4  C   UNL     1      16.313  29.618  30.601  1.00  0.00    -0.003 C 
ATOM      5  C   UNL     1      17.081  28.796  29.559  1.00  0.00     0.008 C 
ATOM      6  C   UNL     1      18.611  29.024  29.515  1.00  0.00    -0.000 C 
ATOM      7  C   UNL     1      19.443  28.160  30.468  1.00  0.00     0.005 C 
ATOM      8  C   UNL     1      20.887  28.637  30.445  1.00  0.00     0.005 C 
ATOM      9  C   UNL     1      21.013  29.999  31.158  1.00  0.00     0.002 C 
ATOM     10  C   UNL     1      22.534  30.347  31.616  1.00  0.00    -0.026 C 
ATOM     11  C   UNL     1      23.672  29.753  30.681  1.00  0.00     0.010 C 
ATOM     12  C   UNL     1      24.416  30.769  29.797  1.00  0.00     0.033 C 
ATOM     13  C   UNL     1      25.078  31.935  30.569  1.00  0.00     0.120 C 
ATOM     14  C   UNL     1      24.341  32.313  31.907  1.00  0.00    -0.006 C 
ATOM     15  C   UNL     1      22.800  31.906  31.820  1.00  0.00     0.003 C 
ATOM     16  C   UNL     1      22.077  32.816  30.773  1.00  0.00     0.005 C 
ATOM     17  C   UNL     1      21.082  32.143  29.835  1.00  0.00     0.008 C 
ATOM     18  C   UNL     1      20.121  31.133  30.496  1.00  0.00    -0.024 C 
ATOM     19  C   UNL     1      19.010  30.581  29.394  1.00  0.00    -0.024 C 
ATOM     20  C   UNL     1      17.694  31.482  29.351  1.00  0.00     0.008 C 
ATOM     21  C   UNL     1      16.523  31.141  30.326  1.00  0.00     0.010 C 
ATOM     22  C   UNL     1      19.579  30.722  27.930  1.00  0.00     0.012 C 
ATOM     23  C   UNL     1      19.425  31.923  31.660  1.00  0.00     0.012 C 
ATOM     24  C   UNL     1      25.053  31.656  33.125  1.00  0.00     0.014 C 
ATOM     25  C   UNL     1      24.481  33.848  32.158  1.00  0.00     0.014 C 
ATOM     26  C   UNL     1      22.666  29.618  33.006  1.00  0.00     0.012 C 
ENDROOT
BRANCH   1  27
ATOM     27  C   UNL     1      16.728  26.501  28.412  1.00  0.00    -0.077 C 
ATOM     28  C   UNL     1      17.941  26.666  27.524  1.00  0.00     0.039 C 
ATOM     29  C   UNL     1      15.817  25.560  28.100  1.00  0.00     0.008 C 
ENDBRANCH   1  27
BRANCH   4  30
ATOM     30  C   UNL     1      16.653  29.272  32.085  1.00  0.00     0.163 C 
BRANCH  30  31
ATOM     31  O   UNL     1      16.474  30.403  32.902  1.00  0.00    -0.396 OA
ATOM     32  H   UNL     1      16.367  30.075  33.837  1.00  0.00     0.210 HD
ENDBRANCH  30  31
ENDBRANCH   4  30
BRANCH  13  33
ATOM     33  O   UNL     1      26.434  31.628  30.792  1.00  0.00    -0.393 OA
ATOM     34  H   UNL     1      26.793  31.258  29.941  1.00  0.00     0.210 HD
ENDBRANCH  13  33
TORSDOF 4
ENDMDL
MODEL 2
REMARK VINA RESULT:    -4.784      2.045      7.709
REMARK INTER + INTRA:          -5.856
REMARK INTER:                  -6.128
REMARK INTRA:                   0.272
REMARK UNBOUND:                -0.233
REMARK SMILES C=C(C)[C@@H]1CC[C@]2(CO)CC[C@]3(C)[C@@H](CC[C@H]4[C@@]5(C)CC[C@H](O)C(C)(C)[C@H]5CC[C@]43C)[C@@H]12
REMARK SMILES IDX 4 1 5 2 6 3 7 4 32 5 14 6 15 7 16 8 17 9 18 10 20 11 21 12
REMARK SMILES IDX 22 13 24 14 27 15 28 16 29 17 30 18 12 19 11 20 10 21 13 22
REMARK SMILES IDX 31 23 25 24 26 25 19 26 2 27 3 28 1 29 8 30 9 31 23 33
REMARK H PARENT 9 32 23 34
REMARK Flexibility Score: inf
ROOT
ATOM      1  C   UNL     1      25.278  31.764  30.038  1.00  0.00     0.018 C 
ATOM      2  C   UNL     1      26.200  32.972  30.292  1.00  0.00     0.009 C 
ATOM      3  C   UNL     1      25.419  33.948  31.207  1.00  0.00     0.010 C 
ATOM      4  C   UNL     1      23.944  33.479  31.167  1.00  0.00    -0.003 C 
ATOM      5  C   UNL     1      24.158  31.963  31.072  1.00  0.00     0.008 C 
ATOM      6  C   UNL     1      22.872  31.104  31.008  1.00  0.00    -0.000 C 
ATOM      7  C   UNL     1      22.293  30.874  29.608  1.00  0.00     0.005 C 
ATOM      8  C   UNL     1      20.942  30.187  29.732  1.00  0.00     0.005 C 
ATOM      9  C   UNL     1      19.890  31.169  30.288  1.00  0.00     0.002 C 
ATOM     10  C   UNL     1      18.359  30.704  29.997  1.00  0.00    -0.026 C 
ATOM     11  C   UNL     1      18.131  29.133  29.942  1.00  0.00     0.010 C 
ATOM     12  C   UNL     1      17.385  28.519  31.139  1.00  0.00     0.033 C 
ATOM     13  C   UNL     1      15.991  29.133  31.416  1.00  0.00     0.120 C 
ATOM     14  C   UNL     1      15.861  30.640  30.983  1.00  0.00    -0.006 C 
ATOM     15  C   UNL     1      17.295  31.342  30.998  1.00  0.00     0.003 C 
ATOM     16  C   UNL     1      17.803  31.462  32.473  1.00  0.00     0.005 C 
ATOM     17  C   UNL     1      19.272  31.147  32.731  1.00  0.00     0.008 C 
ATOM     18  C   UNL     1      20.270  31.746  31.717  1.00  0.00    -0.024 C 
ATOM     19  C   UNL     1      21.831  31.442  32.190  1.00  0.00    -0.024 C 
ATOM     20  C   UNL     1      22.419  32.593  33.125  1.00  0.00     0.008 C 
ATOM     21  C   UNL     1      23.125  33.814  32.454  1.00  0.00     0.010 C 
ATOM     22  C   UNL     1      21.881  30.173  33.124  1.00  0.00     0.012 C 
ATOM     23  C   UNL     1      19.969  33.286  31.698  1.00  0.00     0.012 C 
ATOM     24  C   UNL     1      15.170  30.749  29.593  1.00  0.00     0.014 C 
ATOM     25  C   UNL     1      14.889  31.376  31.958  1.00  0.00     0.014 C 
ATOM     26  C   UNL     1      18.088  31.249  28.544  1.00  0.00     0.012 C 
ENDROOT
BRANCH   1  27
ATOM     27  C   UNL     1      26.019  30.431  30.127  1.00  0.00    -0.077 C 
ATOM     28  C   UNL     1      26.433  29.664  28.891  1.00  0.00     0.039 C 
ATOM     29  C   UNL     1      26.314  29.922  31.338  1.00  0.00     0.008 C 
ENDBRANCH   1  27
BRANCH   4  30
ATOM     30  C   UNL     1      23.283  34.125  29.908  1.00  0.00     0.163 C 
BRANCH  30  31
ATOM     31  O   UNL     1      21.882  34.116  30.035  1.00  0.00    -0.396 OA
ATOM     32  H   UNL     1      21.643  33.321  30.585  1.00  0.00     0.210 HD
ENDBRANCH  30  31
ENDBRANCH   4  30
BRANCH  13  33
ATOM     33  O   UNL     1      15.006  28.331  30.809  1.00  0.00    -0.393 OA
ATOM     34  H   UNL     1      14.220  28.916  30.636  1.00  0.00     0.210 HD
ENDBRANCH  13  33
TORSDOF 4
ENDMDL
MODEL 3
REMARK VINA RESULT:    -4.454      1.872      4.117
REMARK INTER + INTRA:          -5.468
REMARK INTER:                  -4.900
REMARK INTRA:                  -0.569
REMARK UNBOUND:                -0.233
REMARK SMILES C=C(C)[C@@H]1CC[C@]2(CO)CC[C@]3(C)[C@@H](CC[C@H]4[C@@]5(C)CC[C@H](O)C(C)(C)[C@H]5CC[C@]43C)[C@@H]12
REMARK SMILES IDX 4 1 5 2 6 3 7 4 32 5 14 6 15 7 16 8 17 9 18 10 20 11 21 12
REMARK SMILES IDX 22 13 24 14 27 15 28 16 29 17 30 18 12 19 11 20 10 21 13 22
REMARK SMILES IDX 31 23 25 24 26 25 19 26 2 27 3 28 1 29 8 30 9 31 23 33
REMARK H PARENT 9 32 23 34
REMARK Flexibility Score: inf
ROOT
ATOM      1  C   UNL     1      17.399  29.780  30.791  1.00  0.00     0.018 C 
ATOM      2  C   UNL     1      16.655  28.777  29.888  1.00  0.00     0.009 C 
ATOM      3  C   UNL     1      17.734  27.898  29.209  1.00  0.00     0.010 C 
ATOM      4  C   UNL     1      19.080  28.632  29.430  1.00  0.00    -0.003 C 
ATOM      5  C   UNL     1      18.829  29.215  30.826  1.00  0.00     0.008 C 
ATOM      6  C   UNL     1      19.985  30.052  31.425  1.00  0.00    -0.000 C 
ATOM      7  C   UNL     1      19.991  31.539  31.059  1.00  0.00     0.005 C 
ATOM      8  C   UNL     1      21.281  32.172  31.557  1.00  0.00     0.005 C 
ATOM      9  C   UNL     1      22.476  31.694  30.707  1.00  0.00     0.002 C 
ATOM     10  C   UNL     1      23.779  32.661  30.828  1.00  0.00    -0.026 C 
ATOM     11  C   UNL     1      23.951  33.387  32.230  1.00  0.00     0.010 C 
ATOM     12  C   UNL     1      25.087  32.861  33.125  1.00  0.00     0.033 C 
ATOM     13  C   UNL     1      26.489  32.883  32.469  1.00  0.00     0.120 C 
ATOM     14  C   UNL     1      26.463  32.724  30.904  1.00  0.00    -0.006 C 
ATOM     15  C   UNL     1      25.149  31.937  30.453  1.00  0.00     0.003 C 
ATOM     16  C   UNL     1      25.236  30.452  30.936  1.00  0.00     0.005 C 
ATOM     17  C   UNL     1      23.970  29.833  31.516  1.00  0.00     0.008 C 
ATOM     18  C   UNL     1      22.670  30.119  30.735  1.00  0.00    -0.024 C 
ATOM     19  C   UNL     1      21.400  29.280  31.394  1.00  0.00    -0.024 C 
ATOM     20  C   UNL     1      21.221  27.835  30.743  1.00  0.00     0.008 C 
ATOM     21  C   UNL     1      20.328  27.693  29.470  1.00  0.00     0.010 C 
ATOM     22  C   UNL     1      21.692  28.948  32.908  1.00  0.00     0.012 C 
ATOM     23  C   UNL     1      22.959  29.655  29.264  1.00  0.00     0.012 C 
ATOM     24  C   UNL     1      26.580  34.114  30.214  1.00  0.00     0.014 C 
ATOM     25  C   UNL     1      27.740  31.953  30.441  1.00  0.00     0.014 C 
ATOM     26  C   UNL     1      23.488  33.790  29.769  1.00  0.00     0.012 C 
ENDROOT
BRANCH   1  27
ATOM     27  C   UNL     1      16.732  29.950  32.155  1.00  0.00    -0.077 C 
ATOM     28  C   UNL     1      16.463  31.316  32.746  1.00  0.00     0.039 C 
ATOM     29  C   UNL     1      16.371  28.857  32.852  1.00  0.00     0.008 C 
ENDBRANCH   1  27
BRANCH   4  30
ATOM     30  C   UNL     1      19.224  29.695  28.295  1.00  0.00     0.163 C 
BRANCH  30  31
ATOM     31  O   UNL     1      18.849  29.139  27.057  1.00  0.00    -0.396 OA
ATOM     32  H   UNL     1      19.167  29.764  26.349  1.00  0.00     0.210 HD
ENDBRANCH  30  31
ENDBRANCH   4  30
BRANCH  13  33
ATOM     33  O   UNL     1      27.163  34.054  32.861  1.00  0.00    -0.393 OA
ATOM     34  H   UNL     1      27.810  33.795  33.571  1.00  0.00     0.210 HD
ENDBRANCH  13  33
TORSDOF 4
ENDMDL
MODEL 4
REMARK VINA RESULT:    -4.122      1.166      1.471
REMARK INTER + INTRA:          -5.079
REMARK INTER:                  -4.927
REMARK INTRA:                  -0.152
REMARK UNBOUND:                -0.233
REMARK SMILES C=C(C)[C@@H]1CC[C@]2(CO)CC[C@]3(C)[C@@H](CC[C@H]4[C@@]5(C)CC[C@H](O)C(C)(C)[C@H]5CC[C@]43C)[C@@H]12
REMARK SMILES IDX 4 1 5 2 6 3 7 4 32 5 14 6 15 7 16 8 17 9 18 10 20 11 21 12
REMARK SMILES IDX 22 13 24 14 27 15 28 16 29 17 30 18 12 19 11 20 10 21 13 22
REMARK SMILES IDX 31 23 25 24 26 25 19 26 2 27 3 28 1 29 8 30 9 31 23 33
REMARK H PARENT 9 32 23 34
REMARK Flexibility Score: inf
ROOT
ATOM      1  C   UNL     1      16.883  25.938  29.014  1.00  0.00     0.018 C 
ATOM      2  C   UNL     1      15.365  25.829  29.257  1.00  0.00     0.009 C 
ATOM      3  C   UNL     1      14.881  27.228  29.712  1.00  0.00     0.010 C 
ATOM      4  C   UNL     1      16.160  28.020  30.082  1.00  0.00    -0.003 C 
ATOM      5  C   UNL     1      17.125  27.457  29.032  1.00  0.00     0.008 C 
ATOM      6  C   UNL     1      18.567  28.018  29.071  1.00  0.00    -0.000 C 
ATOM      7  C   UNL     1      19.538  27.296  30.011  1.00  0.00     0.005 C 
ATOM      8  C   UNL     1      20.840  28.078  30.082  1.00  0.00     0.005 C 
ATOM      9  C   UNL     1      20.638  29.385  30.876  1.00  0.00     0.002 C 
ATOM     10  C   UNL     1      22.028  30.027  31.423  1.00  0.00    -0.026 C 
ATOM     11  C   UNL     1      23.299  29.760  30.510  1.00  0.00     0.010 C 
ATOM     12  C   UNL     1      23.828  30.970  29.720  1.00  0.00     0.033 C 
ATOM     13  C   UNL     1      24.190  32.199  30.588  1.00  0.00     0.120 C 
ATOM     14  C   UNL     1      23.344  32.318  31.909  1.00  0.00    -0.006 C 
ATOM     15  C   UNL     1      21.935  31.590  31.728  1.00  0.00     0.003 C 
ATOM     16  C   UNL     1      21.063  32.386  30.703  1.00  0.00     0.005 C 
ATOM     17  C   UNL     1      20.273  31.575  29.682  1.00  0.00     0.008 C 
ATOM     18  C   UNL     1      19.538  30.337  30.240  1.00  0.00    -0.024 C 
ATOM     19  C   UNL     1      18.614  29.628  29.058  1.00  0.00    -0.024 C 
ATOM     20  C   UNL     1      17.134  30.219  29.006  1.00  0.00     0.008 C 
ATOM     21  C   UNL     1      16.036  29.567  29.904  1.00  0.00     0.010 C 
ATOM     22  C   UNL     1      19.185  29.987  27.632  1.00  0.00     0.012 C 
ATOM     23  C   UNL     1      18.647  30.877  31.413  1.00  0.00     0.012 C 
ATOM     24  C   UNL     1      24.144  31.754  33.119  1.00  0.00     0.014 C 
ATOM     25  C   UNL     1      23.132  33.826  32.254  1.00  0.00     0.014 C 
ATOM     26  C   UNL     1      22.273  29.255  32.774  1.00  0.00     0.012 C 
ENDROOT
BRANCH   1  27
ATOM     27  C   UNL     1      17.327  25.221  27.740  1.00  0.00    -0.077 C 
ATOM     28  C   UNL     1      16.352  24.452  26.877  1.00  0.00     0.039 C 
ATOM     29  C   UNL     1      18.621  25.275  27.371  1.00  0.00     0.008 C 
ENDBRANCH   1  27
BRANCH   4  30
ATOM     30  C   UNL     1      16.520  27.660  31.558  1.00  0.00     0.163 C 
BRANCH  30  31
ATOM     31  O   UNL     1      15.352  27.578  32.338  1.00  0.00    -0.396 OA
ATOM     32  H   UNL     1      15.430  28.265  33.055  1.00  0.00     0.210 HD
ENDBRANCH  30  31
ENDBRANCH   4  30
BRANCH  13  33
ATOM     33  O   UNL     1      25.571  32.184  30.855  1.00  0.00    -0.393 OA
ATOM     34  H   UNL     1      25.826  31.236  31.020  1.00  0.00     0.210 HD
ENDBRANCH  13  33
TORSDOF 4
ENDMDL
MODEL 5
REMARK VINA RESULT:    -3.588      2.152      7.628
REMARK INTER + INTRA:          -4.450
REMARK INTER:                  -3.923
REMARK INTRA:                  -0.527
REMARK UNBOUND:                -0.233
REMARK SMILES C=C(C)[C@@H]1CC[C@]2(CO)CC[C@]3(C)[C@@H](CC[C@H]4[C@@]5(C)CC[C@H](O)C(C)(C)[C@H]5CC[C@]43C)[C@@H]12
REMARK SMILES IDX 4 1 5 2 6 3 7 4 32 5 14 6 15 7 16 8 17 9 18 10 20 11 21 12
REMARK SMILES IDX 22 13 24 14 27 15 28 16 29 17 30 18 12 19 11 20 10 21 13 22
REMARK SMILES IDX 31 23 25 24 26 25 19 26 2 27 3 28 1 29 8 30 9 31 23 33
REMARK H PARENT 9 32 23 34
REMARK Flexibility Score: inf
ROOT
ATOM      1  C   UNL     1      24.177  32.114  30.223  1.00  0.00     0.018 C 
ATOM      2  C   UNL     1      24.380  33.603  30.563  1.00  0.00     0.009 C 
ATOM      3  C   UNL     1      23.035  34.123  31.127  1.00  0.00     0.010 C 
ATOM      4  C   UNL     1      21.979  33.050  30.764  1.00  0.00    -0.003 C 
ATOM      5  C   UNL     1      22.837  31.787  30.904  1.00  0.00     0.008 C 
ATOM      6  C   UNL     1      22.119  30.448  30.611  1.00  0.00    -0.000 C 
ATOM      7  C   UNL     1      22.114  30.000  29.147  1.00  0.00     0.005 C 
ATOM      8  C   UNL     1      21.212  28.784  28.998  1.00  0.00     0.005 C 
ATOM      9  C   UNL     1      19.733  29.193  29.146  1.00  0.00     0.002 C 
ATOM     10  C   UNL     1      18.699  28.101  28.527  1.00  0.00    -0.026 C 
ATOM     11  C   UNL     1      19.189  26.592  28.598  1.00  0.00     0.010 C 
ATOM     12  C   UNL     1      18.473  25.699  29.626  1.00  0.00     0.033 C 
ATOM     13  C   UNL     1      16.936  25.629  29.462  1.00  0.00     0.120 C 
ATOM     14  C   UNL     1      16.302  26.927  28.838  1.00  0.00    -0.006 C 
ATOM     15  C   UNL     1      17.229  28.192  29.139  1.00  0.00     0.003 C 
ATOM     16  C   UNL     1      17.198  28.510  30.671  1.00  0.00     0.005 C 
ATOM     17  C   UNL     1      18.521  28.875  31.333  1.00  0.00     0.008 C 
ATOM     18  C   UNL     1      19.409  29.864  30.547  1.00  0.00    -0.024 C 
ATOM     19  C   UNL     1      20.746  30.278  31.438  1.00  0.00    -0.024 C 
ATOM     20  C   UNL     1      20.495  31.561  32.352  1.00  0.00     0.008 C 
ATOM     21  C   UNL     1      20.770  32.975  31.749  1.00  0.00     0.010 C 
ATOM     22  C   UNL     1      21.068  29.152  32.495  1.00  0.00     0.012 C 
ATOM     23  C   UNL     1      18.498  31.111  30.272  1.00  0.00     0.012 C 
ATOM     24  C   UNL     1      16.054  26.734  27.314  1.00  0.00     0.014 C 
ATOM     25  C   UNL     1      14.877  27.148  29.438  1.00  0.00     0.014 C 
ATOM     26  C   UNL     1      18.642  28.484  27.000  1.00  0.00     0.012 C 
ENDROOT
BRANCH   1  27
ATOM     27  C   UNL     1      25.357  31.246  30.655  1.00  0.00    -0.077 C 
ATOM     28  C   UNL     1      25.494  30.732  32.071  1.00  0.00     0.039 C 
ATOM     29  C   UNL     1      26.304  30.927  29.752  1.00  0.00     0.008 C 
ENDBRANCH   1  27
BRANCH   4  30
ATOM     30  C   UNL     1      21.491  33.349  29.311  1.00  0.00     0.163 C 
BRANCH  30  31
ATOM     31  O   UNL     1      20.159  33.804  29.328  1.00  0.00    -0.396 OA
ATOM     32  H   UNL     1      19.613  33.092  29.763  1.00  0.00     0.210 HD
ENDBRANCH  30  31
ENDBRANCH   4  30
BRANCH  13  33
ATOM     33  O   UNL     1      16.603  24.481  28.719  1.00  0.00    -0.393 OA
ATOM     34  H   UNL     1      16.668  24.727  27.757  1.00  0.00     0.210 HD
ENDBRANCH  13  33
TORSDOF 4
ENDMDL
MODEL 6
REMARK VINA RESULT:    -2.936      2.447      4.576
REMARK INTER + INTRA:          -3.685
REMARK INTER:                  -3.408
REMARK INTRA:                  -0.276
REMARK UNBOUND:                -0.233
REMARK SMILES C=C(C)[C@@H]1CC[C@]2(CO)CC[C@]3(C)[C@@H](CC[C@H]4[C@@]5(C)CC[C@H](O)C(C)(C)[C@H]5CC[C@]43C)[C@@H]12
REMARK SMILES IDX 4 1 5 2 6 3 7 4 32 5 14 6 15 7 16 8 17 9 18 10 20 11 21 12
REMARK SMILES IDX 22 13 24 14 27 15 28 16 29 17 30 18 12 19 11 20 10 21 13 22
REMARK SMILES IDX 31 23 25 24 26 25 19 26 2 27 3 28 1 29 8 30 9 31 23 33
REMARK H PARENT 9 32 23 34
REMARK Flexibility Score: inf
ROOT
ATOM      1  C   UNL     1      16.024  23.838  28.145  1.00  0.00     0.018 C 
ATOM      2  C   UNL     1      15.278  22.686  28.846  1.00  0.00     0.009 C 
ATOM      3  C   UNL     1      14.875  23.200  30.250  1.00  0.00     0.010 C 
ATOM      4  C   UNL     1      15.703  24.488  30.484  1.00  0.00    -0.003 C 
ATOM      5  C   UNL     1      15.727  25.042  29.054  1.00  0.00     0.008 C 
ATOM      6  C   UNL     1      16.490  26.374  28.861  1.00  0.00    -0.000 C 
ATOM      7  C   UNL     1      17.992  26.249  28.588  1.00  0.00     0.005 C 
ATOM      8  C   UNL     1      18.623  27.632  28.617  1.00  0.00     0.005 C 
ATOM      9  C   UNL     1      18.669  28.171  30.061  1.00  0.00     0.002 C 
ATOM     10  C   UNL     1      19.739  29.379  30.264  1.00  0.00    -0.026 C 
ATOM     11  C   UNL     1      19.964  30.301  28.991  1.00  0.00     0.010 C 
ATOM     12  C   UNL     1      19.362  31.715  29.068  1.00  0.00     0.033 C 
ATOM     13  C   UNL     1      19.838  32.554  30.279  1.00  0.00     0.120 C 
ATOM     14  C   UNL     1      20.218  31.694  31.540  1.00  0.00    -0.006 C 
ATOM     15  C   UNL     1      19.424  30.308  31.521  1.00  0.00     0.003 C 
ATOM     16  C   UNL     1      17.900  30.575  31.748  1.00  0.00     0.005 C 
ATOM     17  C   UNL     1      16.919  29.786  30.889  1.00  0.00     0.008 C 
ATOM     18  C   UNL     1      17.233  28.283  30.730  1.00  0.00    -0.024 C 
ATOM     19  C   UNL     1      16.021  27.522  29.890  1.00  0.00    -0.024 C 
ATOM     20  C   UNL     1      14.875  26.962  30.849  1.00  0.00     0.008 C 
ATOM     21  C   UNL     1      15.028  25.524  31.437  1.00  0.00     0.010 C 
ATOM     22  C   UNL     1      15.249  28.559  28.988  1.00  0.00     0.012 C 
ATOM     23  C   UNL     1      17.351  27.726  32.192  1.00  0.00     0.012 C 
ATOM     24  C   UNL     1      21.758  31.485  31.613  1.00  0.00     0.014 C 
ATOM     25  C   UNL     1      19.874  32.494  32.836  1.00  0.00     0.014 C 
ATOM     26  C   UNL     1      21.095  28.619  30.514  1.00  0.00     0.012 C 
ENDROOT
BRANCH   1  27
ATOM     27  C   UNL     1      15.607  24.005  26.685  1.00  0.00    -0.077 C 
ATOM     28  C   UNL     1      15.822  22.910  25.664  1.00  0.00     0.039 C 
ATOM     29  C   UNL     1      15.030  25.156  26.292  1.00  0.00     0.008 C 
ENDBRANCH   1  27
BRANCH   4  30
ATOM     30  C   UNL     1      17.096  24.052  31.039  1.00  0.00     0.163 C 
BRANCH  30  31
ATOM     31  O   UNL     1      16.947  22.993  31.952  1.00  0.00    -0.396 OA
ATOM     32  H   UNL     1      16.873  22.154  31.418  1.00  0.00     0.210 HD
ENDBRANCH  30  31
ENDBRANCH   4  30
BRANCH  13  33
ATOM     33  O   UNL     1      20.901  33.382  29.876  1.00  0.00    -0.393 OA
ATOM     34  H   UNL     1      21.566  33.386  30.617  1.00  0.00     0.210 HD
ENDBRANCH  13  33
TORSDOF 4
ENDMDL
