MODEL 1
REMARK VINA RESULT:    -4.325      0.000      0.000
REMARK INTER + INTRA:          -4.672
REMARK INTER:                  -4.578
REMARK INTRA:                  -0.094
REMARK UNBOUND:                -0.094
REMARK SMILES C=C(C)[C@H]1CC=C(C)C(=O)C1
REMARK SMILES IDX 8 1 7 2 6 3 5 4 4 5 11 6 9 7 10 8 2 9 1 10 3 11
REMARK H PARENT
REMARK Flexibility Score: inf
ROOT
ATOM      1  C   UNL     1     128.135 144.153 115.366  1.00  0.00     0.048 C 
ATOM      2  C   UNL     1     129.027 142.945 115.446  1.00  0.00    -0.012 C 
ATOM      3  C   UNL     1     128.526 141.718 115.219  1.00  0.00    -0.019 C 
ATOM      4  C   UNL     1     129.361 140.474 115.367  1.00  0.00     0.036 C 
ATOM      5  C   UNL     1     130.841 140.755 115.044  1.00  0.00     0.025 C 
ATOM      6  C   UNL     1     131.367 141.915 115.908  1.00  0.00     0.089 C 
ATOM      7  C   UNL     1     130.459 143.110 115.801  1.00  0.00     0.158 C 
ATOM      8  O   UNL     1     130.917 144.254 116.062  1.00  0.00    -0.295 OA
ENDROOT
BRANCH   5   9
ATOM      9  C   UNL     1     131.695 139.506 115.211  1.00  0.00    -0.077 C 
ATOM     10  C   UNL     1     131.358 138.370 114.580  1.00  0.00     0.008 C 
ATOM     11  C   UNL     1     132.931 139.508 116.077  1.00  0.00     0.039 C 
ENDBRANCH   5   9
TORSDOF 1
ENDMDL
MODEL 2
REMARK VINA RESULT:    -4.242     14.807     16.754
REMARK INTER + INTRA:          -4.584
REMARK INTER:                  -4.497
REMARK INTRA:                  -0.087
REMARK UNBOUND:                -0.094
REMARK SMILES C=C(C)[C@H]1CC=C(C)C(=O)C1
REMARK SMILES IDX 8 1 7 2 6 3 5 4 4 5 11 6 9 7 10 8 2 9 1 10 3 11
REMARK H PARENT
REMARK Flexibility Score: inf
ROOT
ATOM      1  C   UNL     1     145.750 133.482 122.341  1.00  0.00     0.048 C 
ATOM      2  C   UNL     1     144.310 133.743 122.686  1.00  0.00    -0.012 C 
ATOM      3  C   UNL     1     143.478 134.262 121.767  1.00  0.00    -0.019 C 
ATOM      4  C   UNL     1     142.051 134.616 122.090  1.00  0.00     0.036 C 
ATOM      5  C   UNL     1     141.482 133.693 123.185  1.00  0.00     0.025 C 
ATOM      6  C   UNL     1     142.386 133.720 124.431  1.00  0.00     0.089 C 
ATOM      7  C   UNL     1     143.816 133.448 124.055  1.00  0.00     0.158 C 
ATOM      8  O   UNL     1     144.608 133.007 124.930  1.00  0.00    -0.295 OA
ENDROOT
BRANCH   5   9
ATOM      9  C   UNL     1     140.045 134.058 123.532  1.00  0.00    -0.077 C 
ATOM     10  C   UNL     1     139.030 133.317 123.061  1.00  0.00     0.008 C 
ATOM     11  C   UNL     1     139.725 135.246 124.404  1.00  0.00     0.039 C 
ENDBRANCH   5   9
TORSDOF 1
ENDMDL
MODEL 3
REMARK VINA RESULT:    -4.176     11.770     14.420
REMARK INTER + INTRA:          -4.513
REMARK INTER:                  -4.415
REMARK INTRA:                  -0.098
REMARK UNBOUND:                -0.094
REMARK SMILES C=C(C)[C@H]1CC=C(C)C(=O)C1
REMARK SMILES IDX 8 1 7 2 6 3 5 4 4 5 11 6 9 7 10 8 2 9 1 10 3 11
REMARK H PARENT
REMARK Flexibility Score: inf
ROOT
ATOM      1  C   UNL     1     137.534 134.873 121.371  1.00  0.00     0.048 C 
ATOM      2  C   UNL     1     138.954 134.731 121.845  1.00  0.00    -0.012 C 
ATOM      3  C   UNL     1     139.259 133.850 122.813  1.00  0.00    -0.019 C 
ATOM      4  C   UNL     1     140.650 133.730 123.376  1.00  0.00     0.036 C 
ATOM      5  C   UNL     1     141.711 134.082 122.317  1.00  0.00     0.025 C 
ATOM      6  C   UNL     1     141.439 135.478 121.728  1.00  0.00     0.089 C 
ATOM      7  C   UNL     1     140.015 135.586 121.256  1.00  0.00     0.158 C 
ATOM      8  O   UNL     1     139.722 136.446 120.383  1.00  0.00    -0.295 OA
ENDROOT
BRANCH   5   9
ATOM      9  C   UNL     1     143.121 133.982 122.885  1.00  0.00    -0.077 C 
ATOM     10  C   UNL     1     143.306 133.868 124.209  1.00  0.00     0.008 C 
ATOM     11  C   UNL     1     144.334 134.006 121.988  1.00  0.00     0.039 C 
ENDBRANCH   5   9
TORSDOF 1
ENDMDL
MODEL 4
REMARK VINA RESULT:    -4.139      2.497      4.609
REMARK INTER + INTRA:          -4.475
REMARK INTER:                  -4.377
REMARK INTRA:                  -0.098
REMARK UNBOUND:                -0.094
REMARK SMILES C=C(C)[C@H]1CC=C(C)C(=O)C1
REMARK SMILES IDX 8 1 7 2 6 3 5 4 4 5 11 6 9 7 10 8 2 9 1 10 3 11
REMARK H PARENT
REMARK Flexibility Score: inf
ROOT
ATOM      1  C   UNL     1     128.896 136.413 113.884  1.00  0.00     0.048 C 
ATOM      2  C   UNL     1     129.476 137.672 114.469  1.00  0.00    -0.012 C 
ATOM      3  C   UNL     1     130.808 137.854 114.495  1.00  0.00    -0.019 C 
ATOM      4  C   UNL     1     131.437 139.059 115.142  1.00  0.00     0.036 C 
ATOM      5  C   UNL     1     130.511 140.286 115.053  1.00  0.00     0.025 C 
ATOM      6  C   UNL     1     129.130 139.959 115.649  1.00  0.00     0.089 C 
ATOM      7  C   UNL     1     128.573 138.702 115.040  1.00  0.00     0.158 C 
ATOM      8  O   UNL     1     127.328 138.509 115.059  1.00  0.00    -0.295 OA
ENDROOT
BRANCH   5   9
ATOM      9  C   UNL     1     131.132 141.503 115.724  1.00  0.00    -0.077 C 
ATOM     10  C   UNL     1     132.172 141.354 116.560  1.00  0.00     0.008 C 
ATOM     11  C   UNL     1     130.606 142.895 115.471  1.00  0.00     0.039 C 
ENDBRANCH   5   9
TORSDOF 1
ENDMDL
MODEL 5
REMARK VINA RESULT:    -4.122      1.675      2.454
REMARK INTER + INTRA:          -4.457
REMARK INTER:                  -4.362
REMARK INTRA:                  -0.095
REMARK UNBOUND:                -0.094
REMARK SMILES C=C(C)[C@H]1CC=C(C)C(=O)C1
REMARK SMILES IDX 8 1 7 2 6 3 5 4 4 5 11 6 9 7 10 8 2 9 1 10 3 11
REMARK H PARENT
REMARK Flexibility Score: inf
ROOT
ATOM      1  C   UNL     1     128.005 144.285 115.430  1.00  0.00     0.048 C 
ATOM      2  C   UNL     1     128.754 142.991 115.265  1.00  0.00    -0.012 C 
ATOM      3  C   UNL     1     130.097 142.992 115.192  1.00  0.00    -0.019 C 
ATOM      4  C   UNL     1     130.885 141.733 114.946  1.00  0.00     0.036 C 
ATOM      5  C   UNL     1     130.163 140.503 115.527  1.00  0.00     0.025 C 
ATOM      6  C   UNL     1     128.730 140.410 114.973  1.00  0.00     0.089 C 
ATOM      7  C   UNL     1     128.004 141.715 115.159  1.00  0.00     0.158 C 
ATOM      8  O   UNL     1     126.744 141.719 115.179  1.00  0.00    -0.295 OA
ENDROOT
BRANCH   5   9
ATOM      9  C   UNL     1     130.944 139.222 115.265  1.00  0.00    -0.077 C 
ATOM     10  C   UNL     1     132.276 139.201 115.427  1.00  0.00     0.008 C 
ATOM     11  C   UNL     1     130.253 137.955 114.825  1.00  0.00     0.039 C 
ENDBRANCH   5   9
TORSDOF 1
ENDMDL
MODEL 6
REMARK VINA RESULT:    -4.077     13.415     16.345
REMARK INTER + INTRA:          -4.410
REMARK INTER:                  -4.311
REMARK INTRA:                  -0.098
REMARK UNBOUND:                -0.094
REMARK SMILES C=C(C)[C@H]1CC=C(C)C(=O)C1
REMARK SMILES IDX 8 1 7 2 6 3 5 4 4 5 11 6 9 7 10 8 2 9 1 10 3 11
REMARK H PARENT
REMARK Flexibility Score: inf
ROOT
ATOM      1  C   UNL     1     145.452 133.759 124.216  1.00  0.00     0.048 C 
ATOM      2  C   UNL     1     144.037 133.763 123.706  1.00  0.00    -0.012 C 
ATOM      3  C   UNL     1     143.030 133.362 124.501  1.00  0.00    -0.019 C 
ATOM      4  C   UNL     1     141.610 133.272 124.009  1.00  0.00     0.036 C 
ATOM      5  C   UNL     1     141.333 134.318 122.913  1.00  0.00     0.025 C 
ATOM      6  C   UNL     1     142.356 134.181 121.771  1.00  0.00     0.089 C 
ATOM      7  C   UNL     1     143.759 134.188 122.311  1.00  0.00     0.158 C 
ATOM      8  O   UNL     1     144.708 134.517 121.550  1.00  0.00    -0.295 OA
ENDROOT
BRANCH   5   9
ATOM      9  C   UNL     1     139.905 134.219 122.396  1.00  0.00    -0.077 C 
ATOM     10  C   UNL     1     139.098 133.237 122.828  1.00  0.00     0.008 C 
ATOM     11  C   UNL     1     139.359 135.211 121.398  1.00  0.00     0.039 C 
ENDBRANCH   5   9
TORSDOF 1
ENDMDL
MODEL 7
REMARK VINA RESULT:    -4.055      2.217      3.984
REMARK INTER + INTRA:          -4.386
REMARK INTER:                  -4.291
REMARK INTRA:                  -0.094
REMARK UNBOUND:                -0.094
REMARK SMILES C=C(C)[C@H]1CC=C(C)C(=O)C1
REMARK SMILES IDX 8 1 7 2 6 3 5 4 4 5 11 6 9 7 10 8 2 9 1 10 3 11
REMARK H PARENT
REMARK Flexibility Score: inf
ROOT
ATOM      1  C   UNL     1     132.848 140.820 116.819  1.00  0.00     0.048 C 
ATOM      2  C   UNL     1     131.793 140.053 116.068  1.00  0.00    -0.012 C 
ATOM      3  C   UNL     1     132.132 138.978 115.337  1.00  0.00    -0.019 C 
ATOM      4  C   UNL     1     131.125 138.228 114.504  1.00  0.00     0.036 C 
ATOM      5  C   UNL     1     129.720 138.300 115.132  1.00  0.00     0.025 C 
ATOM      6  C   UNL     1     129.310 139.766 115.362  1.00  0.00     0.089 C 
ATOM      7  C   UNL     1     130.379 140.503 116.120  1.00  0.00     0.158 C 
ATOM      8  O   UNL     1     130.070 141.540 116.766  1.00  0.00    -0.295 OA
ENDROOT
BRANCH   5   9
ATOM      9  C   UNL     1     128.693 137.561 114.285  1.00  0.00    -0.077 C 
ATOM     10  C   UNL     1     128.934 136.305 113.879  1.00  0.00     0.008 C 
ATOM     11  C   UNL     1     127.390 138.209 113.886  1.00  0.00     0.039 C 
ENDBRANCH   5   9
TORSDOF 1
ENDMDL
MODEL 8
REMARK VINA RESULT:    -4.051     10.808     13.690
REMARK INTER + INTRA:          -4.381
REMARK INTER:                  -4.283
REMARK INTRA:                  -0.098
REMARK UNBOUND:                -0.094
REMARK SMILES C=C(C)[C@H]1CC=C(C)C(=O)C1
REMARK SMILES IDX 8 1 7 2 6 3 5 4 4 5 11 6 9 7 10 8 2 9 1 10 3 11
REMARK H PARENT
REMARK Flexibility Score: inf
ROOT
ATOM      1  C   UNL     1     141.949 133.446 124.128  1.00  0.00     0.048 C 
ATOM      2  C   UNL     1     140.922 133.961 123.157  1.00  0.00    -0.012 C 
ATOM      3  C   UNL     1     139.690 133.424 123.128  1.00  0.00    -0.019 C 
ATOM      4  C   UNL     1     138.656 133.850 122.120  1.00  0.00     0.036 C 
ATOM      5  C   UNL     1     138.843 135.326 121.720  1.00  0.00     0.025 C 
ATOM      6  C   UNL     1     140.279 135.567 121.219  1.00  0.00     0.089 C 
ATOM      7  C   UNL     1     141.282 135.050 122.213  1.00  0.00     0.158 C 
ATOM      8  O   UNL     1     142.451 135.519 122.207  1.00  0.00    -0.295 OA
ENDROOT
BRANCH   5   9
ATOM      9  C   UNL     1     137.813 135.759 120.686  1.00  0.00    -0.077 C 
ATOM     10  C   UNL     1     138.051 136.823 119.903  1.00  0.00     0.008 C 
ATOM     11  C   UNL     1     136.513 135.013 120.511  1.00  0.00     0.039 C 
ENDBRANCH   5   9
TORSDOF 1
ENDMDL
MODEL 9
REMARK VINA RESULT:    -3.974      1.910      4.668
REMARK INTER + INTRA:          -4.300
REMARK INTER:                  -4.203
REMARK INTRA:                  -0.097
REMARK UNBOUND:                -0.094
REMARK SMILES C=C(C)[C@H]1CC=C(C)C(=O)C1
REMARK SMILES IDX 8 1 7 2 6 3 5 4 4 5 11 6 9 7 10 8 2 9 1 10 3 11
REMARK H PARENT
REMARK Flexibility Score: inf
ROOT
ATOM      1  C   UNL     1     131.514 138.741 115.051  1.00  0.00     0.048 C 
ATOM      2  C   UNL     1     130.890 140.079 115.342  1.00  0.00    -0.012 C 
ATOM      3  C   UNL     1     131.666 141.142 115.614  1.00  0.00    -0.019 C 
ATOM      4  C   UNL     1     131.087 142.479 115.990  1.00  0.00     0.036 C 
ATOM      5  C   UNL     1     129.715 142.699 115.324  1.00  0.00     0.025 C 
ATOM      6  C   UNL     1     128.764 141.536 115.660  1.00  0.00     0.089 C 
ATOM      7  C   UNL     1     129.412 140.215 115.351  1.00  0.00     0.158 C 
ATOM      8  O   UNL     1     128.684 139.207 115.144  1.00  0.00    -0.295 OA
ENDROOT
BRANCH   5   9
ATOM      9  C   UNL     1     129.113 144.041 115.716  1.00  0.00    -0.077 C 
ATOM     10  C   UNL     1     127.822 144.301 115.458  1.00  0.00     0.008 C 
ATOM     11  C   UNL     1     129.938 145.103 116.400  1.00  0.00     0.039 C 
ENDBRANCH   5   9
TORSDOF 1
ENDMDL
