MODEL 1
REMARK VINA RESULT:    -5.287      0.000      0.000
REMARK INTER + INTRA:          -5.906
REMARK INTER:                  -5.596
REMARK INTRA:                  -0.310
REMARK UNBOUND:                -0.310
REMARK SMILES c1ccc(-c2ccccc2)cc1
REMARK SMILES IDX 1 1 2 2 3 3 4 4 11 5 12 6 5 7 6 8 10 9 7 10 9 11 8 12
REMARK H PARENT
REMARK Flexibility Score: inf
ROOT
ATOM      1  C   UNL     1      51.550 -15.498 133.406  1.00  0.00     0.000 A 
ATOM      2  C   UNL     1      52.629 -16.367 133.582  1.00  0.00     0.001 A 
ATOM      3  C   UNL     1      53.938 -15.901 133.424  1.00  0.00     0.009 A 
ATOM      4  C   UNL     1      54.181 -14.556 133.086  1.00  0.00    -0.018 A 
ATOM      5  C   UNL     1      53.084 -13.690 132.913  1.00  0.00     0.009 A 
ATOM      6  C   UNL     1      51.777 -14.162 133.072  1.00  0.00     0.001 A 
ENDROOT
BRANCH   4   7
ATOM      7  C   UNL     1      55.571 -14.058 132.918  1.00  0.00    -0.018 A 
ATOM      8  C   UNL     1      56.605 -14.535 133.745  1.00  0.00     0.009 A 
ATOM      9  C   UNL     1      55.876 -13.104 131.929  1.00  0.00     0.009 A 
ATOM     10  C   UNL     1      57.914 -14.066 133.585  1.00  0.00     0.001 A 
ATOM     11  C   UNL     1      57.184 -12.639 131.774  1.00  0.00     0.001 A 
ATOM     12  C   UNL     1      58.203 -13.118 132.600  1.00  0.00     0.000 A 
ENDBRANCH   4   7
TORSDOF 1
ENDMDL
MODEL 2
REMARK VINA RESULT:    -5.270      0.173      4.948
REMARK INTER + INTRA:          -5.888
REMARK INTER:                  -5.576
REMARK INTRA:                  -0.312
REMARK UNBOUND:                -0.310
REMARK SMILES c1ccc(-c2ccccc2)cc1
REMARK SMILES IDX 1 1 2 2 3 3 4 4 11 5 12 6 5 7 6 8 10 9 7 10 9 11 8 12
REMARK H PARENT
REMARK Flexibility Score: inf
ROOT
ATOM      1  C   UNL     1      58.101 -12.851 132.672  1.00  0.00     0.000 A 
ATOM      2  C   UNL     1      57.052 -12.381 131.879  1.00  0.00     0.001 A 
ATOM      3  C   UNL     1      55.770 -12.924 132.017  1.00  0.00     0.009 A 
ATOM      4  C   UNL     1      55.526 -13.948 132.952  1.00  0.00    -0.018 A 
ATOM      5  C   UNL     1      56.592 -14.411 133.746  1.00  0.00     0.009 A 
ATOM      6  C   UNL     1      57.871 -13.865 133.604  1.00  0.00     0.001 A 
ENDROOT
BRANCH   4   7
ATOM      7  C   UNL     1      54.165 -14.525 133.101  1.00  0.00    -0.018 A 
ATOM      8  C   UNL     1      53.997 -15.884 133.425  1.00  0.00     0.009 A 
ATOM      9  C   UNL     1      53.022 -13.722 132.922  1.00  0.00     0.009 A 
ATOM     10  C   UNL     1      52.715 -16.427 133.567  1.00  0.00     0.001 A 
ATOM     11  C   UNL     1      51.744 -14.269 133.064  1.00  0.00     0.001 A 
ATOM     12  C   UNL     1      51.589 -15.619 133.385  1.00  0.00     0.000 A 
ENDBRANCH   4   7
TORSDOF 1
ENDMDL
MODEL 3
REMARK VINA RESULT:    -5.267      1.745      5.741
REMARK INTER + INTRA:          -5.885
REMARK INTER:                  -5.571
REMARK INTRA:                  -0.314
REMARK UNBOUND:                -0.310
REMARK SMILES c1ccc(-c2ccccc2)cc1
REMARK SMILES IDX 1 1 2 2 3 3 4 4 11 5 12 6 5 7 6 8 10 9 7 10 9 11 8 12
REMARK H PARENT
REMARK Flexibility Score: inf
ROOT
ATOM      1  C   UNL     1      55.292 -12.930 133.455  1.00  0.00     0.000 A 
ATOM      2  C   UNL     1      54.158 -12.118 133.536  1.00  0.00     0.001 A 
ATOM      3  C   UNL     1      52.888 -12.668 133.339  1.00  0.00     0.009 A 
ATOM      4  C   UNL     1      52.739 -14.039 133.057  1.00  0.00    -0.018 A 
ATOM      5  C   UNL     1      53.890 -14.846 132.979  1.00  0.00     0.009 A 
ATOM      6  C   UNL     1      55.158 -14.291 133.178  1.00  0.00     0.001 A 
ENDROOT
BRANCH   4   7
ATOM      7  C   UNL     1      51.390 -14.625 132.847  1.00  0.00    -0.018 A 
ATOM      8  C   UNL     1      50.266 -14.084 133.500  1.00  0.00     0.009 A 
ATOM      9  C   UNL     1      51.213 -15.730 131.992  1.00  0.00     0.009 A 
ATOM     10  C   UNL     1      48.996 -14.636 133.300  1.00  0.00     0.001 A 
ATOM     11  C   UNL     1      49.942 -16.278 131.797  1.00  0.00     0.001 A 
ATOM     12  C   UNL     1      48.835 -15.733 132.450  1.00  0.00     0.000 A 
ENDBRANCH   4   7
TORSDOF 1
ENDMDL
MODEL 4
REMARK VINA RESULT:    -5.264      0.132      1.403
REMARK INTER + INTRA:          -5.882
REMARK INTER:                  -5.573
REMARK INTRA:                  -0.308
REMARK UNBOUND:                -0.310
REMARK SMILES c1ccc(-c2ccccc2)cc1
REMARK SMILES IDX 1 1 2 2 3 3 4 4 11 5 12 6 5 7 6 8 10 9 7 10 9 11 8 12
REMARK H PARENT
REMARK Flexibility Score: inf
ROOT
ATOM      1  C   UNL     1      51.560 -15.609 133.367  1.00  0.00     0.000 A 
ATOM      2  C   UNL     1      51.736 -14.247 133.117  1.00  0.00     0.001 A 
ATOM      3  C   UNL     1      53.024 -13.719 132.981  1.00  0.00     0.009 A 
ATOM      4  C   UNL     1      54.153 -14.553 133.096  1.00  0.00    -0.018 A 
ATOM      5  C   UNL     1      53.961 -15.925 133.347  1.00  0.00     0.009 A 
ATOM      6  C   UNL     1      52.671 -16.447 133.482  1.00  0.00     0.001 A 
ENDROOT
BRANCH   4   7
ATOM      7  C   UNL     1      55.522 -13.995 132.951  1.00  0.00    -0.018 A 
ATOM      8  C   UNL     1      56.570 -14.449 133.774  1.00  0.00     0.009 A 
ATOM      9  C   UNL     1      55.794 -13.005 131.987  1.00  0.00     0.009 A 
ATOM     10  C   UNL     1      57.859 -13.923 133.635  1.00  0.00     0.001 A 
ATOM     11  C   UNL     1      57.084 -12.483 131.853  1.00  0.00     0.001 A 
ATOM     12  C   UNL     1      58.115 -12.941 132.676  1.00  0.00     0.000 A 
ENDBRANCH   4   7
TORSDOF 1
ENDMDL
MODEL 5
REMARK VINA RESULT:    -5.264      1.739      3.377
REMARK INTER + INTRA:          -5.882
REMARK INTER:                  -5.569
REMARK INTRA:                  -0.312
REMARK UNBOUND:                -0.310
REMARK SMILES c1ccc(-c2ccccc2)cc1
REMARK SMILES IDX 1 1 2 2 3 3 4 4 11 5 12 6 5 7 6 8 10 9 7 10 9 11 8 12
REMARK H PARENT
REMARK Flexibility Score: inf
ROOT
ATOM      1  C   UNL     1      48.792 -15.660 132.518  1.00  0.00     0.000 A 
ATOM      2  C   UNL     1      48.989 -14.593 133.397  1.00  0.00     0.001 A 
ATOM      3  C   UNL     1      50.269 -14.057 133.574  1.00  0.00     0.009 A 
ATOM      4  C   UNL     1      51.368 -14.587 132.871  1.00  0.00    -0.018 A 
ATOM      5  C   UNL     1      51.154 -15.662 131.987  1.00  0.00     0.009 A 
ATOM      6  C   UNL     1      49.873 -16.194 131.814  1.00  0.00     0.001 A 
ENDROOT
BRANCH   4   7
ATOM      7  C   UNL     1      52.728 -14.020 133.056  1.00  0.00    -0.018 A 
ATOM      8  C   UNL     1      52.900 -12.650 133.330  1.00  0.00     0.009 A 
ATOM      9  C   UNL     1      53.867 -14.843 132.964  1.00  0.00     0.009 A 
ATOM     10  C   UNL     1      54.182 -12.117 133.506  1.00  0.00     0.001 A 
ATOM     11  C   UNL     1      55.145 -14.306 133.140  1.00  0.00     0.001 A 
ATOM     12  C   UNL     1      55.303 -12.945 133.410  1.00  0.00     0.000 A 
ENDBRANCH   4   7
TORSDOF 1
ENDMDL
MODEL 6
REMARK VINA RESULT:    -5.263      1.742      5.735
REMARK INTER + INTRA:          -5.881
REMARK INTER:                  -5.565
REMARK INTRA:                  -0.315
REMARK UNBOUND:                -0.310
REMARK SMILES c1ccc(-c2ccccc2)cc1
REMARK SMILES IDX 1 1 2 2 3 3 4 4 11 5 12 6 5 7 6 8 10 9 7 10 9 11 8 12
REMARK H PARENT
REMARK Flexibility Score: inf
ROOT
ATOM      1  C   UNL     1      55.280 -12.914 133.410  1.00  0.00     0.000 A 
ATOM      2  C   UNL     1      54.139 -12.114 133.512  1.00  0.00     0.001 A 
ATOM      3  C   UNL     1      52.871 -12.676 133.338  1.00  0.00     0.009 A 
ATOM      4  C   UNL     1      52.731 -14.049 133.058  1.00  0.00    -0.018 A 
ATOM      5  C   UNL     1      53.889 -14.844 132.960  1.00  0.00     0.009 A 
ATOM      6  C   UNL     1      55.154 -14.277 133.135  1.00  0.00     0.001 A 
ENDROOT
BRANCH   4   7
ATOM      7  C   UNL     1      51.384 -14.649 132.874  1.00  0.00    -0.018 A 
ATOM      8  C   UNL     1      51.215 -15.792 132.070  1.00  0.00     0.009 A 
ATOM      9  C   UNL     1      50.257 -14.086 133.502  1.00  0.00     0.009 A 
ATOM     10  C   UNL     1      49.946 -16.356 131.899  1.00  0.00     0.001 A 
ATOM     11  C   UNL     1      48.992 -14.653 133.326  1.00  0.00     0.001 A 
ATOM     12  C   UNL     1      48.835 -15.786 132.526  1.00  0.00     0.000 A 
ENDBRANCH   4   7
TORSDOF 1
ENDMDL
MODEL 7
REMARK VINA RESULT:    -5.089      6.076      8.260
REMARK INTER + INTRA:          -5.696
REMARK INTER:                  -5.395
REMARK INTRA:                  -0.301
REMARK UNBOUND:                -0.310
REMARK SMILES c1ccc(-c2ccccc2)cc1
REMARK SMILES IDX 1 1 2 2 3 3 4 4 11 5 12 6 5 7 6 8 10 9 7 10 9 11 8 12
REMARK H PARENT
REMARK Flexibility Score: inf
ROOT
ATOM      1  C   UNL     1      49.291 -14.268 133.411  1.00  0.00     0.000 A 
ATOM      2  C   UNL     1      48.816 -15.076 132.376  1.00  0.00     0.001 A 
ATOM      3  C   UNL     1      48.611 -16.443 132.590  1.00  0.00     0.009 A 
ATOM      4  C   UNL     1      48.881 -17.016 133.847  1.00  0.00    -0.018 A 
ATOM      5  C   UNL     1      49.359 -16.190 134.882  1.00  0.00     0.009 A 
ATOM      6  C   UNL     1      49.562 -14.825 134.663  1.00  0.00     0.001 A 
ENDROOT
BRANCH   4   7
ATOM      7  C   UNL     1      48.664 -18.468 134.077  1.00  0.00    -0.018 A 
ATOM      8  C   UNL     1      49.677 -19.261 134.647  1.00  0.00     0.009 A 
ATOM      9  C   UNL     1      47.440 -19.072 133.732  1.00  0.00     0.009 A 
ATOM     10  C   UNL     1      49.469 -20.628 134.865  1.00  0.00     0.001 A 
ATOM     11  C   UNL     1      47.238 -20.438 133.951  1.00  0.00     0.001 A 
ATOM     12  C   UNL     1      48.251 -21.215 134.516  1.00  0.00     0.000 A 
ENDBRANCH   4   7
TORSDOF 1
ENDMDL
MODEL 8
REMARK VINA RESULT:    -5.084      6.099      7.616
REMARK INTER + INTRA:          -5.691
REMARK INTER:                  -5.387
REMARK INTRA:                  -0.304
REMARK UNBOUND:                -0.310
REMARK SMILES c1ccc(-c2ccccc2)cc1
REMARK SMILES IDX 1 1 2 2 3 3 4 4 11 5 12 6 5 7 6 8 10 9 7 10 9 11 8 12
REMARK H PARENT
REMARK Flexibility Score: inf
ROOT
ATOM      1  C   UNL     1      48.377 -21.225 134.641  1.00  0.00     0.000 A 
ATOM      2  C   UNL     1      49.555 -20.590 135.039  1.00  0.00     0.001 A 
ATOM      3  C   UNL     1      49.729 -19.223 134.804  1.00  0.00     0.009 A 
ATOM      4  C   UNL     1      48.721 -18.474 134.166  1.00  0.00    -0.018 A 
ATOM      5  C   UNL     1      47.537 -19.127 133.771  1.00  0.00     0.009 A 
ATOM      6  C   UNL     1      47.369 -20.494 134.008  1.00  0.00     0.001 A 
ENDROOT
BRANCH   4   7
ATOM      7  C   UNL     1      48.902 -17.021 133.916  1.00  0.00    -0.018 A 
ATOM      8  C   UNL     1      48.585 -16.466 132.662  1.00  0.00     0.009 A 
ATOM      9  C   UNL     1      49.392 -16.176 134.930  1.00  0.00     0.009 A 
ATOM     10  C   UNL     1      48.756 -15.097 132.429  1.00  0.00     0.001 A 
ATOM     11  C   UNL     1      49.561 -14.809 134.691  1.00  0.00     0.001 A 
ATOM     12  C   UNL     1      49.244 -14.270 133.443  1.00  0.00     0.000 A 
ENDBRANCH   4   7
TORSDOF 1
ENDMDL
MODEL 9
REMARK VINA RESULT:    -5.063      1.619      2.910
REMARK INTER + INTRA:          -5.669
REMARK INTER:                  -5.352
REMARK INTRA:                  -0.317
REMARK UNBOUND:                -0.310
REMARK SMILES c1ccc(-c2ccccc2)cc1
REMARK SMILES IDX 1 1 2 2 3 3 4 4 11 5 12 6 5 7 6 8 10 9 7 10 9 11 8 12
REMARK H PARENT
REMARK Flexibility Score: inf
ROOT
ATOM      1  C   UNL     1      48.820 -16.140 132.957  1.00  0.00     0.000 A 
ATOM      2  C   UNL     1      49.908 -16.930 132.580  1.00  0.00     0.001 A 
ATOM      3  C   UNL     1      51.206 -16.412 132.642  1.00  0.00     0.009 A 
ATOM      4  C   UNL     1      51.428 -15.093 133.083  1.00  0.00    -0.018 A 
ATOM      5  C   UNL     1      50.322 -14.309 133.462  1.00  0.00     0.009 A 
ATOM      6  C   UNL     1      49.027 -14.831 133.398  1.00  0.00     0.001 A 
ENDROOT
BRANCH   4   7
ATOM      7  C   UNL     1      52.805 -14.541 133.150  1.00  0.00    -0.018 A 
ATOM      8  C   UNL     1      53.915 -15.400 133.265  1.00  0.00     0.009 A 
ATOM      9  C   UNL     1      53.023 -13.151 133.098  1.00  0.00     0.009 A 
ATOM     10  C   UNL     1      55.211 -14.878 133.327  1.00  0.00     0.001 A 
ATOM     11  C   UNL     1      54.321 -12.635 133.161  1.00  0.00     0.001 A 
ATOM     12  C   UNL     1      55.414 -13.497 133.276  1.00  0.00     0.000 A 
ENDBRANCH   4   7
TORSDOF 1
ENDMDL
