MODEL 1
REMARK VINA RESULT:    -2.543      0.000      0.000
REMARK INTER + INTRA:          -3.514
REMARK INTER:                  -3.212
REMARK INTRA:                  -0.303
REMARK UNBOUND:                -0.303
REMARK SMILES CCCCC[C@@H](C)O
REMARK SMILES IDX 4 1 3 2 2 3 1 4 5 5 6 6 7 7 8 8
REMARK H PARENT 8 9
REMARK Flexibility Score: inf
ROOT
ATOM      1  C   UNL     1     107.310 111.292 117.836  1.00  0.00     0.003 C 
ENDROOT
BRANCH   1   2
ATOM      2  C   UNL     1     108.066 112.162 118.853  1.00  0.00    -0.000 C 
BRANCH   2   3
ATOM      3  C   UNL     1     109.444 112.606 118.340  1.00  0.00    -0.003 C 
ATOM      4  C   UNL     1     109.643 114.120 118.411  1.00  0.00     0.004 C 
ENDBRANCH   2   3
ENDBRANCH   1   2
BRANCH   1   5
ATOM      5  C   UNL     1     108.196 110.982 116.617  1.00  0.00     0.031 C 
BRANCH   5   6
ATOM      6  C   UNL     1     107.603 111.480 115.282  1.00  0.00     0.111 C 
ATOM      7  C   UNL     1     108.342 112.704 114.737  1.00  0.00     0.038 C 
BRANCH   6   8
ATOM      8  O   UNL     1     107.618 110.461 114.317  1.00  0.00    -0.393 OA
ATOM      9  H   UNL     1     108.138 109.707 114.703  1.00  0.00     0.210 HD
ENDBRANCH   6   8
ENDBRANCH   5   6
ENDBRANCH   1   5
TORSDOF 5
ENDMDL
MODEL 2
REMARK VINA RESULT:    -2.520     17.738     19.359
REMARK INTER + INTRA:          -3.485
REMARK INTER:                  -3.159
REMARK INTRA:                  -0.326
REMARK UNBOUND:                -0.303
REMARK SMILES CCCCC[C@@H](C)O
REMARK SMILES IDX 4 1 3 2 2 3 1 4 5 5 6 6 7 7 8 8
REMARK H PARENT 8 9
REMARK Flexibility Score: inf
ROOT
ATOM      1  C   UNL     1     126.000 122.232 118.029  1.00  0.00     0.003 C 
ENDROOT
BRANCH   1   2
ATOM      2  C   UNL     1     125.393 121.293 119.083  1.00  0.00    -0.000 C 
BRANCH   2   3
ATOM      3  C   UNL     1     123.918 120.968 118.804  1.00  0.00    -0.003 C 
ATOM      4  C   UNL     1     123.658 119.468 118.663  1.00  0.00     0.004 C 
ENDBRANCH   2   3
ENDBRANCH   1   2
BRANCH   1   5
ATOM      5  C   UNL     1     125.031 122.431 116.851  1.00  0.00     0.031 C 
BRANCH   5   6
ATOM      6  C   UNL     1     125.526 121.802 115.532  1.00  0.00     0.111 C 
ATOM      7  C   UNL     1     124.763 120.526 115.172  1.00  0.00     0.038 C 
BRANCH   6   8
ATOM      8  O   UNL     1     125.427 122.718 114.472  1.00  0.00    -0.393 OA
ATOM      9  H   UNL     1     126.240 122.600 113.914  1.00  0.00     0.210 HD
ENDBRANCH   6   8
ENDBRANCH   5   6
ENDBRANCH   1   5
TORSDOF 5
ENDMDL
MODEL 3
REMARK VINA RESULT:    -2.502     12.932     13.617
REMARK INTER + INTRA:          -3.463
REMARK INTER:                  -3.161
REMARK INTRA:                  -0.302
REMARK UNBOUND:                -0.303
REMARK SMILES CCCCC[C@@H](C)O
REMARK SMILES IDX 4 1 3 2 2 3 1 4 5 5 6 6 7 7 8 8
REMARK H PARENT 8 9
REMARK Flexibility Score: inf
ROOT
ATOM      1  C   UNL     1     111.353 126.010 117.690  1.00  0.00     0.003 C 
ENDROOT
BRANCH   1   2
ATOM      2  C   UNL     1     111.967 125.196 118.839  1.00  0.00    -0.000 C 
BRANCH   2   3
ATOM      3  C   UNL     1     112.502 123.833 118.377  1.00  0.00    -0.003 C 
ATOM      4  C   UNL     1     114.023 123.724 118.493  1.00  0.00     0.004 C 
ENDBRANCH   2   3
ENDBRANCH   1   2
BRANCH   1   5
ATOM      5  C   UNL     1     110.946 125.090 116.525  1.00  0.00     0.031 C 
BRANCH   5   6
ATOM      6  C   UNL     1     111.454 125.574 115.151  1.00  0.00     0.111 C 
ATOM      7  C   UNL     1     112.722 124.842 114.708  1.00  0.00     0.038 C 
BRANCH   6   8
ATOM      8  O   UNL     1     110.462 125.422 114.169  1.00  0.00    -0.393 OA
ATOM      9  H   UNL     1     110.717 126.009 113.410  1.00  0.00     0.210 HD
ENDBRANCH   6   8
ENDBRANCH   5   6
ENDBRANCH   1   5
TORSDOF 5
ENDMDL
MODEL 4
REMARK VINA RESULT:    -2.498     15.811     17.559
REMARK INTER + INTRA:          -3.458
REMARK INTER:                  -3.232
REMARK INTRA:                  -0.225
REMARK UNBOUND:                -0.303
REMARK SMILES CCCCC[C@@H](C)O
REMARK SMILES IDX 4 1 3 2 2 3 1 4 5 5 6 6 7 7 8 8
REMARK H PARENT 8 9
REMARK Flexibility Score: inf
ROOT
ATOM      1  C   UNL     1     123.058 120.369 117.986  1.00  0.00     0.003 C 
ENDROOT
BRANCH   1   2
ATOM      2  C   UNL     1     122.073 121.313 117.280  1.00  0.00    -0.000 C 
BRANCH   2   3
ATOM      3  C   UNL     1     120.765 120.612 116.883  1.00  0.00    -0.003 C 
ATOM      4  C   UNL     1     120.516 120.635 115.374  1.00  0.00     0.004 C 
ENDBRANCH   2   3
ENDBRANCH   1   2
BRANCH   1   5
ATOM      5  C   UNL     1     124.478 120.536 117.419  1.00  0.00     0.031 C 
BRANCH   5   6
ATOM      6  C   UNL     1     124.511 120.749 115.891  1.00  0.00     0.111 C 
ATOM      7  C   UNL     1     125.430 121.903 115.483  1.00  0.00     0.038 C 
BRANCH   6   8
ATOM      8  O   UNL     1     124.914 119.578 115.231  1.00  0.00    -0.393 OA
ATOM      9  H   UNL     1     124.363 118.838 115.599  1.00  0.00     0.210 HD
ENDBRANCH   6   8
ENDBRANCH   5   6
ENDBRANCH   1   5
TORSDOF 5
ENDMDL
MODEL 5
REMARK VINA RESULT:    -2.476      2.446      2.970
REMARK INTER + INTRA:          -3.430
REMARK INTER:                  -3.189
REMARK INTRA:                  -0.241
REMARK UNBOUND:                -0.303
REMARK SMILES CCCCC[C@@H](C)O
REMARK SMILES IDX 4 1 3 2 2 3 1 4 5 5 6 6 7 7 8 8
REMARK H PARENT 8 9
REMARK Flexibility Score: inf
ROOT
ATOM      1  C   UNL     1     110.116 112.751 117.558  1.00  0.00     0.003 C 
ENDROOT
BRANCH   1   2
ATOM      2  C   UNL     1     110.864 111.497 117.082  1.00  0.00    -0.000 C 
BRANCH   2   3
ATOM      3  C   UNL     1     112.318 111.792 116.684  1.00  0.00    -0.003 C 
ATOM      4  C   UNL     1     112.425 112.619 115.403  1.00  0.00     0.004 C 
ENDBRANCH   2   3
ENDBRANCH   1   2
BRANCH   1   5
ATOM      5  C   UNL     1     108.662 112.746 117.053  1.00  0.00     0.031 C 
BRANCH   5   6
ATOM      6  C   UNL     1     108.532 112.420 115.550  1.00  0.00     0.111 C 
ATOM      7  C   UNL     1     107.565 111.265 115.286  1.00  0.00     0.038 C 
BRANCH   6   8
ATOM      8  O   UNL     1     108.116 113.550 114.828  1.00  0.00    -0.393 OA
ATOM      9  H   UNL     1     107.987 113.258 113.888  1.00  0.00     0.210 HD
ENDBRANCH   6   8
ENDBRANCH   5   6
ENDBRANCH   1   5
TORSDOF 5
ENDMDL
MODEL 6
REMARK VINA RESULT:    -2.441     15.628     16.313
REMARK INTER + INTRA:          -3.386
REMARK INTER:                  -3.270
REMARK INTRA:                  -0.116
REMARK UNBOUND:                -0.303
REMARK SMILES CCCCC[C@@H](C)O
REMARK SMILES IDX 4 1 3 2 2 3 1 4 5 5 6 6 7 7 8 8
REMARK H PARENT 8 9
REMARK Flexibility Score: inf
ROOT
ATOM      1  C   UNL     1     123.607 107.325 114.889  1.00  0.00     0.003 C 
ENDROOT
BRANCH   1   2
ATOM      2  C   UNL     1     122.356 107.235 115.776  1.00  0.00    -0.000 C 
BRANCH   2   3
ATOM      3  C   UNL     1     121.149 107.966 115.169  1.00  0.00    -0.003 C 
ATOM      4  C   UNL     1     120.348 108.750 116.210  1.00  0.00     0.004 C 
ENDBRANCH   2   3
ENDBRANCH   1   2
BRANCH   1   5
ATOM      5  C   UNL     1     124.700 108.169 115.569  1.00  0.00     0.031 C 
BRANCH   5   6
ATOM      6  C   UNL     1     125.830 108.601 114.611  1.00  0.00     0.111 C 
ATOM      7  C   UNL     1     125.926 107.700 113.378  1.00  0.00     0.038 C 
BRANCH   6   8
ATOM      8  O   UNL     1     125.656 109.932 114.201  1.00  0.00    -0.393 OA
ATOM      9  H   UNL     1     124.814 110.253 114.619  1.00  0.00     0.210 HD
ENDBRANCH   6   8
ENDBRANCH   5   6
ENDBRANCH   1   5
TORSDOF 5
ENDMDL
MODEL 7
REMARK VINA RESULT:    -2.434     12.865     13.431
REMARK INTER + INTRA:          -3.376
REMARK INTER:                  -3.246
REMARK INTRA:                  -0.130
REMARK UNBOUND:                -0.303
REMARK SMILES CCCCC[C@@H](C)O
REMARK SMILES IDX 4 1 3 2 2 3 1 4 5 5 6 6 7 7 8 8
REMARK H PARENT 8 9
REMARK Flexibility Score: inf
ROOT
ATOM      1  C   UNL     1     109.949 125.726 114.961  1.00  0.00     0.003 C 
ENDROOT
BRANCH   1   2
ATOM      2  C   UNL     1     111.056 125.980 115.996  1.00  0.00    -0.000 C 
BRANCH   2   3
ATOM      3  C   UNL     1     112.186 124.943 115.918  1.00  0.00    -0.003 C 
ATOM      4  C   UNL     1     112.811 124.853 114.526  1.00  0.00     0.004 C 
ENDBRANCH   2   3
ENDBRANCH   1   2
BRANCH   1   5
ATOM      5  C   UNL     1     108.801 124.908 115.577  1.00  0.00     0.031 C 
BRANCH   5   6
ATOM      6  C   UNL     1     107.623 124.672 114.607  1.00  0.00     0.111 C 
ATOM      7  C   UNL     1     107.640 125.641 113.423  1.00  0.00     0.038 C 
BRANCH   6   8
ATOM      8  O   UNL     1     107.625 123.353 114.129  1.00  0.00    -0.393 OA
ATOM      9  H   UNL     1     107.176 122.797 114.819  1.00  0.00     0.210 HD
ENDBRANCH   6   8
ENDBRANCH   5   6
ENDBRANCH   1   5
TORSDOF 5
ENDMDL
MODEL 8
REMARK VINA RESULT:    -2.393      2.123      3.809
REMARK INTER + INTRA:          -3.325
REMARK INTER:                  -2.953
REMARK INTRA:                  -0.372
REMARK UNBOUND:                -0.303
REMARK SMILES CCCCC[C@@H](C)O
REMARK SMILES IDX 4 1 3 2 2 3 1 4 5 5 6 6 7 7 8 8
REMARK H PARENT 8 9
REMARK Flexibility Score: inf
ROOT
ATOM      1  C   UNL     1     108.353 112.643 115.436  1.00  0.00     0.003 C 
ENDROOT
BRANCH   1   2
ATOM      2  C   UNL     1     107.598 111.331 115.177  1.00  0.00    -0.000 C 
BRANCH   2   3
ATOM      3  C   UNL     1     107.058 110.696 116.467  1.00  0.00    -0.003 C 
ATOM      4  C   UNL     1     107.379 109.205 116.572  1.00  0.00     0.004 C 
ENDBRANCH   2   3
ENDBRANCH   1   2
BRANCH   1   5
ATOM      5  C   UNL     1     109.040 112.617 116.813  1.00  0.00     0.031 C 
BRANCH   5   6
ATOM      6  C   UNL     1     110.538 112.249 116.747  1.00  0.00     0.111 C 
ATOM      7  C   UNL     1     110.797 110.788 117.120  1.00  0.00     0.038 C 
BRANCH   6   8
ATOM      8  O   UNL     1     111.059 112.501 115.467  1.00  0.00    -0.393 OA
ATOM      9  H   UNL     1     110.927 113.470 115.290  1.00  0.00     0.210 HD
ENDBRANCH   6   8
ENDBRANCH   5   6
ENDBRANCH   1   5
TORSDOF 5
ENDMDL
