MODEL 1
REMARK VINA RESULT:    -3.544      0.000      0.000
REMARK INTER + INTRA:          -5.615
REMARK INTER:                  -4.786
REMARK INTRA:                  -0.828
REMARK UNBOUND:                -0.828
REMARK SMILES CC(=O)CCC=C(C)CCC=C(C)C
REMARK SMILES IDX 7 1 6 2 8 3 9 4 10 5 11 6 13 7 12 8 14 9 5 10 4 11 2 12 3 13
REMARK SMILES IDX 1 14
REMARK H PARENT
REMARK Flexibility Score: inf
ROOT
ATOM      1  C   UNL     1       9.156  24.393  22.084  1.00  0.00    -0.077 C 
ATOM      2  C   UNL     1       8.039  24.235  21.342  1.00  0.00    -0.028 C 
ATOM      3  C   UNL     1       9.244  25.445  23.163  1.00  0.00     0.039 C 
ENDROOT
BRANCH   1   4
ATOM      4  C   UNL     1      10.368  23.532  21.799  1.00  0.00     0.034 C 
BRANCH   4   5
ATOM      5  C   UNL     1      10.230  22.134  22.419  1.00  0.00     0.032 C 
BRANCH   5   6
ATOM      6  C   UNL     1      10.855  22.057  23.792  1.00  0.00    -0.028 C 
ATOM      7  C   UNL     1       8.654  22.134  24.986  1.00  0.00     0.039 C 
ATOM      8  C   UNL     1      10.160  22.022  24.951  1.00  0.00    -0.080 C 
ATOM      9  C   UNL     1      10.925  21.887  26.241  1.00  0.00     0.039 C 
ENDBRANCH   5   6
ENDBRANCH   4   5
ENDBRANCH   1   4
BRANCH   2  10
ATOM     10  C   UNL     1       6.796  25.071  21.533  1.00  0.00     0.035 C 
BRANCH  10  11
ATOM     11  C   UNL     1       5.939  25.087  20.265  1.00  0.00     0.079 C 
BRANCH  11  12
ATOM     12  C   UNL     1       4.496  24.809  20.592  1.00  0.00     0.130 C 
ATOM     13  O   UNL     1       3.935  23.854  20.076  1.00  0.00    -0.300 OA
ATOM     14  C   UNL     1       3.730  25.674  21.550  1.00  0.00     0.087 C 
ENDBRANCH  11  12
ENDBRANCH  10  11
ENDBRANCH   2  10
TORSDOF 6
ENDMDL
MODEL 2
REMARK VINA RESULT:    -3.080      2.386      5.625
REMARK INTER + INTRA:          -4.988
REMARK INTER:                  -3.899
REMARK INTRA:                  -1.089
REMARK UNBOUND:                -0.828
REMARK SMILES CC(=O)CCC=C(C)CCC=C(C)C
REMARK SMILES IDX 7 1 6 2 8 3 9 4 10 5 11 6 13 7 12 8 14 9 5 10 4 11 2 12 3 13
REMARK SMILES IDX 1 14
REMARK H PARENT
REMARK Flexibility Score: inf
ROOT
ATOM      1  C   UNL     1      10.165  23.086  21.577  1.00  0.00    -0.077 C 
ATOM      2  C   UNL     1      11.002  22.779  22.591  1.00  0.00    -0.028 C 
ATOM      3  C   UNL     1       8.931  22.264  21.296  1.00  0.00     0.039 C 
ENDROOT
BRANCH   1   4
ATOM      4  C   UNL     1      10.492  24.252  20.667  1.00  0.00     0.034 C 
BRANCH   4   5
ATOM      5  C   UNL     1       9.650  25.490  21.006  1.00  0.00     0.032 C 
BRANCH   5   6
ATOM      6  C   UNL     1       8.507  25.683  20.037  1.00  0.00    -0.028 C 
ATOM      7  C   UNL     1       6.743  25.271  21.767  1.00  0.00     0.039 C 
ATOM      8  C   UNL     1       7.199  25.620  20.370  1.00  0.00    -0.080 C 
ATOM      9  C   UNL     1       6.174  25.892  19.299  1.00  0.00     0.039 C 
ENDBRANCH   5   6
ENDBRANCH   4   5
ENDBRANCH   1   4
BRANCH   2  10
ATOM     10  C   UNL     1      10.774  21.615  23.525  1.00  0.00     0.035 C 
BRANCH  10  11
ATOM     11  C   UNL     1      10.395  22.097  24.928  1.00  0.00     0.079 C 
BRANCH  11  12
ATOM     12  C   UNL     1       8.930  22.438  24.998  1.00  0.00     0.130 C 
ATOM     13  O   UNL     1       8.113  21.547  25.178  1.00  0.00    -0.300 OA
ATOM     14  C   UNL     1       8.448  23.852  24.862  1.00  0.00     0.087 C 
ENDBRANCH  11  12
ENDBRANCH  10  11
ENDBRANCH   2  10
TORSDOF 6
ENDMDL
MODEL 3
REMARK VINA RESULT:    -2.875     18.585     20.229
REMARK INTER + INTRA:          -4.712
REMARK INTER:                  -3.823
REMARK INTRA:                  -0.889
REMARK UNBOUND:                -0.828
REMARK SMILES CC(=O)CCC=C(C)CCC=C(C)C
REMARK SMILES IDX 7 1 6 2 8 3 9 4 10 5 11 6 13 7 12 8 14 9 5 10 4 11 2 12 3 13
REMARK SMILES IDX 1 14
REMARK H PARENT
REMARK Flexibility Score: inf
ROOT
ATOM      1  C   UNL     1      -5.476  24.574   9.891  1.00  0.00    -0.077 C 
ATOM      2  C   UNL     1      -6.517  24.188  10.660  1.00  0.00    -0.028 C 
ATOM      3  C   UNL     1      -4.966  25.994   9.908  1.00  0.00     0.039 C 
ENDROOT
BRANCH   1   4
ATOM      4  C   UNL     1      -4.832  23.574   8.953  1.00  0.00     0.034 C 
BRANCH   4   5
ATOM      5  C   UNL     1      -5.420  23.664   7.537  1.00  0.00     0.032 C 
BRANCH   5   6
ATOM      6  C   UNL     1      -6.401  22.549   7.258  1.00  0.00    -0.028 C 
ATOM      7  C   UNL     1      -8.412  24.014   7.544  1.00  0.00     0.039 C 
ATOM      8  C   UNL     1      -7.743  22.697   7.225  1.00  0.00    -0.080 C 
ATOM      9  C   UNL     1      -8.588  21.500   6.875  1.00  0.00     0.039 C 
ENDBRANCH   5   6
ENDBRANCH   4   5
ENDBRANCH   1   4
BRANCH   2  10
ATOM     10  C   UNL     1      -7.241  25.125  11.598  1.00  0.00     0.035 C 
BRANCH  10  11
ATOM     11  C   UNL     1      -8.683  24.666  11.835  1.00  0.00     0.079 C 
BRANCH  11  12
ATOM     12  C   UNL     1      -8.817  24.001  13.179  1.00  0.00     0.130 C 
ATOM     13  O   UNL     1      -8.757  22.783  13.257  1.00  0.00    -0.300 OA
ATOM     14  C   UNL     1      -9.011  24.803  14.433  1.00  0.00     0.087 C 
ENDBRANCH  11  12
ENDBRANCH  10  11
ENDBRANCH   2  10
TORSDOF 6
ENDMDL
MODEL 4
REMARK VINA RESULT:    -2.711      3.396      5.364
REMARK INTER + INTRA:          -4.491
REMARK INTER:                  -3.202
REMARK INTRA:                  -1.288
REMARK UNBOUND:                -0.828
REMARK SMILES CC(=O)CCC=C(C)CCC=C(C)C
REMARK SMILES IDX 7 1 6 2 8 3 9 4 10 5 11 6 13 7 12 8 14 9 5 10 4 11 2 12 3 13
REMARK SMILES IDX 1 14
REMARK H PARENT
REMARK Flexibility Score: inf
ROOT
ATOM      1  C   UNL     1       9.691  23.409  21.728  1.00  0.00    -0.077 C 
ATOM      2  C   UNL     1      10.650  23.132  22.637  1.00  0.00    -0.028 C 
ATOM      3  C   UNL     1       8.664  22.378  21.325  1.00  0.00     0.039 C 
ENDROOT
BRANCH   1   4
ATOM      4  C   UNL     1       9.668  24.767  21.058  1.00  0.00     0.034 C 
BRANCH   4   5
ATOM      5  C   UNL     1       9.687  25.908  22.086  1.00  0.00     0.032 C 
BRANCH   5   6
ATOM      6  C   UNL     1       8.542  25.808  23.066  1.00  0.00    -0.028 C 
ATOM      7  C   UNL     1      10.030  25.915  25.079  1.00  0.00     0.039 C 
ATOM      8  C   UNL     1       8.677  25.843  24.410  1.00  0.00    -0.080 C 
ATOM      9  C   UNL     1       7.432  25.790  25.257  1.00  0.00     0.039 C 
ENDBRANCH   5   6
ENDBRANCH   4   5
ENDBRANCH   1   4
BRANCH   2  10
ATOM     10  C   UNL     1      10.770  21.795  23.328  1.00  0.00     0.035 C 
BRANCH  10  11
ATOM     11  C   UNL     1      11.125  21.967  24.808  1.00  0.00     0.079 C 
BRANCH  11  12
ATOM     12  C   UNL     1       9.890  22.244  25.624  1.00  0.00     0.130 C 
ATOM     13  O   UNL     1      10.005  22.704  26.751  1.00  0.00    -0.300 OA
ATOM     14  C   UNL     1       8.517  21.978  25.082  1.00  0.00     0.087 C 
ENDBRANCH  11  12
ENDBRANCH  10  11
ENDBRANCH   2  10
TORSDOF 6
ENDMDL
MODEL 5
REMARK VINA RESULT:    -2.498      1.721      2.500
REMARK INTER + INTRA:          -4.202
REMARK INTER:                  -3.311
REMARK INTRA:                  -0.891
REMARK UNBOUND:                -0.828
REMARK SMILES CC(=O)CCC=C(C)CCC=C(C)C
REMARK SMILES IDX 7 1 6 2 8 3 9 4 10 5 11 6 13 7 12 8 14 9 5 10 4 11 2 12 3 13
REMARK SMILES IDX 1 14
REMARK H PARENT
REMARK Flexibility Score: inf
ROOT
ATOM      1  C   UNL     1       8.348  25.940  21.829  1.00  0.00    -0.077 C 
ATOM      2  C   UNL     1       7.079  25.748  21.409  1.00  0.00    -0.028 C 
ATOM      3  C   UNL     1       8.688  26.024  23.298  1.00  0.00     0.039 C 
ENDROOT
BRANCH   1   4
ATOM      4  C   UNL     1       9.452  26.124  20.809  1.00  0.00     0.034 C 
BRANCH   4   5
ATOM      5  C   UNL     1       9.924  24.781  20.235  1.00  0.00     0.032 C 
BRANCH   5   6
ATOM      6  C   UNL     1      10.586  23.916  21.283  1.00  0.00    -0.028 C 
ATOM      7  C   UNL     1       8.748  22.213  21.284  1.00  0.00     0.039 C 
ATOM      8  C   UNL     1      10.087  22.746  21.739  1.00  0.00    -0.080 C 
ATOM      9  C   UNL     1      10.893  21.968  22.745  1.00  0.00     0.039 C 
ENDBRANCH   5   6
ENDBRANCH   4   5
ENDBRANCH   1   4
BRANCH   2  10
ATOM     10  C   UNL     1       5.912  25.590  22.353  1.00  0.00     0.035 C 
BRANCH  10  11
ATOM     11  C   UNL     1       4.610  26.080  21.712  1.00  0.00     0.079 C 
BRANCH  11  12
ATOM     12  C   UNL     1       4.309  25.305  20.457  1.00  0.00     0.130 C 
ATOM     13  O   UNL     1       4.098  24.103  20.528  1.00  0.00    -0.300 OA
ATOM     14  C   UNL     1       4.249  25.978  19.118  1.00  0.00     0.087 C 
ENDBRANCH  11  12
ENDBRANCH  10  11
ENDBRANCH   2  10
TORSDOF 6
ENDMDL
MODEL 6
REMARK VINA RESULT:    -2.492      2.584      6.548
REMARK INTER + INTRA:          -4.194
REMARK INTER:                  -3.644
REMARK INTRA:                  -0.550
REMARK UNBOUND:                -0.828
REMARK SMILES CC(=O)CCC=C(C)CCC=C(C)C
REMARK SMILES IDX 7 1 6 2 8 3 9 4 10 5 11 6 13 7 12 8 14 9 5 10 4 11 2 12 3 13
REMARK SMILES IDX 1 14
REMARK H PARENT
REMARK Flexibility Score: inf
ROOT
ATOM      1  C   UNL     1       9.200  23.931  21.848  1.00  0.00    -0.077 C 
ATOM      2  C   UNL     1       9.330  24.314  23.137  1.00  0.00    -0.028 C 
ATOM      3  C   UNL     1      10.405  23.662  20.980  1.00  0.00     0.039 C 
ENDROOT
BRANCH   1   4
ATOM      4  C   UNL     1       7.817  23.813  21.241  1.00  0.00     0.034 C 
BRANCH   4   5
ATOM      5  C   UNL     1       6.987  25.085  21.466  1.00  0.00     0.032 C 
BRANCH   5   6
ATOM      6  C   UNL     1       6.223  25.491  20.228  1.00  0.00    -0.028 C 
ATOM      7  C   UNL     1       3.991  25.374  21.359  1.00  0.00     0.039 C 
ATOM      8  C   UNL     1       4.883  25.657  20.173  1.00  0.00    -0.080 C 
ATOM      9  C   UNL     1       4.271  26.121  18.877  1.00  0.00     0.039 C 
ENDBRANCH   5   6
ENDBRANCH   4   5
ENDBRANCH   1   4
BRANCH   2  10
ATOM     10  C   UNL     1      10.668  24.491  23.813  1.00  0.00     0.035 C 
BRANCH  10  11
ATOM     11  C   UNL     1      10.577  24.179  25.310  1.00  0.00     0.079 C 
BRANCH  11  12
ATOM     12  C   UNL     1      10.390  22.703  25.537  1.00  0.00     0.130 C 
ATOM     13  O   UNL     1       9.617  22.320  26.403  1.00  0.00    -0.300 OA
ATOM     14  C   UNL     1      11.125  21.685  24.715  1.00  0.00     0.087 C 
ENDBRANCH  11  12
ENDBRANCH  10  11
ENDBRANCH   2  10
TORSDOF 6
ENDMDL
MODEL 7
REMARK VINA RESULT:    -2.431     18.036     19.820
REMARK INTER + INTRA:          -4.112
REMARK INTER:                  -3.471
REMARK INTRA:                  -0.641
REMARK UNBOUND:                -0.828
REMARK SMILES CC(=O)CCC=C(C)CCC=C(C)C
REMARK SMILES IDX 7 1 6 2 8 3 9 4 10 5 11 6 13 7 12 8 14 9 5 10 4 11 2 12 3 13
REMARK SMILES IDX 1 14
REMARK H PARENT
REMARK Flexibility Score: inf
ROOT
ATOM      1  C   UNL     1      -7.049  24.685   8.455  1.00  0.00    -0.077 C 
ATOM      2  C   UNL     1      -6.370  25.797   8.103  1.00  0.00    -0.028 C 
ATOM      3  C   UNL     1      -6.986  23.426   7.624  1.00  0.00     0.039 C 
ENDROOT
BRANCH   1   4
ATOM      4  C   UNL     1      -7.933  24.708   9.685  1.00  0.00     0.034 C 
BRANCH   4   5
ATOM      5  C   UNL     1      -7.137  24.401  10.961  1.00  0.00     0.032 C 
BRANCH   5   6
ATOM      6  C   UNL     1      -7.709  25.104  12.170  1.00  0.00    -0.028 C 
ATOM      7  C   UNL     1      -8.415  22.976  13.288  1.00  0.00     0.039 C 
ATOM      8  C   UNL     1      -8.255  24.477  13.236  1.00  0.00    -0.080 C 
ATOM      9  C   UNL     1      -8.732  25.316  14.393  1.00  0.00     0.039 C 
ENDBRANCH   5   6
ENDBRANCH   4   5
ENDBRANCH   1   4
BRANCH   2  10
ATOM     10  C   UNL     1      -5.494  25.875   6.875  1.00  0.00     0.035 C 
BRANCH  10  11
ATOM     11  C   UNL     1      -4.012  25.940   7.257  1.00  0.00     0.079 C 
BRANCH  11  12
ATOM     12  C   UNL     1      -3.518  24.592   7.712  1.00  0.00     0.130 C 
ATOM     13  O   UNL     1      -3.132  23.781   6.883  1.00  0.00    -0.300 OA
ATOM     14  C   UNL     1      -3.479  24.223   9.166  1.00  0.00     0.087 C 
ENDBRANCH  11  12
ENDBRANCH  10  11
ENDBRANCH   2  10
TORSDOF 6
ENDMDL
