MODEL 1
REMARK VINA RESULT:    -4.090      0.000      0.000
REMARK INTER + INTRA:          -6.198
REMARK INTER:                  -5.525
REMARK INTRA:                  -0.673
REMARK UNBOUND:                -0.673
REMARK SMILES C[C@@H](O)[C@H](O)[C@@H](O)[C@H](O)C=O
REMARK SMILES IDX 4 1 2 2 1 3 3 4 6 6 8 7 10 8 11 9 9 10 7 12 5 14
REMARK H PARENT 3 5 9 11 7 13 5 15
REMARK Flexibility Score: inf
ROOT
ATOM      1  C   UNL     1     100.183 -67.960  -0.989  1.00  0.00     0.174 C 
ENDROOT
BRANCH   1   2
ATOM      2  C   UNL     1      99.599 -68.122  -2.420  1.00  0.00     0.142 C 
ATOM      3  C   UNL     1     100.696 -68.114  -3.494  1.00  0.00     0.041 C 
BRANCH   2   4
ATOM      4  O   UNL     1      98.798 -69.273  -2.531  1.00  0.00    -0.391 OA
ATOM      5  H   UNL     1      98.354 -69.422  -1.656  1.00  0.00     0.211 HD
ENDBRANCH   2   4
ENDBRANCH   1   2
BRANCH   1   6
ATOM      6  C   UNL     1      99.212 -68.378   0.154  1.00  0.00     0.181 C 
BRANCH   6   7
ATOM      7  C   UNL     1      99.651 -67.862   1.556  1.00  0.00     0.209 C 
BRANCH   7   8
ATOM      8  C   UNL     1      98.648 -68.185   2.635  1.00  0.00     0.258 C 
ATOM      9  O   UNL     1      98.682 -69.255   3.223  1.00  0.00    -0.300 OA
ENDBRANCH   7   8
BRANCH   7  10
ATOM     10  O   UNL     1     100.906 -68.385   1.919  1.00  0.00    -0.383 OA
ATOM     11  H   UNL     1     101.245 -68.918   1.152  1.00  0.00     0.211 HD
ENDBRANCH   7  10
ENDBRANCH   6   7
BRANCH   6  12
ATOM     12  O   UNL     1      99.168 -69.785   0.179  1.00  0.00    -0.387 OA
ATOM     13  H   UNL     1      98.528 -70.075  -0.523  1.00  0.00     0.211 HD
ENDBRANCH   6  12
ENDBRANCH   1   6
BRANCH   1  14
ATOM     14  O   UNL     1     101.402 -68.656  -0.870  1.00  0.00    -0.388 OA
ATOM     15  H   UNL     1     101.248 -69.592  -1.163  1.00  0.00     0.211 HD
ENDBRANCH   1  14
TORSDOF 8
ENDMDL
MODEL 2
REMARK VINA RESULT:    -4.086      0.903      4.674
REMARK INTER + INTRA:          -6.193
REMARK INTER:                  -5.480
REMARK INTRA:                  -0.713
REMARK UNBOUND:                -0.673
REMARK SMILES C[C@@H](O)[C@H](O)[C@@H](O)[C@H](O)C=O
REMARK SMILES IDX 4 1 2 2 1 3 3 4 6 6 8 7 10 8 11 9 9 10 7 12 5 14
REMARK H PARENT 3 5 9 11 7 13 5 15
REMARK Flexibility Score: inf
ROOT
ATOM      1  C   UNL     1      99.113 -68.496   0.326  1.00  0.00     0.174 C 
ENDROOT
BRANCH   1   2
ATOM      2  C   UNL     1      99.472 -68.041   1.767  1.00  0.00     0.142 C 
ATOM      3  C   UNL     1      98.435 -68.512   2.797  1.00  0.00     0.041 C 
BRANCH   2   4
ATOM      4  O   UNL     1     100.766 -68.449   2.138  1.00  0.00    -0.391 OA
ATOM      5  H   UNL     1     100.685 -69.305   2.635  1.00  0.00     0.211 HD
ENDBRANCH   2   4
ENDBRANCH   1   2
BRANCH   1   6
ATOM      6  C   UNL     1     100.060 -67.943  -0.779  1.00  0.00     0.181 C 
BRANCH   6   7
ATOM      7  C   UNL     1      99.432 -67.978  -2.204  1.00  0.00     0.209 C 
BRANCH   7   8
ATOM      8  C   UNL     1     100.419 -67.612  -3.284  1.00  0.00     0.258 C 
ATOM      9  O   UNL     1     101.217 -68.434  -3.707  1.00  0.00    -0.300 OA
ENDBRANCH   7   8
BRANCH   7  10
ATOM     10  O   UNL     1      98.884 -69.243  -2.486  1.00  0.00    -0.383 OA
ATOM     11  H   UNL     1      99.108 -69.466  -3.428  1.00  0.00     0.211 HD
ENDBRANCH   7  10
ENDBRANCH   6   7
BRANCH   6  12
ATOM     12  O   UNL     1     101.224 -68.735  -0.774  1.00  0.00    -0.387 OA
ATOM     13  H   UNL     1     101.857 -68.329  -0.124  1.00  0.00     0.211 HD
ENDBRANCH   6  12
ENDBRANCH   1   6
BRANCH   1  14
ATOM     14  O   UNL     1      99.048 -69.901   0.253  1.00  0.00    -0.388 OA
ATOM     15  H   UNL     1      99.904 -70.264   0.603  1.00  0.00     0.211 HD
ENDBRANCH   1  14
TORSDOF 8
ENDMDL
MODEL 3
REMARK VINA RESULT:    -3.981      1.142      4.519
REMARK INTER + INTRA:          -6.050
REMARK INTER:                  -5.734
REMARK INTRA:                  -0.316
REMARK UNBOUND:                -0.673
REMARK SMILES C[C@@H](O)[C@H](O)[C@@H](O)[C@H](O)C=O
REMARK SMILES IDX 4 1 2 2 1 3 3 4 6 6 8 7 10 8 11 9 9 10 7 12 5 14
REMARK H PARENT 3 5 9 11 7 13 5 15
REMARK Flexibility Score: inf
ROOT
ATOM      1  C   UNL     1      98.897 -68.670   0.343  1.00  0.00     0.174 C 
ENDROOT
BRANCH   1   2
ATOM      2  C   UNL     1      99.362 -68.100   1.712  1.00  0.00     0.142 C 
ATOM      3  C   UNL     1      98.417 -68.501   2.854  1.00  0.00     0.041 C 
BRANCH   2   4
ATOM      4  O   UNL     1     100.687 -68.465   2.008  1.00  0.00    -0.391 OA
ATOM      5  H   UNL     1     100.879 -69.321   1.543  1.00  0.00     0.211 HD
ENDBRANCH   2   4
ENDBRANCH   1   2
BRANCH   1   6
ATOM      6  C   UNL     1      99.673 -68.111  -0.885  1.00  0.00     0.181 C 
BRANCH   6   7
ATOM      7  C   UNL     1      99.014 -68.471  -2.249  1.00  0.00     0.209 C 
BRANCH   7   8
ATOM      8  C   UNL     1      98.242 -67.320  -2.844  1.00  0.00     0.258 C 
ATOM      9  O   UNL     1      97.021 -67.317  -2.842  1.00  0.00    -0.300 OA
ENDBRANCH   7   8
BRANCH   7  10
ATOM     10  O   UNL     1      99.975 -68.913  -3.176  1.00  0.00    -0.383 OA
ATOM     11  H   UNL     1     100.700 -69.365  -2.668  1.00  0.00     0.211 HD
ENDBRANCH   7  10
ENDBRANCH   6   7
BRANCH   6  12
ATOM     12  O   UNL     1     100.972 -68.655  -0.849  1.00  0.00    -0.387 OA
ATOM     13  H   UNL     1     100.935 -69.474  -0.288  1.00  0.00     0.211 HD
ENDBRANCH   6  12
ENDBRANCH   1   6
BRANCH   1  14
ATOM     14  O   UNL     1      98.948 -70.078   0.351  1.00  0.00    -0.388 OA
ATOM     15  H   UNL     1      98.376 -70.407  -0.391  1.00  0.00     0.211 HD
ENDBRANCH   1  14
TORSDOF 8
ENDMDL
MODEL 4
REMARK VINA RESULT:    -3.687      1.477      1.881
REMARK INTER + INTRA:          -5.653
REMARK INTER:                  -4.794
REMARK INTRA:                  -0.859
REMARK UNBOUND:                -0.673
REMARK SMILES C[C@@H](O)[C@H](O)[C@@H](O)[C@H](O)C=O
REMARK SMILES IDX 4 1 2 2 1 3 3 4 6 6 8 7 10 8 11 9 9 10 7 12 5 14
REMARK H PARENT 3 5 9 11 7 13 5 15
REMARK Flexibility Score: inf
ROOT
ATOM      1  C   UNL     1      98.723 -67.518  -1.160  1.00  0.00     0.174 C 
ENDROOT
BRANCH   1   2
ATOM      2  C   UNL     1      98.698 -68.476  -2.382  1.00  0.00     0.142 C 
ATOM      3  C   UNL     1      98.093 -67.809  -3.625  1.00  0.00     0.041 C 
BRANCH   2   4
ATOM      4  O   UNL     1      99.974 -68.996  -2.666  1.00  0.00    -0.391 OA
ATOM      5  H   UNL     1     100.411 -68.392  -3.323  1.00  0.00     0.211 HD
ENDBRANCH   2   4
ENDBRANCH   1   2
BRANCH   1   6
ATOM      6  C   UNL     1      99.267 -68.160   0.151  1.00  0.00     0.181 C 
BRANCH   6   7
ATOM      7  C   UNL     1     100.725 -67.731   0.489  1.00  0.00     0.209 C 
BRANCH   7   8
ATOM      8  C   UNL     1     101.039 -67.845   1.960  1.00  0.00     0.258 C 
ATOM      9  O   UNL     1     100.420 -68.618   2.674  1.00  0.00    -0.300 OA
ENDBRANCH   7   8
BRANCH   7  10
ATOM     10  O   UNL     1     101.659 -68.486  -0.244  1.00  0.00    -0.383 OA
ATOM     11  H   UNL     1     102.168 -69.046   0.401  1.00  0.00     0.211 HD
ENDBRANCH   7  10
ENDBRANCH   6   7
BRANCH   6  12
ATOM     12  O   UNL     1      99.229 -69.558  -0.015  1.00  0.00    -0.387 OA
ATOM     13  H   UNL     1      99.934 -69.798  -0.673  1.00  0.00     0.211 HD
ENDBRANCH   6  12
ENDBRANCH   1   6
BRANCH   1  14
ATOM     14  O   UNL     1      99.444 -66.347  -1.463  1.00  0.00    -0.388 OA
ATOM     15  H   UNL     1      99.798 -65.979  -0.612  1.00  0.00     0.211 HD
ENDBRANCH   1  14
TORSDOF 8
ENDMDL
MODEL 5
REMARK VINA RESULT:    -3.588      1.713      4.389
REMARK INTER + INTRA:          -5.520
REMARK INTER:                  -4.762
REMARK INTRA:                  -0.758
REMARK UNBOUND:                -0.673
REMARK SMILES C[C@@H](O)[C@H](O)[C@@H](O)[C@H](O)C=O
REMARK SMILES IDX 4 1 2 2 1 3 3 4 6 6 8 7 10 8 11 9 9 10 7 12 5 14
REMARK H PARENT 3 5 9 11 7 13 5 15
REMARK Flexibility Score: inf
ROOT
ATOM      1  C   UNL     1      99.225 -68.234   0.389  1.00  0.00     0.174 C 
ENDROOT
BRANCH   1   2
ATOM      2  C   UNL     1     100.569 -67.748   0.996  1.00  0.00     0.142 C 
ATOM      3  C   UNL     1     100.636 -67.985   2.512  1.00  0.00     0.041 C 
BRANCH   2   4
ATOM      4  O   UNL     1     101.676 -68.328   0.351  1.00  0.00    -0.391 OA
ATOM      5  H   UNL     1     102.328 -67.605   0.155  1.00  0.00     0.211 HD
ENDBRANCH   2   4
ENDBRANCH   1   2
BRANCH   1   6
ATOM      6  C   UNL     1      98.759 -67.437  -0.865  1.00  0.00     0.181 C 
BRANCH   6   7
ATOM      7  C   UNL     1      98.380 -68.347  -2.070  1.00  0.00     0.209 C 
BRANCH   7   8
ATOM      8  C   UNL     1      97.712 -67.586  -3.188  1.00  0.00     0.258 C 
ATOM      9  O   UNL     1      97.352 -66.430  -3.030  1.00  0.00    -0.300 OA
ENDBRANCH   7   8
BRANCH   7  10
ATOM     10  O   UNL     1      99.511 -69.016  -2.576  1.00  0.00    -0.383 OA
ATOM     11  H   UNL     1      99.613 -69.864  -2.068  1.00  0.00     0.211 HD
ENDBRANCH   7  10
ENDBRANCH   6   7
BRANCH   6  12
ATOM     12  O   UNL     1      99.819 -66.592  -1.248  1.00  0.00    -0.387 OA
ATOM     13  H   UNL     1     100.313 -66.342  -0.422  1.00  0.00     0.211 HD
ENDBRANCH   6  12
ENDBRANCH   1   6
BRANCH   1  14
ATOM     14  O   UNL     1      99.283 -69.610   0.096  1.00  0.00    -0.388 OA
ATOM     15  H   UNL     1      99.741 -70.063   0.851  1.00  0.00     0.211 HD
ENDBRANCH   1  14
TORSDOF 8
ENDMDL
MODEL 6
REMARK VINA RESULT:    -3.417      2.569      4.970
REMARK INTER + INTRA:          -5.289
REMARK INTER:                  -4.692
REMARK INTRA:                  -0.597
REMARK UNBOUND:                -0.673
REMARK SMILES C[C@@H](O)[C@H](O)[C@@H](O)[C@H](O)C=O
REMARK SMILES IDX 4 1 2 2 1 3 3 4 6 6 8 7 10 8 11 9 9 10 7 12 5 14
REMARK H PARENT 3 5 9 11 7 13 5 15
REMARK Flexibility Score: inf
ROOT
ATOM      1  C   UNL     1      98.632 -68.822  -2.188  1.00  0.00     0.174 C 
ENDROOT
BRANCH   1   2
ATOM      2  C   UNL     1      98.896 -68.774  -0.658  1.00  0.00     0.142 C 
ATOM      3  C   UNL     1      98.188 -69.916   0.085  1.00  0.00     0.041 C 
BRANCH   2   4
ATOM      4  O   UNL     1     100.271 -68.763  -0.363  1.00  0.00    -0.391 OA
ATOM      5  H   UNL     1     100.757 -69.091  -1.164  1.00  0.00     0.211 HD
ENDBRANCH   2   4
ENDBRANCH   1   2
BRANCH   1   6
ATOM      6  C   UNL     1      97.800 -67.626  -2.736  1.00  0.00     0.181 C 
BRANCH   6   7
ATOM      7  C   UNL     1      98.498 -66.873  -3.907  1.00  0.00     0.209 C 
BRANCH   7   8
ATOM      8  C   UNL     1      97.545 -66.009  -4.694  1.00  0.00     0.258 C 
ATOM      9  O   UNL     1      96.464 -65.684  -4.229  1.00  0.00    -0.300 OA
ENDBRANCH   7   8
BRANCH   7  10
ATOM     10  O   UNL     1      99.562 -66.081  -3.439  1.00  0.00    -0.383 OA
ATOM     11  H   UNL     1     100.029 -65.704  -4.230  1.00  0.00     0.211 HD
ENDBRANCH   7  10
ENDBRANCH   6   7
BRANCH   6  12
ATOM     12  O   UNL     1      97.599 -66.726  -1.672  1.00  0.00    -0.387 OA
ATOM     13  H   UNL     1      97.560 -67.260  -0.834  1.00  0.00     0.211 HD
ENDBRANCH   6  12
ENDBRANCH   1   6
BRANCH   1  14
ATOM     14  O   UNL     1      99.844 -68.936  -2.896  1.00  0.00    -0.388 OA
ATOM     15  H   UNL     1     100.516 -68.363  -2.443  1.00  0.00     0.211 HD
ENDBRANCH   1  14
TORSDOF 8
ENDMDL
MODEL 7
REMARK VINA RESULT:    -3.393      1.930      4.580
REMARK INTER + INTRA:          -5.257
REMARK INTER:                  -4.331
REMARK INTRA:                  -0.926
REMARK UNBOUND:                -0.673
REMARK SMILES C[C@@H](O)[C@H](O)[C@@H](O)[C@H](O)C=O
REMARK SMILES IDX 4 1 2 2 1 3 3 4 6 6 8 7 10 8 11 9 9 10 7 12 5 14
REMARK H PARENT 3 5 9 11 7 13 5 15
REMARK Flexibility Score: inf
ROOT
ATOM      1  C   UNL     1      99.665 -67.446  -1.098  1.00  0.00     0.174 C 
ENDROOT
BRANCH   1   2
ATOM      2  C   UNL     1     100.116 -68.371   0.066  1.00  0.00     0.142 C 
ATOM      3  C   UNL     1     100.181 -67.623   1.405  1.00  0.00     0.041 C 
BRANCH   2   4
ATOM      4  O   UNL     1      99.305 -69.515   0.171  1.00  0.00    -0.391 OA
ATOM      5  H   UNL     1      98.693 -69.385   0.943  1.00  0.00     0.211 HD
ENDBRANCH   2   4
ENDBRANCH   1   2
BRANCH   1   6
ATOM      6  C   UNL     1      99.798 -68.081  -2.513  1.00  0.00     0.181 C 
BRANCH   6   7
ATOM      7  C   UNL     1      99.419 -67.105  -3.666  1.00  0.00     0.209 C 
BRANCH   7   8
ATOM      8  C   UNL     1      98.030 -67.347  -4.201  1.00  0.00     0.258 C 
ATOM      9  O   UNL     1      97.046 -67.104  -3.521  1.00  0.00    -0.300 OA
ENDBRANCH   7   8
BRANCH   7  10
ATOM     10  O   UNL     1      99.529 -65.764  -3.252  1.00  0.00    -0.383 OA
ATOM     11  H   UNL     1      98.714 -65.542  -2.729  1.00  0.00     0.211 HD
ENDBRANCH   7  10
ENDBRANCH   6   7
BRANCH   6  12
ATOM     12  O   UNL     1      98.940 -69.196  -2.560  1.00  0.00    -0.387 OA
ATOM     13  H   UNL     1      99.159 -69.706  -3.385  1.00  0.00     0.211 HD
ENDBRANCH   6  12
ENDBRANCH   1   6
BRANCH   1  14
ATOM     14  O   UNL     1      98.346 -66.996  -0.889  1.00  0.00    -0.388 OA
ATOM     15  H   UNL     1      98.281 -66.669   0.045  1.00  0.00     0.211 HD
ENDBRANCH   1  14
TORSDOF 8
ENDMDL
MODEL 8
REMARK VINA RESULT:    -3.346      2.247      5.478
REMARK INTER + INTRA:          -5.193
REMARK INTER:                  -4.306
REMARK INTRA:                  -0.886
REMARK UNBOUND:                -0.673
REMARK SMILES C[C@@H](O)[C@H](O)[C@@H](O)[C@H](O)C=O
REMARK SMILES IDX 4 1 2 2 1 3 3 4 6 6 8 7 10 8 11 9 9 10 7 12 5 14
REMARK H PARENT 3 5 9 11 7 13 5 15
REMARK Flexibility Score: inf
ROOT
ATOM      1  C   UNL     1     100.332 -67.494   4.361  1.00  0.00     0.174 C 
ENDROOT
BRANCH   1   2
ATOM      2  C   UNL     1     100.885 -68.713   5.147  1.00  0.00     0.142 C 
ATOM      3  C   UNL     1     101.002 -68.424   6.651  1.00  0.00     0.041 C 
BRANCH   2   4
ATOM      4  O   UNL     1     100.124 -69.873   4.919  1.00  0.00    -0.391 OA
ATOM      5  H   UNL     1      99.516 -69.997   5.695  1.00  0.00     0.211 HD
ENDBRANCH   2   4
ENDBRANCH   1   2
BRANCH   1   6
ATOM      6  C   UNL     1     100.449 -67.618   2.813  1.00  0.00     0.181 C 
BRANCH   6   7
ATOM      7  C   UNL     1      99.101 -67.969   2.117  1.00  0.00     0.209 C 
BRANCH   7   8
ATOM      8  C   UNL     1      99.271 -68.311   0.658  1.00  0.00     0.258 C 
ATOM      9  O   UNL     1      99.293 -69.473   0.285  1.00  0.00    -0.300 OA
ENDBRANCH   7   8
BRANCH   7  10
ATOM     10  O   UNL     1      98.456 -69.035   2.770  1.00  0.00    -0.383 OA
ATOM     11  H   UNL     1      97.912 -69.519   2.094  1.00  0.00     0.211 HD
ENDBRANCH   7  10
ENDBRANCH   6   7
BRANCH   6  12
ATOM     12  O   UNL     1     101.382 -68.637   2.540  1.00  0.00    -0.387 OA
ATOM     13  H   UNL     1     100.942 -69.287   1.930  1.00  0.00     0.211 HD
ENDBRANCH   6  12
ENDBRANCH   1   6
BRANCH   1  14
ATOM     14  O   UNL     1      98.997 -67.233   4.727  1.00  0.00    -0.388 OA
ATOM     15  H   UNL     1      98.891 -66.249   4.811  1.00  0.00     0.211 HD
ENDBRANCH   1  14
TORSDOF 8
ENDMDL
MODEL 9
REMARK VINA RESULT:    -3.298      1.527      4.632
REMARK INTER + INTRA:          -5.128
REMARK INTER:                  -4.125
REMARK INTRA:                  -1.003
REMARK UNBOUND:                -0.673
REMARK SMILES C[C@@H](O)[C@H](O)[C@@H](O)[C@H](O)C=O
REMARK SMILES IDX 4 1 2 2 1 3 3 4 6 6 8 7 10 8 11 9 9 10 7 12 5 14
REMARK H PARENT 3 5 9 11 7 13 5 15
REMARK Flexibility Score: inf
ROOT
ATOM      1  C   UNL     1      99.005 -68.270   2.350  1.00  0.00     0.174 C 
ENDROOT
BRANCH   1   2
ATOM      2  C   UNL     1      98.365 -67.537   3.561  1.00  0.00     0.142 C 
ATOM      3  C   UNL     1      99.414 -67.114   4.599  1.00  0.00     0.041 C 
BRANCH   2   4
ATOM      4  O   UNL     1      97.591 -66.434   3.156  1.00  0.00    -0.391 OA
ATOM      5  H   UNL     1      97.594 -66.408   2.163  1.00  0.00     0.211 HD
ENDBRANCH   2   4
ENDBRANCH   1   2
BRANCH   1   6
ATOM      6  C   UNL     1      98.896 -67.502   1.000  1.00  0.00     0.181 C 
BRANCH   6   7
ATOM      7  C   UNL     1      99.306 -68.359  -0.233  1.00  0.00     0.209 C 
BRANCH   7   8
ATOM      8  C   UNL     1     100.684 -68.020  -0.746  1.00  0.00     0.258 C 
ATOM      9  O   UNL     1     101.678 -68.284  -0.089  1.00  0.00    -0.300 OA
ENDBRANCH   7   8
BRANCH   7  10
ATOM     10  O   UNL     1      99.246 -69.733   0.062  1.00  0.00    -0.383 OA
ATOM     11  H   UNL     1     100.154 -70.021   0.346  1.00  0.00     0.211 HD
ENDBRANCH   7  10
ENDBRANCH   6   7
BRANCH   6  12
ATOM     12  O   UNL     1      99.747 -66.382   1.081  1.00  0.00    -0.387 OA
ATOM     13  H   UNL     1      99.714 -66.050   2.016  1.00  0.00     0.211 HD
ENDBRANCH   6  12
ENDBRANCH   1   6
BRANCH   1  14
ATOM     14  O   UNL     1     100.350 -68.590   2.620  1.00  0.00    -0.388 OA
ATOM     15  H   UNL     1     100.538 -68.344   3.563  1.00  0.00     0.211 HD
ENDBRANCH   1  14
TORSDOF 8
ENDMDL
