MODEL 1
REMARK VINA RESULT:    -4.459      0.000      0.000
REMARK INTER + INTRA:          -5.084
REMARK INTER:                  -4.981
REMARK INTRA:                  -0.103
REMARK UNBOUND:                -0.103
REMARK SMILES COc1cc2ccc(=O)oc2cc1OC
REMARK SMILES IDX 3 1 13 2 12 3 11 4 5 5 4 6 6 7 7 8 8 9 9 10 10 11 2 12 1 13
REMARK SMILES IDX 14 14 15 15
REMARK H PARENT
REMARK Flexibility Score: inf
ROOT
ATOM      1  C   UNL     1      22.459  51.049  54.469  1.00  0.00     0.161 A 
ATOM      2  C   UNL     1      21.201  51.651  54.294  1.00  0.00     0.164 A 
ATOM      3  C   UNL     1      20.781  52.030  53.004  1.00  0.00     0.098 A 
ATOM      4  C   UNL     1      21.605  51.811  51.899  1.00  0.00     0.142 A 
ATOM      5  C   UNL     1      22.868  51.207  52.074  1.00  0.00     0.022 A 
ATOM      6  C   UNL     1      23.291  50.829  53.353  1.00  0.00     0.062 A 
ATOM      7  C   UNL     1      23.670  51.001  50.946  1.00  0.00     0.019 A 
ATOM      8  C   UNL     1      23.205  51.396  49.693  1.00  0.00     0.094 A 
ATOM      9  C   UNL     1      21.941  51.990  49.596  1.00  0.00     0.336 A 
ATOM     10  O   UNL     1      21.503  52.353  48.473  1.00  0.00    -0.246 OA
ATOM     11  O   UNL     1      21.199  52.173  50.684  1.00  0.00    -0.423 OA
ENDROOT
BRANCH   1  12
ATOM     12  O   UNL     1      22.846  50.684  55.769  1.00  0.00    -0.493 OA
ATOM     13  C   UNL     1      23.891  49.765  56.072  1.00  0.00     0.278 C 
ENDBRANCH   1  12
BRANCH   2  14
ATOM     14  O   UNL     1      20.399  51.856  55.428  1.00  0.00    -0.493 OA
ATOM     15  C   UNL     1      19.353  52.819  55.513  1.00  0.00     0.278 C 
ENDBRANCH   2  14
TORSDOF 2
ENDMDL
MODEL 2
REMARK VINA RESULT:    -4.387      1.955      3.142
REMARK INTER + INTRA:          -5.003
REMARK INTER:                  -4.875
REMARK INTRA:                  -0.128
REMARK UNBOUND:                -0.103
REMARK SMILES COc1cc2ccc(=O)oc2cc1OC
REMARK SMILES IDX 3 1 13 2 12 3 11 4 5 5 4 6 6 7 7 8 8 9 9 10 10 11 2 12 1 13
REMARK SMILES IDX 14 14 15 15
REMARK H PARENT
REMARK Flexibility Score: inf
ROOT
ATOM      1  C   UNL     1      20.583  54.017  53.280  1.00  0.00     0.161 A 
ATOM      2  C   UNL     1      20.635  52.708  53.789  1.00  0.00     0.164 A 
ATOM      3  C   UNL     1      21.211  51.681  53.016  1.00  0.00     0.098 A 
ATOM      4  C   UNL     1      21.731  51.955  51.750  1.00  0.00     0.142 A 
ATOM      5  C   UNL     1      21.679  53.268  51.239  1.00  0.00     0.022 A 
ATOM      6  C   UNL     1      21.107  54.293  52.002  1.00  0.00     0.062 A 
ATOM      7  C   UNL     1      22.208  53.511  49.967  1.00  0.00     0.019 A 
ATOM      8  C   UNL     1      22.767  52.456  49.245  1.00  0.00     0.094 A 
ATOM      9  C   UNL     1      22.784  51.179  49.816  1.00  0.00     0.336 A 
ATOM     10  O   UNL     1      23.285  50.214  49.181  1.00  0.00    -0.246 OA
ATOM     11  O   UNL     1      22.274  50.977  51.028  1.00  0.00    -0.423 OA
ENDROOT
BRANCH   1  12
ATOM     12  O   UNL     1      20.001  55.017  54.078  1.00  0.00    -0.493 OA
ATOM     13  C   UNL     1      20.734  55.982  54.824  1.00  0.00     0.278 C 
ENDBRANCH   1  12
BRANCH   2  14
ATOM     14  O   UNL     1      20.103  52.469  55.066  1.00  0.00    -0.493 OA
ATOM     15  C   UNL     1      20.702  51.628  56.046  1.00  0.00     0.278 C 
ENDBRANCH   2  14
TORSDOF 2
ENDMDL
MODEL 3
REMARK VINA RESULT:    -4.329      1.667      5.005
REMARK INTER + INTRA:          -4.938
REMARK INTER:                  -4.796
REMARK INTRA:                  -0.143
REMARK UNBOUND:                -0.103
REMARK SMILES COc1cc2ccc(=O)oc2cc1OC
REMARK SMILES IDX 3 1 13 2 12 3 11 4 5 5 4 6 6 7 7 8 8 9 9 10 10 11 2 12 1 13
REMARK SMILES IDX 14 14 15 15
REMARK H PARENT
REMARK Flexibility Score: inf
ROOT
ATOM      1  C   UNL     1      23.229  51.519  50.592  1.00  0.00     0.161 A 
ATOM      2  C   UNL     1      22.373  52.585  50.264  1.00  0.00     0.164 A 
ATOM      3  C   UNL     1      21.464  53.071  51.224  1.00  0.00     0.098 A 
ATOM      4  C   UNL     1      21.408  52.502  52.498  1.00  0.00     0.142 A 
ATOM      5  C   UNL     1      22.267  51.433  52.827  1.00  0.00     0.022 A 
ATOM      6  C   UNL     1      23.172  50.946  51.877  1.00  0.00     0.062 A 
ATOM      7  C   UNL     1      22.187  50.884  54.111  1.00  0.00     0.019 A 
ATOM      8  C   UNL     1      21.268  51.404  55.022  1.00  0.00     0.094 A 
ATOM      9  C   UNL     1      20.448  52.466  54.625  1.00  0.00     0.336 A 
ATOM     10  O   UNL     1      19.613  52.950  55.433  1.00  0.00    -0.246 OA
ATOM     11  O   UNL     1      20.545  52.969  53.398  1.00  0.00    -0.423 OA
ENDROOT
BRANCH   1  12
ATOM     12  O   UNL     1      24.123  51.060  49.610  1.00  0.00    -0.493 OA
ATOM     13  C   UNL     1      24.124  49.741  49.074  1.00  0.00     0.278 C 
ENDBRANCH   1  12
BRANCH   2  14
ATOM     14  O   UNL     1      22.456  53.133  48.974  1.00  0.00    -0.493 OA
ATOM     15  C   UNL     1      21.624  52.756  47.882  1.00  0.00     0.278 C 
ENDBRANCH   2  14
TORSDOF 2
ENDMDL
MODEL 4
REMARK VINA RESULT:    -4.324      1.673      2.107
REMARK INTER + INTRA:          -4.932
REMARK INTER:                  -4.766
REMARK INTRA:                  -0.166
REMARK UNBOUND:                -0.103
REMARK SMILES COc1cc2ccc(=O)oc2cc1OC
REMARK SMILES IDX 3 1 13 2 12 3 11 4 5 5 4 6 6 7 7 8 8 9 9 10 10 11 2 12 1 13
REMARK SMILES IDX 14 14 15 15
REMARK H PARENT
REMARK Flexibility Score: inf
ROOT
ATOM      1  C   UNL     1      21.484  52.643  53.937  1.00  0.00     0.161 A 
ATOM      2  C   UNL     1      21.100  53.909  53.460  1.00  0.00     0.164 A 
ATOM      3  C   UNL     1      21.121  54.169  52.076  1.00  0.00     0.098 A 
ATOM      4  C   UNL     1      21.518  53.179  51.175  1.00  0.00     0.142 A 
ATOM      5  C   UNL     1      21.903  51.909  51.653  1.00  0.00     0.022 A 
ATOM      6  C   UNL     1      21.885  51.645  53.027  1.00  0.00     0.062 A 
ATOM      7  C   UNL     1      22.296  50.938  50.726  1.00  0.00     0.019 A 
ATOM      8  C   UNL     1      22.298  51.250  49.367  1.00  0.00     0.094 A 
ATOM      9  C   UNL     1      21.903  52.531  48.965  1.00  0.00     0.336 A 
ATOM     10  O   UNL     1      21.896  52.832  47.744  1.00  0.00    -0.246 OA
ATOM     11  O   UNL     1      21.534  53.435  49.869  1.00  0.00    -0.423 OA
ENDROOT
BRANCH   1  12
ATOM     12  O   UNL     1      21.452  52.419  55.323  1.00  0.00    -0.493 OA
ATOM     13  C   UNL     1      20.415  51.718  56.003  1.00  0.00     0.278 C 
ENDBRANCH   1  12
BRANCH   2  14
ATOM     14  O   UNL     1      20.707  54.880  54.393  1.00  0.00    -0.493 OA
ATOM     15  C   UNL     1      19.355  55.224  54.680  1.00  0.00     0.278 C 
ENDBRANCH   2  14
TORSDOF 2
ENDMDL
MODEL 5
REMARK VINA RESULT:    -4.279      2.476      5.094
REMARK INTER + INTRA:          -4.882
REMARK INTER:                  -4.797
REMARK INTRA:                  -0.085
REMARK UNBOUND:                -0.103
REMARK SMILES COc1cc2ccc(=O)oc2cc1OC
REMARK SMILES IDX 3 1 13 2 12 3 11 4 5 5 4 6 6 7 7 8 8 9 9 10 10 11 2 12 1 13
REMARK SMILES IDX 14 14 15 15
REMARK H PARENT
REMARK Flexibility Score: inf
ROOT
ATOM      1  C   UNL     1      22.180  51.609  51.062  1.00  0.00     0.161 A 
ATOM      2  C   UNL     1      22.107  52.854  50.414  1.00  0.00     0.164 A 
ATOM      3  C   UNL     1      21.530  53.954  51.077  1.00  0.00     0.098 A 
ATOM      4  C   UNL     1      21.032  53.817  52.374  1.00  0.00     0.142 A 
ATOM      5  C   UNL     1      21.104  52.568  53.024  1.00  0.00     0.022 A 
ATOM      6  C   UNL     1      21.676  51.471  52.370  1.00  0.00     0.062 A 
ATOM      7  C   UNL     1      20.595  52.462  54.323  1.00  0.00     0.019 A 
ATOM      8  C   UNL     1      20.035  53.584  54.933  1.00  0.00     0.094 A 
ATOM      9  C   UNL     1      19.997  54.791  54.226  1.00  0.00     0.336 A 
ATOM     10  O   UNL     1      19.496  55.815  54.759  1.00  0.00    -0.246 OA
ATOM     11  O   UNL     1      20.488  54.863  52.992  1.00  0.00    -0.423 OA
ENDROOT
BRANCH   1  12
ATOM     12  O   UNL     1      22.761  50.533  50.370  1.00  0.00    -0.493 OA
ATOM     13  C   UNL     1      24.124  50.137  50.492  1.00  0.00     0.278 C 
ENDBRANCH   1  12
BRANCH   2  14
ATOM     14  O   UNL     1      22.619  52.956  49.110  1.00  0.00    -0.493 OA
ATOM     15  C   UNL     1      21.875  52.681  47.927  1.00  0.00     0.278 C 
ENDBRANCH   2  14
TORSDOF 2
ENDMDL
MODEL 6
REMARK VINA RESULT:    -4.266      1.897      5.641
REMARK INTER + INTRA:          -4.867
REMARK INTER:                  -4.752
REMARK INTRA:                  -0.116
REMARK UNBOUND:                -0.103
REMARK SMILES COc1cc2ccc(=O)oc2cc1OC
REMARK SMILES IDX 3 1 13 2 12 3 11 4 5 5 4 6 6 7 7 8 8 9 9 10 10 11 2 12 1 13
REMARK SMILES IDX 14 14 15 15
REMARK H PARENT
REMARK Flexibility Score: inf
ROOT
ATOM      1  C   UNL     1      22.250  53.280  50.024  1.00  0.00     0.161 A 
ATOM      2  C   UNL     1      22.442  51.895  50.172  1.00  0.00     0.164 A 
ATOM      3  C   UNL     1      22.090  51.267  51.382  1.00  0.00     0.098 A 
ATOM      4  C   UNL     1      21.550  52.009  52.434  1.00  0.00     0.142 A 
ATOM      5  C   UNL     1      21.358  53.399  52.286  1.00  0.00     0.022 A 
ATOM      6  C   UNL     1      21.707  54.029  51.086  1.00  0.00     0.062 A 
ATOM      7  C   UNL     1      20.816  54.115  53.359  1.00  0.00     0.019 A 
ATOM      8  C   UNL     1      20.485  53.442  54.534  1.00  0.00     0.094 A 
ATOM      9  C   UNL     1      20.704  52.062  54.609  1.00  0.00     0.336 A 
ATOM     10  O   UNL     1      20.411  51.436  55.661  1.00  0.00    -0.246 OA
ATOM     11  O   UNL     1      21.221  51.406  53.574  1.00  0.00    -0.423 OA
ENDROOT
BRANCH   1  12
ATOM     12  O   UNL     1      22.614  53.873  48.803  1.00  0.00    -0.493 OA
ATOM     13  C   UNL     1      23.488  54.991  48.678  1.00  0.00     0.278 C 
ENDBRANCH   1  12
BRANCH   2  14
ATOM     14  O   UNL     1      22.987  51.180  49.093  1.00  0.00    -0.493 OA
ATOM     15  C   UNL     1      23.864  50.066  49.224  1.00  0.00     0.278 C 
ENDBRANCH   2  14
TORSDOF 2
ENDMDL
MODEL 7
REMARK VINA RESULT:    -4.231      1.192      2.939
REMARK INTER + INTRA:          -4.829
REMARK INTER:                  -4.726
REMARK INTRA:                  -0.102
REMARK UNBOUND:                -0.103
REMARK SMILES COc1cc2ccc(=O)oc2cc1OC
REMARK SMILES IDX 3 1 13 2 12 3 11 4 5 5 4 6 6 7 7 8 8 9 9 10 10 11 2 12 1 13
REMARK SMILES IDX 14 14 15 15
REMARK H PARENT
REMARK Flexibility Score: inf
ROOT
ATOM      1  C   UNL     1      21.170  52.053  54.103  1.00  0.00     0.161 A 
ATOM      2  C   UNL     1      22.363  51.352  54.351  1.00  0.00     0.164 A 
ATOM      3  C   UNL     1      23.130  50.874  53.270  1.00  0.00     0.098 A 
ATOM      4  C   UNL     1      22.714  51.093  51.956  1.00  0.00     0.142 A 
ATOM      5  C   UNL     1      21.517  51.796  51.706  1.00  0.00     0.022 A 
ATOM      6  C   UNL     1      20.750  52.272  52.776  1.00  0.00     0.062 A 
ATOM      7  C   UNL     1      21.127  51.998  50.378  1.00  0.00     0.019 A 
ATOM      8  C   UNL     1      21.925  51.504  49.347  1.00  0.00     0.094 A 
ATOM      9  C   UNL     1      23.100  50.816  49.670  1.00  0.00     0.336 A 
ATOM     10  O   UNL     1      23.833  50.362  48.754  1.00  0.00    -0.246 OA
ATOM     11  O   UNL     1      23.446  50.637  50.942  1.00  0.00    -0.423 OA
ENDROOT
BRANCH   1  12
ATOM     12  O   UNL     1      20.430  52.514  55.204  1.00  0.00    -0.493 OA
ATOM     13  C   UNL     1      19.146  53.124  55.115  1.00  0.00     0.278 C 
ENDBRANCH   1  12
BRANCH   2  14
ATOM     14  O   UNL     1      22.751  51.150  55.685  1.00  0.00    -0.493 OA
ATOM     15  C   UNL     1      23.619  50.111  56.125  1.00  0.00     0.278 C 
ENDBRANCH   2  14
TORSDOF 2
ENDMDL
MODEL 8
REMARK VINA RESULT:    -4.000     11.266     13.392
REMARK INTER + INTRA:          -4.570
REMARK INTER:                  -4.467
REMARK INTRA:                  -0.103
REMARK UNBOUND:                -0.103
REMARK SMILES COc1cc2ccc(=O)oc2cc1OC
REMARK SMILES IDX 3 1 13 2 12 3 11 4 5 5 4 6 6 7 7 8 8 9 9 10 10 11 2 12 1 13
REMARK SMILES IDX 14 14 15 15
REMARK H PARENT
REMARK Flexibility Score: inf
ROOT
ATOM      1  C   UNL     1      21.732  53.754  41.115  1.00  0.00     0.161 A 
ATOM      2  C   UNL     1      20.362  53.790  40.802  1.00  0.00     0.164 A 
ATOM      3  C   UNL     1      19.886  53.103  39.668  1.00  0.00     0.098 A 
ATOM      4  C   UNL     1      20.765  52.385  38.854  1.00  0.00     0.142 A 
ATOM      5  C   UNL     1      22.140  52.349  39.169  1.00  0.00     0.022 A 
ATOM      6  C   UNL     1      22.619  53.030  40.293  1.00  0.00     0.062 A 
ATOM      7  C   UNL     1      22.995  51.621  38.334  1.00  0.00     0.019 A 
ATOM      8  C   UNL     1      22.470  50.960  37.225  1.00  0.00     0.094 A 
ATOM      9  C   UNL     1      21.096  51.040  36.976  1.00  0.00     0.336 A 
ATOM     10  O   UNL     1      20.602  50.450  35.980  1.00  0.00    -0.246 OA
ATOM     11  O   UNL     1      20.306  51.739  37.786  1.00  0.00    -0.423 OA
ENDROOT
BRANCH   1  12
ATOM     12  O   UNL     1      22.172  54.451  42.252  1.00  0.00    -0.493 OA
ATOM     13  C   UNL     1      23.512  54.885  42.465  1.00  0.00     0.278 C 
ENDBRANCH   1  12
BRANCH   2  14
ATOM     14  O   UNL     1      19.507  54.522  41.641  1.00  0.00    -0.493 OA
ATOM     15  C   UNL     1      18.239  55.037  41.251  1.00  0.00     0.278 C 
ENDBRANCH   2  14
TORSDOF 2
ENDMDL
MODEL 9
REMARK VINA RESULT:    -3.978     11.323     14.041
REMARK INTER + INTRA:          -4.546
REMARK INTER:                  -4.422
REMARK INTRA:                  -0.123
REMARK UNBOUND:                -0.103
REMARK SMILES COc1cc2ccc(=O)oc2cc1OC
REMARK SMILES IDX 3 1 13 2 12 3 11 4 5 5 4 6 6 7 7 8 8 9 9 10 10 11 2 12 1 13
REMARK SMILES IDX 14 14 15 15
REMARK H PARENT
REMARK Flexibility Score: inf
ROOT
ATOM      1  C   UNL     1      19.929  54.450  40.558  1.00  0.00     0.161 A 
ATOM      2  C   UNL     1      21.071  53.686  40.853  1.00  0.00     0.164 A 
ATOM      3  C   UNL     1      21.538  52.739  39.921  1.00  0.00     0.098 A 
ATOM      4  C   UNL     1      20.875  52.554  38.706  1.00  0.00     0.142 A 
ATOM      5  C   UNL     1      19.729  53.321  38.410  1.00  0.00     0.022 A 
ATOM      6  C   UNL     1      19.260  54.263  39.332  1.00  0.00     0.062 A 
ATOM      7  C   UNL     1      19.086  53.113  37.185  1.00  0.00     0.019 A 
ATOM      8  C   UNL     1      19.592  52.162  36.299  1.00  0.00     0.094 A 
ATOM      9  C   UNL     1      20.734  51.439  36.661  1.00  0.00     0.336 A 
ATOM     10  O   UNL     1      21.206  50.577  35.875  1.00  0.00    -0.246 OA
ATOM     11  O   UNL     1      21.325  51.657  37.832  1.00  0.00    -0.423 OA
ENDROOT
BRANCH   1  12
ATOM     12  O   UNL     1      19.491  55.385  41.511  1.00  0.00    -0.493 OA
ATOM     13  C   UNL     1      18.125  55.638  41.825  1.00  0.00     0.278 C 
ENDBRANCH   1  12
BRANCH   2  14
ATOM     14  O   UNL     1      21.713  53.897  42.084  1.00  0.00    -0.493 OA
ATOM     15  C   UNL     1      22.931  54.617  42.247  1.00  0.00     0.278 C 
ENDBRANCH   2  14
TORSDOF 2
ENDMDL
