MODEL 1
REMARK VINA RESULT:    -5.321      0.000      0.000
REMARK INTER + INTRA:         -14.978
REMARK INTER:                 -12.163
REMARK INTRA:                  -2.814
REMARK UNBOUND:                -2.814
REMARK SMILES CCCCCCCCCCCCCCCCCCCCCCCC(=O)[O-]
REMARK SMILES IDX 13 1 14 2 15 3 16 4 17 5 18 6 19 7 20 8 21 9 22 10 23 11
REMARK SMILES IDX 24 12 25 13 26 14 12 15 11 16 10 17 9 18 8 19 7 20 6 21 5 22
REMARK SMILES IDX 4 23 3 24 2 25 1 26
REMARK H PARENT
REMARK Flexibility Score: inf
ROOT
ATOM      1  C   UNL     1      42.283  36.369  12.146  1.00  0.00     0.000 C 
ENDROOT
BRANCH   1   2
ATOM      2  C   UNL     1      43.707  36.852  12.476  1.00  0.00     0.000 C 
BRANCH   2   3
ATOM      3  C   UNL     1      44.617  35.722  12.987  1.00  0.00     0.000 C 
BRANCH   3   4
ATOM      4  C   UNL     1      46.059  35.849  12.467  1.00  0.00     0.000 C 
BRANCH   4   5
ATOM      5  C   UNL     1      46.640  34.499  12.010  1.00  0.00     0.000 C 
BRANCH   5   6
ATOM      6  C   UNL     1      48.123  34.335  12.380  1.00  0.00     0.000 C 
BRANCH   6   7
ATOM      7  C   UNL     1      48.482  32.891  12.771  1.00  0.00     0.000 C 
BRANCH   7   8
ATOM      8  C   UNL     1      48.236  32.606  14.262  1.00  0.00     0.000 C 
BRANCH   8   9
ATOM      9  C   UNL     1      48.359  33.865  15.133  1.00  0.00     0.000 C 
BRANCH   9  10
ATOM     10  C   UNL     1      47.528  33.725  16.415  1.00  0.00     0.006 C 
BRANCH  10  11
ATOM     11  C   UNL     1      48.428  33.527  17.637  1.00  0.00     0.053 C 
BRANCH  11  12
ATOM     12  C   UNL     1      48.725  32.074  17.838  1.00  0.00     0.041 C 
ATOM     13  O   UNL     1      49.856  31.612  17.536  1.00  0.00    -0.550 OA
ATOM     14  O   UNL     1      47.772  31.242  18.415  1.00  0.00    -0.550 OA
ENDBRANCH  11  12
ENDBRANCH  10  11
ENDBRANCH   9  10
ENDBRANCH   8   9
ENDBRANCH   7   8
ENDBRANCH   6   7
ENDBRANCH   5   6
ENDBRANCH   4   5
ENDBRANCH   3   4
ENDBRANCH   2   3
ENDBRANCH   1   2
BRANCH   1  15
ATOM     15  C   UNL     1      42.028  36.058  10.657  1.00  0.00     0.000 C 
BRANCH  15  16
ATOM     16  C   UNL     1      40.681  35.370  10.351  1.00  0.00     0.000 C 
BRANCH  16  17
ATOM     17  C   UNL     1      39.851  34.979  11.587  1.00  0.00     0.000 C 
BRANCH  17  18
ATOM     18  C   UNL     1      38.645  35.906  11.810  1.00  0.00    -0.000 C 
BRANCH  18  19
ATOM     19  C   UNL     1      38.604  37.085  10.821  1.00  0.00    -0.000 C 
BRANCH  19  20
ATOM     20  C   UNL     1      38.728  38.483  11.460  1.00  0.00    -0.000 C 
BRANCH  20  21
ATOM     21  C   UNL     1      40.080  39.190  11.237  1.00  0.00    -0.000 C 
BRANCH  21  22
ATOM     22  C   UNL     1      40.715  39.787  12.505  1.00  0.00    -0.000 C 
BRANCH  22  23
ATOM     23  C   UNL     1      39.909  39.484  13.776  1.00  0.00    -0.000 C 
BRANCH  23  24
ATOM     24  C   UNL     1      40.482  38.261  14.508  1.00  0.00    -0.000 C 
BRANCH  24  25
ATOM     25  C   UNL     1      39.389  37.389  15.144  1.00  0.00    -0.003 C 
ATOM     26  C   UNL     1      38.006  38.035  15.084  1.00  0.00     0.004 C 
ENDBRANCH  24  25
ENDBRANCH  23  24
ENDBRANCH  22  23
ENDBRANCH  21  22
ENDBRANCH  20  21
ENDBRANCH  19  20
ENDBRANCH  18  19
ENDBRANCH  17  18
ENDBRANCH  16  17
ENDBRANCH  15  16
ENDBRANCH   1  15
TORSDOF 22
ENDMDL
MODEL 2
REMARK VINA RESULT:    -5.269      4.923     12.086
REMARK INTER + INTRA:         -14.859
REMARK INTER:                 -13.164
REMARK INTRA:                  -1.695
REMARK UNBOUND:                -2.814
REMARK SMILES CCCCCCCCCCCCCCCCCCCCCCCC(=O)[O-]
REMARK SMILES IDX 13 1 14 2 15 3 16 4 17 5 18 6 19 7 20 8 21 9 22 10 23 11
REMARK SMILES IDX 24 12 25 13 26 14 12 15 11 16 10 17 9 18 8 19 7 20 6 21 5 22
REMARK SMILES IDX 4 23 3 24 2 25 1 26
REMARK H PARENT
REMARK Flexibility Score: inf
ROOT
ATOM      1  C   UNL     1      48.216  30.392  17.289  1.00  0.00     0.000 C 
ENDROOT
BRANCH   1   2
ATOM      2  C   UNL     1      48.130  31.707  18.084  1.00  0.00     0.000 C 
BRANCH   2   3
ATOM      3  C   UNL     1      49.270  32.683  17.746  1.00  0.00     0.000 C 
BRANCH   3   4
ATOM      4  C   UNL     1      48.757  33.983  17.103  1.00  0.00     0.000 C 
BRANCH   4   5
ATOM      5  C   UNL     1      47.475  33.765  16.280  1.00  0.00     0.000 C 
BRANCH   5   6
ATOM      6  C   UNL     1      47.761  33.220  14.871  1.00  0.00     0.000 C 
BRANCH   6   7
ATOM      7  C   UNL     1      48.631  34.171  14.030  1.00  0.00     0.000 C 
BRANCH   7   8
ATOM      8  C   UNL     1      48.652  33.788  12.541  1.00  0.00     0.000 C 
BRANCH   8   9
ATOM      9  C   UNL     1      47.347  34.150  11.818  1.00  0.00     0.000 C 
BRANCH   9  10
ATOM     10  C   UNL     1      46.653  35.334  12.504  1.00  0.00     0.006 C 
BRANCH  10  11
ATOM     11  C   UNL     1      45.152  35.344  12.204  1.00  0.00     0.053 C 
BRANCH  11  12
ATOM     12  C   UNL     1      44.383  35.807  13.401  1.00  0.00     0.041 C 
ATOM     13  O   UNL     1      43.322  36.468  13.254  1.00  0.00    -0.550 OA
ATOM     14  O   UNL     1      44.805  35.457  14.678  1.00  0.00    -0.550 OA
ENDBRANCH  11  12
ENDBRANCH  10  11
ENDBRANCH   9  10
ENDBRANCH   8   9
ENDBRANCH   7   8
ENDBRANCH   6   7
ENDBRANCH   5   6
ENDBRANCH   4   5
ENDBRANCH   3   4
ENDBRANCH   2   3
ENDBRANCH   1   2
BRANCH   1  15
ATOM     15  C   UNL     1      49.618  30.045  16.749  1.00  0.00     0.000 C 
BRANCH  15  16
ATOM     16  C   UNL     1      49.730  28.681  16.037  1.00  0.00     0.000 C 
BRANCH  16  17
ATOM     17  C   UNL     1      48.424  27.867  15.975  1.00  0.00     0.000 C 
BRANCH  17  18
ATOM     18  C   UNL     1      48.670  26.362  15.776  1.00  0.00    -0.000 C 
BRANCH  18  19
ATOM     19  C   UNL     1      49.263  25.682  17.024  1.00  0.00    -0.000 C 
BRANCH  19  20
ATOM     20  C   UNL     1      48.509  25.954  18.341  1.00  0.00    -0.000 C 
BRANCH  20  21
ATOM     21  C   UNL     1      49.041  25.192  19.572  1.00  0.00    -0.000 C 
BRANCH  21  22
ATOM     22  C   UNL     1      48.322  25.516  20.894  1.00  0.00    -0.000 C 
BRANCH  22  23
ATOM     23  C   UNL     1      49.155  26.411  21.822  1.00  0.00    -0.000 C 
BRANCH  23  24
ATOM     24  C   UNL     1      50.026  25.564  22.761  1.00  0.00    -0.000 C 
BRANCH  24  25
ATOM     25  C   UNL     1      51.499  25.527  22.327  1.00  0.00    -0.003 C 
ATOM     26  C   UNL     1      52.070  26.917  22.049  1.00  0.00     0.004 C 
ENDBRANCH  24  25
ENDBRANCH  23  24
ENDBRANCH  22  23
ENDBRANCH  21  22
ENDBRANCH  20  21
ENDBRANCH  19  20
ENDBRANCH  18  19
ENDBRANCH  17  18
ENDBRANCH  16  17
ENDBRANCH  15  16
ENDBRANCH   1  15
TORSDOF 22
ENDMDL
MODEL 3
REMARK VINA RESULT:    -5.200      3.291      9.725
REMARK INTER + INTRA:         -14.701
REMARK INTER:                 -12.518
REMARK INTRA:                  -2.184
REMARK UNBOUND:                -2.814
REMARK SMILES CCCCCCCCCCCCCCCCCCCCCCCC(=O)[O-]
REMARK SMILES IDX 13 1 14 2 15 3 16 4 17 5 18 6 19 7 20 8 21 9 22 10 23 11
REMARK SMILES IDX 24 12 25 13 26 14 12 15 11 16 10 17 9 18 8 19 7 20 6 21 5 22
REMARK SMILES IDX 4 23 3 24 2 25 1 26
REMARK H PARENT
REMARK Flexibility Score: inf
ROOT
ATOM      1  C   UNL     1      45.975  35.794  12.782  1.00  0.00     0.000 C 
ENDROOT
BRANCH   1   2
ATOM      2  C   UNL     1      44.509  35.771  13.252  1.00  0.00     0.000 C 
BRANCH   2   3
ATOM      3  C   UNL     1      43.620  36.761  12.480  1.00  0.00     0.000 C 
BRANCH   3   4
ATOM      4  C   UNL     1      42.303  36.121  12.007  1.00  0.00     0.000 C 
BRANCH   4   5
ATOM      5  C   UNL     1      42.091  36.267  10.490  1.00  0.00     0.000 C 
BRANCH   5   6
ATOM      6  C   UNL     1      40.889  35.456   9.978  1.00  0.00     0.000 C 
BRANCH   6   7
ATOM      7  C   UNL     1      40.179  34.674  11.098  1.00  0.00     0.000 C 
BRANCH   7   8
ATOM      8  C   UNL     1      38.787  35.242  11.421  1.00  0.00     0.000 C 
BRANCH   8   9
ATOM      9  C   UNL     1      38.510  36.571  10.703  1.00  0.00     0.000 C 
BRANCH   9  10
ATOM     10  C   UNL     1      38.741  37.760  11.646  1.00  0.00     0.006 C 
BRANCH  10  11
ATOM     11  C   UNL     1      38.795  37.303  13.106  1.00  0.00     0.053 C 
BRANCH  11  12
ATOM     12  C   UNL     1      39.918  37.983  13.824  1.00  0.00     0.041 C 
ATOM     13  O   UNL     1      40.535  38.934  13.277  1.00  0.00    -0.550 OA
ATOM     14  O   UNL     1      40.244  37.606  15.122  1.00  0.00    -0.550 OA
ENDBRANCH  11  12
ENDBRANCH  10  11
ENDBRANCH   9  10
ENDBRANCH   8   9
ENDBRANCH   7   8
ENDBRANCH   6   7
ENDBRANCH   5   6
ENDBRANCH   4   5
ENDBRANCH   3   4
ENDBRANCH   2   3
ENDBRANCH   1   2
BRANCH   1  15
ATOM     15  C   UNL     1      46.406  34.585  11.928  1.00  0.00     0.000 C 
BRANCH  15  16
ATOM     16  C   UNL     1      47.909  34.242  11.986  1.00  0.00     0.000 C 
BRANCH  16  17
ATOM     17  C   UNL     1      48.330  33.343  13.162  1.00  0.00     0.000 C 
BRANCH  17  18
ATOM     18  C   UNL     1      48.478  34.119  14.481  1.00  0.00    -0.000 C 
BRANCH  18  19
ATOM     19  C   UNL     1      47.437  33.710  15.539  1.00  0.00    -0.000 C 
BRANCH  19  20
ATOM     20  C   UNL     1      47.793  34.084  16.991  1.00  0.00    -0.000 C 
BRANCH  20  21
ATOM     21  C   UNL     1      49.157  33.563  17.488  1.00  0.00    -0.000 C 
BRANCH  21  22
ATOM     22  C   UNL     1      49.123  32.157  18.113  1.00  0.00    -0.000 C 
BRANCH  22  23
ATOM     23  C   UNL     1      49.023  31.040  17.065  1.00  0.00    -0.000 C 
BRANCH  23  24
ATOM     24  C   UNL     1      47.790  30.161  17.319  1.00  0.00    -0.000 C 
BRANCH  24  25
ATOM     25  C   UNL     1      47.325  29.418  16.057  1.00  0.00    -0.003 C 
ATOM     26  C   UNL     1      47.753  30.117  14.766  1.00  0.00     0.004 C 
ENDBRANCH  24  25
ENDBRANCH  23  24
ENDBRANCH  22  23
ENDBRANCH  21  22
ENDBRANCH  20  21
ENDBRANCH  19  20
ENDBRANCH  18  19
ENDBRANCH  17  18
ENDBRANCH  16  17
ENDBRANCH  15  16
ENDBRANCH   1  15
TORSDOF 22
ENDMDL
MODEL 4
REMARK VINA RESULT:    -5.187      1.438      2.765
REMARK INTER + INTRA:         -14.673
REMARK INTER:                 -12.274
REMARK INTRA:                  -2.399
REMARK UNBOUND:                -2.814
REMARK SMILES CCCCCCCCCCCCCCCCCCCCCCCC(=O)[O-]
REMARK SMILES IDX 13 1 14 2 15 3 16 4 17 5 18 6 19 7 20 8 21 9 22 10 23 11
REMARK SMILES IDX 24 12 25 13 26 14 12 15 11 16 10 17 9 18 8 19 7 20 6 21 5 22
REMARK SMILES IDX 4 23 3 24 2 25 1 26
REMARK H PARENT
REMARK Flexibility Score: inf
ROOT
ATOM      1  C   UNL     1      44.751  35.737  13.050  1.00  0.00     0.000 C 
ENDROOT
BRANCH   1   2
ATOM      2  C   UNL     1      46.247  35.890  12.719  1.00  0.00     0.000 C 
BRANCH   2   3
ATOM      3  C   UNL     1      46.927  34.547  12.402  1.00  0.00     0.000 C 
BRANCH   3   4
ATOM      4  C   UNL     1      48.326  34.435  13.032  1.00  0.00     0.000 C 
BRANCH   4   5
ATOM      5  C   UNL     1      48.374  33.405  14.174  1.00  0.00     0.000 C 
BRANCH   5   6
ATOM      6  C   UNL     1      47.511  33.813  15.379  1.00  0.00     0.000 C 
BRANCH   6   7
ATOM      7  C   UNL     1      48.351  34.191  16.612  1.00  0.00     0.000 C 
BRANCH   7   8
ATOM      8  C   UNL     1      48.302  33.116  17.710  1.00  0.00     0.000 C 
BRANCH   8   9
ATOM      9  C   UNL     1      49.581  32.268  17.764  1.00  0.00     0.000 C 
BRANCH   9  10
ATOM     10  C   UNL     1      49.375  30.924  17.053  1.00  0.00     0.006 C 
BRANCH  10  11
ATOM     11  C   UNL     1      47.948  30.406  17.253  1.00  0.00     0.053 C 
BRANCH  11  12
ATOM     12  C   UNL     1      47.576  29.462  16.153  1.00  0.00     0.041 C 
ATOM     13  O   UNL     1      47.320  28.258  16.412  1.00  0.00    -0.550 OA
ATOM     14  O   UNL     1      47.452  29.928  14.849  1.00  0.00    -0.550 OA
ENDBRANCH  11  12
ENDBRANCH  10  11
ENDBRANCH   9  10
ENDBRANCH   8   9
ENDBRANCH   7   8
ENDBRANCH   6   7
ENDBRANCH   5   6
ENDBRANCH   4   5
ENDBRANCH   3   4
ENDBRANCH   2   3
ENDBRANCH   1   2
BRANCH   1  15
ATOM     15  C   UNL     1      43.840  36.845  12.483  1.00  0.00     0.000 C 
BRANCH  15  16
ATOM     16  C   UNL     1      42.341  36.491  12.411  1.00  0.00     0.000 C 
BRANCH  16  17
ATOM     17  C   UNL     1      41.844  36.024  11.031  1.00  0.00     0.000 C 
BRANCH  17  18
ATOM     18  C   UNL     1      40.449  35.381  11.087  1.00  0.00    -0.000 C 
BRANCH  18  19
ATOM     19  C   UNL     1      39.408  36.269  11.793  1.00  0.00    -0.000 C 
BRANCH  19  20
ATOM     20  C   UNL     1      38.620  37.219  10.869  1.00  0.00    -0.000 C 
BRANCH  20  21
ATOM     21  C   UNL     1      38.715  38.715  11.229  1.00  0.00    -0.000 C 
BRANCH  21  22
ATOM     22  C   UNL     1      40.138  39.217  11.536  1.00  0.00    -0.000 C 
BRANCH  22  23
ATOM     23  C   UNL     1      40.317  39.645  12.999  1.00  0.00    -0.000 C 
BRANCH  23  24
ATOM     24  C   UNL     1      38.996  39.517  13.772  1.00  0.00    -0.000 C 
BRANCH  24  25
ATOM     25  C   UNL     1      39.025  38.381  14.806  1.00  0.00    -0.003 C 
ATOM     26  C   UNL     1      40.444  37.995  15.222  1.00  0.00     0.004 C 
ENDBRANCH  24  25
ENDBRANCH  23  24
ENDBRANCH  22  23
ENDBRANCH  21  22
ENDBRANCH  20  21
ENDBRANCH  19  20
ENDBRANCH  18  19
ENDBRANCH  17  18
ENDBRANCH  16  17
ENDBRANCH  15  16
ENDBRANCH   1  15
TORSDOF 22
ENDMDL
MODEL 5
REMARK VINA RESULT:    -5.139      4.012      8.194
REMARK INTER + INTRA:         -14.562
REMARK INTER:                 -12.771
REMARK INTRA:                  -1.791
REMARK UNBOUND:                -2.814
REMARK SMILES CCCCCCCCCCCCCCCCCCCCCCCC(=O)[O-]
REMARK SMILES IDX 13 1 14 2 15 3 16 4 17 5 18 6 19 7 20 8 21 9 22 10 23 11
REMARK SMILES IDX 24 12 25 13 26 14 12 15 11 16 10 17 9 18 8 19 7 20 6 21 5 22
REMARK SMILES IDX 4 23 3 24 2 25 1 26
REMARK H PARENT
REMARK Flexibility Score: inf
ROOT
ATOM      1  C   UNL     1      49.709  32.345  17.792  1.00  0.00     0.000 C 
ENDROOT
BRANCH   1   2
ATOM      2  C   UNL     1      49.427  30.904  17.329  1.00  0.00     0.000 C 
BRANCH   2   3
ATOM      3  C   UNL     1      47.968  30.477  17.565  1.00  0.00     0.000 C 
BRANCH   3   4
ATOM      4  C   UNL     1      47.358  29.773  16.341  1.00  0.00     0.000 C 
BRANCH   4   5
ATOM      5  C   UNL     1      48.273  28.668  15.784  1.00  0.00     0.000 C 
BRANCH   5   6
ATOM      6  C   UNL     1      48.440  27.488  16.756  1.00  0.00     0.000 C 
BRANCH   6   7
ATOM      7  C   UNL     1      49.644  26.595  16.407  1.00  0.00     0.000 C 
BRANCH   7   8
ATOM      8  C   UNL     1      49.692  25.314  17.256  1.00  0.00     0.000 C 
BRANCH   8   9
ATOM      9  C   UNL     1      48.935  25.456  18.584  1.00  0.00     0.000 C 
BRANCH   9  10
ATOM     10  C   UNL     1      49.840  25.097  19.770  1.00  0.00     0.006 C 
BRANCH  10  11
ATOM     11  C   UNL     1      49.039  25.015  21.072  1.00  0.00     0.053 C 
BRANCH  11  12
ATOM     12  C   UNL     1      49.093  26.321  21.802  1.00  0.00     0.041 C 
ATOM     13  O   UNL     1      48.187  27.178  21.632  1.00  0.00    -0.550 OA
ATOM     14  O   UNL     1      50.112  26.565  22.715  1.00  0.00    -0.550 OA
ENDBRANCH  11  12
ENDBRANCH  10  11
ENDBRANCH   9  10
ENDBRANCH   8   9
ENDBRANCH   7   8
ENDBRANCH   6   7
ENDBRANCH   5   6
ENDBRANCH   4   5
ENDBRANCH   3   4
ENDBRANCH   2   3
ENDBRANCH   1   2
BRANCH   1  15
ATOM     15  C   UNL     1      48.530  33.325  17.631  1.00  0.00     0.000 C 
BRANCH  15  16
ATOM     16  C   UNL     1      48.491  34.093  16.294  1.00  0.00     0.000 C 
BRANCH  16  17
ATOM     17  C   UNL     1      47.573  33.486  15.217  1.00  0.00     0.000 C 
BRANCH  17  18
ATOM     18  C   UNL     1      48.313  32.514  14.284  1.00  0.00    -0.000 C 
BRANCH  18  19
ATOM     19  C   UNL     1      48.556  33.099  12.880  1.00  0.00    -0.000 C 
BRANCH  19  20
ATOM     20  C   UNL     1      48.086  34.555  12.685  1.00  0.00    -0.000 C 
BRANCH  20  21
ATOM     21  C   UNL     1      46.654  34.715  12.136  1.00  0.00    -0.000 C 
BRANCH  21  22
ATOM     22  C   UNL     1      45.930  35.997  12.583  1.00  0.00    -0.000 C 
BRANCH  22  23
ATOM     23  C   UNL     1      44.543  35.721  13.182  1.00  0.00    -0.000 C 
BRANCH  23  24
ATOM     24  C   UNL     1      43.503  36.708  12.632  1.00  0.00    -0.000 C 
BRANCH  24  25
ATOM     25  C   UNL     1      42.525  36.047  11.649  1.00  0.00    -0.003 C 
ATOM     26  C   UNL     1      41.102  36.591  11.774  1.00  0.00     0.004 C 
ENDBRANCH  24  25
ENDBRANCH  23  24
ENDBRANCH  22  23
ENDBRANCH  21  22
ENDBRANCH  20  21
ENDBRANCH  19  20
ENDBRANCH  18  19
ENDBRANCH  17  18
ENDBRANCH  16  17
ENDBRANCH  15  16
ENDBRANCH   1  15
TORSDOF 22
ENDMDL
MODEL 6
REMARK VINA RESULT:    -5.069      3.048      5.583
REMARK INTER + INTRA:         -14.402
REMARK INTER:                 -12.833
REMARK INTRA:                  -1.569
REMARK UNBOUND:                -2.814
REMARK SMILES CCCCCCCCCCCCCCCCCCCCCCCC(=O)[O-]
REMARK SMILES IDX 13 1 14 2 15 3 16 4 17 5 18 6 19 7 20 8 21 9 22 10 23 11
REMARK SMILES IDX 24 12 25 13 26 14 12 15 11 16 10 17 9 18 8 19 7 20 6 21 5 22
REMARK SMILES IDX 4 23 3 24 2 25 1 26
REMARK H PARENT
REMARK Flexibility Score: inf
ROOT
ATOM      1  C   UNL     1      48.551  34.373  13.788  1.00  0.00     0.000 C 
ENDROOT
BRANCH   1   2
ATOM      2  C   UNL     1      48.058  33.403  14.877  1.00  0.00     0.000 C 
BRANCH   2   3
ATOM      3  C   UNL     1      48.237  33.962  16.299  1.00  0.00     0.000 C 
BRANCH   3   4
ATOM      4  C   UNL     1      48.124  32.869  17.376  1.00  0.00     0.000 C 
BRANCH   4   5
ATOM      5  C   UNL     1      49.399  32.013  17.480  1.00  0.00     0.000 C 
BRANCH   5   6
ATOM      6  C   UNL     1      49.176  30.560  17.030  1.00  0.00     0.000 C 
BRANCH   6   7
ATOM      7  C   UNL     1      47.686  30.190  16.927  1.00  0.00     0.000 C 
BRANCH   7   8
ATOM      8  C   UNL     1      47.467  28.789  16.334  1.00  0.00     0.000 C 
BRANCH   8   9
ATOM      9  C   UNL     1      48.705  28.259  15.596  1.00  0.00     0.000 C 
BRANCH   9  10
ATOM     10  C   UNL     1      48.761  26.727  15.654  1.00  0.00     0.006 C 
BRANCH  10  11
ATOM     11  C   UNL     1      47.957  26.189  16.841  1.00  0.00     0.053 C 
BRANCH  11  12
ATOM     12  C   UNL     1      48.876  25.695  17.914  1.00  0.00     0.041 C 
ATOM     13  O   UNL     1      50.108  25.575  17.685  1.00  0.00    -0.550 OA
ATOM     14  O   UNL     1      48.381  25.423  19.184  1.00  0.00    -0.550 OA
ENDBRANCH  11  12
ENDBRANCH  10  11
ENDBRANCH   9  10
ENDBRANCH   8   9
ENDBRANCH   7   8
ENDBRANCH   6   7
ENDBRANCH   5   6
ENDBRANCH   4   5
ENDBRANCH   3   4
ENDBRANCH   2   3
ENDBRANCH   1   2
BRANCH   1  15
ATOM     15  C   UNL     1      48.031  34.080  12.366  1.00  0.00     0.000 C 
BRANCH  15  16
ATOM     16  C   UNL     1      46.575  34.513  12.098  1.00  0.00     0.000 C 
BRANCH  16  17
ATOM     17  C   UNL     1      46.111  35.762  12.868  1.00  0.00     0.000 C 
BRANCH  17  18
ATOM     18  C   UNL     1      44.612  35.730  13.207  1.00  0.00    -0.000 C 
BRANCH  18  19
ATOM     19  C   UNL     1      43.810  36.829  12.485  1.00  0.00    -0.000 C 
BRANCH  19  20
ATOM     20  C   UNL     1      42.717  36.321  11.525  1.00  0.00    -0.000 C 
BRANCH  20  21
ATOM     21  C   UNL     1      41.650  37.363  11.133  1.00  0.00    -0.000 C 
BRANCH  21  22
ATOM     22  C   UNL     1      40.814  37.906  12.305  1.00  0.00    -0.000 C 
BRANCH  22  23
ATOM     23  C   UNL     1      39.885  36.847  12.916  1.00  0.00    -0.000 C 
BRANCH  23  24
ATOM     24  C   UNL     1      38.605  36.696  12.081  1.00  0.00    -0.000 C 
BRANCH  24  25
ATOM     25  C   UNL     1      38.731  35.613  10.998  1.00  0.00    -0.003 C 
ATOM     26  C   UNL     1      38.891  34.208  11.581  1.00  0.00     0.004 C 
ENDBRANCH  24  25
ENDBRANCH  23  24
ENDBRANCH  22  23
ENDBRANCH  21  22
ENDBRANCH  20  21
ENDBRANCH  19  20
ENDBRANCH  18  19
ENDBRANCH  17  18
ENDBRANCH  16  17
ENDBRANCH  15  16
ENDBRANCH   1  15
TORSDOF 22
ENDMDL
MODEL 7
REMARK VINA RESULT:    -5.067      6.743     11.168
REMARK INTER + INTRA:         -14.399
REMARK INTER:                 -12.233
REMARK INTRA:                  -2.165
REMARK UNBOUND:                -2.814
REMARK SMILES CCCCCCCCCCCCCCCCCCCCCCCC(=O)[O-]
REMARK SMILES IDX 13 1 14 2 15 3 16 4 17 5 18 6 19 7 20 8 21 9 22 10 23 11
REMARK SMILES IDX 24 12 25 13 26 14 12 15 11 16 10 17 9 18 8 19 7 20 6 21 5 22
REMARK SMILES IDX 4 23 3 24 2 25 1 26
REMARK H PARENT
REMARK Flexibility Score: inf
ROOT
ATOM      1  C   UNL     1      48.179  27.186  16.360  1.00  0.00     0.000 C 
ENDROOT
BRANCH   1   2
ATOM      2  C   UNL     1      48.348  26.000  17.325  1.00  0.00     0.000 C 
BRANCH   2   3
ATOM      3  C   UNL     1      49.813  25.773  17.739  1.00  0.00     0.000 C 
BRANCH   3   4
ATOM      4  C   UNL     1      49.934  24.986  19.056  1.00  0.00     0.000 C 
BRANCH   4   5
ATOM      5  C   UNL     1      48.776  25.282  20.025  1.00  0.00     0.000 C 
BRANCH   5   6
ATOM      6  C   UNL     1      49.140  26.339  21.081  1.00  0.00     0.000 C 
BRANCH   6   7
ATOM      7  C   UNL     1      49.502  25.719  22.443  1.00  0.00     0.000 C 
BRANCH   7   8
ATOM      8  C   UNL     1      51.017  25.528  22.618  1.00  0.00     0.000 C 
BRANCH   8   9
ATOM      9  C   UNL     1      51.832  26.696  22.045  1.00  0.00     0.000 C 
BRANCH   9  10
ATOM     10  C   UNL     1      52.866  26.195  21.029  1.00  0.00     0.006 C 
BRANCH  10  11
ATOM     11  C   UNL     1      52.972  27.146  19.834  1.00  0.00     0.053 C 
BRANCH  11  12
ATOM     12  C   UNL     1      53.836  26.550  18.767  1.00  0.00     0.041 C 
ATOM     13  O   UNL     1      53.383  25.645  18.018  1.00  0.00    -0.550 OA
ATOM     14  O   UNL     1      55.121  27.037  18.560  1.00  0.00    -0.550 OA
ENDBRANCH  11  12
ENDBRANCH  10  11
ENDBRANCH   9  10
ENDBRANCH   8   9
ENDBRANCH   7   8
ENDBRANCH   6   7
ENDBRANCH   5   6
ENDBRANCH   4   5
ENDBRANCH   3   4
ENDBRANCH   2   3
ENDBRANCH   1   2
BRANCH   1  15
ATOM     15  C   UNL     1      49.146  28.364  16.596  1.00  0.00     0.000 C 
BRANCH  15  16
ATOM     16  C   UNL     1      48.472  29.731  16.831  1.00  0.00     0.000 C 
BRANCH  16  17
ATOM     17  C   UNL     1      49.410  30.846  17.327  1.00  0.00     0.000 C 
BRANCH  17  18
ATOM     18  C   UNL     1      48.652  32.011  17.986  1.00  0.00    -0.000 C 
BRANCH  18  19
ATOM     19  C   UNL     1      49.323  33.376  17.742  1.00  0.00    -0.000 C 
BRANCH  19  20
ATOM     20  C   UNL     1      48.582  34.306  16.761  1.00  0.00    -0.000 C 
BRANCH  20  21
ATOM     21  C   UNL     1      47.541  33.613  15.858  1.00  0.00    -0.000 C 
BRANCH  21  22
ATOM     22  C   UNL     1      48.105  33.033  14.549  1.00  0.00    -0.000 C 
BRANCH  22  23
ATOM     23  C   UNL     1      48.630  34.115  13.594  1.00  0.00    -0.000 C 
BRANCH  23  24
ATOM     24  C   UNL     1      47.862  34.089  12.264  1.00  0.00    -0.000 C 
BRANCH  24  25
ATOM     25  C   UNL     1      48.724  33.585  11.096  1.00  0.00    -0.003 C 
ATOM     26  C   UNL     1      50.212  33.528  11.439  1.00  0.00     0.004 C 
ENDBRANCH  24  25
ENDBRANCH  23  24
ENDBRANCH  22  23
ENDBRANCH  21  22
ENDBRANCH  20  21
ENDBRANCH  19  20
ENDBRANCH  18  19
ENDBRANCH  17  18
ENDBRANCH  16  17
ENDBRANCH  15  16
ENDBRANCH   1  15
TORSDOF 22
ENDMDL
MODEL 8
REMARK VINA RESULT:    -5.009      5.125     11.786
REMARK INTER + INTRA:         -14.266
REMARK INTER:                 -12.604
REMARK INTRA:                  -1.662
REMARK UNBOUND:                -2.814
REMARK SMILES CCCCCCCCCCCCCCCCCCCCCCCC(=O)[O-]
REMARK SMILES IDX 13 1 14 2 15 3 16 4 17 5 18 6 19 7 20 8 21 9 22 10 23 11
REMARK SMILES IDX 24 12 25 13 26 14 12 15 11 16 10 17 9 18 8 19 7 20 6 21 5 22
REMARK SMILES IDX 4 23 3 24 2 25 1 26
REMARK H PARENT
REMARK Flexibility Score: inf
ROOT
ATOM      1  C   UNL     1      48.204  32.738  17.892  1.00  0.00     0.000 C 
ENDROOT
BRANCH   1   2
ATOM      2  C   UNL     1      48.394  33.919  16.924  1.00  0.00     0.000 C 
BRANCH   2   3
ATOM      3  C   UNL     1      47.570  33.769  15.633  1.00  0.00     0.000 C 
BRANCH   3   4
ATOM      4  C   UNL     1      48.431  33.335  14.435  1.00  0.00     0.000 C 
BRANCH   4   5
ATOM      5  C   UNL     1      48.455  34.391  13.316  1.00  0.00     0.000 C 
BRANCH   5   6
ATOM      6  C   UNL     1      47.729  33.924  12.043  1.00  0.00     0.000 C 
BRANCH   6   7
ATOM      7  C   UNL     1      46.447  34.729  11.761  1.00  0.00     0.000 C 
BRANCH   7   8
ATOM      8  C   UNL     1      46.150  35.766  12.856  1.00  0.00     0.000 C 
BRANCH   8   9
ATOM      9  C   UNL     1      44.683  35.747  13.307  1.00  0.00     0.000 C 
BRANCH   9  10
ATOM     10  C   UNL     1      43.860  36.786  12.535  1.00  0.00     0.006 C 
BRANCH  10  11
ATOM     11  C   UNL     1      42.727  36.120  11.749  1.00  0.00     0.053 C 
BRANCH  11  12
ATOM     12  C   UNL     1      42.020  37.128  10.898  1.00  0.00     0.041 C 
ATOM     13  O   UNL     1      42.616  38.172  10.527  1.00  0.00    -0.550 OA
ATOM     14  O   UNL     1      40.722  36.883  10.465  1.00  0.00    -0.550 OA
ENDBRANCH  11  12
ENDBRANCH  10  11
ENDBRANCH   9  10
ENDBRANCH   8   9
ENDBRANCH   7   8
ENDBRANCH   6   7
ENDBRANCH   5   6
ENDBRANCH   4   5
ENDBRANCH   3   4
ENDBRANCH   2   3
ENDBRANCH   1   2
BRANCH   1  15
ATOM     15  C   UNL     1      49.055  31.491  17.577  1.00  0.00     0.000 C 
BRANCH  15  16
ATOM     16  C   UNL     1      48.260  30.254  17.109  1.00  0.00     0.000 C 
BRANCH  16  17
ATOM     17  C   UNL     1      48.501  29.836  15.647  1.00  0.00     0.000 C 
BRANCH  17  18
ATOM     18  C   UNL     1      48.723  28.323  15.490  1.00  0.00    -0.000 C 
BRANCH  18  19
ATOM     19  C   UNL     1      48.079  27.502  16.621  1.00  0.00    -0.000 C 
BRANCH  19  20
ATOM     20  C   UNL     1      48.786  26.173  16.954  1.00  0.00    -0.000 C 
BRANCH  20  21
ATOM     21  C   UNL     1      48.506  25.614  18.364  1.00  0.00    -0.000 C 
BRANCH  21  22
ATOM     22  C   UNL     1      49.753  25.137  19.130  1.00  0.00    -0.000 C 
BRANCH  22  23
ATOM     23  C   UNL     1      49.498  24.958  20.633  1.00  0.00    -0.000 C 
BRANCH  23  24
ATOM     24  C   UNL     1      48.315  25.824  21.093  1.00  0.00    -0.000 C 
BRANCH  24  25
ATOM     25  C   UNL     1      48.692  26.777  22.238  1.00  0.00    -0.003 C 
ATOM     26  C   UNL     1      50.172  26.696  22.613  1.00  0.00     0.004 C 
ENDBRANCH  24  25
ENDBRANCH  23  24
ENDBRANCH  22  23
ENDBRANCH  21  22
ENDBRANCH  20  21
ENDBRANCH  19  20
ENDBRANCH  18  19
ENDBRANCH  17  18
ENDBRANCH  16  17
ENDBRANCH  15  16
ENDBRANCH   1  15
TORSDOF 22
ENDMDL
MODEL 9
REMARK VINA RESULT:    -4.971      2.214      3.916
REMARK INTER + INTRA:         -14.179
REMARK INTER:                 -12.088
REMARK INTRA:                  -2.091
REMARK UNBOUND:                -2.814
REMARK SMILES CCCCCCCCCCCCCCCCCCCCCCCC(=O)[O-]
REMARK SMILES IDX 13 1 14 2 15 3 16 4 17 5 18 6 19 7 20 8 21 9 22 10 23 11
REMARK SMILES IDX 24 12 25 13 26 14 12 15 11 16 10 17 9 18 8 19 7 20 6 21 5 22
REMARK SMILES IDX 4 23 3 24 2 25 1 26
REMARK H PARENT
REMARK Flexibility Score: inf
ROOT
ATOM      1  C   UNL     1      46.130  35.778  12.790  1.00  0.00     0.000 C 
ENDROOT
BRANCH   1   2
ATOM      2  C   UNL     1      46.628  34.583  11.955  1.00  0.00     0.000 C 
BRANCH   2   3
ATOM      3  C   UNL     1      48.024  34.099  12.382  1.00  0.00     0.000 C 
BRANCH   3   4
ATOM      4  C   UNL     1      48.355  34.474  13.837  1.00  0.00     0.000 C 
BRANCH   4   5
ATOM      5  C   UNL     1      48.042  33.334  14.823  1.00  0.00     0.000 C 
BRANCH   5   6
ATOM      6  C   UNL     1      47.945  33.818  16.279  1.00  0.00     0.000 C 
BRANCH   6   7
ATOM      7  C   UNL     1      48.131  32.680  17.298  1.00  0.00     0.000 C 
BRANCH   7   8
ATOM      8  C   UNL     1      48.605  31.373  16.641  1.00  0.00     0.000 C 
BRANCH   8   9
ATOM      9  C   UNL     1      47.717  30.174  17.000  1.00  0.00     0.000 C 
BRANCH   9  10
ATOM     10  C   UNL     1      47.814  29.081  15.927  1.00  0.00     0.006 C 
BRANCH  10  11
ATOM     11  C   UNL     1      48.183  27.731  16.547  1.00  0.00     0.053 C 
BRANCH  11  12
ATOM     12  C   UNL     1      49.530  27.288  16.069  1.00  0.00     0.041 C 
ATOM     13  O   UNL     1      49.742  26.075  15.811  1.00  0.00    -0.550 OA
ATOM     14  O   UNL     1      50.534  28.225  15.852  1.00  0.00    -0.550 OA
ENDBRANCH  11  12
ENDBRANCH  10  11
ENDBRANCH   9  10
ENDBRANCH   8   9
ENDBRANCH   7   8
ENDBRANCH   6   7
ENDBRANCH   5   6
ENDBRANCH   4   5
ENDBRANCH   3   4
ENDBRANCH   2   3
ENDBRANCH   1   2
BRANCH   1  15
ATOM     15  C   UNL     1      44.632  35.742  13.154  1.00  0.00     0.000 C 
BRANCH  15  16
ATOM     16  C   UNL     1      43.740  36.721  12.364  1.00  0.00     0.000 C 
BRANCH  16  17
ATOM     17  C   UNL     1      42.339  36.191  12.012  1.00  0.00     0.000 C 
BRANCH  17  18
ATOM     18  C   UNL     1      41.961  36.438  10.542  1.00  0.00    -0.000 C 
BRANCH  18  19
ATOM     19  C   UNL     1      40.825  35.520  10.054  1.00  0.00    -0.000 C 
BRANCH  19  20
ATOM     20  C   UNL     1      40.173  34.645  11.142  1.00  0.00    -0.000 C 
BRANCH  20  21
ATOM     21  C   UNL     1      38.752  35.071  11.564  1.00  0.00    -0.000 C 
BRANCH  21  22
ATOM     22  C   UNL     1      38.438  36.564  11.364  1.00  0.00    -0.000 C 
BRANCH  22  23
ATOM     23  C   UNL     1      38.572  37.381  12.657  1.00  0.00    -0.000 C 
BRANCH  23  24
ATOM     24  C   UNL     1      39.514  38.576  12.454  1.00  0.00    -0.000 C 
BRANCH  24  25
ATOM     25  C   UNL     1      40.193  39.021  13.759  1.00  0.00    -0.003 C 
ATOM     26  C   UNL     1      40.311  37.890  14.780  1.00  0.00     0.004 C 
ENDBRANCH  24  25
ENDBRANCH  23  24
ENDBRANCH  22  23
ENDBRANCH  21  22
ENDBRANCH  20  21
ENDBRANCH  19  20
ENDBRANCH  18  19
ENDBRANCH  17  18
ENDBRANCH  16  17
ENDBRANCH  15  16
ENDBRANCH   1  15
TORSDOF 22
ENDMDL
