MODEL 1
REMARK VINA RESULT:    -4.711      0.000      0.000
REMARK INTER + INTRA:          -8.043
REMARK INTER:                  -6.777
REMARK INTRA:                  -1.266
REMARK UNBOUND:                -1.266
REMARK SMILES O=C(CO)[C@@H](O)[C@H](O)[C@@H](O)CO
REMARK SMILES IDX 7 1 9 2 11 3 12 4 10 6 5 8 2 9 1 10 3 11 4 12 6 14 8 16
REMARK H PARENT 12 5 10 7 4 13 6 15 8 17
REMARK Flexibility Score: inf
ROOT
ATOM      1  C   UNL     1      35.406 -12.775 -18.780  1.00  0.00     0.181 C 
ENDROOT
BRANCH   1   2
ATOM      2  C   UNL     1      36.417 -12.770 -17.604  1.00  0.00     0.171 C 
BRANCH   2   3
ATOM      3  C   UNL     1      37.691 -11.957 -17.884  1.00  0.00     0.190 C 
BRANCH   3   4
ATOM      4  O   UNL     1      38.661 -12.764 -18.497  1.00  0.00    -0.394 OA
ATOM      5  H   UNL     1      39.251 -12.160 -19.019  1.00  0.00     0.210 HD
ENDBRANCH   3   4
ENDBRANCH   2   3
BRANCH   2   6
ATOM      6  O   UNL     1      36.752 -14.090 -17.258  1.00  0.00    -0.388 OA
ATOM      7  H   UNL     1      36.152 -14.360 -16.514  1.00  0.00     0.211 HD
ENDBRANCH   2   6
ENDBRANCH   1   2
BRANCH   1   8
ATOM      8  C   UNL     1      34.054 -13.509 -18.523  1.00  0.00     0.214 C 
BRANCH   8   9
ATOM      9  C   UNL     1      33.746 -14.604 -19.533  1.00  0.00     0.189 C 
ATOM     10  O   UNL     1      33.104 -14.318 -20.533  1.00  0.00    -0.294 OA
BRANCH   9  11
ATOM     11  C   UNL     1      34.119 -16.050 -19.318  1.00  0.00     0.234 C 
BRANCH  11  12
ATOM     12  O   UNL     1      35.246 -16.125 -18.489  1.00  0.00    -0.388 OA
ATOM     13  H   UNL     1      35.654 -15.221 -18.496  1.00  0.00     0.211 HD
ENDBRANCH  11  12
ENDBRANCH   9  11
ENDBRANCH   8   9
BRANCH   8  14
ATOM     14  O   UNL     1      33.994 -14.000 -17.208  1.00  0.00    -0.382 OA
ATOM     15  H   UNL     1      34.706 -14.688 -17.123  1.00  0.00     0.211 HD
ENDBRANCH   8  14
ENDBRANCH   1   8
BRANCH   1  16
ATOM     16  O   UNL     1      36.036 -13.272 -19.934  1.00  0.00    -0.387 OA
ATOM     17  H   UNL     1      36.999 -13.031 -19.865  1.00  0.00     0.211 HD
ENDBRANCH   1  16
TORSDOF 10
ENDMDL
MODEL 2
REMARK VINA RESULT:    -4.268      1.864      3.018
REMARK INTER + INTRA:          -7.406
REMARK INTER:                  -7.017
REMARK INTRA:                  -0.389
REMARK UNBOUND:                -1.266
REMARK SMILES O=C(CO)[C@@H](O)[C@H](O)[C@@H](O)CO
REMARK SMILES IDX 7 1 9 2 11 3 12 4 10 6 5 8 2 9 1 10 3 11 4 12 6 14 8 16
REMARK H PARENT 12 5 10 7 4 13 6 15 8 17
REMARK Flexibility Score: inf
ROOT
ATOM      1  C   UNL     1      37.536 -12.010 -18.268  1.00  0.00     0.181 C 
ENDROOT
BRANCH   1   2
ATOM      2  C   UNL     1      37.754 -10.643 -17.569  1.00  0.00     0.171 C 
BRANCH   2   3
ATOM      3  C   UNL     1      37.379  -9.433 -18.442  1.00  0.00     0.190 C 
BRANCH   3   4
ATOM      4  O   UNL     1      36.781  -8.434 -17.660  1.00  0.00    -0.394 OA
ATOM      5  H   UNL     1      36.396  -7.768 -18.288  1.00  0.00     0.210 HD
ENDBRANCH   3   4
ENDBRANCH   2   3
BRANCH   2   6
ATOM      6  O   UNL     1      39.087 -10.534 -17.140  1.00  0.00    -0.388 OA
ATOM      7  H   UNL     1      39.613 -11.210 -17.643  1.00  0.00     0.211 HD
ENDBRANCH   2   6
ENDBRANCH   1   2
BRANCH   1   8
ATOM      8  C   UNL     1      36.295 -12.831 -17.801  1.00  0.00     0.214 C 
BRANCH   8   9
ATOM      9  C   UNL     1      35.225 -12.993 -18.870  1.00  0.00     0.189 C 
ATOM     10  O   UNL     1      35.166 -12.171 -19.772  1.00  0.00    -0.294 OA
BRANCH   9  11
ATOM     11  C   UNL     1      34.173 -14.073 -18.824  1.00  0.00     0.234 C 
BRANCH  11  12
ATOM     12  O   UNL     1      33.675 -14.186 -17.519  1.00  0.00    -0.388 OA
ATOM     13  H   UNL     1      32.704 -13.990 -17.576  1.00  0.00     0.211 HD
ENDBRANCH  11  12
ENDBRANCH   9  11
ENDBRANCH   8   9
BRANCH   8  14
ATOM     14  O   UNL     1      36.686 -14.077 -17.281  1.00  0.00    -0.382 OA
ATOM     15  H   UNL     1      36.984 -13.920 -16.347  1.00  0.00     0.211 HD
ENDBRANCH   8  14
ENDBRANCH   1   8
BRANCH   1  16
ATOM     16  O   UNL     1      38.710 -12.775 -18.171  1.00  0.00    -0.387 OA
ATOM     17  H   UNL     1      39.140 -12.760 -19.067  1.00  0.00     0.211 HD
ENDBRANCH   1  16
TORSDOF 10
ENDMDL
MODEL 3
REMARK VINA RESULT:    -4.250      1.477      2.231
REMARK INTER + INTRA:          -7.380
REMARK INTER:                  -6.161
REMARK INTRA:                  -1.219
REMARK UNBOUND:                -1.266
REMARK SMILES O=C(CO)[C@@H](O)[C@H](O)[C@@H](O)CO
REMARK SMILES IDX 7 1 9 2 11 3 12 4 10 6 5 8 2 9 1 10 3 11 4 12 6 14 8 16
REMARK H PARENT 12 5 10 7 4 13 6 15 8 17
REMARK Flexibility Score: inf
ROOT
ATOM      1  C   UNL     1      36.854 -11.736 -18.867  1.00  0.00     0.181 C 
ENDROOT
BRANCH   1   2
ATOM      2  C   UNL     1      37.912 -10.767 -18.278  1.00  0.00     0.171 C 
BRANCH   2   3
ATOM      3  C   UNL     1      39.363 -11.159 -18.607  1.00  0.00     0.190 C 
BRANCH   3   4
ATOM      4  O   UNL     1      39.664 -12.416 -18.064  1.00  0.00    -0.394 OA
ATOM      5  H   UNL     1      40.544 -12.687 -18.436  1.00  0.00     0.210 HD
ENDBRANCH   3   4
ENDBRANCH   2   3
BRANCH   2   6
ATOM      6  O   UNL     1      37.743 -10.665 -16.887  1.00  0.00    -0.388 OA
ATOM      7  H   UNL     1      38.648 -10.701 -16.478  1.00  0.00     0.211 HD
ENDBRANCH   2   6
ENDBRANCH   1   2
BRANCH   1   8
ATOM      8  C   UNL     1      36.185 -12.720 -17.858  1.00  0.00     0.214 C 
BRANCH   8   9
ATOM      9  C   UNL     1      35.019 -13.502 -18.443  1.00  0.00     0.189 C 
ATOM     10  O   UNL     1      34.462 -13.070 -19.441  1.00  0.00    -0.294 OA
BRANCH   9  11
ATOM     11  C   UNL     1      34.455 -14.744 -17.797  1.00  0.00     0.234 C 
BRANCH  11  12
ATOM     12  O   UNL     1      35.433 -15.747 -17.777  1.00  0.00    -0.388 OA
ATOM     13  H   UNL     1      35.045 -16.520 -18.261  1.00  0.00     0.211 HD
ENDBRANCH  11  12
ENDBRANCH   9  11
ENDBRANCH   8   9
BRANCH   8  14
ATOM     14  O   UNL     1      37.140 -13.581 -17.291  1.00  0.00    -0.382 OA
ATOM     15  H   UNL     1      37.547 -14.094 -18.039  1.00  0.00     0.211 HD
ENDBRANCH   8  14
ENDBRANCH   1   8
BRANCH   1  16
ATOM     16  O   UNL     1      37.412 -12.432 -19.953  1.00  0.00    -0.387 OA
ATOM     17  H   UNL     1      38.276 -11.989 -20.167  1.00  0.00     0.211 HD
ENDBRANCH   1  16
TORSDOF 10
ENDMDL
MODEL 4
REMARK VINA RESULT:    -4.211      1.711      2.645
REMARK INTER + INTRA:          -7.324
REMARK INTER:                  -6.394
REMARK INTRA:                  -0.930
REMARK UNBOUND:                -1.266
REMARK SMILES O=C(CO)[C@@H](O)[C@H](O)[C@@H](O)CO
REMARK SMILES IDX 7 1 9 2 11 3 12 4 10 6 5 8 2 9 1 10 3 11 4 12 6 14 8 16
REMARK H PARENT 12 5 10 7 4 13 6 15 8 17
REMARK Flexibility Score: inf
ROOT
ATOM      1  C   UNL     1      34.270 -14.013 -18.865  1.00  0.00     0.181 C 
ENDROOT
BRANCH   1   2
ATOM      2  C   UNL     1      34.871 -14.496 -17.520  1.00  0.00     0.171 C 
BRANCH   2   3
ATOM      3  C   UNL     1      35.838 -13.490 -16.875  1.00  0.00     0.190 C 
BRANCH   3   4
ATOM      4  O   UNL     1      37.053 -13.463 -17.575  1.00  0.00    -0.394 OA
ATOM      5  H   UNL     1      37.583 -14.242 -17.261  1.00  0.00     0.210 HD
ENDBRANCH   3   4
ENDBRANCH   2   3
BRANCH   2   6
ATOM      6  O   UNL     1      35.511 -15.734 -17.700  1.00  0.00    -0.388 OA
ATOM      7  H   UNL     1      35.639 -16.132 -16.799  1.00  0.00     0.211 HD
ENDBRANCH   2   6
ENDBRANCH   1   2
BRANCH   1   8
ATOM      8  C   UNL     1      32.925 -14.677 -19.296  1.00  0.00     0.214 C 
BRANCH   8   9
ATOM      9  C   UNL     1      32.380 -14.161 -20.619  1.00  0.00     0.189 C 
ATOM     10  O   UNL     1      33.029 -13.332 -21.240  1.00  0.00    -0.294 OA
BRANCH   9  11
ATOM     11  C   UNL     1      31.030 -14.557 -21.163  1.00  0.00     0.234 C 
BRANCH  11  12
ATOM     12  O   UNL     1      30.998 -15.941 -21.376  1.00  0.00    -0.388 OA
ATOM     13  H   UNL     1      31.937 -16.253 -21.304  1.00  0.00     0.211 HD
ENDBRANCH  11  12
ENDBRANCH   9  11
ENDBRANCH   8   9
BRANCH   8  14
ATOM     14  O   UNL     1      33.040 -16.077 -19.306  1.00  0.00    -0.382 OA
ATOM     15  H   UNL     1      32.526 -16.414 -18.525  1.00  0.00     0.211 HD
ENDBRANCH   8  14
ENDBRANCH   1   8
BRANCH   1  16
ATOM     16  O   UNL     1      35.237 -14.134 -19.878  1.00  0.00    -0.387 OA
ATOM     17  H   UNL     1      35.992 -13.536 -19.630  1.00  0.00     0.211 HD
ENDBRANCH   1  16
TORSDOF 10
ENDMDL
MODEL 5
REMARK VINA RESULT:    -4.211      1.438      4.609
REMARK INTER + INTRA:          -7.323
REMARK INTER:                  -6.460
REMARK INTRA:                  -0.862
REMARK UNBOUND:                -1.266
REMARK SMILES O=C(CO)[C@@H](O)[C@H](O)[C@@H](O)CO
REMARK SMILES IDX 7 1 9 2 11 3 12 4 10 6 5 8 2 9 1 10 3 11 4 12 6 14 8 16
REMARK H PARENT 12 5 10 7 4 13 6 15 8 17
REMARK Flexibility Score: inf
ROOT
ATOM      1  C   UNL     1      35.970 -13.002 -17.915  1.00  0.00     0.181 C 
ENDROOT
BRANCH   1   2
ATOM      2  C   UNL     1      34.803 -13.695 -18.665  1.00  0.00     0.171 C 
BRANCH   2   3
ATOM      3  C   UNL     1      34.414 -15.062 -18.078  1.00  0.00     0.190 C 
BRANCH   3   4
ATOM      4  O   UNL     1      35.164 -16.083 -18.680  1.00  0.00    -0.394 OA
ATOM      5  H   UNL     1      34.611 -16.450 -19.418  1.00  0.00     0.210 HD
ENDBRANCH   3   4
ENDBRANCH   2   3
BRANCH   2   6
ATOM      6  O   UNL     1      35.125 -13.828 -20.027  1.00  0.00    -0.388 OA
ATOM      7  H   UNL     1      34.752 -13.035 -20.494  1.00  0.00     0.211 HD
ENDBRANCH   2   6
ENDBRANCH   1   2
BRANCH   1   8
ATOM      8  C   UNL     1      36.783 -11.949 -18.729  1.00  0.00     0.214 C 
BRANCH   8   9
ATOM      9  C   UNL     1      37.540 -10.953 -17.865  1.00  0.00     0.189 C 
ATOM     10  O   UNL     1      37.226  -9.773 -17.916  1.00  0.00    -0.294 OA
BRANCH   9  11
ATOM     11  C   UNL     1      38.724 -11.336 -17.012  1.00  0.00     0.234 C 
BRANCH  11  12
ATOM     12  O   UNL     1      39.442 -12.362 -17.641  1.00  0.00    -0.388 OA
ATOM     13  H   UNL     1      39.152 -13.206 -17.209  1.00  0.00     0.211 HD
ENDBRANCH  11  12
ENDBRANCH   9  11
ENDBRANCH   8   9
BRANCH   8  14
ATOM     14  O   UNL     1      37.642 -12.581 -19.646  1.00  0.00    -0.382 OA
ATOM     15  H   UNL     1      38.020 -11.869 -20.225  1.00  0.00     0.211 HD
ENDBRANCH   8  14
ENDBRANCH   1   8
BRANCH   1  16
ATOM     16  O   UNL     1      36.819 -13.979 -17.368  1.00  0.00    -0.387 OA
ATOM     17  H   UNL     1      36.239 -14.630 -16.889  1.00  0.00     0.211 HD
ENDBRANCH   1  16
TORSDOF 10
ENDMDL
MODEL 6
REMARK VINA RESULT:    -4.067      1.978      4.970
REMARK INTER + INTRA:          -7.117
REMARK INTER:                  -6.381
REMARK INTRA:                  -0.736
REMARK UNBOUND:                -1.266
REMARK SMILES O=C(CO)[C@@H](O)[C@H](O)[C@@H](O)CO
REMARK SMILES IDX 7 1 9 2 11 3 12 4 10 6 5 8 2 9 1 10 3 11 4 12 6 14 8 16
REMARK H PARENT 12 5 10 7 4 13 6 15 8 17
REMARK Flexibility Score: inf
ROOT
ATOM      1  C   UNL     1      36.242 -12.645 -17.999  1.00  0.00     0.181 C 
ENDROOT
BRANCH   1   2
ATOM      2  C   UNL     1      35.027 -13.458 -18.516  1.00  0.00     0.171 C 
BRANCH   2   3
ATOM      3  C   UNL     1      34.635 -14.634 -17.605  1.00  0.00     0.190 C 
BRANCH   3   4
ATOM      4  O   UNL     1      35.488 -15.725 -17.824  1.00  0.00    -0.394 OA
ATOM      5  H   UNL     1      35.097 -16.498 -17.337  1.00  0.00     0.210 HD
ENDBRANCH   3   4
ENDBRANCH   2   3
BRANCH   2   6
ATOM      6  O   UNL     1      35.281 -13.920 -19.819  1.00  0.00    -0.388 OA
ATOM      7  H   UNL     1      36.246 -13.769 -20.000  1.00  0.00     0.211 HD
ENDBRANCH   2   6
ENDBRANCH   1   2
BRANCH   1   8
ATOM      8  C   UNL     1      36.931 -11.704 -19.036  1.00  0.00     0.214 C 
BRANCH   8   9
ATOM      9  C   UNL     1      37.791 -10.619 -18.406  1.00  0.00     0.189 C 
ATOM     10  O   UNL     1      38.656 -10.944 -17.606  1.00  0.00    -0.294 OA
BRANCH   9  11
ATOM     11  C   UNL     1      37.569  -9.148 -18.653  1.00  0.00     0.234 C 
BRANCH  11  12
ATOM     12  O   UNL     1      36.828  -8.602 -17.596  1.00  0.00    -0.388 OA
ATOM     13  H   UNL     1      37.440  -7.982 -17.122  1.00  0.00     0.211 HD
ENDBRANCH  11  12
ENDBRANCH   9  11
ENDBRANCH   8   9
BRANCH   8  14
ATOM     14  O   UNL     1      37.662 -12.449 -19.978  1.00  0.00    -0.382 OA
ATOM     15  H   UNL     1      37.028 -12.705 -20.698  1.00  0.00     0.211 HD
ENDBRANCH   8  14
ENDBRANCH   1   8
BRANCH   1  16
ATOM     16  O   UNL     1      37.175 -13.520 -17.417  1.00  0.00    -0.387 OA
ATOM     17  H   UNL     1      37.970 -12.975 -17.173  1.00  0.00     0.211 HD
ENDBRANCH   1  16
TORSDOF 10
ENDMDL
MODEL 7
REMARK VINA RESULT:    -4.061      2.796      5.558
REMARK INTER + INTRA:          -7.107
REMARK INTER:                  -5.845
REMARK INTRA:                  -1.262
REMARK UNBOUND:                -1.266
REMARK SMILES O=C(CO)[C@@H](O)[C@H](O)[C@@H](O)CO
REMARK SMILES IDX 7 1 9 2 11 3 12 4 10 6 5 8 2 9 1 10 3 11 4 12 6 14 8 16
REMARK H PARENT 12 5 10 7 4 13 6 15 8 17
REMARK Flexibility Score: inf
ROOT
ATOM      1  C   UNL     1      38.428 -12.228 -18.220  1.00  0.00     0.181 C 
ENDROOT
BRANCH   1   2
ATOM      2  C   UNL     1      37.549 -12.019 -16.960  1.00  0.00     0.171 C 
BRANCH   2   3
ATOM      3  C   UNL     1      36.320 -12.940 -16.900  1.00  0.00     0.190 C 
BRANCH   3   4
ATOM      4  O   UNL     1      36.668 -14.244 -17.283  1.00  0.00    -0.394 OA
ATOM      5  H   UNL     1      36.056 -14.499 -18.023  1.00  0.00     0.210 HD
ENDBRANCH   3   4
ENDBRANCH   2   3
BRANCH   2   6
ATOM      6  O   UNL     1      37.149 -10.674 -16.875  1.00  0.00    -0.388 OA
ATOM      7  H   UNL     1      37.860 -10.129 -17.305  1.00  0.00     0.211 HD
ENDBRANCH   2   6
ENDBRANCH   1   2
BRANCH   1   8
ATOM      8  C   UNL     1      39.600 -11.218 -18.418  1.00  0.00     0.214 C 
BRANCH   8   9
ATOM      9  C   UNL     1      39.385 -10.242 -19.564  1.00  0.00     0.189 C 
ATOM     10  O   UNL     1      39.510 -10.644 -20.711  1.00  0.00    -0.294 OA
BRANCH   9  11
ATOM     11  C   UNL     1      39.111  -8.773 -19.353  1.00  0.00     0.234 C 
BRANCH  11  12
ATOM     12  O   UNL     1      38.252  -8.609 -18.259  1.00  0.00    -0.388 OA
ATOM     13  H   UNL     1      38.351  -7.666 -17.969  1.00  0.00     0.211 HD
ENDBRANCH  11  12
ENDBRANCH   9  11
ENDBRANCH   8   9
BRANCH   8  14
ATOM     14  O   UNL     1      39.883 -10.540 -17.220  1.00  0.00    -0.382 OA
ATOM     15  H   UNL     1      40.820 -10.215 -17.286  1.00  0.00     0.211 HD
ENDBRANCH   8  14
ENDBRANCH   1   8
BRANCH   1  16
ATOM     16  O   UNL     1      37.605 -12.273 -19.359  1.00  0.00    -0.387 OA
ATOM     17  H   UNL     1      37.570 -11.349 -19.727  1.00  0.00     0.211 HD
ENDBRANCH   1  16
TORSDOF 10
ENDMDL
MODEL 8
REMARK VINA RESULT:    -3.927      1.548      4.765
REMARK INTER + INTRA:          -6.915
REMARK INTER:                  -5.562
REMARK INTRA:                  -1.353
REMARK UNBOUND:                -1.266
REMARK SMILES O=C(CO)[C@@H](O)[C@H](O)[C@@H](O)CO
REMARK SMILES IDX 7 1 9 2 11 3 12 4 10 6 5 8 2 9 1 10 3 11 4 12 6 14 8 16
REMARK H PARENT 12 5 10 7 4 13 6 15 8 17
REMARK Flexibility Score: inf
ROOT
ATOM      1  C   UNL     1      36.313 -12.498 -17.878  1.00  0.00     0.181 C 
ENDROOT
BRANCH   1   2
ATOM      2  C   UNL     1      35.342 -12.826 -19.042  1.00  0.00     0.171 C 
BRANCH   2   3
ATOM      3  C   UNL     1      34.347 -13.953 -18.722  1.00  0.00     0.190 C 
BRANCH   3   4
ATOM      4  O   UNL     1      33.980 -13.911 -17.369  1.00  0.00    -0.394 OA
ATOM      5  H   UNL     1      33.007 -14.104 -17.328  1.00  0.00     0.210 HD
ENDBRANCH   3   4
ENDBRANCH   2   3
BRANCH   2   6
ATOM      6  O   UNL     1      36.074 -13.142 -20.199  1.00  0.00    -0.388 OA
ATOM      7  H   UNL     1      35.479 -13.680 -20.785  1.00  0.00     0.211 HD
ENDBRANCH   2   6
ENDBRANCH   1   2
BRANCH   1   8
ATOM      8  C   UNL     1      37.250 -11.269 -18.088  1.00  0.00     0.214 C 
BRANCH   8   9
ATOM      9  C   UNL     1      38.731 -11.598 -17.986  1.00  0.00     0.189 C 
ATOM     10  O   UNL     1      39.268 -11.558 -16.889  1.00  0.00    -0.294 OA
BRANCH   9  11
ATOM     11  C   UNL     1      39.595 -11.887 -19.188  1.00  0.00     0.234 C 
BRANCH  11  12
ATOM     12  O   UNL     1      38.875 -12.664 -20.106  1.00  0.00    -0.388 OA
ATOM     13  H   UNL     1      37.926 -12.393 -20.012  1.00  0.00     0.211 HD
ENDBRANCH  11  12
ENDBRANCH   9  11
ENDBRANCH   8   9
BRANCH   8  14
ATOM     14  O   UNL     1      36.957 -10.618 -19.300  1.00  0.00    -0.382 OA
ATOM     15  H   UNL     1      36.553  -9.741 -19.066  1.00  0.00     0.211 HD
ENDBRANCH   8  14
ENDBRANCH   1   8
BRANCH   1  16
ATOM     16  O   UNL     1      37.056 -13.646 -17.554  1.00  0.00    -0.387 OA
ATOM     17  H   UNL     1      36.796 -13.907 -16.630  1.00  0.00     0.211 HD
ENDBRANCH   1  16
TORSDOF 10
ENDMDL
MODEL 9
REMARK VINA RESULT:    -3.784      1.314      2.115
REMARK INTER + INTRA:          -6.710
REMARK INTER:                  -6.044
REMARK INTRA:                  -0.666
REMARK UNBOUND:                -1.266
REMARK SMILES O=C(CO)[C@@H](O)[C@H](O)[C@@H](O)CO
REMARK SMILES IDX 7 1 9 2 11 3 12 4 10 6 5 8 2 9 1 10 3 11 4 12 6 14 8 16
REMARK H PARENT 12 5 10 7 4 13 6 15 8 17
REMARK Flexibility Score: inf
ROOT
ATOM      1  C   UNL     1      35.683 -12.765 -18.707  1.00  0.00     0.181 C 
ENDROOT
BRANCH   1   2
ATOM      2  C   UNL     1      36.924 -12.037 -18.127  1.00  0.00     0.171 C 
BRANCH   2   3
ATOM      3  C   UNL     1      37.092 -10.596 -18.637  1.00  0.00     0.190 C 
BRANCH   3   4
ATOM      4  O   UNL     1      37.420  -9.739 -17.576  1.00  0.00    -0.394 OA
ATOM      5  H   UNL     1      36.836  -8.941 -17.660  1.00  0.00     0.210 HD
ENDBRANCH   3   4
ENDBRANCH   2   3
BRANCH   2   6
ATOM      6  O   UNL     1      38.084 -12.783 -18.397  1.00  0.00    -0.388 OA
ATOM      7  H   UNL     1      38.079 -13.564 -17.782  1.00  0.00     0.211 HD
ENDBRANCH   2   6
ENDBRANCH   1   2
BRANCH   1   8
ATOM      8  C   UNL     1      35.168 -13.996 -17.900  1.00  0.00     0.214 C 
BRANCH   8   9
ATOM      9  C   UNL     1      34.302 -14.947 -18.712  1.00  0.00     0.189 C 
ATOM     10  O   UNL     1      34.792 -15.993 -19.111  1.00  0.00    -0.294 OA
BRANCH   9  11
ATOM     11  C   UNL     1      32.889 -14.620 -19.128  1.00  0.00     0.234 C 
BRANCH  11  12
ATOM     12  O   UNL     1      32.904 -13.975 -20.372  1.00  0.00    -0.388 OA
ATOM     13  H   UNL     1      32.376 -13.143 -20.257  1.00  0.00     0.211 HD
ENDBRANCH  11  12
ENDBRANCH   9  11
ENDBRANCH   8   9
BRANCH   8  14
ATOM     14  O   UNL     1      36.235 -14.677 -17.290  1.00  0.00    -0.382 OA
ATOM     15  H   UNL     1      35.907 -15.000 -16.410  1.00  0.00     0.211 HD
ENDBRANCH   8  14
ENDBRANCH   1   8
BRANCH   1  16
ATOM     16  O   UNL     1      35.929 -13.110 -20.047  1.00  0.00    -0.387 OA
ATOM     17  H   UNL     1      35.454 -12.443 -20.610  1.00  0.00     0.211 HD
ENDBRANCH   1  16
TORSDOF 10
ENDMDL
