MODEL 1
REMARK VINA RESULT:    -5.730      0.000      0.000
REMARK INTER + INTRA:         -17.735
REMARK INTER:                 -14.440
REMARK INTRA:                  -3.295
REMARK UNBOUND:                -3.295
REMARK SMILES CCCCCCCCCCCCCCCCCCCCCCCCCCCC(=O)[O-]
REMARK SMILES IDX 15 1 16 2 17 3 18 4 19 5 20 6 21 7 22 8 23 9 24 10 25 11
REMARK SMILES IDX 26 12 27 13 28 14 29 15 30 16 14 17 13 18 12 19 11 20 10 21
REMARK SMILES IDX 9 22 8 23 7 24 6 25 5 26 4 27 3 28 2 29 1 30
REMARK H PARENT
REMARK Flexibility Score: inf
ROOT
ATOM      1  C   UNL     1      11.247  23.786 -10.608  1.00  0.00     0.000 C 
ENDROOT
BRANCH   1   2
ATOM      2  C   UNL     1      11.983  24.612  -9.534  1.00  0.00     0.000 C 
BRANCH   2   3
ATOM      3  C   UNL     1      12.317  23.784  -8.275  1.00  0.00     0.000 C 
BRANCH   3   4
ATOM      4  C   UNL     1      13.589  24.238  -7.539  1.00  0.00     0.000 C 
BRANCH   4   5
ATOM      5  C   UNL     1      14.145  23.176  -6.580  1.00  0.00     0.000 C 
BRANCH   5   6
ATOM      6  C   UNL     1      15.382  22.490  -7.169  1.00  0.00     0.000 C 
BRANCH   6   7
ATOM      7  C   UNL     1      16.649  22.867  -6.385  1.00  0.00     0.000 C 
BRANCH   7   8
ATOM      8  C   UNL     1      16.988  24.370  -6.498  1.00  0.00     0.000 C 
BRANCH   8   9
ATOM      9  C   UNL     1      17.053  25.096  -5.142  1.00  0.00     0.000 C 
BRANCH   9  10
ATOM     10  C   UNL     1      15.821  25.959  -4.809  1.00  0.00     0.000 C 
BRANCH  10  11
ATOM     11  C   UNL     1      15.825  26.591  -3.404  1.00  0.00     0.000 C 
BRANCH  11  12
ATOM     12  C   UNL     1      15.504  25.627  -2.245  1.00  0.00     0.006 C 
BRANCH  12  13
ATOM     13  C   UNL     1      14.053  25.108  -2.243  1.00  0.00     0.053 C 
BRANCH  13  14
ATOM     14  C   UNL     1      13.974  23.622  -2.428  1.00  0.00     0.041 C 
ATOM     15  O   UNL     1      14.757  23.039  -3.226  1.00  0.00    -0.550 OA
ATOM     16  O   UNL     1      13.052  22.876  -1.705  1.00  0.00    -0.550 OA
ENDBRANCH  13  14
ENDBRANCH  12  13
ENDBRANCH  11  12
ENDBRANCH  10  11
ENDBRANCH   9  10
ENDBRANCH   8   9
ENDBRANCH   7   8
ENDBRANCH   6   7
ENDBRANCH   5   6
ENDBRANCH   4   5
ENDBRANCH   3   4
ENDBRANCH   2   3
ENDBRANCH   1   2
BRANCH   1  17
ATOM     17  C   UNL     1      10.356  22.695  -9.990  1.00  0.00     0.000 C 
BRANCH  17  18
ATOM     18  C   UNL     1       8.945  23.215  -9.676  1.00  0.00     0.000 C 
BRANCH  18  19
ATOM     19  C   UNL     1       7.874  22.171 -10.029  1.00  0.00     0.000 C 
BRANCH  19  20
ATOM     20  C   UNL     1       6.573  22.819 -10.550  1.00  0.00     0.000 C 
BRANCH  20  21
ATOM     21  C   UNL     1       5.805  23.630  -9.489  1.00  0.00     0.000 C 
BRANCH  21  22
ATOM     22  C   UNL     1       4.881  22.805  -8.576  1.00  0.00    -0.000 C 
BRANCH  22  23
ATOM     23  C   UNL     1       5.104  23.020  -7.067  1.00  0.00    -0.000 C 
BRANCH  23  24
ATOM     24  C   UNL     1       6.426  23.747  -6.730  1.00  0.00    -0.000 C 
BRANCH  24  25
ATOM     25  C   UNL     1       6.932  23.468  -5.304  1.00  0.00    -0.000 C 
BRANCH  25  26
ATOM     26  C   UNL     1       7.974  22.335  -5.263  1.00  0.00    -0.000 C 
BRANCH  26  27
ATOM     27  C   UNL     1       8.836  22.274  -6.536  1.00  0.00    -0.000 C 
BRANCH  27  28
ATOM     28  C   UNL     1      10.150  21.480  -6.396  1.00  0.00    -0.000 C 
BRANCH  28  29
ATOM     29  C   UNL     1      10.300  20.297  -7.369  1.00  0.00    -0.003 C 
ATOM     30  C   UNL     1      11.734  20.110  -7.865  1.00  0.00     0.004 C 
ENDBRANCH  28  29
ENDBRANCH  27  28
ENDBRANCH  26  27
ENDBRANCH  25  26
ENDBRANCH  24  25
ENDBRANCH  23  24
ENDBRANCH  22  23
ENDBRANCH  21  22
ENDBRANCH  20  21
ENDBRANCH  19  20
ENDBRANCH  18  19
ENDBRANCH  17  18
ENDBRANCH   1  17
TORSDOF 26
ENDMDL
MODEL 2
REMARK VINA RESULT:    -5.372      1.630      3.611
REMARK INTER + INTRA:         -16.832
REMARK INTER:                 -13.736
REMARK INTRA:                  -3.096
REMARK UNBOUND:                -3.295
REMARK SMILES CCCCCCCCCCCCCCCCCCCCCCCCCCCC(=O)[O-]
REMARK SMILES IDX 15 1 16 2 17 3 18 4 19 5 20 6 21 7 22 8 23 9 24 10 25 11
REMARK SMILES IDX 26 12 27 13 28 14 29 15 30 16 14 17 13 18 12 19 11 20 10 21
REMARK SMILES IDX 9 22 8 23 7 24 6 25 5 26 4 27 3 28 2 29 1 30
REMARK H PARENT
REMARK Flexibility Score: inf
ROOT
ATOM      1  C   UNL     1      11.730  24.404  -9.465  1.00  0.00     0.000 C 
ENDROOT
BRANCH   1   2
ATOM      2  C   UNL     1      12.692  24.125  -8.293  1.00  0.00     0.000 C 
BRANCH   2   3
ATOM      3  C   UNL     1      12.242  22.928  -7.429  1.00  0.00     0.000 C 
BRANCH   3   4
ATOM      4  C   UNL     1      13.377  21.963  -7.046  1.00  0.00     0.000 C 
BRANCH   4   5
ATOM      5  C   UNL     1      14.593  22.672  -6.435  1.00  0.00     0.000 C 
BRANCH   5   6
ATOM      6  C   UNL     1      14.415  22.879  -4.926  1.00  0.00     0.000 C 
BRANCH   6   7
ATOM      7  C   UNL     1      15.464  23.856  -4.374  1.00  0.00     0.000 C 
BRANCH   7   8
ATOM      8  C   UNL     1      15.544  25.162  -5.196  1.00  0.00     0.000 C 
BRANCH   8   9
ATOM      9  C   UNL     1      15.594  26.436  -4.333  1.00  0.00     0.000 C 
BRANCH   9  10
ATOM     10  C   UNL     1      14.737  26.387  -3.054  1.00  0.00     0.000 C 
BRANCH  10  11
ATOM     11  C   UNL     1      15.440  26.884  -1.775  1.00  0.00     0.000 C 
BRANCH  11  12
ATOM     12  C   UNL     1      16.125  25.793  -0.932  1.00  0.00     0.006 C 
BRANCH  12  13
ATOM     13  C   UNL     1      15.343  25.393   0.335  1.00  0.00     0.053 C 
BRANCH  13  14
ATOM     14  C   UNL     1      13.912  25.057   0.044  1.00  0.00     0.041 C 
ATOM     15  O   UNL     1      13.623  24.015  -0.604  1.00  0.00    -0.550 OA
ATOM     16  O   UNL     1      12.892  25.880   0.506  1.00  0.00    -0.550 OA
ENDBRANCH  13  14
ENDBRANCH  12  13
ENDBRANCH  11  12
ENDBRANCH  10  11
ENDBRANCH   9  10
ENDBRANCH   8   9
ENDBRANCH   7   8
ENDBRANCH   6   7
ENDBRANCH   5   6
ENDBRANCH   4   5
ENDBRANCH   3   4
ENDBRANCH   2   3
ENDBRANCH   1   2
BRANCH   1  17
ATOM     17  C   UNL     1      11.192  23.107 -10.094  1.00  0.00     0.000 C 
BRANCH  17  18
ATOM     18  C   UNL     1       9.656  23.066 -10.102  1.00  0.00     0.000 C 
BRANCH  18  19
ATOM     19  C   UNL     1       9.120  22.091  -9.042  1.00  0.00     0.000 C 
BRANCH  19  20
ATOM     20  C   UNL     1       8.583  22.821  -7.792  1.00  0.00     0.000 C 
BRANCH  20  21
ATOM     21  C   UNL     1       7.856  24.145  -8.100  1.00  0.00     0.000 C 
BRANCH  21  22
ATOM     22  C   UNL     1       6.766  24.543  -7.090  1.00  0.00    -0.000 C 
BRANCH  22  23
ATOM     23  C   UNL     1       6.122  23.364  -6.335  1.00  0.00    -0.000 C 
BRANCH  23  24
ATOM     24  C   UNL     1       4.580  23.333  -6.429  1.00  0.00    -0.000 C 
BRANCH  24  25
ATOM     25  C   UNL     1       4.049  22.318  -7.456  1.00  0.00    -0.000 C 
BRANCH  25  26
ATOM     26  C   UNL     1       4.015  22.893  -8.884  1.00  0.00    -0.000 C 
BRANCH  26  27
ATOM     27  C   UNL     1       5.159  22.362  -9.767  1.00  0.00    -0.000 C 
BRANCH  27  28
ATOM     28  C   UNL     1       5.567  23.287 -10.930  1.00  0.00    -0.000 C 
BRANCH  28  29
ATOM     29  C   UNL     1       4.971  24.705 -10.871  1.00  0.00    -0.003 C 
ATOM     30  C   UNL     1       4.080  25.028 -12.070  1.00  0.00     0.004 C 
ENDBRANCH  28  29
ENDBRANCH  27  28
ENDBRANCH  26  27
ENDBRANCH  25  26
ENDBRANCH  24  25
ENDBRANCH  23  24
ENDBRANCH  22  23
ENDBRANCH  21  22
ENDBRANCH  20  21
ENDBRANCH  19  20
ENDBRANCH  18  19
ENDBRANCH  17  18
ENDBRANCH   1  17
TORSDOF 26
ENDMDL
MODEL 3
REMARK VINA RESULT:    -5.201      2.166      9.148
REMARK INTER + INTRA:         -16.402
REMARK INTER:                 -13.033
REMARK INTRA:                  -3.369
REMARK UNBOUND:                -3.295
REMARK SMILES CCCCCCCCCCCCCCCCCCCCCCCCCCCC(=O)[O-]
REMARK SMILES IDX 15 1 16 2 17 3 18 4 19 5 20 6 21 7 22 8 23 9 24 10 25 11
REMARK SMILES IDX 26 12 27 13 28 14 29 15 30 16 14 17 13 18 12 19 11 20 10 21
REMARK SMILES IDX 9 22 8 23 7 24 6 25 5 26 4 27 3 28 2 29 1 30
REMARK H PARENT
REMARK Flexibility Score: inf
ROOT
ATOM      1  C   UNL     1       9.841  20.519  -7.003  1.00  0.00     0.000 C 
ENDROOT
BRANCH   1   2
ATOM      2  C   UNL     1       9.540  21.752  -6.128  1.00  0.00     0.000 C 
BRANCH   2   3
ATOM      3  C   UNL     1       8.413  21.493  -5.106  1.00  0.00     0.000 C 
BRANCH   3   4
ATOM      4  C   UNL     1       7.237  22.481  -5.199  1.00  0.00     0.000 C 
BRANCH   4   5
ATOM      5  C   UNL     1       7.497  23.641  -6.170  1.00  0.00     0.000 C 
BRANCH   5   6
ATOM      6  C   UNL     1       6.195  24.129  -6.813  1.00  0.00     0.000 C 
BRANCH   6   7
ATOM      7  C   UNL     1       5.319  22.947  -7.256  1.00  0.00     0.000 C 
BRANCH   7   8
ATOM      8  C   UNL     1       5.056  22.945  -8.778  1.00  0.00     0.000 C 
BRANCH   8   9
ATOM      9  C   UNL     1       6.187  23.584  -9.605  1.00  0.00     0.000 C 
BRANCH   9  10
ATOM     10  C   UNL     1       7.075  22.583 -10.368  1.00  0.00     0.000 C 
BRANCH  10  11
ATOM     11  C   UNL     1       8.404  22.225  -9.674  1.00  0.00     0.000 C 
BRANCH  11  12
ATOM     12  C   UNL     1       9.374  23.402  -9.457  1.00  0.00     0.006 C 
BRANCH  12  13
ATOM     13  C   UNL     1      10.766  23.192 -10.083  1.00  0.00     0.053 C 
BRANCH  13  14
ATOM     14  C   UNL     1      11.669  24.373  -9.886  1.00  0.00     0.041 C 
ATOM     15  O   UNL     1      12.108  24.652  -8.738  1.00  0.00    -0.550 OA
ATOM     16  O   UNL     1      12.044  25.154 -10.972  1.00  0.00    -0.550 OA
ENDBRANCH  13  14
ENDBRANCH  12  13
ENDBRANCH  11  12
ENDBRANCH  10  11
ENDBRANCH   9  10
ENDBRANCH   8   9
ENDBRANCH   7   8
ENDBRANCH   6   7
ENDBRANCH   5   6
ENDBRANCH   4   5
ENDBRANCH   3   4
ENDBRANCH   2   3
ENDBRANCH   1   2
BRANCH   1  17
ATOM     17  C   UNL     1      11.280  20.534  -7.549  1.00  0.00     0.000 C 
BRANCH  17  18
ATOM     18  C   UNL     1      12.082  21.734  -7.023  1.00  0.00     0.000 C 
BRANCH  18  19
ATOM     19  C   UNL     1      13.508  21.746  -7.596  1.00  0.00     0.000 C 
BRANCH  19  20
ATOM     20  C   UNL     1      14.463  22.635  -6.772  1.00  0.00     0.000 C 
BRANCH  20  21
ATOM     21  C   UNL     1      15.941  22.534  -7.197  1.00  0.00     0.000 C 
BRANCH  21  22
ATOM     22  C   UNL     1      16.962  22.943  -6.121  1.00  0.00    -0.000 C 
BRANCH  22  23
ATOM     23  C   UNL     1      18.007  23.977  -6.581  1.00  0.00    -0.000 C 
BRANCH  23  24
ATOM     24  C   UNL     1      17.431  25.077  -7.501  1.00  0.00    -0.000 C 
BRANCH  24  25
ATOM     25  C   UNL     1      16.804  26.253  -6.731  1.00  0.00    -0.000 C 
BRANCH  25  26
ATOM     26  C   UNL     1      17.639  26.659  -5.502  1.00  0.00    -0.000 C 
BRANCH  26  27
ATOM     27  C   UNL     1      17.023  26.173  -4.178  1.00  0.00    -0.000 C 
BRANCH  27  28
ATOM     28  C   UNL     1      15.494  25.986  -4.200  1.00  0.00    -0.000 C 
BRANCH  28  29
ATOM     29  C   UNL     1      14.768  26.429  -2.917  1.00  0.00    -0.003 C 
ATOM     30  C   UNL     1      15.725  26.744  -1.768  1.00  0.00     0.004 C 
ENDBRANCH  28  29
ENDBRANCH  27  28
ENDBRANCH  26  27
ENDBRANCH  25  26
ENDBRANCH  24  25
ENDBRANCH  23  24
ENDBRANCH  22  23
ENDBRANCH  21  22
ENDBRANCH  20  21
ENDBRANCH  19  20
ENDBRANCH  18  19
ENDBRANCH  17  18
ENDBRANCH   1  17
TORSDOF 26
ENDMDL
MODEL 4
REMARK VINA RESULT:    -5.199      2.247      9.051
REMARK INTER + INTRA:         -16.397
REMARK INTER:                 -13.010
REMARK INTRA:                  -3.387
REMARK UNBOUND:                -3.295
REMARK SMILES CCCCCCCCCCCCCCCCCCCCCCCCCCCC(=O)[O-]
REMARK SMILES IDX 15 1 16 2 17 3 18 4 19 5 20 6 21 7 22 8 23 9 24 10 25 11
REMARK SMILES IDX 26 12 27 13 28 14 29 15 30 16 14 17 13 18 12 19 11 20 10 21
REMARK SMILES IDX 9 22 8 23 7 24 6 25 5 26 4 27 3 28 2 29 1 30
REMARK H PARENT
REMARK Flexibility Score: inf
ROOT
ATOM      1  C   UNL     1      12.432  21.032  -7.887  1.00  0.00     0.000 C 
ENDROOT
BRANCH   1   2
ATOM      2  C   UNL     1      10.987  20.525  -7.713  1.00  0.00     0.000 C 
BRANCH   2   3
ATOM      3  C   UNL     1      10.155  21.416  -6.768  1.00  0.00     0.000 C 
BRANCH   3   4
ATOM      4  C   UNL     1       9.022  22.191  -7.464  1.00  0.00     0.000 C 
BRANCH   4   5
ATOM      5  C   UNL     1       9.515  23.072  -8.620  1.00  0.00     0.000 C 
BRANCH   5   6
ATOM      6  C   UNL     1       8.946  22.598  -9.962  1.00  0.00     0.000 C 
BRANCH   6   7
ATOM      7  C   UNL     1       7.428  22.381  -9.873  1.00  0.00     0.000 C 
BRANCH   7   8
ATOM      8  C   UNL     1       6.638  23.707  -9.910  1.00  0.00     0.000 C 
BRANCH   8   9
ATOM      9  C   UNL     1       5.109  23.521  -9.891  1.00  0.00     0.000 C 
BRANCH   9  10
ATOM     10  C   UNL     1       4.617  22.281  -9.121  1.00  0.00     0.000 C 
BRANCH  10  11
ATOM     11  C   UNL     1       3.592  22.566  -8.007  1.00  0.00     0.000 C 
BRANCH  11  12
ATOM     12  C   UNL     1       4.174  23.156  -6.709  1.00  0.00     0.006 C 
BRANCH  12  13
ATOM     13  C   UNL     1       5.617  22.705  -6.405  1.00  0.00     0.053 C 
BRANCH  13  14
ATOM     14  C   UNL     1       6.495  23.840  -5.973  1.00  0.00     0.041 C 
ATOM     15  O   UNL     1       7.152  23.761  -4.899  1.00  0.00    -0.550 OA
ATOM     16  O   UNL     1       6.608  24.977  -6.763  1.00  0.00    -0.550 OA
ENDBRANCH  13  14
ENDBRANCH  12  13
ENDBRANCH  11  12
ENDBRANCH  10  11
ENDBRANCH   9  10
ENDBRANCH   8   9
ENDBRANCH   7   8
ENDBRANCH   6   7
ENDBRANCH   5   6
ENDBRANCH   4   5
ENDBRANCH   3   4
ENDBRANCH   2   3
ENDBRANCH   1   2
BRANCH   1  17
ATOM     17  C   UNL     1      12.773  22.160  -6.897  1.00  0.00     0.000 C 
BRANCH  17  18
ATOM     18  C   UNL     1      13.126  23.470  -7.617  1.00  0.00     0.000 C 
BRANCH  18  19
ATOM     19  C   UNL     1      14.593  23.861  -7.376  1.00  0.00     0.000 C 
BRANCH  19  20
ATOM     20  C   UNL     1      15.456  22.657  -6.942  1.00  0.00     0.000 C 
BRANCH  20  21
ATOM     21  C   UNL     1      16.937  22.763  -7.355  1.00  0.00     0.000 C 
BRANCH  21  22
ATOM     22  C   UNL     1      17.471  24.196  -7.519  1.00  0.00    -0.000 C 
BRANCH  22  23
ATOM     23  C   UNL     1      17.958  24.858  -6.215  1.00  0.00    -0.000 C 
BRANCH  23  24
ATOM     24  C   UNL     1      17.365  26.264  -5.972  1.00  0.00    -0.000 C 
BRANCH  24  25
ATOM     25  C   UNL     1      16.860  26.475  -4.533  1.00  0.00    -0.000 C 
BRANCH  25  26
ATOM     26  C   UNL     1      15.531  25.745  -4.266  1.00  0.00    -0.000 C 
BRANCH  26  27
ATOM     27  C   UNL     1      15.651  24.673  -3.168  1.00  0.00    -0.000 C 
BRANCH  27  28
ATOM     28  C   UNL     1      15.149  23.272  -3.569  1.00  0.00    -0.000 C 
BRANCH  28  29
ATOM     29  C   UNL     1      13.634  23.053  -3.403  1.00  0.00    -0.003 C 
ATOM     30  C   UNL     1      13.195  23.000  -1.940  1.00  0.00     0.004 C 
ENDBRANCH  28  29
ENDBRANCH  27  28
ENDBRANCH  26  27
ENDBRANCH  25  26
ENDBRANCH  24  25
ENDBRANCH  23  24
ENDBRANCH  22  23
ENDBRANCH  21  22
ENDBRANCH  20  21
ENDBRANCH  19  20
ENDBRANCH  18  19
ENDBRANCH  17  18
ENDBRANCH   1  17
TORSDOF 26
ENDMDL
MODEL 5
REMARK VINA RESULT:    -5.166      1.214      3.294
REMARK INTER + INTRA:         -16.313
REMARK INTER:                 -13.161
REMARK INTRA:                  -3.152
REMARK UNBOUND:                -3.295
REMARK SMILES CCCCCCCCCCCCCCCCCCCCCCCCCCCC(=O)[O-]
REMARK SMILES IDX 15 1 16 2 17 3 18 4 19 5 20 6 21 7 22 8 23 9 24 10 25 11
REMARK SMILES IDX 26 12 27 13 28 14 29 15 30 16 14 17 13 18 12 19 11 20 10 21
REMARK SMILES IDX 9 22 8 23 7 24 6 25 5 26 4 27 3 28 2 29 1 30
REMARK H PARENT
REMARK Flexibility Score: inf
ROOT
ATOM      1  C   UNL     1      10.488  21.658  -6.419  1.00  0.00     0.000 C 
ENDROOT
BRANCH   1   2
ATOM      2  C   UNL     1      11.141  20.743  -7.473  1.00  0.00     0.000 C 
BRANCH   2   3
ATOM      3  C   UNL     1      12.569  21.194  -7.847  1.00  0.00     0.000 C 
BRANCH   3   4
ATOM      4  C   UNL     1      13.082  22.399  -7.040  1.00  0.00     0.000 C 
BRANCH   4   5
ATOM      5  C   UNL     1      14.610  22.546  -7.079  1.00  0.00     0.000 C 
BRANCH   5   6
ATOM      6  C   UNL     1      15.023  24.013  -7.241  1.00  0.00     0.000 C 
BRANCH   6   7
ATOM      7  C   UNL     1      16.533  24.190  -7.024  1.00  0.00     0.000 C 
BRANCH   7   8
ATOM      8  C   UNL     1      16.868  25.458  -6.208  1.00  0.00     0.000 C 
BRANCH   8   9
ATOM      9  C   UNL     1      15.650  26.080  -5.500  1.00  0.00     0.000 C 
BRANCH   9  10
ATOM     10  C   UNL     1      15.558  25.785  -3.991  1.00  0.00     0.000 C 
BRANCH  10  11
ATOM     11  C   UNL     1      15.990  26.943  -3.070  1.00  0.00     0.000 C 
BRANCH  11  12
ATOM     12  C   UNL     1      15.103  27.167  -1.831  1.00  0.00     0.006 C 
BRANCH  12  13
ATOM     13  C   UNL     1      15.230  26.067  -0.759  1.00  0.00     0.053 C 
BRANCH  13  14
ATOM     14  C   UNL     1      13.936  25.350  -0.515  1.00  0.00     0.041 C 
ATOM     15  O   UNL     1      13.095  25.818   0.299  1.00  0.00    -0.550 OA
ATOM     16  O   UNL     1      13.646  24.178  -1.202  1.00  0.00    -0.550 OA
ENDBRANCH  13  14
ENDBRANCH  12  13
ENDBRANCH  11  12
ENDBRANCH  10  11
ENDBRANCH   9  10
ENDBRANCH   8   9
ENDBRANCH   7   8
ENDBRANCH   6   7
ENDBRANCH   5   6
ENDBRANCH   4   5
ENDBRANCH   3   4
ENDBRANCH   2   3
ENDBRANCH   1   2
BRANCH   1  17
ATOM     17  C   UNL     1       8.968  21.437  -6.322  1.00  0.00     0.000 C 
BRANCH  17  18
ATOM     18  C   UNL     1       8.433  21.734  -4.913  1.00  0.00     0.000 C 
BRANCH  18  19
ATOM     19  C   UNL     1       7.162  22.596  -4.970  1.00  0.00     0.000 C 
BRANCH  19  20
ATOM     20  C   UNL     1       7.210  23.637  -6.108  1.00  0.00     0.000 C 
BRANCH  20  21
ATOM     21  C   UNL     1       5.826  24.034  -6.657  1.00  0.00     0.000 C 
BRANCH  21  22
ATOM     22  C   UNL     1       4.783  22.904  -6.684  1.00  0.00    -0.000 C 
BRANCH  22  23
ATOM     23  C   UNL     1       4.264  22.536  -8.088  1.00  0.00    -0.000 C 
BRANCH  23  24
ATOM     24  C   UNL     1       4.999  23.266  -9.234  1.00  0.00    -0.000 C 
BRANCH  24  25
ATOM     25  C   UNL     1       6.139  22.439  -9.855  1.00  0.00    -0.000 C 
BRANCH  25  26
ATOM     26  C   UNL     1       7.495  23.164  -9.784  1.00  0.00    -0.000 C 
BRANCH  26  27
ATOM     27  C   UNL     1       8.690  22.194  -9.788  1.00  0.00    -0.000 C 
BRANCH  27  28
ATOM     28  C   UNL     1      10.045  22.831 -10.150  1.00  0.00    -0.000 C 
BRANCH  28  29
ATOM     29  C   UNL     1      10.492  23.977  -9.224  1.00  0.00    -0.003 C 
ATOM     30  C   UNL     1      11.817  24.607  -9.650  1.00  0.00     0.004 C 
ENDBRANCH  28  29
ENDBRANCH  27  28
ENDBRANCH  26  27
ENDBRANCH  25  26
ENDBRANCH  24  25
ENDBRANCH  23  24
ENDBRANCH  22  23
ENDBRANCH  21  22
ENDBRANCH  20  21
ENDBRANCH  19  20
ENDBRANCH  18  19
ENDBRANCH  17  18
ENDBRANCH   1  17
TORSDOF 26
ENDMDL
MODEL 6
REMARK VINA RESULT:    -5.130      4.853      7.931
REMARK INTER + INTRA:         -16.223
REMARK INTER:                 -14.608
REMARK INTRA:                  -1.615
REMARK UNBOUND:                -3.295
REMARK SMILES CCCCCCCCCCCCCCCCCCCCCCCCCCCC(=O)[O-]
REMARK SMILES IDX 15 1 16 2 17 3 18 4 19 5 20 6 21 7 22 8 23 9 24 10 25 11
REMARK SMILES IDX 26 12 27 13 28 14 29 15 30 16 14 17 13 18 12 19 11 20 10 21
REMARK SMILES IDX 9 22 8 23 7 24 6 25 5 26 4 27 3 28 2 29 1 30
REMARK H PARENT
REMARK Flexibility Score: inf
ROOT
ATOM      1  C   UNL     1      13.500  22.855  -3.565  1.00  0.00     0.000 C 
ENDROOT
BRANCH   1   2
ATOM      2  C   UNL     1      13.854  23.351  -2.149  1.00  0.00     0.000 C 
BRANCH   2   3
ATOM      3  C   UNL     1      14.861  24.520  -2.164  1.00  0.00     0.000 C 
BRANCH   3   4
ATOM      4  C   UNL     1      14.448  25.721  -1.294  1.00  0.00     0.000 C 
BRANCH   4   5
ATOM      5  C   UNL     1      14.572  25.447   0.211  1.00  0.00     0.000 C 
BRANCH   5   6
ATOM      6  C   UNL     1      13.195  25.410   0.884  1.00  0.00     0.000 C 
BRANCH   6   7
ATOM      7  C   UNL     1      13.090  24.229   1.862  1.00  0.00     0.000 C 
BRANCH   7   8
ATOM      8  C   UNL     1      12.271  23.055   1.283  1.00  0.00     0.000 C 
BRANCH   8   9
ATOM      9  C   UNL     1      11.720  22.095   2.354  1.00  0.00     0.000 C 
BRANCH   9  10
ATOM     10  C   UNL     1      10.252  22.341   2.750  1.00  0.00     0.000 C 
BRANCH  10  11
ATOM     11  C   UNL     1       9.835  21.752   4.112  1.00  0.00     0.000 C 
BRANCH  11  12
ATOM     12  C   UNL     1       8.660  22.466   4.807  1.00  0.00     0.006 C 
BRANCH  12  13
ATOM     13  C   UNL     1       7.329  22.384   4.035  1.00  0.00     0.053 C 
BRANCH  13  14
ATOM     14  C   UNL     1       6.135  22.425   4.940  1.00  0.00     0.041 C 
ATOM     15  O   UNL     1       5.484  21.372   5.180  1.00  0.00    -0.550 OA
ATOM     16  O   UNL     1       5.752  23.618   5.539  1.00  0.00    -0.550 OA
ENDBRANCH  13  14
ENDBRANCH  12  13
ENDBRANCH  11  12
ENDBRANCH  10  11
ENDBRANCH   9  10
ENDBRANCH   8   9
ENDBRANCH   7   8
ENDBRANCH   6   7
ENDBRANCH   5   6
ENDBRANCH   4   5
ENDBRANCH   3   4
ENDBRANCH   2   3
ENDBRANCH   1   2
BRANCH   1  17
ATOM     17  C   UNL     1      14.595  23.200  -4.590  1.00  0.00     0.000 C 
BRANCH  17  18
ATOM     18  C   UNL     1      14.316  22.571  -5.963  1.00  0.00     0.000 C 
BRANCH  18  19
ATOM     19  C   UNL     1      14.019  23.646  -7.020  1.00  0.00     0.000 C 
BRANCH  19  20
ATOM     20  C   UNL     1      12.755  23.324  -7.844  1.00  0.00     0.000 C 
BRANCH  20  21
ATOM     21  C   UNL     1      11.922  22.153  -7.289  1.00  0.00     0.000 C 
BRANCH  21  22
ATOM     22  C   UNL     1      10.947  21.510  -8.290  1.00  0.00    -0.000 C 
BRANCH  22  23
ATOM     23  C   UNL     1      10.485  22.438  -9.430  1.00  0.00    -0.000 C 
BRANCH  23  24
ATOM     24  C   UNL     1       9.242  23.285  -9.077  1.00  0.00    -0.000 C 
BRANCH  24  25
ATOM     25  C   UNL     1       8.592  22.890  -7.739  1.00  0.00    -0.000 C 
BRANCH  25  26
ATOM     26  C   UNL     1       7.337  23.727  -7.428  1.00  0.00    -0.000 C 
BRANCH  26  27
ATOM     27  C   UNL     1       6.515  24.057  -8.686  1.00  0.00    -0.000 C 
BRANCH  27  28
ATOM     28  C   UNL     1       5.460  23.002  -9.071  1.00  0.00    -0.000 C 
BRANCH  28  29
ATOM     29  C   UNL     1       5.087  22.973 -10.564  1.00  0.00    -0.003 C 
ATOM     30  C   UNL     1       4.979  24.367 -11.180  1.00  0.00     0.004 C 
ENDBRANCH  28  29
ENDBRANCH  27  28
ENDBRANCH  26  27
ENDBRANCH  25  26
ENDBRANCH  24  25
ENDBRANCH  23  24
ENDBRANCH  22  23
ENDBRANCH  21  22
ENDBRANCH  20  21
ENDBRANCH  19  20
ENDBRANCH  18  19
ENDBRANCH  17  18
ENDBRANCH   1  17
TORSDOF 26
ENDMDL
MODEL 7
REMARK VINA RESULT:    -5.100      4.531     10.433
REMARK INTER + INTRA:         -16.148
REMARK INTER:                 -13.253
REMARK INTRA:                  -2.895
REMARK UNBOUND:                -3.295
REMARK SMILES CCCCCCCCCCCCCCCCCCCCCCCCCCCC(=O)[O-]
REMARK SMILES IDX 15 1 16 2 17 3 18 4 19 5 20 6 21 7 22 8 23 9 24 10 25 11
REMARK SMILES IDX 26 12 27 13 28 14 29 15 30 16 14 17 13 18 12 19 11 20 10 21
REMARK SMILES IDX 9 22 8 23 7 24 6 25 5 26 4 27 3 28 2 29 1 30
REMARK H PARENT
REMARK Flexibility Score: inf
ROOT
ATOM      1  C   UNL     1       6.863  22.523  -5.547  1.00  0.00     0.000 C 
ENDROOT
BRANCH   1   2
ATOM      2  C   UNL     1       7.393  23.888  -6.028  1.00  0.00     0.000 C 
BRANCH   2   3
ATOM      3  C   UNL     1       6.857  24.275  -7.423  1.00  0.00     0.000 C 
BRANCH   3   4
ATOM      4  C   UNL     1       7.882  24.115  -8.560  1.00  0.00     0.000 C 
BRANCH   4   5
ATOM      5  C   UNL     1       7.719  22.804  -9.340  1.00  0.00     0.000 C 
BRANCH   5   6
ATOM      6  C   UNL     1       6.632  22.927 -10.414  1.00  0.00     0.000 C 
BRANCH   6   7
ATOM      7  C   UNL     1       5.379  22.128 -10.027  1.00  0.00     0.000 C 
BRANCH   7   8
ATOM      8  C   UNL     1       4.282  23.016  -9.399  1.00  0.00     0.000 C 
BRANCH   8   9
ATOM      9  C   UNL     1       3.735  22.476  -8.064  1.00  0.00     0.000 C 
BRANCH   9  10
ATOM     10  C   UNL     1       2.403  21.710  -8.172  1.00  0.00     0.000 C 
BRANCH  10  11
ATOM     11  C   UNL     1       1.351  22.074  -7.107  1.00  0.00     0.000 C 
BRANCH  11  12
ATOM     12  C   UNL     1       0.015  21.314  -7.213  1.00  0.00     0.006 C 
BRANCH  12  13
ATOM     13  C   UNL     1      -0.131  20.476  -8.498  1.00  0.00     0.053 C 
BRANCH  13  14
ATOM     14  C   UNL     1      -0.038  19.003  -8.238  1.00  0.00     0.041 C 
ATOM     15  O   UNL     1       0.860  18.548  -7.478  1.00  0.00    -0.550 OA
ATOM     16  O   UNL     1      -0.952  18.132  -8.816  1.00  0.00    -0.550 OA
ENDBRANCH  13  14
ENDBRANCH  12  13
ENDBRANCH  11  12
ENDBRANCH  10  11
ENDBRANCH   9  10
ENDBRANCH   8   9
ENDBRANCH   7   8
ENDBRANCH   6   7
ENDBRANCH   5   6
ENDBRANCH   4   5
ENDBRANCH   3   4
ENDBRANCH   2   3
ENDBRANCH   1   2
BRANCH   1  17
ATOM     17  C   UNL     1       7.987  21.622  -5.006  1.00  0.00     0.000 C 
BRANCH  17  18
ATOM     18  C   UNL     1       9.320  21.872  -5.727  1.00  0.00     0.000 C 
BRANCH  18  19
ATOM     19  C   UNL     1       9.565  20.825  -6.825  1.00  0.00     0.000 C 
BRANCH  19  20
ATOM     20  C   UNL     1      10.704  21.235  -7.783  1.00  0.00     0.000 C 
BRANCH  20  21
ATOM     21  C   UNL     1      11.860  21.992  -7.099  1.00  0.00     0.000 C 
BRANCH  21  22
ATOM     22  C   UNL     1      12.266  23.313  -7.773  1.00  0.00    -0.000 C 
BRANCH  22  23
ATOM     23  C   UNL     1      13.734  23.728  -7.551  1.00  0.00    -0.000 C 
BRANCH  23  24
ATOM     24  C   UNL     1      14.652  22.561  -7.126  1.00  0.00    -0.000 C 
BRANCH  24  25
ATOM     25  C   UNL     1      16.152  22.889  -7.238  1.00  0.00    -0.000 C 
BRANCH  25  26
ATOM     26  C   UNL     1      16.445  24.379  -6.984  1.00  0.00    -0.000 C 
BRANCH  26  27
ATOM     27  C   UNL     1      16.762  24.681  -5.509  1.00  0.00    -0.000 C 
BRANCH  27  28
ATOM     28  C   UNL     1      15.812  25.688  -4.831  1.00  0.00    -0.000 C 
BRANCH  28  29
ATOM     29  C   UNL     1      15.162  25.188  -3.528  1.00  0.00    -0.003 C 
ATOM     30  C   UNL     1      14.807  23.702  -3.569  1.00  0.00     0.004 C 
ENDBRANCH  28  29
ENDBRANCH  27  28
ENDBRANCH  26  27
ENDBRANCH  25  26
ENDBRANCH  24  25
ENDBRANCH  23  24
ENDBRANCH  22  23
ENDBRANCH  21  22
ENDBRANCH  20  21
ENDBRANCH  19  20
ENDBRANCH  18  19
ENDBRANCH  17  18
ENDBRANCH   1  17
TORSDOF 26
ENDMDL
MODEL 8
REMARK VINA RESULT:    -5.093      2.478      5.216
REMARK INTER + INTRA:         -16.129
REMARK INTER:                 -13.739
REMARK INTRA:                  -2.390
REMARK UNBOUND:                -3.295
REMARK SMILES CCCCCCCCCCCCCCCCCCCCCCCCCCCC(=O)[O-]
REMARK SMILES IDX 15 1 16 2 17 3 18 4 19 5 20 6 21 7 22 8 23 9 24 10 25 11
REMARK SMILES IDX 26 12 27 13 28 14 29 15 30 16 14 17 13 18 12 19 11 20 10 21
REMARK SMILES IDX 9 22 8 23 7 24 6 25 5 26 4 27 3 28 2 29 1 30
REMARK H PARENT
REMARK Flexibility Score: inf
ROOT
ATOM      1  C   UNL     1       8.033  23.840  -8.628  1.00  0.00     0.000 C 
ENDROOT
BRANCH   1   2
ATOM      2  C   UNL     1       8.565  22.580  -9.340  1.00  0.00     0.000 C 
BRANCH   2   3
ATOM      3  C   UNL     1      10.097  22.437  -9.227  1.00  0.00     0.000 C 
BRANCH   3   4
ATOM      4  C   UNL     1      10.559  21.316  -8.280  1.00  0.00     0.000 C 
BRANCH   4   5
ATOM      5  C   UNL     1      11.480  21.814  -7.158  1.00  0.00     0.000 C 
BRANCH   5   6
ATOM      6  C   UNL     1      12.221  23.090  -7.573  1.00  0.00     0.000 C 
BRANCH   6   7
ATOM      7  C   UNL     1      13.701  23.028  -7.164  1.00  0.00     0.000 C 
BRANCH   7   8
ATOM      8  C   UNL     1      14.350  24.427  -7.081  1.00  0.00     0.000 C 
BRANCH   8   9
ATOM      9  C   UNL     1      15.516  24.512  -6.078  1.00  0.00     0.000 C 
BRANCH   9  10
ATOM     10  C   UNL     1      16.023  25.938  -5.793  1.00  0.00     0.000 C 
BRANCH  10  11
ATOM     11  C   UNL     1      16.608  26.155  -4.384  1.00  0.00     0.000 C 
BRANCH  11  12
ATOM     12  C   UNL     1      15.630  26.742  -3.347  1.00  0.00     0.006 C 
BRANCH  12  13
ATOM     13  C   UNL     1      14.696  25.698  -2.704  1.00  0.00     0.053 C 
BRANCH  13  14
ATOM     14  C   UNL     1      15.448  24.563  -2.077  1.00  0.00     0.041 C 
ATOM     15  O   UNL     1      16.416  24.792  -1.304  1.00  0.00    -0.550 OA
ATOM     16  O   UNL     1      15.067  23.250  -2.328  1.00  0.00    -0.550 OA
ENDBRANCH  13  14
ENDBRANCH  12  13
ENDBRANCH  11  12
ENDBRANCH  10  11
ENDBRANCH   9  10
ENDBRANCH   8   9
ENDBRANCH   7   8
ENDBRANCH   6   7
ENDBRANCH   5   6
ENDBRANCH   4   5
ENDBRANCH   3   4
ENDBRANCH   2   3
ENDBRANCH   1   2
BRANCH   1  17
ATOM     17  C   UNL     1       7.668  23.564  -7.159  1.00  0.00     0.000 C 
BRANCH  17  18
ATOM     18  C   UNL     1       6.873  24.723  -6.537  1.00  0.00     0.000 C 
BRANCH  18  19
ATOM     19  C   UNL     1       5.638  24.209  -5.781  1.00  0.00     0.000 C 
BRANCH  19  20
ATOM     20  C   UNL     1       5.193  22.813  -6.265  1.00  0.00     0.000 C 
BRANCH  20  21
ATOM     21  C   UNL     1       4.065  22.840  -7.315  1.00  0.00     0.000 C 
BRANCH  21  22
ATOM     22  C   UNL     1       4.485  22.431  -8.738  1.00  0.00    -0.000 C 
BRANCH  22  23
ATOM     23  C   UNL     1       4.619  23.599  -9.734  1.00  0.00    -0.000 C 
BRANCH  23  24
ATOM     24  C   UNL     1       5.297  23.207 -11.065  1.00  0.00    -0.000 C 
BRANCH  24  25
ATOM     25  C   UNL     1       4.955  24.154 -12.229  1.00  0.00    -0.000 C 
BRANCH  25  26
ATOM     26  C   UNL     1       3.883  25.190 -11.845  1.00  0.00    -0.000 C 
BRANCH  26  27
ATOM     27  C   UNL     1       4.125  26.565 -12.492  1.00  0.00    -0.000 C 
BRANCH  27  28
ATOM     28  C   UNL     1       4.822  27.598 -11.585  1.00  0.00    -0.000 C 
BRANCH  28  29
ATOM     29  C   UNL     1       4.430  29.062 -11.848  1.00  0.00    -0.003 C 
ATOM     30  C   UNL     1       5.315  29.738 -12.895  1.00  0.00     0.004 C 
ENDBRANCH  28  29
ENDBRANCH  27  28
ENDBRANCH  26  27
ENDBRANCH  25  26
ENDBRANCH  24  25
ENDBRANCH  23  24
ENDBRANCH  22  23
ENDBRANCH  21  22
ENDBRANCH  20  21
ENDBRANCH  19  20
ENDBRANCH  18  19
ENDBRANCH  17  18
ENDBRANCH   1  17
TORSDOF 26
ENDMDL
MODEL 9
REMARK VINA RESULT:    -5.073      2.387      9.244
REMARK INTER + INTRA:         -16.080
REMARK INTER:                 -13.960
REMARK INTRA:                  -2.120
REMARK UNBOUND:                -3.295
REMARK SMILES CCCCCCCCCCCCCCCCCCCCCCCCCCCC(=O)[O-]
REMARK SMILES IDX 15 1 16 2 17 3 18 4 19 5 20 6 21 7 22 8 23 9 24 10 25 11
REMARK SMILES IDX 26 12 27 13 28 14 29 15 30 16 14 17 13 18 12 19 11 20 10 21
REMARK SMILES IDX 9 22 8 23 7 24 6 25 5 26 4 27 3 28 2 29 1 30
REMARK H PARENT
REMARK Flexibility Score: inf
ROOT
ATOM      1  C   UNL     1      12.525  20.944  -7.866  1.00  0.00     0.000 C 
ENDROOT
BRANCH   1   2
ATOM      2  C   UNL     1      11.007  20.688  -7.785  1.00  0.00     0.000 C 
BRANCH   2   3
ATOM      3  C   UNL     1      10.284  21.699  -6.870  1.00  0.00     0.000 C 
BRANCH   3   4
ATOM      4  C   UNL     1       9.126  22.450  -7.550  1.00  0.00     0.000 C 
BRANCH   4   5
ATOM      5  C   UNL     1       9.592  23.398  -8.664  1.00  0.00     0.000 C 
BRANCH   5   6
ATOM      6  C   UNL     1       9.291  22.816 -10.050  1.00  0.00     0.000 C 
BRANCH   6   7
ATOM      7  C   UNL     1       7.977  22.019 -10.041  1.00  0.00     0.000 C 
BRANCH   7   8
ATOM      8  C   UNL     1       6.760  22.880 -10.443  1.00  0.00     0.000 C 
BRANCH   8   9
ATOM      9  C   UNL     1       5.403  22.229 -10.116  1.00  0.00     0.000 C 
BRANCH   9  10
ATOM     10  C   UNL     1       4.435  23.119  -9.314  1.00  0.00     0.000 C 
BRANCH  10  11
ATOM     11  C   UNL     1       3.892  22.490  -8.016  1.00  0.00     0.000 C 
BRANCH  11  12
ATOM     12  C   UNL     1       4.657  22.864  -6.732  1.00  0.00     0.006 C 
BRANCH  12  13
ATOM     13  C   UNL     1       5.915  23.720  -6.977  1.00  0.00     0.053 C 
BRANCH  13  14
ATOM     14  C   UNL     1       6.561  24.171  -5.701  1.00  0.00     0.041 C 
ATOM     15  O   UNL     1       7.192  23.348  -4.984  1.00  0.00    -0.550 OA
ATOM     16  O   UNL     1       6.487  25.502  -5.312  1.00  0.00    -0.550 OA
ENDBRANCH  13  14
ENDBRANCH  12  13
ENDBRANCH  11  12
ENDBRANCH  10  11
ENDBRANCH   9  10
ENDBRANCH   8   9
ENDBRANCH   7   8
ENDBRANCH   6   7
ENDBRANCH   5   6
ENDBRANCH   4   5
ENDBRANCH   3   4
ENDBRANCH   2   3
ENDBRANCH   1   2
BRANCH   1  17
ATOM     17  C   UNL     1      12.888  22.396  -7.509  1.00  0.00     0.000 C 
BRANCH  17  18
ATOM     18  C   UNL     1      13.734  22.479  -6.229  1.00  0.00     0.000 C 
BRANCH  18  19
ATOM     19  C   UNL     1      15.198  22.815  -6.549  1.00  0.00     0.000 C 
BRANCH  19  20
ATOM     20  C   UNL     1      15.356  24.223  -7.160  1.00  0.00     0.000 C 
BRANCH  20  21
ATOM     21  C   UNL     1      16.784  24.795  -7.063  1.00  0.00     0.000 C 
BRANCH  21  22
ATOM     22  C   UNL     1      16.948  25.987  -6.103  1.00  0.00    -0.000 C 
BRANCH  22  23
ATOM     23  C   UNL     1      16.541  25.703  -4.644  1.00  0.00    -0.000 C 
BRANCH  23  24
ATOM     24  C   UNL     1      15.169  26.298  -4.255  1.00  0.00    -0.000 C 
BRANCH  24  25
ATOM     25  C   UNL     1      14.666  25.826  -2.879  1.00  0.00    -0.000 C 
BRANCH  25  26
ATOM     26  C   UNL     1      15.759  25.903  -1.797  1.00  0.00    -0.000 C 
BRANCH  26  27
ATOM     27  C   UNL     1      15.182  25.981  -0.373  1.00  0.00    -0.000 C 
BRANCH  27  28
ATOM     28  C   UNL     1      13.682  25.646  -0.257  1.00  0.00    -0.000 C 
BRANCH  28  29
ATOM     29  C   UNL     1      13.244  25.101   1.114  1.00  0.00    -0.003 C 
ATOM     30  C   UNL     1      14.382  25.062   2.133  1.00  0.00     0.004 C 
ENDBRANCH  28  29
ENDBRANCH  27  28
ENDBRANCH  26  27
ENDBRANCH  25  26
ENDBRANCH  24  25
ENDBRANCH  23  24
ENDBRANCH  22  23
ENDBRANCH  21  22
ENDBRANCH  20  21
ENDBRANCH  19  20
ENDBRANCH  18  19
ENDBRANCH  17  18
ENDBRANCH   1  17
TORSDOF 26
ENDMDL
