MODEL 1
REMARK VINA RESULT:    -6.072      0.000      0.000
REMARK INTER + INTRA:          -7.698
REMARK INTER:                  -7.137
REMARK INTRA:                  -0.561
REMARK UNBOUND:                -0.561
REMARK SMILES C=C(C)[C@@H]1CC[C@@]2(CO)CC[C@@]3(C)[C@@H](CC[C@@H]4[C@@]5(C)CC[C@H](O)C(C)(C)[C@H]5CC[C@@]43C)[C@H]12
REMARK SMILES IDX 4 1 5 2 6 3 7 4 32 5 14 6 15 7 16 8 17 9 18 10 20 11 21 12
REMARK SMILES IDX 22 13 24 14 27 15 28 16 29 17 30 18 12 19 11 20 10 21 13 22
REMARK SMILES IDX 31 23 25 24 26 25 19 26 2 27 3 28 1 29 8 30 9 31 23 33
REMARK H PARENT 9 32 23 34
REMARK Flexibility Score: inf
ROOT
ATOM      1  C   UNL     1     -12.633  -3.094 -31.548  1.00  0.00     0.018 C 
ATOM      2  C   UNL     1     -12.688  -4.551 -31.046  1.00  0.00     0.009 C 
ATOM      3  C   UNL     1     -13.868  -4.628 -30.054  1.00  0.00     0.010 C 
ATOM      4  C   UNL     1     -14.879  -3.588 -30.571  1.00  0.00    -0.003 C 
ATOM      5  C   UNL     1     -13.914  -2.447 -30.970  1.00  0.00     0.008 C 
ATOM      6  C   UNL     1     -14.591  -1.178 -31.559  1.00  0.00    -0.000 C 
ATOM      7  C   UNL     1     -13.556  -0.096 -31.920  1.00  0.00     0.005 C 
ATOM      8  C   UNL     1     -14.140   1.320 -32.090  1.00  0.00     0.005 C 
ATOM      9  C   UNL     1     -15.667   1.395 -32.417  1.00  0.00     0.002 C 
ATOM     10  C   UNL     1     -16.167   2.920 -32.667  1.00  0.00    -0.026 C 
ATOM     11  C   UNL     1     -17.441   2.949 -33.558  1.00  0.00     0.010 C 
ATOM     12  C   UNL     1     -17.958   4.363 -33.905  1.00  0.00     0.033 C 
ATOM     13  C   UNL     1     -17.788   5.422 -32.781  1.00  0.00     0.120 C 
ATOM     14  C   UNL     1     -17.647   4.797 -31.360  1.00  0.00    -0.006 C 
ATOM     15  C   UNL     1     -16.480   3.698 -31.313  1.00  0.00     0.003 C 
ATOM     16  C   UNL     1     -16.607   2.743 -30.100  1.00  0.00     0.005 C 
ATOM     17  C   UNL     1     -17.357   1.446 -30.446  1.00  0.00     0.008 C 
ATOM     18  C   UNL     1     -16.557   0.510 -31.408  1.00  0.00    -0.024 C 
ATOM     19  C   UNL     1     -15.691  -0.599 -30.575  1.00  0.00    -0.024 C 
ATOM     20  C   UNL     1     -16.597  -1.779 -30.009  1.00  0.00     0.008 C 
ATOM     21  C   UNL     1     -15.828  -3.025 -29.486  1.00  0.00     0.010 C 
ATOM     22  C   UNL     1     -15.010   0.011 -29.287  1.00  0.00     0.012 C 
ATOM     23  C   UNL     1     -17.625  -0.236 -32.284  1.00  0.00     0.012 C 
ATOM     24  C   UNL     1     -19.059   4.279 -30.939  1.00  0.00     0.014 C 
ATOM     25  C   UNL     1     -17.302   5.935 -30.356  1.00  0.00     0.014 C 
ATOM     26  C   UNL     1     -15.053   3.661 -33.483  1.00  0.00     0.012 C 
ENDROOT
BRANCH   1  27
ATOM     27  C   UNL     1     -12.358  -2.938 -33.045  1.00  0.00    -0.077 C 
ATOM     28  C   UNL     1     -11.120  -2.194 -33.495  1.00  0.00     0.039 C 
ATOM     29  C   UNL     1     -13.150  -3.457 -33.994  1.00  0.00     0.008 C 
ENDBRANCH   1  27
BRANCH   4  30
ATOM     30  C   UNL     1     -15.724  -4.304 -31.687  1.00  0.00     0.163 C 
BRANCH  30  31
ATOM     31  O   UNL     1     -16.109  -5.601 -31.347  1.00  0.00    -0.396 OA
ATOM     32  H   UNL     1     -15.742  -6.200 -32.048  1.00  0.00     0.210 HD
ENDBRANCH  30  31
ENDBRANCH   4  30
BRANCH  13  33
ATOM     33  O   UNL     1     -16.700   6.271 -33.055  1.00  0.00    -0.393 OA
ATOM     34  H   UNL     1     -16.667   6.399 -34.040  1.00  0.00     0.210 HD
ENDBRANCH  13  33
TORSDOF 4
ENDMDL
MODEL 2
REMARK VINA RESULT:    -5.871      5.362      9.503
REMARK INTER + INTRA:          -7.463
REMARK INTER:                  -7.014
REMARK INTRA:                  -0.448
REMARK UNBOUND:                -0.561
REMARK SMILES C=C(C)[C@@H]1CC[C@@]2(CO)CC[C@@]3(C)[C@@H](CC[C@@H]4[C@@]5(C)CC[C@H](O)C(C)(C)[C@H]5CC[C@@]43C)[C@H]12
REMARK SMILES IDX 4 1 5 2 6 3 7 4 32 5 14 6 15 7 16 8 17 9 18 10 20 11 21 12
REMARK SMILES IDX 22 13 24 14 27 15 28 16 29 17 30 18 12 19 11 20 10 21 13 22
REMARK SMILES IDX 31 23 25 24 26 25 19 26 2 27 3 28 1 29 8 30 9 31 23 33
REMARK H PARENT 9 32 23 34
REMARK Flexibility Score: inf
ROOT
ATOM      1  C   UNL     1     -17.731   4.429 -32.515  1.00  0.00     0.018 C 
ATOM      2  C   UNL     1     -17.879   3.639 -33.831  1.00  0.00     0.009 C 
ATOM      3  C   UNL     1     -18.066   4.685 -34.950  1.00  0.00     0.010 C 
ATOM      4  C   UNL     1     -17.271   5.914 -34.470  1.00  0.00    -0.003 C 
ATOM      5  C   UNL     1     -17.638   5.906 -32.969  1.00  0.00     0.008 C 
ATOM      6  C   UNL     1     -16.998   7.040 -32.121  1.00  0.00    -0.000 C 
ATOM      7  C   UNL     1     -17.424   6.955 -30.643  1.00  0.00     0.005 C 
ATOM      8  C   UNL     1     -17.205   8.250 -29.837  1.00  0.00     0.005 C 
ATOM      9  C   UNL     1     -16.136   9.238 -30.406  1.00  0.00     0.002 C 
ATOM     10  C   UNL     1     -15.914  10.526 -29.441  1.00  0.00    -0.026 C 
ATOM     11  C   UNL     1     -14.502  11.141 -29.653  1.00  0.00     0.010 C 
ATOM     12  C   UNL     1     -14.172  12.337 -28.731  1.00  0.00     0.033 C 
ATOM     13  C   UNL     1     -15.370  13.269 -28.404  1.00  0.00     0.120 C 
ATOM     14  C   UNL     1     -16.525  13.180 -29.448  1.00  0.00    -0.006 C 
ATOM     15  C   UNL     1     -17.002  11.665 -29.671  1.00  0.00     0.003 C 
ATOM     16  C   UNL     1     -17.786  11.475 -30.992  1.00  0.00     0.005 C 
ATOM     17  C   UNL     1     -16.888  11.009 -32.150  1.00  0.00     0.008 C 
ATOM     18  C   UNL     1     -16.359   9.551 -31.971  1.00  0.00    -0.024 C 
ATOM     19  C   UNL     1     -17.328   8.469 -32.721  1.00  0.00    -0.024 C 
ATOM     20  C   UNL     1     -17.125   8.461 -34.300  1.00  0.00     0.008 C 
ATOM     21  C   UNL     1     -17.763   7.260 -35.054  1.00  0.00     0.010 C 
ATOM     22  C   UNL     1     -18.861   8.802 -32.535  1.00  0.00     0.012 C 
ATOM     23  C   UNL     1     -14.941   9.511 -32.645  1.00  0.00     0.012 C 
ATOM     24  C   UNL     1     -16.042  13.917 -30.737  1.00  0.00     0.014 C 
ATOM     25  C   UNL     1     -17.729  14.010 -28.918  1.00  0.00     0.014 C 
ATOM     26  C   UNL     1     -15.947  10.023 -27.957  1.00  0.00     0.012 C 
ENDROOT
BRANCH   1  27
ATOM     27  C   UNL     1     -16.657   3.898 -31.562  1.00  0.00    -0.077 C 
ATOM     28  C   UNL     1     -17.031   3.575 -30.133  1.00  0.00     0.039 C 
ATOM     29  C   UNL     1     -15.389   3.673 -31.938  1.00  0.00     0.008 C 
ENDBRANCH   1  27
BRANCH   4  30
ATOM     30  C   UNL     1     -15.777   5.672 -34.897  1.00  0.00     0.163 C 
BRANCH  30  31
ATOM     31  O   UNL     1     -15.447   6.251 -36.123  1.00  0.00    -0.396 OA
ATOM     32  H   UNL     1     -15.619   7.223 -36.034  1.00  0.00     0.210 HD
ENDBRANCH  30  31
ENDBRANCH   4  30
BRANCH  13  33
ATOM     33  O   UNL     1     -15.859  13.019 -27.109  1.00  0.00    -0.393 OA
ATOM     34  H   UNL     1     -15.931  12.032 -27.006  1.00  0.00     0.210 HD
ENDBRANCH  13  33
TORSDOF 4
ENDMDL
MODEL 3
REMARK VINA RESULT:    -5.822      1.694      7.644
REMARK INTER + INTRA:          -7.404
REMARK INTER:                  -7.146
REMARK INTRA:                  -0.258
REMARK UNBOUND:                -0.561
REMARK SMILES C=C(C)[C@@H]1CC[C@@]2(CO)CC[C@@]3(C)[C@@H](CC[C@@H]4[C@@]5(C)CC[C@H](O)C(C)(C)[C@H]5CC[C@@]43C)[C@H]12
REMARK SMILES IDX 4 1 5 2 6 3 7 4 32 5 14 6 15 7 16 8 17 9 18 10 20 11 21 12
REMARK SMILES IDX 22 13 24 14 27 15 28 16 29 17 30 18 12 19 11 20 10 21 13 22
REMARK SMILES IDX 31 23 25 24 26 25 19 26 2 27 3 28 1 29 8 30 9 31 23 33
REMARK H PARENT 9 32 23 34
REMARK Flexibility Score: inf
ROOT
ATOM      1  C   UNL     1     -17.347   3.901 -33.315  1.00  0.00     0.018 C 
ATOM      2  C   UNL     1     -18.394   4.886 -32.759  1.00  0.00     0.009 C 
ATOM      3  C   UNL     1     -19.125   4.148 -31.617  1.00  0.00     0.010 C 
ATOM      4  C   UNL     1     -18.066   3.196 -31.029  1.00  0.00    -0.003 C 
ATOM      5  C   UNL     1     -17.388   2.708 -32.330  1.00  0.00     0.008 C 
ATOM      6  C   UNL     1     -16.223   1.698 -32.135  1.00  0.00    -0.000 C 
ATOM      7  C   UNL     1     -15.615   1.264 -33.482  1.00  0.00     0.005 C 
ATOM      8  C   UNL     1     -14.778  -0.029 -33.421  1.00  0.00     0.005 C 
ATOM      9  C   UNL     1     -14.209  -0.410 -32.017  1.00  0.00     0.002 C 
ATOM     10  C   UNL     1     -13.270  -1.734 -32.072  1.00  0.00    -0.026 C 
ATOM     11  C   UNL     1     -12.257  -1.747 -30.893  1.00  0.00     0.010 C 
ATOM     12  C   UNL     1     -11.273  -2.939 -30.897  1.00  0.00     0.033 C 
ATOM     13  C   UNL     1     -11.864  -4.280 -31.411  1.00  0.00     0.120 C 
ATOM     14  C   UNL     1     -13.419  -4.347 -31.318  1.00  0.00    -0.006 C 
ATOM     15  C   UNL     1     -14.106  -3.088 -32.036  1.00  0.00     0.003 C 
ATOM     16  C   UNL     1     -15.569  -2.865 -31.578  1.00  0.00     0.005 C 
ATOM     17  C   UNL     1     -15.681  -1.848 -30.432  1.00  0.00     0.008 C 
ATOM     18  C   UNL     1     -15.339  -0.388 -30.868  1.00  0.00    -0.024 C 
ATOM     19  C   UNL     1     -16.686   0.437 -31.293  1.00  0.00    -0.024 C 
ATOM     20  C   UNL     1     -17.539   0.901 -30.033  1.00  0.00     0.008 C 
ATOM     21  C   UNL     1     -18.650   1.950 -30.322  1.00  0.00     0.010 C 
ATOM     22  C   UNL     1     -17.692  -0.444 -32.133  1.00  0.00     0.012 C 
ATOM     23  C   UNL     1     -14.696   0.307 -29.616  1.00  0.00     0.012 C 
ATOM     24  C   UNL     1     -13.785  -4.529 -29.811  1.00  0.00     0.014 C 
ATOM     25  C   UNL     1     -13.897  -5.647 -32.025  1.00  0.00     0.014 C 
ATOM     26  C   UNL     1     -12.409  -1.653 -33.380  1.00  0.00     0.012 C 
ENDROOT
BRANCH   1  27
ATOM     27  C   UNL     1     -15.986   4.522 -33.639  1.00  0.00    -0.077 C 
ATOM     28  C   UNL     1     -15.740   5.083 -35.022  1.00  0.00     0.039 C 
ATOM     29  C   UNL     1     -14.994   4.625 -32.742  1.00  0.00     0.008 C 
ENDBRANCH   1  27
BRANCH   4  30
ATOM     30  C   UNL     1     -17.232   4.041 -29.998  1.00  0.00     0.163 C 
BRANCH  30  31
ATOM     31  O   UNL     1     -17.895   4.258 -28.790  1.00  0.00    -0.396 OA
ATOM     32  H   UNL     1     -17.333   4.884 -28.265  1.00  0.00     0.210 HD
ENDBRANCH  30  31
ENDBRANCH   4  30
BRANCH  13  33
ATOM     33  O   UNL     1     -11.439  -4.541 -32.726  1.00  0.00    -0.393 OA
ATOM     34  H   UNL     1     -11.267  -3.663 -33.161  1.00  0.00     0.210 HD
ENDBRANCH  13  33
TORSDOF 4
ENDMDL
MODEL 4
REMARK VINA RESULT:    -5.683      0.955      1.199
REMARK INTER + INTRA:          -7.241
REMARK INTER:                  -6.760
REMARK INTRA:                  -0.481
REMARK UNBOUND:                -0.561
REMARK SMILES C=C(C)[C@@H]1CC[C@@]2(CO)CC[C@@]3(C)[C@@H](CC[C@@H]4[C@@]5(C)CC[C@H](O)C(C)(C)[C@H]5CC[C@@]43C)[C@H]12
REMARK SMILES IDX 4 1 5 2 6 3 7 4 32 5 14 6 15 7 16 8 17 9 18 10 20 11 21 12
REMARK SMILES IDX 22 13 24 14 27 15 28 16 29 17 30 18 12 19 11 20 10 21 13 22
REMARK SMILES IDX 31 23 25 24 26 25 19 26 2 27 3 28 1 29 8 30 9 31 23 33
REMARK H PARENT 9 32 23 34
REMARK Flexibility Score: inf
ROOT
ATOM      1  C   UNL     1     -13.506  -2.674 -31.147  1.00  0.00     0.018 C 
ATOM      2  C   UNL     1     -13.772  -4.088 -30.593  1.00  0.00     0.009 C 
ATOM      3  C   UNL     1     -15.014  -3.975 -29.682  1.00  0.00     0.010 C 
ATOM      4  C   UNL     1     -15.853  -2.847 -30.310  1.00  0.00    -0.003 C 
ATOM      5  C   UNL     1     -14.733  -1.851 -30.686  1.00  0.00     0.008 C 
ATOM      6  C   UNL     1     -15.209  -0.540 -31.371  1.00  0.00    -0.000 C 
ATOM      7  C   UNL     1     -14.028   0.391 -31.702  1.00  0.00     0.005 C 
ATOM      8  C   UNL     1     -14.421   1.858 -31.970  1.00  0.00     0.005 C 
ATOM      9  C   UNL     1     -15.903   2.099 -32.405  1.00  0.00     0.002 C 
ATOM     10  C   UNL     1     -16.195   3.660 -32.749  1.00  0.00    -0.026 C 
ATOM     11  C   UNL     1     -17.396   3.798 -33.727  1.00  0.00     0.010 C 
ATOM     12  C   UNL     1     -17.712   5.246 -34.166  1.00  0.00     0.033 C 
ATOM     13  C   UNL     1     -17.485   6.329 -33.076  1.00  0.00     0.120 C 
ATOM     14  C   UNL     1     -17.513   5.761 -31.625  1.00  0.00    -0.006 C 
ATOM     15  C   UNL     1     -16.496   4.533 -31.453  1.00  0.00     0.003 C 
ATOM     16  C   UNL     1     -16.817   3.660 -30.215  1.00  0.00     0.005 C 
ATOM     17  C   UNL     1     -17.696   2.448 -30.559  1.00  0.00     0.008 C 
ATOM     18  C   UNL     1     -16.958   1.377 -31.425  1.00  0.00    -0.024 C 
ATOM     19  C   UNL     1     -16.291   0.214 -30.490  1.00  0.00    -0.024 C 
ATOM     20  C   UNL     1     -17.369  -0.821 -29.942  1.00  0.00     0.008 C 
ATOM     21  C   UNL     1     -16.794  -2.123 -29.317  1.00  0.00     0.010 C 
ATOM     22  C   UNL     1     -15.623   0.799 -29.184  1.00  0.00     0.012 C 
ATOM     23  C   UNL     1     -18.051   0.723 -32.342  1.00  0.00     0.012 C 
ATOM     24  C   UNL     1     -19.002   5.438 -31.282  1.00  0.00     0.014 C 
ATOM     25  C   UNL     1     -17.096   6.896 -30.646  1.00  0.00     0.014 C 
ATOM     26  C   UNL     1     -14.948   4.221 -33.515  1.00  0.00     0.012 C 
ENDROOT
BRANCH   1  27
ATOM     27  C   UNL     1     -13.118  -2.625 -32.627  1.00  0.00    -0.077 C 
ATOM     28  C   UNL     1     -14.065  -3.196 -33.659  1.00  0.00     0.039 C 
ATOM     29  C   UNL     1     -11.981  -2.068 -33.068  1.00  0.00     0.008 C 
ENDBRANCH   1  27
BRANCH   4  30
ATOM     30  C   UNL     1     -16.707  -3.510 -31.452  1.00  0.00     0.163 C 
BRANCH  30  31
ATOM     31  O   UNL     1     -17.274  -4.731 -31.087  1.00  0.00    -0.396 OA
ATOM     32  H   UNL     1     -16.816  -5.429 -31.621  1.00  0.00     0.210 HD
ENDBRANCH  30  31
ENDBRANCH   4  30
BRANCH  13  33
ATOM     33  O   UNL     1     -16.286   7.027 -33.308  1.00  0.00    -0.393 OA
ATOM     34  H   UNL     1     -15.554   6.354 -33.339  1.00  0.00     0.210 HD
ENDBRANCH  13  33
TORSDOF 4
ENDMDL
MODEL 5
REMARK VINA RESULT:    -5.652      2.302      4.859
REMARK INTER + INTRA:          -7.205
REMARK INTER:                  -6.660
REMARK INTRA:                  -0.545
REMARK UNBOUND:                -0.561
REMARK SMILES C=C(C)[C@@H]1CC[C@@]2(CO)CC[C@@]3(C)[C@@H](CC[C@@H]4[C@@]5(C)CC[C@H](O)C(C)(C)[C@H]5CC[C@@]43C)[C@H]12
REMARK SMILES IDX 4 1 5 2 6 3 7 4 32 5 14 6 15 7 16 8 17 9 18 10 20 11 21 12
REMARK SMILES IDX 22 13 24 14 27 15 28 16 29 17 30 18 12 19 11 20 10 21 13 22
REMARK SMILES IDX 31 23 25 24 26 25 19 26 2 27 3 28 1 29 8 30 9 31 23 33
REMARK H PARENT 9 32 23 34
REMARK Flexibility Score: inf
ROOT
ATOM      1  C   UNL     1     -16.859  -0.437 -28.802  1.00  0.00     0.018 C 
ATOM      2  C   UNL     1     -16.117  -1.780 -28.647  1.00  0.00     0.009 C 
ATOM      3  C   UNL     1     -15.517  -2.111 -30.030  1.00  0.00     0.010 C 
ATOM      4  C   UNL     1     -15.218  -0.739 -30.662  1.00  0.00    -0.003 C 
ATOM      5  C   UNL     1     -16.479   0.042 -30.224  1.00  0.00     0.008 C 
ATOM      6  C   UNL     1     -16.539   1.524 -30.689  1.00  0.00    -0.000 C 
ATOM      7  C   UNL     1     -17.829   2.218 -30.213  1.00  0.00     0.005 C 
ATOM      8  C   UNL     1     -18.179   3.512 -30.972  1.00  0.00     0.005 C 
ATOM      9  C   UNL     1     -16.989   4.227 -31.690  1.00  0.00     0.002 C 
ATOM     10  C   UNL     1     -17.441   5.625 -32.384  1.00  0.00    -0.026 C 
ATOM     11  C   UNL     1     -16.229   6.587 -32.534  1.00  0.00     0.010 C 
ATOM     12  C   UNL     1     -16.572   7.973 -33.128  1.00  0.00     0.033 C 
ATOM     13  C   UNL     1     -17.684   7.969 -34.212  1.00  0.00     0.120 C 
ATOM     14  C   UNL     1     -17.875   6.582 -34.897  1.00  0.00    -0.006 C 
ATOM     15  C   UNL     1     -18.104   5.418 -33.817  1.00  0.00     0.003 C 
ATOM     16  C   UNL     1     -17.834   4.007 -34.393  1.00  0.00     0.005 C 
ATOM     17  C   UNL     1     -16.402   3.520 -34.119  1.00  0.00     0.008 C 
ATOM     18  C   UNL     1     -16.131   3.221 -32.610  1.00  0.00    -0.024 C 
ATOM     19  C   UNL     1     -16.383   1.643 -32.262  1.00  0.00    -0.024 C 
ATOM     20  C   UNL     1     -15.197   0.711 -32.768  1.00  0.00     0.008 C 
ATOM     21  C   UNL     1     -15.197  -0.740 -32.210  1.00  0.00     0.010 C 
ATOM     22  C   UNL     1     -17.661   1.063 -32.986  1.00  0.00     0.012 C 
ATOM     23  C   UNL     1     -14.619   3.558 -32.358  1.00  0.00     0.012 C 
ATOM     24  C   UNL     1     -16.659   6.365 -35.853  1.00  0.00     0.014 C 
ATOM     25  C   UNL     1     -19.125   6.659 -35.820  1.00  0.00     0.014 C 
ATOM     26  C   UNL     1     -18.441   6.339 -31.412  1.00  0.00     0.012 C 
ENDROOT
BRANCH   1  27
ATOM     27  C   UNL     1     -16.674   0.539 -27.638  1.00  0.00    -0.077 C 
ATOM     28  C   UNL     1     -17.885   0.986 -26.849  1.00  0.00     0.039 C 
ATOM     29  C   UNL     1     -15.477   1.006 -27.255  1.00  0.00     0.008 C 
ENDBRANCH   1  27
BRANCH   4  30
ATOM     30  C   UNL     1     -13.812  -0.295 -30.118  1.00  0.00     0.163 C 
BRANCH  30  31
ATOM     31  O   UNL     1     -12.742  -0.839 -30.830  1.00  0.00    -0.396 OA
ATOM     32  H   UNL     1     -13.092  -1.634 -31.307  1.00  0.00     0.210 HD
ENDBRANCH  30  31
ENDBRANCH   4  30
BRANCH  13  33
ATOM     33  O   UNL     1     -18.903   8.426 -33.679  1.00  0.00    -0.393 OA
ATOM     34  H   UNL     1     -19.568   8.422 -34.418  1.00  0.00     0.210 HD
ENDBRANCH  13  33
TORSDOF 4
ENDMDL
MODEL 6
REMARK VINA RESULT:    -5.535      1.717      2.432
REMARK INTER + INTRA:          -7.068
REMARK INTER:                  -7.128
REMARK INTRA:                   0.060
REMARK UNBOUND:                -0.561
REMARK SMILES C=C(C)[C@@H]1CC[C@@]2(CO)CC[C@@]3(C)[C@@H](CC[C@@H]4[C@@]5(C)CC[C@H](O)C(C)(C)[C@H]5CC[C@@]43C)[C@H]12
REMARK SMILES IDX 4 1 5 2 6 3 7 4 32 5 14 6 15 7 16 8 17 9 18 10 20 11 21 12
REMARK SMILES IDX 22 13 24 14 27 15 28 16 29 17 30 18 12 19 11 20 10 21 13 22
REMARK SMILES IDX 31 23 25 24 26 25 19 26 2 27 3 28 1 29 8 30 9 31 23 33
REMARK H PARENT 9 32 23 34
REMARK Flexibility Score: inf
ROOT
ATOM      1  C   UNL     1     -12.095  -3.388 -31.403  1.00  0.00     0.018 C 
ATOM      2  C   UNL     1     -11.929  -4.886 -31.730  1.00  0.00     0.009 C 
ATOM      3  C   UNL     1     -13.297  -5.375 -32.250  1.00  0.00     0.010 C 
ATOM      4  C   UNL     1     -13.912  -4.145 -32.942  1.00  0.00    -0.003 C 
ATOM      5  C   UNL     1     -13.503  -3.038 -31.943  1.00  0.00     0.008 C 
ATOM      6  C   UNL     1     -13.960  -1.601 -32.317  1.00  0.00    -0.000 C 
ATOM      7  C   UNL     1     -13.514  -0.569 -31.263  1.00  0.00     0.005 C 
ATOM      8  C   UNL     1     -14.274   0.771 -31.315  1.00  0.00     0.005 C 
ATOM      9  C   UNL     1     -14.955   1.119 -32.678  1.00  0.00     0.002 C 
ATOM     10  C   UNL     1     -15.652   2.586 -32.659  1.00  0.00    -0.026 C 
ATOM     11  C   UNL     1     -15.763   3.166 -34.097  1.00  0.00     0.010 C 
ATOM     12  C   UNL     1     -16.357   4.591 -34.178  1.00  0.00     0.033 C 
ATOM     13  C   UNL     1     -17.471   4.900 -33.140  1.00  0.00     0.120 C 
ATOM     14  C   UNL     1     -18.169   3.623 -32.583  1.00  0.00    -0.006 C 
ATOM     15  C   UNL     1     -17.103   2.573 -32.005  1.00  0.00     0.003 C 
ATOM     16  C   UNL     1     -17.682   1.142 -31.881  1.00  0.00     0.005 C 
ATOM     17  C   UNL     1     -17.372   0.271 -33.108  1.00  0.00     0.008 C 
ATOM     18  C   UNL     1     -15.858  -0.091 -33.241  1.00  0.00    -0.024 C 
ATOM     19  C   UNL     1     -15.528  -1.533 -32.543  1.00  0.00    -0.024 C 
ATOM     20  C   UNL     1     -16.008  -2.763 -33.431  1.00  0.00     0.008 C 
ATOM     21  C   UNL     1     -15.459  -4.154 -33.005  1.00  0.00     0.010 C 
ATOM     22  C   UNL     1     -16.289  -1.729 -31.174  1.00  0.00     0.012 C 
ATOM     23  C   UNL     1     -15.564  -0.195 -34.780  1.00  0.00     0.012 C 
ATOM     24  C   UNL     1     -19.094   3.070 -33.714  1.00  0.00     0.014 C 
ATOM     25  C   UNL     1     -19.125   4.049 -31.432  1.00  0.00     0.014 C 
ATOM     26  C   UNL     1     -14.702   3.556 -31.876  1.00  0.00     0.012 C 
ENDROOT
BRANCH   1  27
ATOM     27  C   UNL     1     -10.920  -2.502 -31.824  1.00  0.00    -0.077 C 
ATOM     28  C   UNL     1     -10.170  -2.824 -33.097  1.00  0.00     0.039 C 
ATOM     29  C   UNL     1     -10.531  -1.422 -31.131  1.00  0.00     0.008 C 
ENDBRANCH   1  27
BRANCH   4  30
ATOM     30  C   UNL     1     -13.328  -4.116 -34.401  1.00  0.00     0.163 C 
BRANCH  30  31
ATOM     31  O   UNL     1     -12.985  -2.837 -34.840  1.00  0.00    -0.396 OA
ATOM     32  H   UNL     1     -13.083  -2.838 -35.826  1.00  0.00     0.210 HD
ENDBRANCH  30  31
ENDBRANCH   4  30
BRANCH  13  33
ATOM     33  O   UNL     1     -16.967   5.684 -32.086  1.00  0.00    -0.393 OA
ATOM     34  H   UNL     1     -16.266   6.277 -32.468  1.00  0.00     0.210 HD
ENDBRANCH  13  33
TORSDOF 4
ENDMDL
MODEL 7
REMARK VINA RESULT:    -5.320      1.728      3.747
REMARK INTER + INTRA:          -6.814
REMARK INTER:                  -6.253
REMARK INTRA:                  -0.561
REMARK UNBOUND:                -0.561
REMARK SMILES C=C(C)[C@@H]1CC[C@@]2(CO)CC[C@@]3(C)[C@@H](CC[C@@H]4[C@@]5(C)CC[C@H](O)C(C)(C)[C@H]5CC[C@@]43C)[C@H]12
REMARK SMILES IDX 4 1 5 2 6 3 7 4 32 5 14 6 15 7 16 8 17 9 18 10 20 11 21 12
REMARK SMILES IDX 22 13 24 14 27 15 28 16 29 17 30 18 12 19 11 20 10 21 13 22
REMARK SMILES IDX 31 23 25 24 26 25 19 26 2 27 3 28 1 29 8 30 9 31 23 33
REMARK H PARENT 9 32 23 34
REMARK Flexibility Score: inf
ROOT
ATOM      1  C   UNL     1     -15.539  -5.050 -31.641  1.00  0.00     0.018 C 
ATOM      2  C   UNL     1     -14.411  -6.095 -31.760  1.00  0.00     0.009 C 
ATOM      3  C   UNL     1     -13.203  -5.364 -32.384  1.00  0.00     0.010 C 
ATOM      4  C   UNL     1     -13.330  -3.911 -31.889  1.00  0.00    -0.003 C 
ATOM      5  C   UNL     1     -14.858  -3.713 -32.018  1.00  0.00     0.008 C 
ATOM      6  C   UNL     1     -15.386  -2.315 -31.591  1.00  0.00    -0.000 C 
ATOM      7  C   UNL     1     -16.914  -2.208 -31.759  1.00  0.00     0.005 C 
ATOM      8  C   UNL     1     -17.457  -0.766 -31.783  1.00  0.00     0.005 C 
ATOM      9  C   UNL     1     -16.551   0.318 -31.115  1.00  0.00     0.002 C 
ATOM     10  C   UNL     1     -17.249   1.784 -31.111  1.00  0.00    -0.026 C 
ATOM     11  C   UNL     1     -16.680   2.667 -29.965  1.00  0.00     0.010 C 
ATOM     12  C   UNL     1     -17.330   4.064 -29.838  1.00  0.00     0.033 C 
ATOM     13  C   UNL     1     -17.735   4.726 -31.183  1.00  0.00     0.120 C 
ATOM     14  C   UNL     1     -16.958   4.160 -32.410  1.00  0.00    -0.006 C 
ATOM     15  C   UNL     1     -17.062   2.562 -32.488  1.00  0.00     0.003 C 
ATOM     16  C   UNL     1     -15.959   1.934 -33.375  1.00  0.00     0.005 C 
ATOM     17  C   UNL     1     -14.736   1.480 -32.564  1.00  0.00     0.008 C 
ATOM     18  C   UNL     1     -15.029   0.255 -31.639  1.00  0.00    -0.024 C 
ATOM     19  C   UNL     1     -14.650  -1.153 -32.379  1.00  0.00    -0.024 C 
ATOM     20  C   UNL     1     -13.082  -1.421 -32.413  1.00  0.00     0.008 C 
ATOM     21  C   UNL     1     -12.654  -2.863 -32.806  1.00  0.00     0.010 C 
ATOM     22  C   UNL     1     -15.074  -1.168 -33.901  1.00  0.00     0.012 C 
ATOM     23  C   UNL     1     -14.110   0.426 -30.378  1.00  0.00     0.012 C 
ATOM     24  C   UNL     1     -15.503   4.724 -32.337  1.00  0.00     0.014 C 
ATOM     25  C   UNL     1     -17.576   4.764 -33.704  1.00  0.00     0.014 C 
ATOM     26  C   UNL     1     -18.770   1.588 -30.791  1.00  0.00     0.012 C 
ENDROOT
BRANCH   1  27
ATOM     27  C   UNL     1     -16.338  -5.111 -30.337  1.00  0.00    -0.077 C 
ATOM     28  C   UNL     1     -17.823  -5.392 -30.392  1.00  0.00     0.039 C 
ATOM     29  C   UNL     1     -15.780  -4.955 -29.127  1.00  0.00     0.008 C 
ENDBRANCH   1  27
BRANCH   4  30
ATOM     30  C   UNL     1     -12.667  -3.867 -30.465  1.00  0.00     0.163 C 
BRANCH  30  31
ATOM     31  O   UNL     1     -11.272  -3.869 -30.499  1.00  0.00    -0.396 OA
ATOM     32  H   UNL     1     -10.965  -3.515 -29.625  1.00  0.00     0.210 HD
ENDBRANCH  30  31
ENDBRANCH   4  30
BRANCH  13  33
ATOM     33  O   UNL     1     -19.123   4.625 -31.392  1.00  0.00    -0.393 OA
ATOM     34  H   UNL     1     -19.306   3.704 -31.718  1.00  0.00     0.210 HD
ENDBRANCH  13  33
TORSDOF 4
ENDMDL
MODEL 8
REMARK VINA RESULT:    -5.192      1.418      8.085
REMARK INTER + INTRA:          -6.664
REMARK INTER:                  -6.281
REMARK INTRA:                  -0.382
REMARK UNBOUND:                -0.561
REMARK SMILES C=C(C)[C@@H]1CC[C@@]2(CO)CC[C@@]3(C)[C@@H](CC[C@@H]4[C@@]5(C)CC[C@H](O)C(C)(C)[C@H]5CC[C@@]43C)[C@H]12
REMARK SMILES IDX 4 1 5 2 6 3 7 4 32 5 14 6 15 7 16 8 17 9 18 10 20 11 21 12
REMARK SMILES IDX 22 13 24 14 27 15 28 16 29 17 30 18 12 19 11 20 10 21 13 22
REMARK SMILES IDX 31 23 25 24 26 25 19 26 2 27 3 28 1 29 8 30 9 31 23 33
REMARK H PARENT 9 32 23 34
REMARK Flexibility Score: inf
ROOT
ATOM      1  C   UNL     1     -16.867   5.809 -30.744  1.00  0.00     0.018 C 
ATOM      2  C   UNL     1     -17.078   7.059 -31.621  1.00  0.00     0.009 C 
ATOM      3  C   UNL     1     -16.507   6.718 -33.014  1.00  0.00     0.010 C 
ATOM      4  C   UNL     1     -16.728   5.201 -33.162  1.00  0.00    -0.003 C 
ATOM      5  C   UNL     1     -16.364   4.732 -31.735  1.00  0.00     0.008 C 
ATOM      6  C   UNL     1     -16.473   3.201 -31.488  1.00  0.00    -0.000 C 
ATOM      7  C   UNL     1     -16.087   2.828 -30.045  1.00  0.00     0.005 C 
ATOM      8  C   UNL     1     -15.747   1.339 -29.836  1.00  0.00     0.005 C 
ATOM      9  C   UNL     1     -16.337   0.349 -30.890  1.00  0.00     0.002 C 
ATOM     10  C   UNL     1     -15.999  -1.200 -30.535  1.00  0.00    -0.026 C 
ATOM     11  C   UNL     1     -17.045  -2.157 -31.171  1.00  0.00     0.010 C 
ATOM     12  C   UNL     1     -16.845  -3.653 -30.835  1.00  0.00     0.033 C 
ATOM     13  C   UNL     1     -15.366  -4.109 -30.715  1.00  0.00     0.120 C 
ATOM     14  C   UNL     1     -14.367  -3.173 -31.463  1.00  0.00    -0.006 C 
ATOM     15  C   UNL     1     -14.548  -1.643 -31.018  1.00  0.00     0.003 C 
ATOM     16  C   UNL     1     -13.936  -0.649 -32.035  1.00  0.00     0.005 C 
ATOM     17  C   UNL     1     -14.969  -0.128 -33.046  1.00  0.00     0.008 C 
ATOM     18  C   UNL     1     -16.039   0.812 -32.404  1.00  0.00    -0.024 C 
ATOM     19  C   UNL     1     -15.606   2.383 -32.533  1.00  0.00    -0.024 C 
ATOM     20  C   UNL     1     -15.828   2.958 -34.000  1.00  0.00     0.008 C 
ATOM     21  C   UNL     1     -15.745   4.505 -34.136  1.00  0.00     0.010 C 
ATOM     22  C   UNL     1     -14.066   2.608 -32.263  1.00  0.00     0.012 C 
ATOM     23  C   UNL     1     -17.365   0.586 -33.214  1.00  0.00     0.012 C 
ATOM     24  C   UNL     1     -14.538  -3.441 -32.992  1.00  0.00     0.014 C 
ATOM     25  C   UNL     1     -12.919  -3.626 -31.118  1.00  0.00     0.014 C 
ATOM     26  C   UNL     1     -16.141  -1.376 -28.984  1.00  0.00     0.012 C 
ENDROOT
BRANCH   1  27
ATOM     27  C   UNL     1     -18.044   5.456 -29.831  1.00  0.00    -0.077 C 
ATOM     28  C   UNL     1     -18.019   5.905 -28.386  1.00  0.00     0.039 C 
ATOM     29  C   UNL     1     -19.125   4.785 -30.254  1.00  0.00     0.008 C 
ENDBRANCH   1  27
BRANCH   4  30
ATOM     30  C   UNL     1     -18.200   5.014 -33.681  1.00  0.00     0.163 C 
BRANCH  30  31
ATOM     31  O   UNL     1     -18.357   5.313 -35.034  1.00  0.00    -0.396 OA
ATOM     32  H   UNL     1     -18.453   6.297 -35.099  1.00  0.00     0.210 HD
ENDBRANCH  30  31
ENDBRANCH   4  30
BRANCH  13  33
ATOM     33  O   UNL     1     -14.993  -4.247 -29.366  1.00  0.00    -0.393 OA
ATOM     34  H   UNL     1     -15.663  -3.751 -28.823  1.00  0.00     0.210 HD
ENDBRANCH  13  33
TORSDOF 4
ENDMDL
MODEL 9
REMARK VINA RESULT:    -5.033      2.126      7.953
REMARK INTER + INTRA:          -6.477
REMARK INTER:                  -6.141
REMARK INTRA:                  -0.335
REMARK UNBOUND:                -0.561
REMARK SMILES C=C(C)[C@@H]1CC[C@@]2(CO)CC[C@@]3(C)[C@@H](CC[C@@H]4[C@@]5(C)CC[C@H](O)C(C)(C)[C@H]5CC[C@@]43C)[C@H]12
REMARK SMILES IDX 4 1 5 2 6 3 7 4 32 5 14 6 15 7 16 8 17 9 18 10 20 11 21 12
REMARK SMILES IDX 22 13 24 14 27 15 28 16 29 17 30 18 12 19 11 20 10 21 13 22
REMARK SMILES IDX 31 23 25 24 26 25 19 26 2 27 3 28 1 29 8 30 9 31 23 33
REMARK H PARENT 9 32 23 34
REMARK Flexibility Score: inf
ROOT
ATOM      1  C   UNL     1     -16.121   3.612 -31.093  1.00  0.00     0.018 C 
ATOM      2  C   UNL     1     -16.017   4.508 -32.344  1.00  0.00     0.009 C 
ATOM      3  C   UNL     1     -15.599   3.586 -33.509  1.00  0.00     0.010 C 
ATOM      4  C   UNL     1     -16.219   2.219 -33.164  1.00  0.00    -0.003 C 
ATOM      5  C   UNL     1     -15.952   2.175 -31.642  1.00  0.00     0.008 C 
ATOM      6  C   UNL     1     -16.458   0.899 -30.914  1.00  0.00    -0.000 C 
ATOM      7  C   UNL     1     -16.143   0.941 -29.407  1.00  0.00     0.005 C 
ATOM      8  C   UNL     1     -16.205  -0.427 -28.700  1.00  0.00     0.005 C 
ATOM      9  C   UNL     1     -17.068  -1.523 -29.405  1.00  0.00     0.002 C 
ATOM     10  C   UNL     1     -17.145  -2.895 -28.540  1.00  0.00    -0.026 C 
ATOM     11  C   UNL     1     -18.426  -3.703 -28.891  1.00  0.00     0.010 C 
ATOM     12  C   UNL     1     -18.622  -4.998 -28.071  1.00  0.00     0.033 C 
ATOM     13  C   UNL     1     -17.314  -5.757 -27.715  1.00  0.00     0.120 C 
ATOM     14  C   UNL     1     -16.125  -5.418 -28.665  1.00  0.00    -0.006 C 
ATOM     15  C   UNL     1     -15.879  -3.836 -28.759  1.00  0.00     0.003 C 
ATOM     16  C   UNL     1     -15.054  -3.433 -30.006  1.00  0.00     0.005 C 
ATOM     17  C   UNL     1     -15.940  -3.028 -31.195  1.00  0.00     0.008 C 
ATOM     18  C   UNL     1     -16.702  -1.684 -30.966  1.00  0.00    -0.024 C 
ATOM     19  C   UNL     1     -15.870  -0.416 -31.576  1.00  0.00    -0.024 C 
ATOM     20  C   UNL     1     -15.973  -0.326 -33.161  1.00  0.00     0.008 C 
ATOM     21  C   UNL     1     -15.486   1.009 -33.792  1.00  0.00     0.010 C 
ATOM     22  C   UNL     1     -14.319  -0.524 -31.299  1.00  0.00     0.012 C 
ATOM     23  C   UNL     1     -18.064  -1.814 -31.737  1.00  0.00     0.012 C 
ATOM     24  C   UNL     1     -16.405  -6.125 -30.029  1.00  0.00     0.014 C 
ATOM     25  C   UNL     1     -14.840  -6.090 -28.101  1.00  0.00     0.014 C 
ATOM     26  C   UNL     1     -17.284  -2.501 -27.030  1.00  0.00     0.012 C 
ENDROOT
BRANCH   1  27
ATOM     27  C   UNL     1     -17.323   3.903 -30.190  1.00  0.00    -0.077 C 
ATOM     28  C   UNL     1     -18.716   3.858 -30.777  1.00  0.00     0.039 C 
ATOM     29  C   UNL     1     -17.208   4.171 -28.881  1.00  0.00     0.008 C 
ENDBRANCH   1  27
BRANCH   4  30
ATOM     30  C   UNL     1     -17.703   2.261 -33.683  1.00  0.00     0.163 C 
BRANCH  30  31
ATOM     31  O   UNL     1     -17.956   3.312 -34.565  1.00  0.00    -0.396 OA
ATOM     32  H   UNL     1     -18.592   3.919 -34.109  1.00  0.00     0.210 HD
ENDBRANCH  30  31
ENDBRANCH   4  30
BRANCH  13  33
ATOM     33  O   UNL     1     -16.953  -5.529 -26.375  1.00  0.00    -0.393 OA
ATOM     34  H   UNL     1     -17.787  -5.319 -25.876  1.00  0.00     0.210 HD
ENDBRANCH  13  33
TORSDOF 4
ENDMDL
