MODEL 1
REMARK VINA RESULT:    20.268      0.000      0.000
REMARK INTER + INTRA:          38.563
REMARK INTER:                  39.226
REMARK INTRA:                  -0.663
REMARK UNBOUND:                -0.663
REMARK SMILES CCCCCCCCCCCCCCCCCC(=O)[O-]
REMARK SMILES IDX 10 1 11 2 12 3 13 4 14 5 15 6 16 7 17 8 18 9 19 10 20 11
REMARK SMILES IDX 9 12 8 13 7 14 6 15 5 16 4 17 3 18 2 19 1 20
REMARK H PARENT
REMARK Flexibility Score: inf
ROOT
ATOM      1  C   UNL     1     -37.401  25.463 -20.893  1.00  0.00     0.000 C 
ENDROOT
BRANCH   1   2
ATOM      2  C   UNL     1     -38.086  26.497 -21.805  1.00  0.00     0.000 C 
BRANCH   2   3
ATOM      3  C   UNL     1     -37.460  27.897 -21.697  1.00  0.00     0.000 C 
BRANCH   3   4
ATOM      4  C   UNL     1     -38.493  29.027 -21.871  1.00  0.00     0.000 C 
BRANCH   4   5
ATOM      5  C   UNL     1     -38.979  29.678 -20.562  1.00  0.00     0.000 C 
BRANCH   5   6
ATOM      6  C   UNL     1     -40.463  30.088 -20.539  1.00  0.00     0.000 C 
BRANCH   6   7
ATOM      7  C   UNL     1     -41.264  29.619 -21.771  1.00  0.00     0.006 C 
BRANCH   7   8
ATOM      8  C   UNL     1     -41.861  30.787 -22.570  1.00  0.00     0.053 C 
BRANCH   8   9
ATOM      9  C   UNL     1     -43.161  31.224 -21.970  1.00  0.00     0.041 C 
ATOM     10  O   UNL     1     -44.237  31.072 -22.607  1.00  0.00    -0.550 OA
ATOM     11  O   UNL     1     -43.179  31.828 -20.717  1.00  0.00    -0.550 OA
ENDBRANCH   8   9
ENDBRANCH   7   8
ENDBRANCH   6   7
ENDBRANCH   5   6
ENDBRANCH   4   5
ENDBRANCH   3   4
ENDBRANCH   2   3
ENDBRANCH   1   2
BRANCH   1  12
ATOM     12  C   UNL     1     -38.268  24.247 -20.509  1.00  0.00     0.000 C 
BRANCH  12  13
ATOM     13  C   UNL     1     -37.501  23.078 -19.859  1.00  0.00    -0.000 C 
BRANCH  13  14
ATOM     14  C   UNL     1     -38.347  22.180 -18.934  1.00  0.00    -0.000 C 
BRANCH  14  15
ATOM     15  C   UNL     1     -39.454  22.910 -18.147  1.00  0.00    -0.000 C 
BRANCH  15  16
ATOM     16  C   UNL     1     -40.776  22.134 -18.009  1.00  0.00    -0.000 C 
BRANCH  16  17
ATOM     17  C   UNL     1     -41.976  23.045 -17.704  1.00  0.00    -0.000 C 
BRANCH  17  18
ATOM     18  C   UNL     1     -41.789  23.764 -16.361  1.00  0.00    -0.000 C 
BRANCH  18  19
ATOM     19  C   UNL     1     -42.688  23.154 -15.279  1.00  0.00    -0.003 C 
ATOM     20  C   UNL     1     -42.363  23.732 -13.905  1.00  0.00     0.004 C 
ENDBRANCH  18  19
ENDBRANCH  17  18
ENDBRANCH  16  17
ENDBRANCH  15  16
ENDBRANCH  14  15
ENDBRANCH  13  14
ENDBRANCH  12  13
ENDBRANCH   1  12
TORSDOF 16
ENDMDL
MODEL 2
REMARK VINA RESULT:    20.537      3.114      7.962
REMARK INTER + INTRA:          39.083
REMARK INTER:                  39.886
REMARK INTRA:                  -0.803
REMARK UNBOUND:                -0.663
REMARK SMILES CCCCCCCCCCCCCCCCCC(=O)[O-]
REMARK SMILES IDX 10 1 11 2 12 3 13 4 14 5 15 6 16 7 17 8 18 9 19 10 20 11
REMARK SMILES IDX 9 12 8 13 7 14 6 15 5 16 4 17 3 18 2 19 1 20
REMARK H PARENT
REMARK Flexibility Score: inf
ROOT
ATOM      1  C   UNL     1     -37.321  25.081 -20.672  1.00  0.00     0.000 C 
ENDROOT
BRANCH   1   2
ATOM      2  C   UNL     1     -38.254  23.885 -20.416  1.00  0.00     0.000 C 
BRANCH   2   3
ATOM      3  C   UNL     1     -37.604  22.794 -19.549  1.00  0.00     0.000 C 
BRANCH   3   4
ATOM      4  C   UNL     1     -38.631  22.003 -18.716  1.00  0.00     0.000 C 
BRANCH   4   5
ATOM      5  C   UNL     1     -39.691  22.860 -17.999  1.00  0.00     0.000 C 
BRANCH   5   6
ATOM      6  C   UNL     1     -41.124  22.295 -18.024  1.00  0.00     0.000 C 
BRANCH   6   7
ATOM      7  C   UNL     1     -42.177  23.224 -17.385  1.00  0.00     0.006 C 
BRANCH   7   8
ATOM      8  C   UNL     1     -42.507  22.838 -15.935  1.00  0.00     0.053 C 
BRANCH   8   9
ATOM      9  C   UNL     1     -42.117  23.939 -14.998  1.00  0.00     0.041 C 
ATOM     10  O   UNL     1     -42.625  24.001 -13.846  1.00  0.00    -0.550 OA
ATOM     11  O   UNL     1     -41.215  24.915 -15.409  1.00  0.00    -0.550 OA
ENDBRANCH   8   9
ENDBRANCH   7   8
ENDBRANCH   6   7
ENDBRANCH   5   6
ENDBRANCH   4   5
ENDBRANCH   3   4
ENDBRANCH   2   3
ENDBRANCH   1   2
BRANCH   1  12
ATOM     12  C   UNL     1     -37.856  26.132 -21.667  1.00  0.00     0.000 C 
BRANCH  12  13
ATOM     13  C   UNL     1     -37.337  27.566 -21.443  1.00  0.00    -0.000 C 
BRANCH  13  14
ATOM     14  C   UNL     1     -38.294  28.684 -21.904  1.00  0.00    -0.000 C 
BRANCH  14  15
ATOM     15  C   UNL     1     -38.685  29.701 -20.814  1.00  0.00    -0.000 C 
BRANCH  15  16
ATOM     16  C   UNL     1     -40.199  29.895 -20.614  1.00  0.00    -0.000 C 
BRANCH  16  17
ATOM     17  C   UNL     1     -41.026  29.448 -21.830  1.00  0.00    -0.000 C 
BRANCH  17  18
ATOM     18  C   UNL     1     -41.869  30.609 -22.374  1.00  0.00    -0.000 C 
BRANCH  18  19
ATOM     19  C   UNL     1     -43.345  30.445 -21.990  1.00  0.00    -0.003 C 
ATOM     20  C   UNL     1     -43.962  31.784 -21.597  1.00  0.00     0.004 C 
ENDBRANCH  18  19
ENDBRANCH  17  18
ENDBRANCH  16  17
ENDBRANCH  15  16
ENDBRANCH  14  15
ENDBRANCH  13  14
ENDBRANCH  12  13
ENDBRANCH   1  12
TORSDOF 16
ENDMDL
MODEL 3
REMARK VINA RESULT:    20.548      3.970      8.445
REMARK INTER + INTRA:          39.105
REMARK INTER:                  39.750
REMARK INTRA:                  -0.645
REMARK UNBOUND:                -0.663
REMARK SMILES CCCCCCCCCCCCCCCCCC(=O)[O-]
REMARK SMILES IDX 10 1 11 2 12 3 13 4 14 5 15 6 16 7 17 8 18 9 19 10 20 11
REMARK SMILES IDX 9 12 8 13 7 14 6 15 5 16 4 17 3 18 2 19 1 20
REMARK H PARENT
REMARK Flexibility Score: inf
ROOT
ATOM      1  C   UNL     1     -38.377  21.759 -18.814  1.00  0.00     0.000 C 
ENDROOT
BRANCH   1   2
ATOM      2  C   UNL     1     -39.898  21.557 -18.698  1.00  0.00     0.000 C 
BRANCH   2   3
ATOM      3  C   UNL     1     -40.648  22.854 -18.347  1.00  0.00     0.000 C 
BRANCH   3   4
ATOM      4  C   UNL     1     -41.794  22.626 -17.342  1.00  0.00     0.000 C 
BRANCH   4   5
ATOM      5  C   UNL     1     -42.027  23.775 -16.343  1.00  0.00     0.000 C 
BRANCH   5   6
ATOM      6  C   UNL     1     -42.671  23.367 -15.005  1.00  0.00     0.000 C 
BRANCH   6   7
ATOM      7  C   UNL     1     -42.445  24.379 -13.863  1.00  0.00     0.006 C 
BRANCH   7   8
ATOM      8  C   UNL     1     -41.982  23.710 -12.560  1.00  0.00     0.053 C 
BRANCH   8   9
ATOM      9  C   UNL     1     -40.789  24.421 -12.001  1.00  0.00     0.041 C 
ATOM     10  O   UNL     1     -40.883  25.066 -10.922  1.00  0.00    -0.550 OA
ATOM     11  O   UNL     1     -39.579  24.395 -12.687  1.00  0.00    -0.550 OA
ENDBRANCH   8   9
ENDBRANCH   7   8
ENDBRANCH   6   7
ENDBRANCH   5   6
ENDBRANCH   4   5
ENDBRANCH   3   4
ENDBRANCH   2   3
ENDBRANCH   1   2
BRANCH   1  12
ATOM     12  C   UNL     1     -37.917  23.224 -18.959  1.00  0.00     0.000 C 
BRANCH  12  13
ATOM     13  C   UNL     1     -38.077  23.822 -20.371  1.00  0.00    -0.000 C 
BRANCH  13  14
ATOM     14  C   UNL     1     -37.409  25.197 -20.575  1.00  0.00    -0.000 C 
BRANCH  14  15
ATOM     15  C   UNL     1     -38.192  26.180 -21.468  1.00  0.00    -0.000 C 
BRANCH  15  16
ATOM     16  C   UNL     1     -37.398  27.412 -21.936  1.00  0.00    -0.000 C 
BRANCH  16  17
ATOM     17  C   UNL     1     -38.284  28.650 -22.148  1.00  0.00    -0.000 C 
BRANCH  17  18
ATOM     18  C   UNL     1     -38.439  29.442 -20.842  1.00  0.00    -0.000 C 
BRANCH  18  19
ATOM     19  C   UNL     1     -39.917  29.604 -20.468  1.00  0.00    -0.003 C 
ATOM     20  C   UNL     1     -40.795  29.668 -21.715  1.00  0.00     0.004 C 
ENDBRANCH  18  19
ENDBRANCH  17  18
ENDBRANCH  16  17
ENDBRANCH  15  16
ENDBRANCH  14  15
ENDBRANCH  13  14
ENDBRANCH  12  13
ENDBRANCH   1  12
TORSDOF 16
ENDMDL
MODEL 4
REMARK VINA RESULT:    20.632      3.660      8.174
REMARK INTER + INTRA:          39.267
REMARK INTER:                  39.803
REMARK INTRA:                  -0.536
REMARK UNBOUND:                -0.663
REMARK SMILES CCCCCCCCCCCCCCCCCC(=O)[O-]
REMARK SMILES IDX 10 1 11 2 12 3 13 4 14 5 15 6 16 7 17 8 18 9 19 10 20 11
REMARK SMILES IDX 9 12 8 13 7 14 6 15 5 16 4 17 3 18 2 19 1 20
REMARK H PARENT
REMARK Flexibility Score: inf
ROOT
ATOM      1  C   UNL     1     -38.342  24.229 -19.966  1.00  0.00     0.000 C 
ENDROOT
BRANCH   1   2
ATOM      2  C   UNL     1     -37.966  22.758 -19.715  1.00  0.00     0.000 C 
BRANCH   2   3
ATOM      3  C   UNL     1     -38.514  22.220 -18.382  1.00  0.00     0.000 C 
BRANCH   3   4
ATOM      4  C   UNL     1     -40.016  21.882 -18.447  1.00  0.00     0.000 C 
BRANCH   4   5
ATOM      5  C   UNL     1     -40.965  23.063 -18.167  1.00  0.00     0.000 C 
BRANCH   5   6
ATOM      6  C   UNL     1     -41.867  22.906 -16.929  1.00  0.00     0.000 C 
BRANCH   6   7
ATOM      7  C   UNL     1     -41.758  24.068 -15.920  1.00  0.00     0.006 C 
BRANCH   7   8
ATOM      8  C   UNL     1     -42.619  23.849 -14.668  1.00  0.00     0.053 C 
BRANCH   8   9
ATOM      9  C   UNL     1     -41.802  24.042 -13.428  1.00  0.00     0.041 C 
ATOM     10  O   UNL     1     -42.341  23.953 -12.293  1.00  0.00    -0.550 OA
ATOM     11  O   UNL     1     -40.449  24.350 -13.528  1.00  0.00    -0.550 OA
ENDBRANCH   8   9
ENDBRANCH   7   8
ENDBRANCH   6   7
ENDBRANCH   5   6
ENDBRANCH   4   5
ENDBRANCH   3   4
ENDBRANCH   2   3
ENDBRANCH   1   2
BRANCH   1  12
ATOM     12  C   UNL     1     -37.743  24.852 -21.243  1.00  0.00     0.000 C 
BRANCH  12  13
ATOM     13  C   UNL     1     -37.151  26.264 -21.064  1.00  0.00    -0.000 C 
BRANCH  13  14
ATOM     14  C   UNL     1     -37.900  27.384 -21.814  1.00  0.00    -0.000 C 
BRANCH  14  15
ATOM     15  C   UNL     1     -37.638  28.810 -21.290  1.00  0.00    -0.000 C 
BRANCH  15  16
ATOM     16  C   UNL     1     -38.899  29.657 -21.045  1.00  0.00    -0.000 C 
BRANCH  16  17
ATOM     17  C   UNL     1     -40.165  29.039 -21.657  1.00  0.00    -0.000 C 
BRANCH  17  18
ATOM     18  C   UNL     1     -41.420  29.791 -21.195  1.00  0.00    -0.000 C 
BRANCH  18  19
ATOM     19  C   UNL     1     -42.070  30.547 -22.360  1.00  0.00    -0.003 C 
ATOM     20  C   UNL     1     -43.383  31.196 -21.929  1.00  0.00     0.004 C 
ENDBRANCH  18  19
ENDBRANCH  17  18
ENDBRANCH  16  17
ENDBRANCH  15  16
ENDBRANCH  14  15
ENDBRANCH  13  14
ENDBRANCH  12  13
ENDBRANCH   1  12
TORSDOF 16
ENDMDL
MODEL 5
REMARK VINA RESULT:    20.693      1.942      4.757
REMARK INTER + INTRA:          39.385
REMARK INTER:                  40.210
REMARK INTRA:                  -0.825
REMARK UNBOUND:                -0.663
REMARK SMILES CCCCCCCCCCCCCCCCCC(=O)[O-]
REMARK SMILES IDX 10 1 11 2 12 3 13 4 14 5 15 6 16 7 17 8 18 9 19 10 20 11
REMARK SMILES IDX 9 12 8 13 7 14 6 15 5 16 4 17 3 18 2 19 1 20
REMARK H PARENT
REMARK Flexibility Score: inf
ROOT
ATOM      1  C   UNL     1     -39.818  22.930 -18.422  1.00  0.00     0.000 C 
ENDROOT
BRANCH   1   2
ATOM      2  C   UNL     1     -38.481  22.212 -18.677  1.00  0.00     0.000 C 
BRANCH   2   3
ATOM      3  C   UNL     1     -37.575  22.968 -19.664  1.00  0.00     0.000 C 
BRANCH   3   4
ATOM      4  C   UNL     1     -38.244  24.231 -20.240  1.00  0.00     0.000 C 
BRANCH   4   5
ATOM      5  C   UNL     1     -37.284  25.232 -20.911  1.00  0.00     0.000 C 
BRANCH   5   6
ATOM      6  C   UNL     1     -37.959  26.327 -21.756  1.00  0.00     0.000 C 
BRANCH   6   7
ATOM      7  C   UNL     1     -37.316  27.722 -21.609  1.00  0.00     0.006 C 
BRANCH   7   8
ATOM      8  C   UNL     1     -38.182  28.841 -22.207  1.00  0.00     0.053 C 
BRANCH   8   9
ATOM      9  C   UNL     1     -39.013  29.487 -21.142  1.00  0.00     0.041 C 
ATOM     10  O   UNL     1     -38.466  29.972 -20.116  1.00  0.00    -0.550 OA
ATOM     11  O   UNL     1     -40.398  29.526 -21.270  1.00  0.00    -0.550 OA
ENDBRANCH   8   9
ENDBRANCH   7   8
ENDBRANCH   6   7
ENDBRANCH   5   6
ENDBRANCH   4   5
ENDBRANCH   3   4
ENDBRANCH   2   3
ENDBRANCH   1   2
BRANCH   1  12
ATOM     12  C   UNL     1     -40.996  22.010 -18.043  1.00  0.00     0.000 C 
BRANCH  12  13
ATOM     13  C   UNL     1     -42.211  22.728 -17.422  1.00  0.00    -0.000 C 
BRANCH  13  14
ATOM     14  C   UNL     1     -41.883  23.644 -16.225  1.00  0.00    -0.000 C 
BRANCH  14  15
ATOM     15  C   UNL     1     -42.664  23.336 -14.932  1.00  0.00    -0.000 C 
BRANCH  15  16
ATOM     16  C   UNL     1     -42.466  24.350 -13.792  1.00  0.00    -0.000 C 
BRANCH  16  17
ATOM     17  C   UNL     1     -41.919  23.709 -12.507  1.00  0.00    -0.000 C 
BRANCH  17  18
ATOM     18  C   UNL     1     -40.693  24.476 -11.993  1.00  0.00    -0.000 C 
BRANCH  18  19
ATOM     19  C   UNL     1     -39.650  24.656 -13.102  1.00  0.00    -0.003 C 
ATOM     20  C   UNL     1     -38.508  23.654 -12.950  1.00  0.00     0.004 C 
ENDBRANCH  18  19
ENDBRANCH  17  18
ENDBRANCH  16  17
ENDBRANCH  15  16
ENDBRANCH  14  15
ENDBRANCH  13  14
ENDBRANCH  12  13
ENDBRANCH   1  12
TORSDOF 16
ENDMDL
MODEL 6
REMARK VINA RESULT:    20.918      0.954      1.696
REMARK INTER + INTRA:          39.821
REMARK INTER:                  40.545
REMARK INTRA:                  -0.724
REMARK UNBOUND:                -0.663
REMARK SMILES CCCCCCCCCCCCCCCCCC(=O)[O-]
REMARK SMILES IDX 10 1 11 2 12 3 13 4 14 5 15 6 16 7 17 8 18 9 19 10 20 11
REMARK SMILES IDX 9 12 8 13 7 14 6 15 5 16 4 17 3 18 2 19 1 20
REMARK H PARENT
REMARK Flexibility Score: inf
ROOT
ATOM      1  C   UNL     1     -37.110  26.365 -20.992  1.00  0.00     0.000 C 
ENDROOT
BRANCH   1   2
ATOM      2  C   UNL     1     -37.543  27.581 -21.829  1.00  0.00     0.000 C 
BRANCH   2   3
ATOM      3  C   UNL     1     -37.499  28.899 -21.037  1.00  0.00     0.000 C 
BRANCH   3   4
ATOM      4  C   UNL     1     -38.672  29.838 -21.377  1.00  0.00     0.000 C 
BRANCH   4   5
ATOM      5  C   UNL     1     -39.947  29.624 -20.540  1.00  0.00     0.000 C 
BRANCH   5   6
ATOM      6  C   UNL     1     -41.228  29.347 -21.348  1.00  0.00     0.000 C 
BRANCH   6   7
ATOM      7  C   UNL     1     -41.647  30.502 -22.280  1.00  0.00     0.006 C 
BRANCH   7   8
ATOM      8  C   UNL     1     -43.159  30.532 -22.546  1.00  0.00     0.053 C 
BRANCH   8   9
ATOM      9  C   UNL     1     -43.815  31.601 -21.728  1.00  0.00     0.041 C 
ATOM     10  O   UNL     1     -43.777  31.550 -20.470  1.00  0.00    -0.550 OA
ATOM     11  O   UNL     1     -44.495  32.639 -22.358  1.00  0.00    -0.550 OA
ENDBRANCH   8   9
ENDBRANCH   7   8
ENDBRANCH   6   7
ENDBRANCH   5   6
ENDBRANCH   4   5
ENDBRANCH   3   4
ENDBRANCH   2   3
ENDBRANCH   1   2
BRANCH   1  12
ATOM     12  C   UNL     1     -37.797  25.034 -21.360  1.00  0.00     0.000 C 
BRANCH  12  13
ATOM     13  C   UNL     1     -38.348  24.232 -20.165  1.00  0.00    -0.000 C 
BRANCH  13  14
ATOM     14  C   UNL     1     -37.516  22.995 -19.771  1.00  0.00    -0.000 C 
BRANCH  14  15
ATOM     15  C   UNL     1     -38.022  22.234 -18.529  1.00  0.00    -0.000 C 
BRANCH  15  16
ATOM     16  C   UNL     1     -38.885  20.996 -18.829  1.00  0.00    -0.000 C 
BRANCH  16  17
ATOM     17  C   UNL     1     -40.390  21.262 -18.666  1.00  0.00    -0.000 C 
BRANCH  17  18
ATOM     18  C   UNL     1     -40.638  22.647 -18.053  1.00  0.00    -0.000 C 
BRANCH  18  19
ATOM     19  C   UNL     1     -41.986  22.694 -17.323  1.00  0.00    -0.003 C 
ATOM     20  C   UNL     1     -41.971  23.736 -16.209  1.00  0.00     0.004 C 
ENDBRANCH  18  19
ENDBRANCH  17  18
ENDBRANCH  16  17
ENDBRANCH  15  16
ENDBRANCH  14  15
ENDBRANCH  13  14
ENDBRANCH  12  13
ENDBRANCH   1  12
TORSDOF 16
ENDMDL
MODEL 7
REMARK VINA RESULT:    21.215      3.451      8.074
REMARK INTER + INTRA:          40.395
REMARK INTER:                  40.977
REMARK INTRA:                  -0.582
REMARK UNBOUND:                -0.663
REMARK SMILES CCCCCCCCCCCCCCCCCC(=O)[O-]
REMARK SMILES IDX 10 1 11 2 12 3 13 4 14 5 15 6 16 7 17 8 18 9 19 10 20 11
REMARK SMILES IDX 9 12 8 13 7 14 6 15 5 16 4 17 3 18 2 19 1 20
REMARK H PARENT
REMARK Flexibility Score: inf
ROOT
ATOM      1  C   UNL     1     -37.933  24.296 -20.014  1.00  0.00     0.000 C 
ENDROOT
BRANCH   1   2
ATOM      2  C   UNL     1     -37.681  22.782 -20.126  1.00  0.00     0.000 C 
BRANCH   2   3
ATOM      3  C   UNL     1     -37.874  22.044 -18.790  1.00  0.00     0.000 C 
BRANCH   3   4
ATOM      4  C   UNL     1     -38.873  20.875 -18.894  1.00  0.00     0.000 C 
BRANCH   4   5
ATOM      5  C   UNL     1     -40.332  21.228 -18.548  1.00  0.00     0.000 C 
BRANCH   5   6
ATOM      6  C   UNL     1     -40.598  22.715 -18.250  1.00  0.00     0.000 C 
BRANCH   6   7
ATOM      7  C   UNL     1     -41.890  22.974 -17.448  1.00  0.00     0.006 C 
BRANCH   7   8
ATOM      8  C   UNL     1     -41.655  23.854 -16.211  1.00  0.00     0.053 C 
BRANCH   8   9
ATOM      9  C   UNL     1     -42.555  23.436 -15.091  1.00  0.00     0.041 C 
ATOM     10  O   UNL     1     -42.648  24.145 -14.053  1.00  0.00    -0.550 OA
ATOM     11  O   UNL     1     -43.269  22.245 -15.180  1.00  0.00    -0.550 OA
ENDBRANCH   8   9
ENDBRANCH   7   8
ENDBRANCH   6   7
ENDBRANCH   5   6
ENDBRANCH   4   5
ENDBRANCH   3   4
ENDBRANCH   2   3
ENDBRANCH   1   2
BRANCH   1  12
ATOM     12  C   UNL     1     -37.836  25.079 -21.339  1.00  0.00     0.000 C 
BRANCH  12  13
ATOM     13  C   UNL     1     -37.343  26.534 -21.204  1.00  0.00    -0.000 C 
BRANCH  13  14
ATOM     14  C   UNL     1     -38.137  27.569 -22.026  1.00  0.00    -0.000 C 
BRANCH  14  15
ATOM     15  C   UNL     1     -38.115  29.005 -21.466  1.00  0.00    -0.000 C 
BRANCH  15  16
ATOM     16  C   UNL     1     -39.433  29.479 -20.829  1.00  0.00    -0.000 C 
BRANCH  16  17
ATOM     17  C   UNL     1     -40.607  29.494 -21.821  1.00  0.00    -0.000 C 
BRANCH  17  18
ATOM     18  C   UNL     1     -41.841  30.161 -21.198  1.00  0.00    -0.000 C 
BRANCH  18  19
ATOM     19  C   UNL     1     -42.830  30.609 -22.280  1.00  0.00    -0.003 C 
ATOM     20  C   UNL     1     -43.816  31.637 -21.732  1.00  0.00     0.004 C 
ENDBRANCH  18  19
ENDBRANCH  17  18
ENDBRANCH  16  17
ENDBRANCH  15  16
ENDBRANCH  14  15
ENDBRANCH  13  14
ENDBRANCH  12  13
ENDBRANCH   1  12
TORSDOF 16
ENDMDL
MODEL 8
REMARK VINA RESULT:    21.623      7.550     10.604
REMARK INTER + INTRA:          41.185
REMARK INTER:                  41.794
REMARK INTRA:                  -0.610
REMARK UNBOUND:                -0.663
REMARK SMILES CCCCCCCCCCCCCCCCCC(=O)[O-]
REMARK SMILES IDX 10 1 11 2 12 3 13 4 14 5 15 6 16 7 17 8 18 9 19 10 20 11
REMARK SMILES IDX 9 12 8 13 7 14 6 15 5 16 4 17 3 18 2 19 1 20
REMARK H PARENT
REMARK Flexibility Score: inf
ROOT
ATOM      1  C   UNL     1     -34.881  31.695 -18.394  1.00  0.00     0.000 C 
ENDROOT
BRANCH   1   2
ATOM      2  C   UNL     1     -33.922  30.493 -18.343  1.00  0.00     0.000 C 
BRANCH   2   3
ATOM      3  C   UNL     1     -32.444  30.903 -18.466  1.00  0.00     0.000 C 
BRANCH   3   4
ATOM      4  C   UNL     1     -31.495  29.691 -18.544  1.00  0.00     0.000 C 
BRANCH   4   5
ATOM      5  C   UNL     1     -30.665  29.426 -17.274  1.00  0.00     0.000 C 
BRANCH   5   6
ATOM      6  C   UNL     1     -31.454  28.867 -16.075  1.00  0.00     0.000 C 
BRANCH   6   7
ATOM      7  C   UNL     1     -31.085  27.416 -15.702  1.00  0.00     0.006 C 
BRANCH   7   8
ATOM      8  C   UNL     1     -29.581  27.133 -15.835  1.00  0.00     0.053 C 
BRANCH   8   9
ATOM      9  C   UNL     1     -29.286  25.701 -15.512  1.00  0.00     0.041 C 
ATOM     10  O   UNL     1     -29.889  25.127 -14.565  1.00  0.00    -0.550 OA
ATOM     11  O   UNL     1     -28.322  25.009 -16.238  1.00  0.00    -0.550 OA
ENDBRANCH   8   9
ENDBRANCH   7   8
ENDBRANCH   6   7
ENDBRANCH   5   6
ENDBRANCH   4   5
ENDBRANCH   3   4
ENDBRANCH   2   3
ENDBRANCH   1   2
BRANCH   1  12
ATOM     12  C   UNL     1     -36.285  31.392 -18.957  1.00  0.00     0.000 C 
BRANCH  12  13
ATOM     13  C   UNL     1     -36.593  29.898 -19.175  1.00  0.00    -0.000 C 
BRANCH  13  14
ATOM     14  C   UNL     1     -37.445  29.583 -20.421  1.00  0.00    -0.000 C 
BRANCH  14  15
ATOM     15  C   UNL     1     -38.930  29.984 -20.317  1.00  0.00    -0.000 C 
BRANCH  15  16
ATOM     16  C   UNL     1     -39.836  29.426 -21.428  1.00  0.00    -0.000 C 
BRANCH  16  17
ATOM     17  C   UNL     1     -41.324  29.741 -21.203  1.00  0.00    -0.000 C 
BRANCH  17  18
ATOM     18  C   UNL     1     -41.909  30.502 -22.401  1.00  0.00    -0.000 C 
BRANCH  18  19
ATOM     19  C   UNL     1     -43.439  30.565 -22.320  1.00  0.00    -0.003 C 
ATOM     20  C   UNL     1     -43.895  31.743 -21.464  1.00  0.00     0.004 C 
ENDBRANCH  18  19
ENDBRANCH  17  18
ENDBRANCH  16  17
ENDBRANCH  15  16
ENDBRANCH  14  15
ENDBRANCH  13  14
ENDBRANCH  12  13
ENDBRANCH   1  12
TORSDOF 16
ENDMDL
