MODEL 1
REMARK VINA RESULT:    -4.420      0.000      0.000
REMARK INTER + INTRA:          -4.420
REMARK INTER:                  -4.420
REMARK INTRA:                   0.000
REMARK UNBOUND:                 0.000
REMARK SMILES CC(C)=C1CC[C@H](C)CC1=O
REMARK SMILES IDX 8 1 7 2 6 3 5 4 4 5 2 6 1 7 3 8 10 9 11 10 9 11
REMARK H PARENT
REMARK Flexibility Score: inf
ROOT
ATOM      1  C   UNL     1      20.855 -45.721 -11.064  1.00  0.00     0.008 C 
ATOM      2  C   UNL     1      19.398 -45.648 -10.594  1.00  0.00    -0.006 C 
ATOM      3  C   UNL     1      19.283 -46.065  -9.119  1.00  0.00     0.008 C 
ATOM      4  C   UNL     1      17.821 -46.096  -8.660  1.00  0.00     0.039 C 
ATOM      5  C   UNL     1      17.086 -44.795  -8.959  1.00  0.00    -0.006 C 
ATOM      6  C   UNL     1      16.086 -44.343  -8.147  1.00  0.00    -0.070 C 
ATOM      7  C   UNL     1      15.653 -45.123  -6.928  1.00  0.00     0.039 C 
ATOM      8  C   UNL     1      15.389 -43.025  -8.402  1.00  0.00     0.039 C 
ATOM      9  C   UNL     1      17.446 -44.119 -10.241  1.00  0.00     0.159 C 
ATOM     10  O   UNL     1      16.596 -43.454 -10.892  1.00  0.00    -0.295 OA
ATOM     11  C   UNL     1      18.842 -44.229 -10.783  1.00  0.00     0.084 C 
ENDROOT
TORSDOF 0
ENDMDL
MODEL 2
REMARK VINA RESULT:    -4.412     14.244     15.493
REMARK INTER + INTRA:          -4.412
REMARK INTER:                  -4.412
REMARK INTRA:                   0.000
REMARK UNBOUND:                 0.000
REMARK SMILES CC(C)=C1CC[C@H](C)CC1=O
REMARK SMILES IDX 8 1 7 2 6 3 5 4 4 5 2 6 1 7 3 8 10 9 11 10 9 11
REMARK H PARENT
REMARK Flexibility Score: inf
ROOT
ATOM      1  C   UNL     1      27.503 -41.591 -23.393  1.00  0.00     0.008 C 
ATOM      2  C   UNL     1      27.498 -42.347 -22.059  1.00  0.00    -0.006 C 
ATOM      3  C   UNL     1      28.501 -43.511 -22.093  1.00  0.00     0.008 C 
ATOM      4  C   UNL     1      28.436 -44.340 -20.804  1.00  0.00     0.039 C 
ATOM      5  C   UNL     1      28.576 -43.485 -19.552  1.00  0.00    -0.006 C 
ATOM      6  C   UNL     1      29.169 -43.973 -18.422  1.00  0.00    -0.070 C 
ATOM      7  C   UNL     1      29.694 -45.389 -18.362  1.00  0.00     0.039 C 
ATOM      8  C   UNL     1      29.364 -43.115 -17.192  1.00  0.00     0.039 C 
ATOM      9  C   UNL     1      27.929 -42.140 -19.600  1.00  0.00     0.159 C 
ATOM     10  O   UNL     1      27.445 -41.609 -18.565  1.00  0.00    -0.295 OA
ATOM     11  C   UNL     1      27.837 -41.396 -20.901  1.00  0.00     0.084 C 
ENDROOT
TORSDOF 0
ENDMDL
MODEL 3
REMARK VINA RESULT:    -4.324     13.799     15.414
REMARK INTER + INTRA:          -4.324
REMARK INTER:                  -4.324
REMARK INTRA:                   0.000
REMARK UNBOUND:                 0.000
REMARK SMILES CC(C)=C1CC[C@H](C)CC1=O
REMARK SMILES IDX 8 1 7 2 6 3 5 4 4 5 2 6 1 7 3 8 10 9 11 10 9 11
REMARK H PARENT
REMARK Flexibility Score: inf
ROOT
ATOM      1  C   UNL     1      27.462 -41.758 -23.141  1.00  0.00     0.008 C 
ATOM      2  C   UNL     1      28.229 -42.329 -21.942  1.00  0.00    -0.006 C 
ATOM      3  C   UNL     1      28.143 -41.375 -20.740  1.00  0.00     0.008 C 
ATOM      4  C   UNL     1      28.988 -41.881 -19.565  1.00  0.00     0.039 C 
ATOM      5  C   UNL     1      28.667 -43.323 -19.192  1.00  0.00    -0.006 C 
ATOM      6  C   UNL     1      28.768 -43.761 -17.903  1.00  0.00    -0.070 C 
ATOM      7  C   UNL     1      29.220 -42.838 -16.794  1.00  0.00     0.039 C 
ATOM      8  C   UNL     1      28.398 -45.174 -17.511  1.00  0.00     0.039 C 
ATOM      9  C   UNL     1      28.355 -44.240 -20.328  1.00  0.00     0.159 C 
ATOM     10  O   UNL     1      28.655 -45.463 -20.284  1.00  0.00    -0.295 OA
ATOM     11  C   UNL     1      27.676 -43.709 -21.558  1.00  0.00     0.084 C 
ENDROOT
TORSDOF 0
ENDMDL
MODEL 4
REMARK VINA RESULT:    -4.271     14.462     15.992
REMARK INTER + INTRA:          -4.271
REMARK INTER:                  -4.271
REMARK INTRA:                   0.000
REMARK UNBOUND:                 0.000
REMARK SMILES CC(C)=C1CC[C@H](C)CC1=O
REMARK SMILES IDX 8 1 7 2 6 3 5 4 4 5 2 6 1 7 3 8 10 9 11 10 9 11
REMARK H PARENT
REMARK Flexibility Score: inf
ROOT
ATOM      1  C   UNL     1      28.984 -45.363 -17.949  1.00  0.00     0.008 C 
ATOM      2  C   UNL     1      29.124 -44.445 -19.169  1.00  0.00    -0.006 C 
ATOM      3  C   UNL     1      28.390 -45.040 -20.382  1.00  0.00     0.008 C 
ATOM      4  C   UNL     1      28.605 -44.186 -21.637  1.00  0.00     0.039 C 
ATOM      5  C   UNL     1      28.266 -42.718 -21.411  1.00  0.00    -0.006 C 
ATOM      6  C   UNL     1      27.770 -41.941 -22.418  1.00  0.00    -0.070 C 
ATOM      7  C   UNL     1      27.553 -42.501 -23.806  1.00  0.00     0.039 C 
ATOM      8  C   UNL     1      27.376 -40.499 -22.191  1.00  0.00     0.039 C 
ATOM      9  C   UNL     1      28.616 -42.164 -20.069  1.00  0.00     0.159 C 
ATOM     10  O   UNL     1      28.959 -40.960 -19.928  1.00  0.00    -0.295 OA
ATOM     11  C   UNL     1      28.572 -43.047 -18.855  1.00  0.00     0.084 C 
ENDROOT
TORSDOF 0
ENDMDL
MODEL 5
REMARK VINA RESULT:    -4.265      2.246      4.787
REMARK INTER + INTRA:          -4.265
REMARK INTER:                  -4.265
REMARK INTRA:                   0.000
REMARK UNBOUND:                 0.000
REMARK SMILES CC(C)=C1CC[C@H](C)CC1=O
REMARK SMILES IDX 8 1 7 2 6 3 5 4 4 5 2 6 1 7 3 8 10 9 11 10 9 11
REMARK H PARENT
REMARK Flexibility Score: inf
ROOT
ATOM      1  C   UNL     1      15.557 -44.986  -6.951  1.00  0.00     0.008 C 
ATOM      2  C   UNL     1      16.867 -45.538  -7.524  1.00  0.00    -0.006 C 
ATOM      3  C   UNL     1      16.904 -45.370  -9.051  1.00  0.00     0.008 C 
ATOM      4  C   UNL     1      18.162 -46.008  -9.652  1.00  0.00     0.039 C 
ATOM      5  C   UNL     1      19.441 -45.524  -8.980  1.00  0.00    -0.006 C 
ATOM      6  C   UNL     1      20.610 -45.417  -9.676  1.00  0.00    -0.070 C 
ATOM      7  C   UNL     1      20.690 -45.791 -11.138  1.00  0.00     0.039 C 
ATOM      8  C   UNL     1      21.871 -44.884  -9.034  1.00  0.00     0.039 C 
ATOM      9  C   UNL     1      19.359 -45.291  -7.507  1.00  0.00     0.159 C 
ATOM     10  O   UNL     1      20.355 -45.482  -6.759  1.00  0.00    -0.295 OA
ATOM     11  C   UNL     1      18.072 -44.828  -6.889  1.00  0.00     0.084 C 
ENDROOT
TORSDOF 0
ENDMDL
MODEL 6
REMARK VINA RESULT:    -4.255      2.032      2.768
REMARK INTER + INTRA:          -4.255
REMARK INTER:                  -4.255
REMARK INTRA:                   0.000
REMARK UNBOUND:                 0.000
REMARK SMILES CC(C)=C1CC[C@H](C)CC1=O
REMARK SMILES IDX 8 1 7 2 6 3 5 4 4 5 2 6 1 7 3 8 10 9 11 10 9 11
REMARK H PARENT
REMARK Flexibility Score: inf
ROOT
ATOM      1  C   UNL     1      19.828 -46.122  -9.696  1.00  0.00     0.008 C 
ATOM      2  C   UNL     1      18.714 -45.256  -9.098  1.00  0.00    -0.006 C 
ATOM      3  C   UNL     1      17.343 -45.680  -9.650  1.00  0.00     0.008 C 
ATOM      4  C   UNL     1      16.228 -44.759  -9.140  1.00  0.00     0.039 C 
ATOM      5  C   UNL     1      16.230 -44.623  -7.623  1.00  0.00    -0.006 C 
ATOM      6  C   UNL     1      15.071 -44.434  -6.926  1.00  0.00    -0.070 C 
ATOM      7  C   UNL     1      13.739 -44.335  -7.632  1.00  0.00     0.039 C 
ATOM      8  C   UNL     1      15.055 -44.355  -5.416  1.00  0.00     0.039 C 
ATOM      9  C   UNL     1      17.573 -44.592  -6.969  1.00  0.00     0.159 C 
ATOM     10  O   UNL     1      17.775 -43.924  -5.920  1.00  0.00    -0.295 OA
ATOM     11  C   UNL     1      18.717 -45.360  -7.565  1.00  0.00     0.084 C 
ENDROOT
TORSDOF 0
ENDMDL
MODEL 7
REMARK VINA RESULT:    -4.118     14.404     15.886
REMARK INTER + INTRA:          -4.118
REMARK INTER:                  -4.118
REMARK INTRA:                   0.000
REMARK UNBOUND:                 0.000
REMARK SMILES CC(C)=C1CC[C@H](C)CC1=O
REMARK SMILES IDX 8 1 7 2 6 3 5 4 4 5 2 6 1 7 3 8 10 9 11 10 9 11
REMARK H PARENT
REMARK Flexibility Score: inf
ROOT
ATOM      1  C   UNL     1      29.386 -43.427 -17.258  1.00  0.00     0.008 C 
ATOM      2  C   UNL     1      28.507 -43.082 -18.466  1.00  0.00    -0.006 C 
ATOM      3  C   UNL     1      28.842 -41.680 -18.998  1.00  0.00     0.008 C 
ATOM      4  C   UNL     1      27.904 -41.278 -20.142  1.00  0.00     0.039 C 
ATOM      5  C   UNL     1      27.849 -42.325 -21.248  1.00  0.00    -0.006 C 
ATOM      6  C   UNL     1      27.649 -41.970 -22.551  1.00  0.00    -0.070 C 
ATOM      7  C   UNL     1      27.455 -40.525 -22.949  1.00  0.00     0.039 C 
ATOM      8  C   UNL     1      27.649 -42.994 -23.663  1.00  0.00     0.039 C 
ATOM      9  C   UNL     1      27.910 -43.750 -20.805  1.00  0.00     0.159 C 
ATOM     10  O   UNL     1      27.308 -44.658 -21.438  1.00  0.00    -0.295 OA
ATOM     11  C   UNL     1      28.693 -44.124 -19.580  1.00  0.00     0.084 C 
ENDROOT
TORSDOF 0
ENDMDL
MODEL 8
REMARK VINA RESULT:    -4.036      9.925     11.560
REMARK INTER + INTRA:          -4.036
REMARK INTER:                  -4.036
REMARK INTRA:                   0.000
REMARK UNBOUND:                 0.000
REMARK SMILES CC(C)=C1CC[C@H](C)CC1=O
REMARK SMILES IDX 8 1 7 2 6 3 5 4 4 5 2 6 1 7 3 8 10 9 11 10 9 11
REMARK H PARENT
REMARK Flexibility Score: inf
ROOT
ATOM      1  C   UNL     1      12.866 -39.344 -13.902  1.00  0.00     0.008 C 
ATOM      2  C   UNL     1      12.863 -39.609 -15.412  1.00  0.00    -0.006 C 
ATOM      3  C   UNL     1      11.864 -38.683 -16.124  1.00  0.00     0.008 C 
ATOM      4  C   UNL     1      11.774 -39.003 -17.620  1.00  0.00     0.039 C 
ATOM      5  C   UNL     1      13.139 -39.020 -18.297  1.00  0.00    -0.006 C 
ATOM      6  C   UNL     1      13.288 -38.649 -19.603  1.00  0.00    -0.070 C 
ATOM      7  C   UNL     1      12.102 -38.222 -20.437  1.00  0.00     0.039 C 
ATOM      8  C   UNL     1      14.645 -38.607 -20.268  1.00  0.00     0.039 C 
ATOM      9  C   UNL     1      14.266 -39.573 -17.487  1.00  0.00     0.159 C 
ATOM     10  O   UNL     1      15.222 -40.187 -18.030  1.00  0.00    -0.295 OA
ATOM     11  C   UNL     1      14.271 -39.408 -15.995  1.00  0.00     0.084 C 
ENDROOT
TORSDOF 0
ENDMDL
MODEL 9
REMARK VINA RESULT:    -3.982     16.899     18.242
REMARK INTER + INTRA:          -3.982
REMARK INTER:                  -3.982
REMARK INTRA:                   0.000
REMARK UNBOUND:                 0.000
REMARK SMILES CC(C)=C1CC[C@H](C)CC1=O
REMARK SMILES IDX 8 1 7 2 6 3 5 4 4 5 2 6 1 7 3 8 10 9 11 10 9 11
REMARK H PARENT
REMARK Flexibility Score: inf
ROOT
ATOM      1  C   UNL     1      27.116 -27.451 -16.528  1.00  0.00     0.008 C 
ATOM      2  C   UNL     1      27.077 -28.701 -15.641  1.00  0.00    -0.006 C 
ATOM      3  C   UNL     1      28.253 -28.700 -14.652  1.00  0.00     0.008 C 
ATOM      4  C   UNL     1      28.288 -29.991 -13.826  1.00  0.00     0.039 C 
ATOM      5  C   UNL     1      26.956 -30.288 -13.149  1.00  0.00    -0.006 C 
ATOM      6  C   UNL     1      26.900 -30.930 -11.946  1.00  0.00    -0.070 C 
ATOM      7  C   UNL     1      28.156 -31.389 -11.242  1.00  0.00     0.039 C 
ATOM      8  C   UNL     1      25.587 -31.180 -11.238  1.00  0.00     0.039 C 
ATOM      9  C   UNL     1      25.732 -29.942 -13.932  1.00  0.00     0.159 C 
ATOM     10  O   UNL     1      24.674 -30.618 -13.824  1.00  0.00    -0.295 OA
ATOM     11  C   UNL     1      25.747 -28.774 -14.875  1.00  0.00     0.084 C 
ENDROOT
TORSDOF 0
ENDMDL
