MODEL 1
REMARK VINA RESULT:    -2.902      0.000      0.000
REMARK INTER + INTRA:          -3.944
REMARK INTER:                  -3.751
REMARK INTRA:                  -0.194
REMARK UNBOUND:                -0.194
REMARK SMILES CCCCCCC(=O)[O-]
REMARK SMILES IDX 5 1 6 2 7 3 8 4 9 5 4 6 3 7 2 8 1 9
REMARK H PARENT
REMARK Flexibility Score: inf
ROOT
ATOM      1  C   UNL     1       7.760 -21.838  13.632  1.00  0.00     0.006 C 
ENDROOT
BRANCH   1   2
ATOM      2  C   UNL     1       8.936 -20.858  13.579  1.00  0.00     0.053 C 
BRANCH   2   3
ATOM      3  C   UNL     1       8.817 -19.961  12.388  1.00  0.00     0.041 C 
ATOM      4  O   UNL     1       8.688 -18.718  12.541  1.00  0.00    -0.550 OA
ATOM      5  O   UNL     1       8.898 -20.492  11.106  1.00  0.00    -0.550 OA
ENDBRANCH   2   3
ENDBRANCH   1   2
BRANCH   1   6
ATOM      6  C   UNL     1       7.461 -22.261  15.076  1.00  0.00     0.000 C 
BRANCH   6   7
ATOM      7  C   UNL     1       8.074 -21.275  16.077  1.00  0.00    -0.000 C 
BRANCH   7   8
ATOM      8  C   UNL     1       7.592 -21.569  17.503  1.00  0.00    -0.003 C 
ATOM      9  C   UNL     1       6.107 -21.918  17.521  1.00  0.00     0.004 C 
ENDBRANCH   7   8
ENDBRANCH   6   7
ENDBRANCH   1   6
TORSDOF 5
ENDMDL
MODEL 2
REMARK VINA RESULT:    -2.880      0.952      1.527
REMARK INTER + INTRA:          -3.915
REMARK INTER:                  -3.703
REMARK INTRA:                  -0.212
REMARK UNBOUND:                -0.194
REMARK SMILES CCCCCCC(=O)[O-]
REMARK SMILES IDX 5 1 6 2 7 3 8 4 9 5 4 6 3 7 2 8 1 9
REMARK H PARENT
REMARK Flexibility Score: inf
ROOT
ATOM      1  C   UNL     1       8.338 -21.511  14.908  1.00  0.00     0.006 C 
ENDROOT
BRANCH   1   2
ATOM      2  C   UNL     1       9.087 -20.255  14.454  1.00  0.00     0.053 C 
BRANCH   2   3
ATOM      3  C   UNL     1       8.862 -20.009  12.995  1.00  0.00     0.041 C 
ATOM      4  O   UNL     1       8.758 -20.978  12.198  1.00  0.00    -0.550 OA
ATOM      5  O   UNL     1       8.716 -18.711  12.523  1.00  0.00    -0.550 OA
ENDBRANCH   2   3
ENDBRANCH   1   2
BRANCH   1   6
ATOM      6  C   UNL     1       9.085 -22.216  16.046  1.00  0.00     0.000 C 
BRANCH   6   7
ATOM      7  C   UNL     1       8.121 -22.633  17.163  1.00  0.00    -0.000 C 
BRANCH   7   8
ATOM      8  C   UNL     1       7.168 -21.488  17.524  1.00  0.00    -0.003 C 
ATOM      9  C   UNL     1       5.719 -21.965  17.554  1.00  0.00     0.004 C 
ENDBRANCH   7   8
ENDBRANCH   6   7
ENDBRANCH   1   6
TORSDOF 5
ENDMDL
MODEL 3
REMARK VINA RESULT:    -2.650      2.206      2.823
REMARK INTER + INTRA:          -3.618
REMARK INTER:                  -3.332
REMARK INTRA:                  -0.286
REMARK UNBOUND:                -0.194
REMARK SMILES CCCCCCC(=O)[O-]
REMARK SMILES IDX 5 1 6 2 7 3 8 4 9 5 4 6 3 7 2 8 1 9
REMARK H PARENT
REMARK Flexibility Score: inf
ROOT
ATOM      1  C   UNL     1       8.194 -21.202  13.784  1.00  0.00     0.006 C 
ENDROOT
BRANCH   1   2
ATOM      2  C   UNL     1       7.797 -22.675  13.649  1.00  0.00     0.053 C 
BRANCH   2   3
ATOM      3  C   UNL     1       6.470 -22.800  12.969  1.00  0.00     0.041 C 
ATOM      4  O   UNL     1       6.409 -22.926  11.719  1.00  0.00    -0.550 OA
ATOM      5  O   UNL     1       5.303 -22.828  13.722  1.00  0.00    -0.550 OA
ENDBRANCH   2   3
ENDBRANCH   1   2
BRANCH   1   6
ATOM      6  C   UNL     1       8.536 -20.855  15.238  1.00  0.00     0.000 C 
BRANCH   6   7
ATOM      7  C   UNL     1       8.262 -22.043  16.167  1.00  0.00    -0.000 C 
BRANCH   7   8
ATOM      8  C   UNL     1       7.607 -21.580  17.473  1.00  0.00    -0.003 C 
ATOM      9  C   UNL     1       6.116 -21.903  17.486  1.00  0.00     0.004 C 
ENDBRANCH   7   8
ENDBRANCH   6   7
ENDBRANCH   1   6
TORSDOF 5
ENDMDL
MODEL 4
REMARK VINA RESULT:    -2.567      3.134      4.697
REMARK INTER + INTRA:          -3.510
REMARK INTER:                  -3.194
REMARK INTRA:                  -0.317
REMARK UNBOUND:                -0.194
REMARK SMILES CCCCCCC(=O)[O-]
REMARK SMILES IDX 5 1 6 2 7 3 8 4 9 5 4 6 3 7 2 8 1 9
REMARK H PARENT
REMARK Flexibility Score: inf
ROOT
ATOM      1  C   UNL     1       8.904 -21.776  15.733  1.00  0.00     0.006 C 
ENDROOT
BRANCH   1   2
ATOM      2  C   UNL     1       8.147 -21.720  17.063  1.00  0.00     0.053 C 
BRANCH   2   3
ATOM      3  C   UNL     1       6.750 -22.229  16.893  1.00  0.00     0.041 C 
ATOM      4  O   UNL     1       6.462 -22.971  15.918  1.00  0.00    -0.550 OA
ATOM      5  O   UNL     1       5.779 -21.924  17.838  1.00  0.00    -0.550 OA
ENDBRANCH   2   3
ENDBRANCH   1   2
BRANCH   1   6
ATOM      6  C   UNL     1       8.731 -20.471  14.946  1.00  0.00     0.000 C 
BRANCH   6   7
ATOM      7  C   UNL     1       8.874 -20.714  13.439  1.00  0.00    -0.000 C 
BRANCH   7   8
ATOM      8  C   UNL     1       8.327 -22.092  13.049  1.00  0.00    -0.003 C 
ATOM      9  C   UNL     1       6.868 -22.002  12.611  1.00  0.00     0.004 C 
ENDBRANCH   7   8
ENDBRANCH   6   7
ENDBRANCH   1   6
TORSDOF 5
ENDMDL
MODEL 5
REMARK VINA RESULT:    -2.484     18.197     19.396
REMARK INTER + INTRA:          -3.404
REMARK INTER:                  -3.192
REMARK INTRA:                  -0.212
REMARK UNBOUND:                -0.194
REMARK SMILES CCCCCCC(=O)[O-]
REMARK SMILES IDX 5 1 6 2 7 3 8 4 9 5 4 6 3 7 2 8 1 9
REMARK H PARENT
REMARK Flexibility Score: inf
ROOT
ATOM      1  C   UNL     1      -9.915 -21.413  18.363  1.00  0.00     0.006 C 
ENDROOT
BRANCH   1   2
ATOM      2  C   UNL     1     -10.689 -21.384  19.684  1.00  0.00     0.053 C 
BRANCH   2   3
ATOM      3  C   UNL     1     -10.462 -20.088  20.396  1.00  0.00     0.041 C 
ATOM      4  O   UNL     1      -9.891 -20.074  21.518  1.00  0.00    -0.550 OA
ATOM      5  O   UNL     1     -10.838 -18.892  19.799  1.00  0.00    -0.550 OA
ENDBRANCH   2   3
ENDBRANCH   1   2
BRANCH   1   6
ATOM      6  C   UNL     1     -10.866 -21.568  17.171  1.00  0.00     0.000 C 
BRANCH   6   7
ATOM      7  C   UNL     1     -10.952 -20.268  16.362  1.00  0.00    -0.000 C 
BRANCH   7   8
ATOM      8  C   UNL     1     -10.773 -20.540  14.864  1.00  0.00    -0.003 C 
ATOM      9  C   UNL     1      -9.295 -20.606  14.489  1.00  0.00     0.004 C 
ENDBRANCH   7   8
ENDBRANCH   6   7
ENDBRANCH   1   6
TORSDOF 5
ENDMDL
MODEL 6
REMARK VINA RESULT:    -2.454     15.489     17.037
REMARK INTER + INTRA:          -3.364
REMARK INTER:                  -3.115
REMARK INTRA:                  -0.249
REMARK UNBOUND:                -0.194
REMARK SMILES CCCCCCC(=O)[O-]
REMARK SMILES IDX 5 1 6 2 7 3 8 4 9 5 4 6 3 7 2 8 1 9
REMARK H PARENT
REMARK Flexibility Score: inf
ROOT
ATOM      1  C   UNL     1      -8.553 -22.015  17.986  1.00  0.00     0.006 C 
ENDROOT
BRANCH   1   2
ATOM      2  C   UNL     1      -7.647 -23.125  17.446  1.00  0.00     0.053 C 
BRANCH   2   3
ATOM      3  C   UNL     1      -6.581 -22.550  16.568  1.00  0.00     0.041 C 
ATOM      4  O   UNL     1      -6.882 -21.734  15.658  1.00  0.00    -0.550 OA
ATOM      5  O   UNL     1      -5.248 -22.878  16.786  1.00  0.00    -0.550 OA
ENDBRANCH   2   3
ENDBRANCH   1   2
BRANCH   1   6
ATOM      6  C   UNL     1      -9.950 -22.091  17.361  1.00  0.00     0.000 C 
BRANCH   6   7
ATOM      7  C   UNL     1     -10.460 -20.697  16.978  1.00  0.00    -0.000 C 
BRANCH   7   8
ATOM      8  C   UNL     1     -11.011 -20.686  15.548  1.00  0.00    -0.003 C 
ATOM      9  C   UNL     1      -9.909 -20.386  14.536  1.00  0.00     0.004 C 
ENDBRANCH   7   8
ENDBRANCH   6   7
ENDBRANCH   1   6
TORSDOF 5
ENDMDL
MODEL 7
REMARK VINA RESULT:    -2.450     16.471     18.119
REMARK INTER + INTRA:          -3.360
REMARK INTER:                  -3.203
REMARK INTRA:                  -0.157
REMARK UNBOUND:                -0.194
REMARK SMILES CCCCCCC(=O)[O-]
REMARK SMILES IDX 5 1 6 2 7 3 8 4 9 5 4 6 3 7 2 8 1 9
REMARK H PARENT
REMARK Flexibility Score: inf
ROOT
ATOM      1  C   UNL     1      -9.973 -21.664  17.842  1.00  0.00     0.006 C 
ENDROOT
BRANCH   1   2
ATOM      2  C   UNL     1      -9.083 -21.712  19.087  1.00  0.00     0.053 C 
BRANCH   2   3
ATOM      3  C   UNL     1      -7.747 -22.298  18.755  1.00  0.00     0.041 C 
ATOM      4  O   UNL     1      -7.046 -22.827  19.656  1.00  0.00    -0.550 OA
ATOM      5  O   UNL     1      -7.298 -22.303  17.440  1.00  0.00    -0.550 OA
ENDBRANCH   2   3
ENDBRANCH   1   2
BRANCH   1   6
ATOM      6  C   UNL     1     -10.943 -20.478  17.904  1.00  0.00     0.000 C 
BRANCH   6   7
ATOM      7  C   UNL     1     -11.047 -19.779  16.543  1.00  0.00    -0.000 C 
BRANCH   7   8
ATOM      8  C   UNL     1     -10.874 -20.781  15.395  1.00  0.00    -0.003 C 
ATOM      9  C   UNL     1      -9.708 -20.387  14.492  1.00  0.00     0.004 C 
ENDBRANCH   7   8
ENDBRANCH   6   7
ENDBRANCH   1   6
TORSDOF 5
ENDMDL
MODEL 8
REMARK VINA RESULT:    -2.445      3.108      4.783
REMARK INTER + INTRA:          -3.353
REMARK INTER:                  -3.128
REMARK INTRA:                  -0.225
REMARK UNBOUND:                -0.194
REMARK SMILES CCCCCCC(=O)[O-]
REMARK SMILES IDX 5 1 6 2 7 3 8 4 9 5 4 6 3 7 2 8 1 9
REMARK H PARENT
REMARK Flexibility Score: inf
ROOT
ATOM      1  C   UNL     1       7.365 -22.146  14.589  1.00  0.00     0.006 C 
ENDROOT
BRANCH   1   2
ATOM      2  C   UNL     1       7.450 -22.968  15.878  1.00  0.00     0.053 C 
BRANCH   2   3
ATOM      3  C   UNL     1       7.081 -22.129  17.061  1.00  0.00     0.041 C 
ATOM      4  O   UNL     1       7.964 -21.476  17.674  1.00  0.00    -0.550 OA
ATOM      5  O   UNL     1       5.752 -22.029  17.455  1.00  0.00    -0.550 OA
ENDBRANCH   2   3
ENDBRANCH   1   2
BRANCH   1   6
ATOM      6  C   UNL     1       8.755 -21.684  14.137  1.00  0.00     0.000 C 
BRANCH   6   7
ATOM      7  C   UNL     1       8.969 -20.197  14.442  1.00  0.00    -0.000 C 
BRANCH   7   8
ATOM      8  C   UNL     1       9.033 -19.374  13.150  1.00  0.00    -0.003 C 
ATOM      9  C   UNL     1       9.070 -20.280  11.922  1.00  0.00     0.004 C 
ENDBRANCH   7   8
ENDBRANCH   6   7
ENDBRANCH   1   6
TORSDOF 5
ENDMDL
MODEL 9
REMARK VINA RESULT:    -2.399      3.535      4.747
REMARK INTER + INTRA:          -3.293
REMARK INTER:                  -3.135
REMARK INTRA:                  -0.158
REMARK UNBOUND:                -0.194
REMARK SMILES CCCCCCC(=O)[O-]
REMARK SMILES IDX 5 1 6 2 7 3 8 4 9 5 4 6 3 7 2 8 1 9
REMARK H PARENT
REMARK Flexibility Score: inf
ROOT
ATOM      1  C   UNL     1       5.912 -21.942  17.069  1.00  0.00     0.006 C 
ENDROOT
BRANCH   1   2
ATOM      2  C   UNL     1       5.715 -23.027  16.006  1.00  0.00     0.053 C 
BRANCH   2   3
ATOM      3  C   UNL     1       4.320 -22.985  15.466  1.00  0.00     0.041 C 
ATOM      4  O   UNL     1       3.345 -22.819  16.245  1.00  0.00    -0.550 OA
ATOM      5  O   UNL     1       4.101 -23.080  14.098  1.00  0.00    -0.550 OA
ENDBRANCH   2   3
ENDBRANCH   1   2
BRANCH   1   6
ATOM      6  C   UNL     1       7.359 -21.924  17.576  1.00  0.00     0.000 C 
BRANCH   6   7
ATOM      7  C   UNL     1       8.351 -22.082  16.418  1.00  0.00    -0.000 C 
BRANCH   7   8
ATOM      8  C   UNL     1       8.360 -20.834  15.528  1.00  0.00    -0.003 C 
ATOM      9  C   UNL     1       8.392 -21.212  14.050  1.00  0.00     0.004 C 
ENDBRANCH   7   8
ENDBRANCH   6   7
ENDBRANCH   1   6
TORSDOF 5
ENDMDL
