MODEL 1
REMARK VINA RESULT:    -4.756      0.000      0.000
REMARK INTER + INTRA:          -7.118
REMARK INTER:                  -6.424
REMARK INTRA:                  -0.694
REMARK UNBOUND:                -0.694
REMARK SMILES CCCCCCC=CC(=O)[O-]
REMARK SMILES IDX 5 1 6 2 7 3 8 4 9 5 10 6 11 7 4 8 3 9 2 10 1 11
REMARK H PARENT
REMARK Flexibility Score: inf
ROOT
ATOM      1  C   UNL     1      13.623 -11.348  35.187  1.00  0.00     0.004 C 
ENDROOT
BRANCH   1   2
ATOM      2  C   UNL     1      12.679 -12.514  35.513  1.00  0.00     0.027 C 
BRANCH   2   3
ATOM      3  C   UNL     1      13.271 -13.420  36.558  1.00  0.00    -0.025 C 
ATOM      4  C   UNL     1      12.597 -14.308  37.308  1.00  0.00     0.020 C 
BRANCH   4   5
ATOM      5  C   UNL     1      11.138 -14.546  37.293  1.00  0.00     0.064 C 
ATOM      6  O   UNL     1      10.675 -15.433  36.530  1.00  0.00    -0.545 OA
ATOM      7  O   UNL     1      10.263 -13.845  38.112  1.00  0.00    -0.545 OA
ENDBRANCH   4   5
ENDBRANCH   2   3
ENDBRANCH   1   2
BRANCH   1   8
ATOM      8  C   UNL     1      13.611 -10.302  36.312  1.00  0.00     0.000 C 
BRANCH   8   9
ATOM      9  C   UNL     1      12.191  -9.846  36.681  1.00  0.00    -0.000 C 
BRANCH   9  10
ATOM     10  C   UNL     1      11.948  -9.837  38.197  1.00  0.00    -0.003 C 
ATOM     11  C   UNL     1      13.079 -10.544  38.939  1.00  0.00     0.004 C 
ENDBRANCH   9  10
ENDBRANCH   8   9
ENDBRANCH   1   8
TORSDOF 6
ENDMDL
MODEL 2
REMARK VINA RESULT:    -4.739      2.993      4.666
REMARK INTER + INTRA:          -7.096
REMARK INTER:                  -6.211
REMARK INTRA:                  -0.885
REMARK UNBOUND:                -0.694
REMARK SMILES CCCCCCC=CC(=O)[O-]
REMARK SMILES IDX 5 1 6 2 7 3 8 4 9 5 10 6 11 7 4 8 3 9 2 10 1 11
REMARK H PARENT
REMARK Flexibility Score: inf
ROOT
ATOM      1  C   UNL     1       8.732 -12.016  38.083  1.00  0.00     0.004 C 
ENDROOT
BRANCH   1   2
ATOM      2  C   UNL     1      10.266 -12.018  38.157  1.00  0.00     0.027 C 
BRANCH   2   3
ATOM      3  C   UNL     1      10.878 -11.995  36.782  1.00  0.00    -0.025 C 
ATOM      4  C   UNL     1      11.542 -13.005  36.195  1.00  0.00     0.020 C 
BRANCH   4   5
ATOM      5  C   UNL     1      11.844 -14.324  36.791  1.00  0.00     0.064 C 
ATOM      6  O   UNL     1      12.913 -14.466  37.441  1.00  0.00    -0.545 OA
ATOM      7  O   UNL     1      10.979 -15.404  36.681  1.00  0.00    -0.545 OA
ENDBRANCH   4   5
ENDBRANCH   2   3
ENDBRANCH   1   2
BRANCH   1   8
ATOM      8  C   UNL     1       8.195 -13.429  37.810  1.00  0.00     0.000 C 
BRANCH   8   9
ATOM      9  C   UNL     1       7.269 -13.483  36.585  1.00  0.00    -0.000 C 
BRANCH   9  10
ATOM     10  C   UNL     1       8.025 -13.793  35.284  1.00  0.00    -0.003 C 
ATOM     11  C   UNL     1       8.019 -12.589  34.346  1.00  0.00     0.004 C 
ENDBRANCH   9  10
ENDBRANCH   8   9
ENDBRANCH   1   8
TORSDOF 6
ENDMDL
MODEL 3
REMARK VINA RESULT:    -4.732      1.583      1.970
REMARK INTER + INTRA:          -7.086
REMARK INTER:                  -6.149
REMARK INTRA:                  -0.936
REMARK UNBOUND:                -0.694
REMARK SMILES CCCCCCC=CC(=O)[O-]
REMARK SMILES IDX 5 1 6 2 7 3 8 4 9 5 10 6 11 7 4 8 3 9 2 10 1 11
REMARK H PARENT
REMARK Flexibility Score: inf
ROOT
ATOM      1  C   UNL     1      11.404 -10.842  35.117  1.00  0.00     0.004 C 
ENDROOT
BRANCH   1   2
ATOM      2  C   UNL     1      10.510 -12.084  35.238  1.00  0.00     0.027 C 
BRANCH   2   3
ATOM      3  C   UNL     1      10.118 -12.337  36.669  1.00  0.00    -0.025 C 
ATOM      4  C   UNL     1      10.640 -13.273  37.479  1.00  0.00     0.020 C 
BRANCH   4   5
ATOM      5  C   UNL     1      11.671 -14.271  37.121  1.00  0.00     0.064 C 
ATOM      6  O   UNL     1      11.308 -15.364  36.613  1.00  0.00    -0.545 OA
ATOM      7  O   UNL     1      13.027 -14.034  37.301  1.00  0.00    -0.545 OA
ENDBRANCH   4   5
ENDBRANCH   2   3
ENDBRANCH   1   2
BRANCH   1   8
ATOM      8  C   UNL     1      12.889 -11.235  35.113  1.00  0.00     0.000 C 
BRANCH   8   9
ATOM      9  C   UNL     1      13.683 -10.558  36.240  1.00  0.00    -0.000 C 
BRANCH   9  10
ATOM     10  C   UNL     1      12.776  -9.909  37.297  1.00  0.00    -0.003 C 
ATOM     11  C   UNL     1      12.949 -10.581  38.656  1.00  0.00     0.004 C 
ENDBRANCH   9  10
ENDBRANCH   8   9
ENDBRANCH   1   8
TORSDOF 6
ENDMDL
MODEL 4
REMARK VINA RESULT:    -4.712      2.844      4.594
REMARK INTER + INTRA:          -7.059
REMARK INTER:                  -6.429
REMARK INTRA:                  -0.630
REMARK UNBOUND:                -0.694
REMARK SMILES CCCCCCC=CC(=O)[O-]
REMARK SMILES IDX 5 1 6 2 7 3 8 4 9 5 10 6 11 7 4 8 3 9 2 10 1 11
REMARK H PARENT
REMARK Flexibility Score: inf
ROOT
ATOM      1  C   UNL     1      10.218 -14.832  38.126  1.00  0.00     0.004 C 
ENDROOT
BRANCH   1   2
ATOM      2  C   UNL     1       9.470 -13.492  38.145  1.00  0.00     0.027 C 
BRANCH   2   3
ATOM      3  C   UNL     1       7.980 -13.697  38.120  1.00  0.00    -0.025 C 
ATOM      4  C   UNL     1       7.176 -13.526  37.057  1.00  0.00     0.020 C 
BRANCH   4   5
ATOM      5  C   UNL     1       7.580 -13.061  35.713  1.00  0.00     0.064 C 
ATOM      6  O   UNL     1       7.314 -11.878  35.374  1.00  0.00    -0.545 OA
ATOM      7  O   UNL     1       8.267 -13.874  34.822  1.00  0.00    -0.545 OA
ENDBRANCH   4   5
ENDBRANCH   2   3
ENDBRANCH   1   2
BRANCH   1   8
ATOM      8  C   UNL     1      10.982 -15.014  36.805  1.00  0.00     0.000 C 
BRANCH   8   9
ATOM      9  C   UNL     1      11.635 -13.713  36.316  1.00  0.00    -0.000 C 
BRANCH   9  10
ATOM     10  C   UNL     1      12.946 -13.395  37.051  1.00  0.00    -0.003 C 
ATOM     11  C   UNL     1      12.942 -11.964  37.583  1.00  0.00     0.004 C 
ENDBRANCH   9  10
ENDBRANCH   8   9
ENDBRANCH   1   8
TORSDOF 6
ENDMDL
MODEL 5
REMARK VINA RESULT:    -4.664      2.898      4.746
REMARK INTER + INTRA:          -6.995
REMARK INTER:                  -6.213
REMARK INTRA:                  -0.782
REMARK UNBOUND:                -0.694
REMARK SMILES CCCCCCC=CC(=O)[O-]
REMARK SMILES IDX 5 1 6 2 7 3 8 4 9 5 10 6 11 7 4 8 3 9 2 10 1 11
REMARK H PARENT
REMARK Flexibility Score: inf
ROOT
ATOM      1  C   UNL     1       9.840 -14.726  38.169  1.00  0.00     0.004 C 
ENDROOT
BRANCH   1   2
ATOM      2  C   UNL     1      10.384 -14.830  36.737  1.00  0.00     0.027 C 
BRANCH   2   3
ATOM      3  C   UNL     1      11.787 -14.293  36.645  1.00  0.00    -0.025 C 
ATOM      4  C   UNL     1      12.133 -13.040  36.304  1.00  0.00     0.020 C 
BRANCH   4   5
ATOM      5  C   UNL     1      11.216 -11.950  35.908  1.00  0.00     0.064 C 
ATOM      6  O   UNL     1      10.900 -11.833  34.695  1.00  0.00    -0.545 OA
ATOM      7  O   UNL     1      10.671 -11.067  36.830  1.00  0.00    -0.545 OA
ENDBRANCH   4   5
ENDBRANCH   2   3
ENDBRANCH   1   2
BRANCH   1   8
ATOM      8  C   UNL     1       8.791 -13.609  38.277  1.00  0.00     0.000 C 
BRANCH   8   9
ATOM      9  C   UNL     1       7.577 -13.848  37.365  1.00  0.00    -0.000 C 
BRANCH   9  10
ATOM     10  C   UNL     1       7.359 -12.707  36.360  1.00  0.00    -0.003 C 
ATOM     11  C   UNL     1       7.666 -13.165  34.936  1.00  0.00     0.004 C 
ENDBRANCH   9  10
ENDBRANCH   8   9
ENDBRANCH   1   8
TORSDOF 6
ENDMDL
MODEL 6
REMARK VINA RESULT:    -4.661      1.410      2.129
REMARK INTER + INTRA:          -6.990
REMARK INTER:                  -6.217
REMARK INTRA:                  -0.774
REMARK UNBOUND:                -0.694
REMARK SMILES CCCCCCC=CC(=O)[O-]
REMARK SMILES IDX 5 1 6 2 7 3 8 4 9 5 10 6 11 7 4 8 3 9 2 10 1 11
REMARK H PARENT
REMARK Flexibility Score: inf
ROOT
ATOM      1  C   UNL     1      13.228 -13.118  35.555  1.00  0.00     0.004 C 
ENDROOT
BRANCH   1   2
ATOM      2  C   UNL     1      12.885 -13.637  36.959  1.00  0.00     0.027 C 
BRANCH   2   3
ATOM      3  C   UNL     1      11.660 -14.511  36.933  1.00  0.00    -0.025 C 
ATOM      4  C   UNL     1      10.390 -14.096  37.082  1.00  0.00     0.020 C 
BRANCH   4   5
ATOM      5  C   UNL     1       9.940 -12.712  37.343  1.00  0.00     0.064 C 
ATOM      6  O   UNL     1       9.896 -12.302  38.532  1.00  0.00    -0.545 OA
ATOM      7  O   UNL     1       9.590 -11.840  36.321  1.00  0.00    -0.545 OA
ENDBRANCH   4   5
ENDBRANCH   2   3
ENDBRANCH   1   2
BRANCH   1   8
ATOM      8  C   UNL     1      12.916 -11.619  35.434  1.00  0.00     0.000 C 
BRANCH   8   9
ATOM      9  C   UNL     1      13.656 -10.773  36.481  1.00  0.00    -0.000 C 
BRANCH   9  10
ATOM     10  C   UNL     1      12.700 -10.035  37.430  1.00  0.00    -0.003 C 
ATOM     11  C   UNL     1      12.936 -10.450  38.880  1.00  0.00     0.004 C 
ENDBRANCH   9  10
ENDBRANCH   8   9
ENDBRANCH   1   8
TORSDOF 6
ENDMDL
MODEL 7
REMARK VINA RESULT:    -4.656      1.788      3.308
REMARK INTER + INTRA:          -6.983
REMARK INTER:                  -6.432
REMARK INTRA:                  -0.551
REMARK UNBOUND:                -0.694
REMARK SMILES CCCCCCC=CC(=O)[O-]
REMARK SMILES IDX 5 1 6 2 7 3 8 4 9 5 10 6 11 7 4 8 3 9 2 10 1 11
REMARK H PARENT
REMARK Flexibility Score: inf
ROOT
ATOM      1  C   UNL     1      12.702 -14.275  37.281  1.00  0.00     0.004 C 
ENDROOT
BRANCH   1   2
ATOM      2  C   UNL     1      11.414 -15.049  36.965  1.00  0.00     0.027 C 
BRANCH   2   3
ATOM      3  C   UNL     1      10.286 -14.624  37.865  1.00  0.00    -0.025 C 
ATOM      4  C   UNL     1       9.252 -13.839  37.520  1.00  0.00     0.020 C 
BRANCH   4   5
ATOM      5  C   UNL     1       9.032 -13.199  36.205  1.00  0.00     0.064 C 
ATOM      6  O   UNL     1       9.451 -12.026  36.023  1.00  0.00    -0.545 OA
ATOM      7  O   UNL     1       8.404 -13.856  35.156  1.00  0.00    -0.545 OA
ENDBRANCH   4   5
ENDBRANCH   2   3
ENDBRANCH   1   2
BRANCH   1   8
ATOM      8  C   UNL     1      12.920 -13.139  36.271  1.00  0.00     0.000 C 
BRANCH   8   9
ATOM      9  C   UNL     1      12.915 -11.752  36.931  1.00  0.00    -0.000 C 
BRANCH   9  10
ATOM     10  C   UNL     1      13.650 -10.694  36.093  1.00  0.00    -0.003 C 
ATOM     11  C   UNL     1      14.078 -11.264  34.743  1.00  0.00     0.004 C 
ENDBRANCH   9  10
ENDBRANCH   8   9
ENDBRANCH   1   8
TORSDOF 6
ENDMDL
MODEL 8
REMARK VINA RESULT:    -4.649      1.764      3.078
REMARK INTER + INTRA:          -6.974
REMARK INTER:                  -6.398
REMARK INTRA:                  -0.576
REMARK UNBOUND:                -0.694
REMARK SMILES CCCCCCC=CC(=O)[O-]
REMARK SMILES IDX 5 1 6 2 7 3 8 4 9 5 10 6 11 7 4 8 3 9 2 10 1 11
REMARK H PARENT
REMARK Flexibility Score: inf
ROOT
ATOM      1  C   UNL     1      12.874 -13.591  36.912  1.00  0.00     0.004 C 
ENDROOT
BRANCH   1   2
ATOM      2  C   UNL     1      11.736 -14.518  37.365  1.00  0.00     0.027 C 
BRANCH   2   3
ATOM      3  C   UNL     1      10.553 -14.421  36.440  1.00  0.00    -0.025 C 
ATOM      4  C   UNL     1       9.354 -13.895  36.744  1.00  0.00     0.020 C 
BRANCH   4   5
ATOM      5  C   UNL     1       8.938 -13.347  38.052  1.00  0.00     0.064 C 
ATOM      6  O   UNL     1       8.224 -14.056  38.809  1.00  0.00    -0.545 OA
ATOM      7  O   UNL     1       9.331 -12.089  38.488  1.00  0.00    -0.545 OA
ENDBRANCH   4   5
ENDBRANCH   2   3
ENDBRANCH   1   2
BRANCH   1   8
ATOM      8  C   UNL     1      12.755 -12.213  37.579  1.00  0.00     0.000 C 
BRANCH   8   9
ATOM      9  C   UNL     1      13.240 -11.072  36.671  1.00  0.00    -0.000 C 
BRANCH   9  10
ATOM     10  C   UNL     1      13.045 -11.380  35.179  1.00  0.00    -0.003 C 
ATOM     11  C   UNL     1      14.347 -11.194  34.405  1.00  0.00     0.004 C 
ENDBRANCH   9  10
ENDBRANCH   8   9
ENDBRANCH   1   8
TORSDOF 6
ENDMDL
MODEL 9
REMARK VINA RESULT:    -4.599      2.746      4.492
REMARK INTER + INTRA:          -6.907
REMARK INTER:                  -6.283
REMARK INTRA:                  -0.624
REMARK UNBOUND:                -0.694
REMARK SMILES CCCCCCC=CC(=O)[O-]
REMARK SMILES IDX 5 1 6 2 7 3 8 4 9 5 10 6 11 7 4 8 3 9 2 10 1 11
REMARK H PARENT
REMARK Flexibility Score: inf
ROOT
ATOM      1  C   UNL     1      11.355 -14.486  37.415  1.00  0.00     0.004 C 
ENDROOT
BRANCH   1   2
ATOM      2  C   UNL     1      12.688 -13.902  36.926  1.00  0.00     0.027 C 
BRANCH   2   3
ATOM      3  C   UNL     1      12.881 -12.493  37.420  1.00  0.00    -0.025 C 
ATOM      4  C   UNL     1      12.832 -11.379  36.670  1.00  0.00     0.020 C 
BRANCH   4   5
ATOM      5  C   UNL     1      12.623 -11.310  35.208  1.00  0.00     0.064 C 
ATOM      6  O   UNL     1      11.446 -11.299  34.762  1.00  0.00    -0.545 OA
ATOM      7  O   UNL     1      13.680 -11.229  34.310  1.00  0.00    -0.545 OA
ENDBRANCH   4   5
ENDBRANCH   2   3
ENDBRANCH   1   2
BRANCH   1   8
ATOM      8  C   UNL     1      10.337 -14.562  36.266  1.00  0.00     0.000 C 
BRANCH   8   9
ATOM      9  C   UNL     1       9.041 -13.798  36.573  1.00  0.00    -0.000 C 
BRANCH   9  10
ATOM     10  C   UNL     1       8.939 -13.372  38.046  1.00  0.00    -0.003 C 
ATOM     11  C   UNL     1       7.836 -14.144  38.765  1.00  0.00     0.004 C 
ENDBRANCH   9  10
ENDBRANCH   8   9
ENDBRANCH   1   8
TORSDOF 6
ENDMDL
