MODEL 1
REMARK VINA RESULT:    -3.201      0.000      0.000
REMARK INTER + INTRA:          -2.894
REMARK INTER:                  -3.950
REMARK INTRA:                   1.055
REMARK UNBOUND:                 1.055
REMARK SMILES CC1=CC=CC(C)(C)CC1=O
REMARK SMILES IDX 1 1 2 2 3 3 10 4 11 5 9 6 4 8 5 9 6 10 7 11 8 12
REMARK H PARENT
REMARK Flexibility Score: 80.00
ROOT
ATOM      1  C   UNL     1     148.531 150.740 169.612  1.00  0.00     0.048 C 
ATOM      2  C   UNL     1     148.997 151.638 168.491  1.00  0.00    -0.008 C 
ATOM      3  C   UNL     1     150.290 151.545 168.110  1.00  0.00     0.007 C 
ENDROOT
BRANCH   2   4
ATOM      4  C   UNL     1     148.012 152.606 167.945  1.00  0.00     0.159 C 
ATOM      5  O   UNL     1     146.790 152.444 168.211  1.00  0.00    -0.295 OA
BRANCH   4   6
ATOM      6  C   UNL     1     148.389 153.766 167.077  1.00  0.00     0.091 CG0
ATOM      7  G   UNL     1     149.104 153.345 165.774  1.00  0.00     0.000 G0
ENDBRANCH   4   6
ENDBRANCH   2   4
BRANCH   3   8
ATOM      8  C   UNL     1     151.034 152.299 167.075  1.00  0.00    -0.003 C 
ATOM      9  C   UNL     1     150.560 153.076 166.092  1.00  0.00    -0.020 C 
BRANCH   9  10
ATOM     10  C   UNL     1     149.106 153.349 165.787  1.00  0.00    -0.010 CG0
ATOM     11  C   UNL     1     148.465 152.040 165.270  1.00  0.00     0.016 C 
ATOM     12  C   UNL     1     148.991 154.410 164.670  1.00  0.00     0.016 C 
ATOM     13  G   UNL     1     148.371 153.764 167.082  1.00  0.00     0.000 G0
ENDBRANCH   9  10
ENDBRANCH   3   8
TORSDOF 0
ENDMDL
MODEL 2
REMARK VINA RESULT:    -3.001      2.083      3.116
REMARK INTER + INTRA:          -2.648
REMARK INTER:                  -3.416
REMARK INTRA:                   0.768
REMARK UNBOUND:                 1.055
REMARK SMILES CC1=CC=CC(C)(C)CC1=O
REMARK SMILES IDX 1 1 2 2 3 3 10 4 11 5 9 6 4 8 5 9 6 10 7 11 8 12
REMARK H PARENT
REMARK Flexibility Score: 80.00
ROOT
ATOM      1  C   UNL     1     149.844 151.476 167.985  1.00  0.00     0.048 C 
ATOM      2  C   UNL     1     149.559 152.522 166.933  1.00  0.00    -0.008 C 
ATOM      3  C   UNL     1     148.266 152.803 166.665  1.00  0.00     0.007 C 
ENDROOT
BRANCH   2   4
ATOM      4  C   UNL     1     150.726 153.104 166.225  1.00  0.00     0.159 C 
ATOM      5  O   UNL     1     151.859 152.570 166.379  1.00  0.00    -0.295 OA
BRANCH   4   6
ATOM      6  C   UNL     1     150.639 154.310 165.341  1.00  0.00     0.091 CG0
ATOM      7  G   UNL     1     149.671 154.123 164.151  1.00  0.00     0.000 G0
ENDBRANCH   4   6
ENDBRANCH   2   4
BRANCH   3   8
ATOM      8  C   UNL     1     147.681 153.747 165.684  1.00  0.00    -0.003 C 
ATOM      9  C   UNL     1     148.249 154.306 164.608  1.00  0.00    -0.020 C 
BRANCH   9  10
ATOM     10  C   UNL     1     149.675 154.116 164.146  1.00  0.00    -0.010 CG0
ATOM     11  C   UNL     1     149.992 155.203 163.093  1.00  0.00     0.016 C 
ATOM     12  C   UNL     1     149.831 152.736 163.468  1.00  0.00     0.016 C 
ATOM     13  G   UNL     1     150.638 154.307 165.338  1.00  0.00     0.000 G0
ENDBRANCH   9  10
ENDBRANCH   3   8
TORSDOF 0
ENDMDL
MODEL 3
REMARK VINA RESULT:    -2.976      1.755      2.975
REMARK INTER + INTRA:          -2.616
REMARK INTER:                  -3.373
REMARK INTRA:                   0.756
REMARK UNBOUND:                 1.055
REMARK SMILES CC1=CC=CC(C)(C)CC1=O
REMARK SMILES IDX 1 1 2 2 3 3 10 4 11 5 9 6 4 8 5 9 6 10 7 11 8 12
REMARK H PARENT
REMARK Flexibility Score: 80.00
ROOT
ATOM      1  C   UNL     1     151.662 152.206 166.459  1.00  0.00     0.048 C 
ATOM      2  C   UNL     1     150.252 152.497 166.917  1.00  0.00    -0.008 C 
ATOM      3  C   UNL     1     149.768 151.775 167.950  1.00  0.00     0.007 C 
ENDROOT
BRANCH   2   4
ATOM      4  C   UNL     1     149.485 153.505 166.143  1.00  0.00     0.159 C 
ATOM      5  O   UNL     1     149.953 153.913 165.044  1.00  0.00    -0.295 OA
BRANCH   4   6
ATOM      6  C   UNL     1     148.182 154.083 166.602  1.00  0.00     0.091 CG0
ATOM      7  G   UNL     1     147.083 153.016 166.809  1.00  0.00     0.000 G0
ENDBRANCH   4   6
ENDBRANCH   2   4
BRANCH   3   8
ATOM      8  C   UNL     1     148.435 151.813 168.595  1.00  0.00    -0.003 C 
ATOM      9  C   UNL     1     147.286 152.320 168.130  1.00  0.00    -0.020 C 
BRANCH   9  10
ATOM     10  C   UNL     1     147.085 153.018 166.806  1.00  0.00    -0.010 CG0
ATOM     11  C   UNL     1     145.722 153.749 166.846  1.00  0.00     0.016 C 
ATOM     12  C   UNL     1     147.035 151.979 165.663  1.00  0.00     0.016 C 
ATOM     13  G   UNL     1     148.192 154.077 166.601  1.00  0.00     0.000 G0
ENDBRANCH   9  10
ENDBRANCH   3   8
TORSDOF 0
ENDMDL
MODEL 4
REMARK VINA RESULT:    -2.972      1.322      1.833
REMARK INTER + INTRA:          -2.611
REMARK INTER:                  -3.375
REMARK INTRA:                   0.764
REMARK UNBOUND:                 1.055
REMARK SMILES CC1=CC=CC(C)(C)CC1=O
REMARK SMILES IDX 1 1 2 2 3 3 10 4 11 5 9 6 4 8 5 9 6 10 7 11 8 12
REMARK H PARENT
REMARK Flexibility Score: 80.00
ROOT
ATOM      1  C   UNL     1     150.215 151.530 168.600  1.00  0.00     0.048 C 
ATOM      2  C   UNL     1     149.781 152.004 167.233  1.00  0.00    -0.008 C 
ATOM      3  C   UNL     1     150.461 151.539 166.164  1.00  0.00     0.007 C 
ENDROOT
BRANCH   2   4
ATOM      4  C   UNL     1     148.686 153.005 167.182  1.00  0.00     0.159 C 
ATOM      5  O   UNL     1     148.322 153.564 168.253  1.00  0.00    -0.295 OA
BRANCH   4   6
ATOM      6  C   UNL     1     147.970 153.382 165.921  1.00  0.00     0.091 CG0
ATOM      7  G   UNL     1     148.907 153.968 164.842  1.00  0.00     0.000 G0
ENDBRANCH   4   6
ENDBRANCH   2   4
BRANCH   3   8
ATOM      8  C   UNL     1     150.289 151.837 164.723  1.00  0.00    -0.003 C 
ATOM      9  C   UNL     1     149.657 152.865 164.143  1.00  0.00    -0.020 C 
BRANCH   9  10
ATOM     10  C   UNL     1     148.925 153.981 164.850  1.00  0.00    -0.010 CG0
ATOM     11  C   UNL     1     148.064 154.733 163.808  1.00  0.00     0.016 C 
ATOM     12  C   UNL     1     149.939 154.985 165.444  1.00  0.00     0.016 C 
ATOM     13  G   UNL     1     147.977 153.389 165.917  1.00  0.00     0.000 G0
ENDBRANCH   9  10
ENDBRANCH   3   8
TORSDOF 0
ENDMDL
MODEL 5
REMARK VINA RESULT:    -2.909      2.322      4.495
REMARK INTER + INTRA:          -2.534
REMARK INTER:                  -3.288
REMARK INTRA:                   0.754
REMARK UNBOUND:                 1.055
REMARK SMILES CC1=CC=CC(C)(C)CC1=O
REMARK SMILES IDX 1 1 2 2 3 3 10 4 11 5 9 6 4 8 5 9 6 10 7 11 8 12
REMARK H PARENT
REMARK Flexibility Score: 80.00
ROOT
ATOM      1  C   UNL     1     150.005 156.671 162.867  1.00  0.00     0.048 C 
ATOM      2  C   UNL     1     150.017 155.323 163.548  1.00  0.00    -0.008 C 
ATOM      3  C   UNL     1     149.550 154.265 162.851  1.00  0.00     0.007 C 
ENDROOT
BRANCH   2   4
ATOM      4  C   UNL     1     150.473 155.283 164.960  1.00  0.00     0.159 C 
ATOM      5  O   UNL     1     150.617 156.371 165.584  1.00  0.00    -0.295 OA
BRANCH   4   6
ATOM      6  C   UNL     1     150.789 154.015 165.691  1.00  0.00     0.091 CG0
ATOM      7  G   UNL     1     149.581 153.057 165.798  1.00  0.00     0.000 G0
ENDBRANCH   4   6
ENDBRANCH   2   4
BRANCH   3   8
ATOM      8  C   UNL     1     149.413 152.846 163.253  1.00  0.00    -0.003 C 
ATOM      9  C   UNL     1     149.411 152.313 164.481  1.00  0.00    -0.020 C 
BRANCH   9  10
ATOM     10  C   UNL     1     149.581 153.060 165.783  1.00  0.00    -0.010 CG0
ATOM     11  C   UNL     1     149.889 152.030 166.896  1.00  0.00     0.016 C 
ATOM     12  C   UNL     1     148.267 153.783 166.153  1.00  0.00     0.016 C 
ATOM     13  G   UNL     1     150.784 154.024 165.677  1.00  0.00     0.000 G0
ENDBRANCH   9  10
ENDBRANCH   3   8
TORSDOF 0
ENDMDL
MODEL 6
REMARK VINA RESULT:    -2.898      3.192      4.590
REMARK INTER + INTRA:          -2.520
REMARK INTER:                  -3.268
REMARK INTRA:                   0.749
REMARK UNBOUND:                 1.055
REMARK SMILES CC1=CC=CC(C)(C)CC1=O
REMARK SMILES IDX 1 1 2 2 3 3 10 4 11 5 9 6 4 8 5 9 6 10 7 11 8 12
REMARK H PARENT
REMARK Flexibility Score: 80.00
ROOT
ATOM      1  C   UNL     1     148.999 151.503 168.647  1.00  0.00     0.048 C 
ATOM      2  C   UNL     1     147.495 151.436 168.772  1.00  0.00    -0.008 C 
ATOM      3  C   UNL     1     146.967 150.378 169.424  1.00  0.00     0.007 C 
ENDROOT
BRANCH   2   4
ATOM      4  C   UNL     1     146.713 152.506 168.102  1.00  0.00     0.159 C 
ATOM      5  O   UNL     1     147.302 153.270 167.289  1.00  0.00    -0.295 OA
BRANCH   4   6
ATOM      6  C   UNL     1     145.255 152.741 168.348  1.00  0.00     0.091 CG0
ATOM      7  G   UNL     1     144.373 151.525 167.985  1.00  0.00     0.000 G0
ENDBRANCH   4   6
ENDBRANCH   2   4
BRANCH   3   8
ATOM      8  C   UNL     1     145.551 150.029 169.681  1.00  0.00    -0.003 C 
ATOM      9  C   UNL     1     144.446 150.485 169.078  1.00  0.00    -0.020 C 
BRANCH   9  10
ATOM     10  C   UNL     1     144.386 151.517 167.977  1.00  0.00    -0.010 CG0
ATOM     11  C   UNL     1     142.926 152.014 167.856  1.00  0.00     0.016 C 
ATOM     12  C   UNL     1     144.785 150.875 166.629  1.00  0.00     0.016 C 
ATOM     13  G   UNL     1     145.275 152.726 168.347  1.00  0.00     0.000 G0
ENDBRANCH   9  10
ENDBRANCH   3   8
TORSDOF 0
ENDMDL
MODEL 7
REMARK VINA RESULT:    -2.833      5.158      7.223
REMARK INTER + INTRA:          -2.440
REMARK INTER:                  -3.196
REMARK INTRA:                   0.756
REMARK UNBOUND:                 1.055
REMARK SMILES CC1=CC=CC(C)(C)CC1=O
REMARK SMILES IDX 1 1 2 2 3 3 10 4 11 5 9 6 4 8 5 9 6 10 7 11 8 12
REMARK H PARENT
REMARK Flexibility Score: 80.00
ROOT
ATOM      1  C   UNL     1     149.885 155.859 164.799  1.00  0.00     0.048 C 
ATOM      2  C   UNL     1     149.694 156.720 163.572  1.00  0.00    -0.008 C 
ATOM      3  C   UNL     1     149.170 157.952 163.747  1.00  0.00     0.007 C 
ENDROOT
BRANCH   2   4
ATOM      4  C   UNL     1     150.031 156.111 162.261  1.00  0.00     0.159 C 
ATOM      5  O   UNL     1     150.279 154.875 162.210  1.00  0.00    -0.295 OA
BRANCH   4   6
ATOM      6  C   UNL     1     150.108 156.890 160.984  1.00  0.00     0.091 CG0
ATOM      7  G   UNL     1     148.786 157.608 160.629  1.00  0.00     0.000 G0
ENDBRANCH   4   6
ENDBRANCH   2   4
BRANCH   3   8
ATOM      8  C   UNL     1     148.847 158.998 162.750  1.00  0.00    -0.003 C 
ATOM      9  C   UNL     1     148.669 158.879 161.428  1.00  0.00    -0.020 C 
BRANCH   9  10
ATOM     10  C   UNL     1     148.789 157.610 160.618  1.00  0.00    -0.010 CG0
ATOM     11  C   UNL     1     148.864 157.995 159.122  1.00  0.00     0.016 C 
ATOM     12  C   UNL     1     147.534 156.732 160.822  1.00  0.00     0.016 C 
ATOM     13  G   UNL     1     150.097 156.876 160.991  1.00  0.00     0.000 G0
ENDBRANCH   9  10
ENDBRANCH   3   8
TORSDOF 0
ENDMDL
MODEL 8
REMARK VINA RESULT:    -2.818      3.238      4.703
REMARK INTER + INTRA:          -2.421
REMARK INTER:                  -3.176
REMARK INTRA:                   0.755
REMARK UNBOUND:                 1.055
REMARK SMILES CC1=CC=CC(C)(C)CC1=O
REMARK SMILES IDX 1 1 2 2 3 3 10 4 11 5 9 6 4 8 5 9 6 10 7 11 8 12
REMARK H PARENT
REMARK Flexibility Score: 80.00
ROOT
ATOM      1  C   UNL     1     150.716 152.969 165.962  1.00  0.00     0.048 C 
ATOM      2  C   UNL     1     149.974 154.097 165.286  1.00  0.00    -0.008 C 
ATOM      3  C   UNL     1     148.782 153.811 164.720  1.00  0.00     0.007 C 
ENDROOT
BRANCH   2   4
ATOM      4  C   UNL     1     150.651 155.417 165.235  1.00  0.00     0.159 C 
ATOM      5  O   UNL     1     151.864 155.492 165.574  1.00  0.00    -0.295 OA
BRANCH   4   6
ATOM      6  C   UNL     1     149.966 156.681 164.814  1.00  0.00     0.091 CG0
ATOM      7  G   UNL     1     149.403 156.617 163.376  1.00  0.00     0.000 G0
ENDBRANCH   4   6
ENDBRANCH   2   4
BRANCH   3   8
ATOM      8  C   UNL     1     147.847 154.687 163.975  1.00  0.00    -0.003 C 
ATOM      9  C   UNL     1     148.082 155.868 163.390  1.00  0.00    -0.020 C 
BRANCH   9  10
ATOM     10  C   UNL     1     149.394 156.618 163.379  1.00  0.00    -0.010 CG0
ATOM     11  C   UNL     1     149.119 158.068 162.916  1.00  0.00     0.016 C 
ATOM     12  C   UNL     1     150.364 155.970 162.366  1.00  0.00     0.016 C 
ATOM     13  G   UNL     1     149.974 156.674 164.810  1.00  0.00     0.000 G0
ENDBRANCH   9  10
ENDBRANCH   3   8
TORSDOF 0
ENDMDL
MODEL 9
REMARK VINA RESULT:    -2.791      6.489      7.630
REMARK INTER + INTRA:          -2.389
REMARK INTER:                  -3.139
REMARK INTRA:                   0.750
REMARK UNBOUND:                 1.055
REMARK SMILES CC1=CC=CC(C)(C)CC1=O
REMARK SMILES IDX 1 1 2 2 3 3 10 4 11 5 9 6 4 8 5 9 6 10 7 11 8 12
REMARK H PARENT
REMARK Flexibility Score: 80.00
ROOT
ATOM      1  C   UNL     1     147.709 159.748 163.721  1.00  0.00     0.048 C 
ATOM      2  C   UNL     1     148.215 158.545 162.961  1.00  0.00    -0.008 C 
ATOM      3  C   UNL     1     149.106 157.742 163.581  1.00  0.00     0.007 C 
ENDROOT
BRANCH   2   4
ATOM      4  C   UNL     1     147.746 158.383 161.562  1.00  0.00     0.159 C 
ATOM      5  O   UNL     1     147.117 159.332 161.018  1.00  0.00    -0.295 OA
BRANCH   4   6
ATOM      6  C   UNL     1     147.966 157.141 160.755  1.00  0.00     0.091 CG0
ATOM      7  G   UNL     1     149.460 156.778 160.593  1.00  0.00     0.000 G0
ENDBRANCH   4   6
ENDBRANCH   2   4
BRANCH   3   8
ATOM      8  C   UNL     1     149.790 156.522 163.091  1.00  0.00    -0.003 C 
ATOM      9  C   UNL     1     149.962 156.099 161.833  1.00  0.00    -0.020 C 
BRANCH   9  10
ATOM     10  C   UNL     1     149.456 156.777 160.581  1.00  0.00    -0.010 CG0
ATOM     11  C   UNL     1     149.558 155.771 159.410  1.00  0.00     0.016 C 
ATOM     12  C   UNL     1     150.347 157.994 160.243  1.00  0.00     0.016 C 
ATOM     13  G   UNL     1     147.969 157.157 160.759  1.00  0.00     0.000 G0
ENDBRANCH   9  10
ENDBRANCH   3   8
TORSDOF 0
ENDMDL
