MODEL 1
REMARK VINA RESULT:    22.026      0.000      0.000
REMARK INTER + INTRA:          25.638
REMARK INTER:                  25.889
REMARK INTRA:                  -0.251
REMARK UNBOUND:                -0.251
REMARK SMILES O=c1c(O)c(-c2ccc(O)cc2)oc2cc(O)cc(O)c12
REMARK SMILES IDX 5 1 3 2 2 3 1 4 21 5 19 6 18 7 16 8 15 9 14 10 13 11 6 12
REMARK SMILES IDX 7 13 8 14 9 15 12 16 11 17 10 18 4 20 20 22 17 24
REMARK H PARENT 10 19 4 21 20 23 17 25
REMARK Flexibility Score: inf
ROOT
ATOM      1  C   UNL     1      26.842  29.932   4.869  1.00  0.00     0.180 A 
ATOM      2  C   UNL     1      27.888  30.549   4.163  1.00  0.00     0.208 A 
ATOM      3  C   UNL     1      28.446  29.891   3.056  1.00  0.00     0.238 A 
ATOM      4  O   UNL     1      29.346  30.474   2.396  1.00  0.00    -0.285 OA
ATOM      5  C   UNL     1      27.962  28.615   2.678  1.00  0.00     0.111 A 
ATOM      6  C   UNL     1      28.481  27.840   1.598  1.00  0.00     0.134 A 
ATOM      7  C   UNL     1      27.838  26.650   1.232  1.00  0.00     0.093 A 
ATOM      8  C   UNL     1      26.740  26.176   1.946  1.00  0.00     0.123 A 
ATOM      9  C   UNL     1      26.261  26.896   3.042  1.00  0.00     0.094 A 
ATOM     10  C   UNL     1      26.858  28.105   3.409  1.00  0.00     0.146 A 
ATOM     11  O   UNL     1      26.366  28.764   4.450  1.00  0.00    -0.452 OA
ENDROOT
BRANCH   1  12
ATOM     12  C   UNL     1      26.220  30.552   6.062  1.00  0.00     0.021 A 
ATOM     13  C   UNL     1      25.279  31.590   5.940  1.00  0.00     0.016 A 
ATOM     14  C   UNL     1      24.724  32.178   7.082  1.00  0.00     0.047 A 
ATOM     15  C   UNL     1      25.111  31.744   8.357  1.00  0.00     0.115 A 
ATOM     16  C   UNL     1      26.619  30.138   7.343  1.00  0.00     0.016 A 
ATOM     17  C   UNL     1      26.061  30.725   8.483  1.00  0.00     0.047 A 
BRANCH  15  18
ATOM     18  O   UNL     1      24.564  32.319   9.500  1.00  0.00    -0.508 OA
ATOM     19  H   UNL     1      23.990  33.152   9.450  1.00  0.00     0.293 HD
ENDBRANCH  15  18
ENDBRANCH   1  12
BRANCH   2  20
ATOM     20  O   UNL     1      28.337  31.819   4.540  1.00  0.00    -0.502 OA
ATOM     21  H   UNL     1      29.141  31.957   5.141  1.00  0.00     0.293 HD
ENDBRANCH   2  20
BRANCH   6  22
ATOM     22  O   UNL     1      29.629  28.177   0.875  1.00  0.00    -0.507 OA
ATOM     23  H   UNL     1      30.573  28.048   1.205  1.00  0.00     0.293 HD
ENDBRANCH   6  22
BRANCH   8  24
ATOM     24  O   UNL     1      26.135  24.979   1.564  1.00  0.00    -0.508 OA
ATOM     25  H   UNL     1      25.131  24.906   1.448  1.00  0.00     0.293 HD
ENDBRANCH   8  24
TORSDOF 5
ENDMDL
MODEL 2
REMARK VINA RESULT:    24.404      3.724      6.607
REMARK INTER + INTRA:          28.433
REMARK INTER:                  27.956
REMARK INTRA:                   0.477
REMARK UNBOUND:                -0.251
REMARK SMILES O=c1c(O)c(-c2ccc(O)cc2)oc2cc(O)cc(O)c12
REMARK SMILES IDX 5 1 3 2 2 3 1 4 21 5 19 6 18 7 16 8 15 9 14 10 13 11 6 12
REMARK SMILES IDX 7 13 8 14 9 15 12 16 11 17 10 18 4 20 20 22 17 24
REMARK H PARENT 10 19 4 21 20 23 17 25
REMARK Flexibility Score: inf
ROOT
ATOM      1  C   UNL     1      27.990  27.711   2.340  1.00  0.00     0.180 A 
ATOM      2  C   UNL     1      27.291  28.780   1.753  1.00  0.00     0.208 A 
ATOM      3  C   UNL     1      27.698  30.095   2.030  1.00  0.00     0.238 A 
ATOM      4  O   UNL     1      27.103  31.045   1.458  1.00  0.00    -0.285 OA
ATOM      5  C   UNL     1      28.788  30.325   2.905  1.00  0.00     0.111 A 
ATOM      6  C   UNL     1      29.259  31.616   3.288  1.00  0.00     0.134 A 
ATOM      7  C   UNL     1      30.427  31.725   4.055  1.00  0.00     0.093 A 
ATOM      8  C   UNL     1      31.100  30.591   4.506  1.00  0.00     0.123 A 
ATOM      9  C   UNL     1      30.614  29.322   4.187  1.00  0.00     0.094 A 
ATOM     10  C   UNL     1      29.472  29.182   3.393  1.00  0.00     0.146 A 
ATOM     11  O   UNL     1      29.048  27.957   3.103  1.00  0.00    -0.452 OA
ENDROOT
BRANCH   1  12
ATOM     12  C   UNL     1      27.604  26.299   2.115  1.00  0.00     0.021 A 
ATOM     13  C   UNL     1      26.663  25.944   1.132  1.00  0.00     0.016 A 
ATOM     14  C   UNL     1      26.297  24.606   0.954  1.00  0.00     0.047 A 
ATOM     15  C   UNL     1      26.856  23.609   1.764  1.00  0.00     0.115 A 
ATOM     16  C   UNL     1      28.144  25.296   2.937  1.00  0.00     0.016 A 
ATOM     17  C   UNL     1      27.778  23.959   2.757  1.00  0.00     0.047 A 
BRANCH  15  18
ATOM     18  O   UNL     1      26.500  22.273   1.596  1.00  0.00    -0.508 OA
ATOM     19  H   UNL     1      25.540  21.965   1.692  1.00  0.00     0.293 HD
ENDBRANCH  15  18
ENDBRANCH   1  12
BRANCH   2  20
ATOM     20  O   UNL     1      26.232  28.530   0.875  1.00  0.00    -0.502 OA
ATOM     21  H   UNL     1      26.062  29.095   0.051  1.00  0.00     0.293 HD
ENDBRANCH   2  20
BRANCH   6  22
ATOM     22  O   UNL     1      28.610  32.812   2.968  1.00  0.00    -0.507 OA
ATOM     23  H   UNL     1      28.045  32.956   2.145  1.00  0.00     0.293 HD
ENDBRANCH   6  22
BRANCH   8  24
ATOM     24  O   UNL     1      32.250  30.736   5.280  1.00  0.00    -0.508 OA
ATOM     25  H   UNL     1      33.158  30.442   4.941  1.00  0.00     0.293 HD
ENDBRANCH   8  24
TORSDOF 5
ENDMDL
