MODEL 1
REMARK VINA RESULT:    40.049      0.000      0.000
REMARK INTER + INTRA:          44.860
REMARK INTER:                  44.731
REMARK INTRA:                   0.129
REMARK UNBOUND:                 0.129
REMARK SMILES CC1(C)CC[C@@]2(C(=O)[O-])[C@H](O)C[C@]3(C)C(=CC[C@@H]4[C@@]5(C)CC[C@@H](O)C(C)(C)[C@H]5CC[C@@]43C)[C@H]2C1
REMARK SMILES IDX 6 1 5 2 33 3 10 4 4 5 34 6 15 7 12 8 2 9 16 10 13 11 1 12
REMARK SMILES IDX 3 13 17 14 31 15 14 16 18 17 30 18 32 19 19 20 29 21 21 22
REMARK SMILES IDX 20 23 28 24 22 25 25 26 23 27 26 28 27 29 7 30 8 31 9 32
REMARK SMILES IDX 11 33 24 35
REMARK H PARENT 11 34 24 36
REMARK Flexibility Score: inf
ROOT
ATOM      1  C   UNL     1      51.509 -57.251 320.257  1.00  0.00     0.042 C 
ATOM      2  C   UNL     1      52.504 -58.377 320.692  1.00  0.00     0.017 C 
ATOM      3  C   UNL     1      50.217 -57.900 319.654  1.00  0.00     0.030 C 
ATOM      4  C   UNL     1      52.203 -56.281 319.223  1.00  0.00     0.127 C 
ATOM      5  C   UNL     1      52.753 -59.468 319.637  1.00  0.00     0.007 C 
ATOM      6  C   UNL     1      50.502 -59.001 318.602  1.00  0.00     0.015 C 
ATOM      7  C   UNL     1      49.272 -56.858 319.059  1.00  0.00    -0.063 C 
ATOM      8  C   UNL     1      51.318 -55.786 318.041  1.00  0.00     0.044 C 
ATOM      9  C   UNL     1      51.451 -60.112 319.107  1.00  0.00    -0.035 C 
ATOM     10  C   UNL     1      47.952 -57.089 319.138  1.00  0.00    -0.027 C 
ATOM     11  C   UNL     1      49.779 -55.632 318.310  1.00  0.00    -0.003 C 
ATOM     12  C   UNL     1      51.802 -61.040 317.922  1.00  0.00     0.011 C 
ATOM     13  C   UNL     1      50.773 -60.978 320.195  1.00  0.00     0.011 C 
ATOM     14  C   UNL     1      46.914 -56.367 318.332  1.00  0.00     0.032 C 
ATOM     15  C   UNL     1      48.924 -55.444 316.948  1.00  0.00    -0.020 C 
ATOM     16  C   UNL     1      49.606 -54.405 319.259  1.00  0.00     0.017 C 
ATOM     17  C   UNL     1      47.385 -55.270 317.303  1.00  0.00     0.006 C 
ATOM     18  C   UNL     1      49.020 -56.692 316.024  1.00  0.00     0.008 C 
ATOM     19  C   UNL     1      49.496 -54.218 316.169  1.00  0.00     0.012 C 
ATOM     20  C   UNL     1      46.370 -55.181 316.059  1.00  0.00    -0.025 C 
ATOM     21  C   UNL     1      48.143 -56.609 314.768  1.00  0.00     0.005 C 
ATOM     22  C   UNL     1      46.435 -53.762 315.377  1.00  0.00     0.010 C 
ATOM     23  C   UNL     1      44.906 -55.286 316.611  1.00  0.00     0.012 C 
ATOM     24  C   UNL     1      46.623 -56.367 315.026  1.00  0.00     0.003 C 
ATOM     25  C   UNL     1      46.457 -53.787 313.844  1.00  0.00     0.033 C 
ATOM     26  C   UNL     1      45.765 -56.268 313.666  1.00  0.00    -0.006 C 
ATOM     27  C   UNL     1      45.428 -54.773 313.287  1.00  0.00     0.120 C 
ATOM     28  C   UNL     1      44.428 -57.045 313.834  1.00  0.00     0.014 C 
ATOM     29  C   UNL     1      46.483 -56.965 312.470  1.00  0.00     0.014 C 
ENDROOT
BRANCH   1  30
ATOM     30  C   UNL     1      51.159 -56.506 321.549  1.00  0.00     0.051 C 
ATOM     31  O   UNL     1      50.050 -56.665 322.125  1.00  0.00    -0.549 OA
ATOM     32  O   UNL     1      52.086 -55.644 322.125  1.00  0.00    -0.549 OA
ENDBRANCH   1  30
BRANCH   4  33
ATOM     33  O   UNL     1      52.776 -55.169 319.877  1.00  0.00    -0.392 OA
ATOM     34  H   UNL     1      52.749 -54.403 319.247  1.00  0.00     0.210 HD
ENDBRANCH   4  33
BRANCH  27  35
ATOM     35  O   UNL     1      45.356 -54.583 311.896  1.00  0.00    -0.393 OA
ATOM     36  H   UNL     1      44.473 -54.911 311.590  1.00  0.00     0.210 HD
ENDBRANCH  27  35
TORSDOF 3
ENDMDL
