MODEL 1
REMARK VINA RESULT:    -6.250      0.000      0.000
REMARK INTER + INTRA:         -11.292
REMARK INTER:                  -9.539
REMARK INTRA:                  -1.754
REMARK UNBOUND:                -1.754
REMARK SMILES CC(=O)CCC=C(C)CCC=C(C)CCC=C(C)C
REMARK SMILES IDX 10 1 11 2 12 3 13 4 14 5 15 6 16 7 18 8 17 9 19 10 9 11 7 12
REMARK SMILES IDX 6 13 8 14 5 15 4 16 2 17 3 18 1 19
REMARK H PARENT
REMARK Flexibility Score: inf
ROOT
ATOM      1  C   UNL     1      -7.764  34.966  22.593  1.00  0.00     0.032 C 
ENDROOT
BRANCH   1   2
ATOM      2  C   UNL     1      -8.693  33.886  22.095  1.00  0.00    -0.028 C 
ATOM      3  C   UNL     1      -8.477  33.137  20.990  1.00  0.00    -0.077 C 
ATOM      4  C   UNL     1      -7.266  33.341  20.109  1.00  0.00     0.039 C 
BRANCH   3   5
ATOM      5  C   UNL     1      -9.499  32.095  20.582  1.00  0.00     0.034 C 
BRANCH   5   6
ATOM      6  C   UNL     1      -9.396  30.826  21.441  1.00  0.00     0.032 C 
BRANCH   6   7
ATOM      7  C   UNL     1      -8.154  30.814  22.302  1.00  0.00    -0.028 C 
ATOM      8  C   UNL     1      -6.323  29.779  23.575  1.00  0.00     0.039 C 
ATOM      9  C   UNL     1      -7.559  29.677  22.719  1.00  0.00    -0.080 C 
ATOM     10  C   UNL     1      -8.102  28.317  22.348  1.00  0.00     0.039 C 
ENDBRANCH   6   7
ENDBRANCH   5   6
ENDBRANCH   3   5
ENDBRANCH   1   2
BRANCH   1  11
ATOM     11  C   UNL     1      -7.235  34.640  23.995  1.00  0.00     0.034 C 
BRANCH  11  12
ATOM     12  C   UNL     1      -8.323  34.788  25.042  1.00  0.00    -0.077 C 
ATOM     13  C   UNL     1      -8.844  33.743  25.729  1.00  0.00    -0.028 C 
ATOM     14  C   UNL     1      -8.868  36.164  25.333  1.00  0.00     0.039 C 
BRANCH  13  15
ATOM     15  C   UNL     1      -8.424  32.297  25.590  1.00  0.00     0.035 C 
BRANCH  15  16
ATOM     16  C   UNL     1      -9.639  31.376  25.425  1.00  0.00     0.079 C 
BRANCH  16  17
ATOM     17  C   UNL     1      -9.377  29.996  25.970  1.00  0.00     0.130 C 
ATOM     18  O   UNL     1      -9.923  29.031  25.460  1.00  0.00    -0.300 OA
ATOM     19  C   UNL     1      -8.426  29.786  27.111  1.00  0.00     0.087 C 
ENDBRANCH  16  17
ENDBRANCH  15  16
ENDBRANCH  13  15
ENDBRANCH  11  12
ENDBRANCH   1  11
TORSDOF 9
ENDMDL
MODEL 2
REMARK VINA RESULT:    -6.211      1.482      4.708
REMARK INTER + INTRA:         -11.232
REMARK INTER:                  -9.830
REMARK INTRA:                  -1.402
REMARK UNBOUND:                -1.754
REMARK SMILES CC(=O)CCC=C(C)CCC=C(C)CCC=C(C)C
REMARK SMILES IDX 10 1 11 2 12 3 13 4 14 5 15 6 16 7 18 8 17 9 19 10 9 11 7 12
REMARK SMILES IDX 6 13 8 14 5 15 4 16 2 17 3 18 1 19
REMARK H PARENT
REMARK Flexibility Score: inf
ROOT
ATOM      1  C   UNL     1      -7.236  34.590  23.063  1.00  0.00     0.032 C 
ENDROOT
BRANCH   1   2
ATOM      2  C   UNL     1      -7.642  33.903  24.342  1.00  0.00    -0.028 C 
ATOM      3  C   UNL     1      -8.310  34.499  25.356  1.00  0.00    -0.077 C 
ATOM      4  C   UNL     1      -8.692  35.961  25.312  1.00  0.00     0.039 C 
BRANCH   3   5
ATOM      5  C   UNL     1      -8.642  33.703  26.602  1.00  0.00     0.034 C 
BRANCH   5   6
ATOM      6  C   UNL     1      -9.625  32.561  26.305  1.00  0.00     0.032 C 
BRANCH   6   7
ATOM      7  C   UNL     1      -9.948  31.746  27.536  1.00  0.00    -0.028 C 
ATOM      8  C   UNL     1      -9.680  29.889  29.125  1.00  0.00     0.039 C 
ATOM      9  C   UNL     1      -9.275  30.626  27.874  1.00  0.00    -0.080 C 
ATOM     10  C   UNL     1      -8.135  30.104  27.033  1.00  0.00     0.039 C 
ENDBRANCH   6   7
ENDBRANCH   5   6
ENDBRANCH   3   5
ENDBRANCH   1   2
BRANCH   1  11
ATOM     11  C   UNL     1      -8.292  34.396  21.968  1.00  0.00     0.034 C 
BRANCH  11  12
ATOM     12  C   UNL     1      -7.958  33.208  21.086  1.00  0.00    -0.077 C 
ATOM     13  C   UNL     1      -8.431  31.958  21.307  1.00  0.00    -0.028 C 
ATOM     14  C   UNL     1      -7.042  33.416  19.905  1.00  0.00     0.039 C 
BRANCH  13  15
ATOM     15  C   UNL     1      -9.366  31.553  22.425  1.00  0.00     0.035 C 
BRANCH  15  16
ATOM     16  C   UNL     1      -8.661  30.648  23.442  1.00  0.00     0.079 C 
BRANCH  16  17
ATOM     17  C   UNL     1      -7.799  29.611  22.769  1.00  0.00     0.130 C 
ATOM     18  O   UNL     1      -6.587  29.757  22.742  1.00  0.00    -0.300 OA
ATOM     19  C   UNL     1      -8.405  28.382  22.160  1.00  0.00     0.087 C 
ENDBRANCH  16  17
ENDBRANCH  15  16
ENDBRANCH  13  15
ENDBRANCH  11  12
ENDBRANCH   1  11
TORSDOF 9
ENDMDL
MODEL 3
REMARK VINA RESULT:    -5.898      1.356      4.651
REMARK INTER + INTRA:         -10.755
REMARK INTER:                  -9.488
REMARK INTRA:                  -1.267
REMARK UNBOUND:                -1.754
REMARK SMILES CC(=O)CCC=C(C)CCC=C(C)CCC=C(C)C
REMARK SMILES IDX 10 1 11 2 12 3 13 4 14 5 15 6 16 7 18 8 17 9 19 10 9 11 7 12
REMARK SMILES IDX 6 13 8 14 5 15 4 16 2 17 3 18 1 19
REMARK H PARENT
REMARK Flexibility Score: inf
ROOT
ATOM      1  C   UNL     1      -7.613  30.666  21.947  1.00  0.00     0.032 C 
ENDROOT
BRANCH   1   2
ATOM      2  C   UNL     1      -7.480  32.168  21.900  1.00  0.00    -0.028 C 
ATOM      3  C   UNL     1      -8.521  33.031  21.871  1.00  0.00    -0.077 C 
ATOM      4  C   UNL     1      -9.955  32.554  21.851  1.00  0.00     0.039 C 
BRANCH   3   5
ATOM      5  C   UNL     1      -8.254  34.521  21.802  1.00  0.00     0.034 C 
BRANCH   5   6
ATOM      6  C   UNL     1      -7.363  34.996  22.958  1.00  0.00     0.032 C 
BRANCH   6   7
ATOM      7  C   UNL     1      -7.608  34.219  24.231  1.00  0.00    -0.028 C 
ATOM      8  C   UNL     1      -8.548  33.828  26.469  1.00  0.00     0.039 C 
ATOM      9  C   UNL     1      -8.368  34.686  25.244  1.00  0.00    -0.080 C 
ATOM     10  C   UNL     1      -9.036  36.039  25.173  1.00  0.00     0.039 C 
ENDBRANCH   6   7
ENDBRANCH   5   6
ENDBRANCH   3   5
ENDBRANCH   1   2
BRANCH   1  11
ATOM     11  C   UNL     1      -7.831  30.174  23.383  1.00  0.00     0.034 C 
BRANCH  11  12
ATOM     12  C   UNL     1      -8.724  28.948  23.414  1.00  0.00    -0.077 C 
ATOM     13  C   UNL     1      -9.696  28.757  24.338  1.00  0.00    -0.028 C 
ATOM     14  C   UNL     1      -8.521  27.875  22.373  1.00  0.00     0.039 C 
BRANCH  13  15
ATOM     15  C   UNL     1     -10.060  29.717  25.449  1.00  0.00     0.035 C 
BRANCH  15  16
ATOM     16  C   UNL     1      -9.607  29.188  26.815  1.00  0.00     0.079 C 
BRANCH  16  17
ATOM     17  C   UNL     1      -8.871  30.237  27.608  1.00  0.00     0.130 C 
ATOM     18  O   UNL     1      -7.762  30.599  27.249  1.00  0.00    -0.300 OA
ATOM     19  C   UNL     1      -9.497  30.871  28.814  1.00  0.00     0.087 C 
ENDBRANCH  16  17
ENDBRANCH  15  16
ENDBRANCH  13  15
ENDBRANCH  11  12
ENDBRANCH   1  11
TORSDOF 9
ENDMDL
MODEL 4
REMARK VINA RESULT:    -5.877      1.990      4.899
REMARK INTER + INTRA:         -10.723
REMARK INTER:                  -9.045
REMARK INTRA:                  -1.677
REMARK UNBOUND:                -1.754
REMARK SMILES CC(=O)CCC=C(C)CCC=C(C)CCC=C(C)C
REMARK SMILES IDX 10 1 11 2 12 3 13 4 14 5 15 6 16 7 18 8 17 9 19 10 9 11 7 12
REMARK SMILES IDX 6 13 8 14 5 15 4 16 2 17 3 18 1 19
REMARK H PARENT
REMARK Flexibility Score: inf
ROOT
ATOM      1  C   UNL     1      -7.951  31.199  22.835  1.00  0.00     0.032 C 
ENDROOT
BRANCH   1   2
ATOM      2  C   UNL     1      -8.854  30.287  23.628  1.00  0.00    -0.028 C 
ATOM      3  C   UNL     1      -8.996  28.961  23.403  1.00  0.00    -0.077 C 
ATOM      4  C   UNL     1      -8.266  28.257  22.283  1.00  0.00     0.039 C 
BRANCH   3   5
ATOM      5  C   UNL     1      -9.954  28.157  24.259  1.00  0.00     0.034 C 
BRANCH   5   6
ATOM      6  C   UNL     1      -9.447  28.009  25.701  1.00  0.00     0.032 C 
BRANCH   6   7
ATOM      7  C   UNL     1     -10.085  29.006  26.640  1.00  0.00    -0.028 C 
ATOM      8  C   UNL     1     -10.117  30.883  28.227  1.00  0.00     0.039 C 
ATOM      9  C   UNL     1      -9.379  29.937  27.316  1.00  0.00    -0.080 C 
ATOM     10  C   UNL     1      -7.880  30.048  27.177  1.00  0.00     0.039 C 
ENDBRANCH   6   7
ENDBRANCH   5   6
ENDBRANCH   3   5
ENDBRANCH   1   2
BRANCH   1  11
ATOM     11  C   UNL     1      -8.751  32.308  22.142  1.00  0.00     0.034 C 
BRANCH  11  12
ATOM     12  C   UNL     1      -7.837  33.269  21.407  1.00  0.00    -0.077 C 
ATOM     13  C   UNL     1      -7.619  34.544  21.808  1.00  0.00    -0.028 C 
ATOM     14  C   UNL     1      -7.138  32.794  20.157  1.00  0.00     0.039 C 
BRANCH  13  15
ATOM     15  C   UNL     1      -8.213  35.199  23.035  1.00  0.00     0.035 C 
BRANCH  15  16
ATOM     16  C   UNL     1      -7.410  34.855  24.295  1.00  0.00     0.079 C 
BRANCH  16  17
ATOM     17  C   UNL     1      -8.302  34.666  25.495  1.00  0.00     0.130 C 
ATOM     18  O   UNL     1      -8.629  35.634  26.164  1.00  0.00    -0.300 OA
ATOM     19  C   UNL     1      -8.823  33.309  25.862  1.00  0.00     0.087 C 
ENDBRANCH  16  17
ENDBRANCH  15  16
ENDBRANCH  13  15
ENDBRANCH  11  12
ENDBRANCH   1  11
TORSDOF 9
ENDMDL
MODEL 5
REMARK VINA RESULT:    -5.775      1.482      4.741
REMARK INTER + INTRA:         -10.567
REMARK INTER:                  -8.974
REMARK INTRA:                  -1.592
REMARK UNBOUND:                -1.754
REMARK SMILES CC(=O)CCC=C(C)CCC=C(C)CCC=C(C)C
REMARK SMILES IDX 10 1 11 2 12 3 13 4 14 5 15 6 16 7 18 8 17 9 19 10 9 11 7 12
REMARK SMILES IDX 6 13 8 14 5 15 4 16 2 17 3 18 1 19
REMARK H PARENT
REMARK Flexibility Score: inf
ROOT
ATOM      1  C   UNL     1      -8.446  32.305  27.393  1.00  0.00     0.032 C 
ENDROOT
BRANCH   1   2
ATOM      2  C   UNL     1      -8.488  32.998  26.054  1.00  0.00    -0.028 C 
ATOM      3  C   UNL     1      -8.453  34.340  25.882  1.00  0.00    -0.077 C 
ATOM      4  C   UNL     1      -8.399  35.295  27.052  1.00  0.00     0.039 C 
BRANCH   3   5
ATOM      5  C   UNL     1      -8.522  34.915  24.482  1.00  0.00     0.034 C 
BRANCH   5   6
ATOM      6  C   UNL     1      -8.941  33.858  23.450  1.00  0.00     0.032 C 
BRANCH   6   7
ATOM      7  C   UNL     1      -8.029  33.838  22.245  1.00  0.00    -0.028 C 
ATOM      8  C   UNL     1      -7.278  33.116  20.018  1.00  0.00     0.039 C 
ATOM      9  C   UNL     1      -8.251  33.058  21.166  1.00  0.00    -0.080 C 
ATOM     10  C   UNL     1      -9.447  32.138  21.089  1.00  0.00     0.039 C 
ENDBRANCH   6   7
ENDBRANCH   5   6
ENDBRANCH   3   5
ENDBRANCH   1   2
BRANCH   1  11
ATOM     11  C   UNL     1      -8.107  30.818  27.238  1.00  0.00     0.034 C 
BRANCH  11  12
ATOM     12  C   UNL     1      -9.364  29.969  27.189  1.00  0.00    -0.077 C 
ATOM     13  C   UNL     1      -9.963  29.591  26.034  1.00  0.00    -0.028 C 
ATOM     14  C   UNL     1      -9.994  29.529  28.487  1.00  0.00     0.039 C 
BRANCH  13  15
ATOM     15  C   UNL     1      -9.480  29.919  24.639  1.00  0.00     0.035 C 
BRANCH  15  16
ATOM     16  C   UNL     1      -8.948  28.670  23.925  1.00  0.00     0.079 C 
BRANCH  16  17
ATOM     17  C   UNL     1      -8.168  29.022  22.685  1.00  0.00     0.130 C 
ATOM     18  O   UNL     1      -8.545  28.614  21.597  1.00  0.00    -0.300 OA
ATOM     19  C   UNL     1      -6.951  29.894  22.761  1.00  0.00     0.087 C 
ENDBRANCH  16  17
ENDBRANCH  15  16
ENDBRANCH  13  15
ENDBRANCH  11  12
ENDBRANCH   1  11
TORSDOF 9
ENDMDL
MODEL 6
REMARK VINA RESULT:    -5.708      1.701      4.512
REMARK INTER + INTRA:         -10.465
REMARK INTER:                  -9.081
REMARK INTRA:                  -1.385
REMARK UNBOUND:                -1.754
REMARK SMILES CC(=O)CCC=C(C)CCC=C(C)CCC=C(C)C
REMARK SMILES IDX 10 1 11 2 12 3 13 4 14 5 15 6 16 7 18 8 17 9 19 10 9 11 7 12
REMARK SMILES IDX 6 13 8 14 5 15 4 16 2 17 3 18 1 19
REMARK H PARENT
REMARK Flexibility Score: inf
ROOT
ATOM      1  C   UNL     1      -9.372  33.023  26.851  1.00  0.00     0.032 C 
ENDROOT
BRANCH   1   2
ATOM      2  C   UNL     1      -9.466  31.617  26.314  1.00  0.00    -0.028 C 
ATOM      3  C   UNL     1      -9.612  30.511  27.079  1.00  0.00    -0.077 C 
ATOM      4  C   UNL     1      -9.663  30.582  28.588  1.00  0.00     0.039 C 
BRANCH   3   5
ATOM      5  C   UNL     1      -9.672  29.148  26.418  1.00  0.00     0.034 C 
BRANCH   5   6
ATOM      6  C   UNL     1      -9.798  29.259  24.891  1.00  0.00     0.032 C 
BRANCH   6   7
ATOM      7  C   UNL     1      -8.526  29.756  24.244  1.00  0.00    -0.028 C 
ATOM      8  C   UNL     1      -6.764  29.819  22.531  1.00  0.00     0.039 C 
ATOM      9  C   UNL     1      -8.041  29.249  23.091  1.00  0.00    -0.080 C 
ATOM     10  C   UNL     1      -8.747  28.134  22.358  1.00  0.00     0.039 C 
ENDBRANCH   6   7
ENDBRANCH   5   6
ENDBRANCH   3   5
ENDBRANCH   1   2
BRANCH   1  11
ATOM     11  C   UNL     1      -8.067  33.699  26.414  1.00  0.00     0.034 C 
BRANCH  11  12
ATOM     12  C   UNL     1      -8.330  34.805  25.410  1.00  0.00    -0.077 C 
ATOM     13  C   UNL     1      -8.278  34.623  24.069  1.00  0.00    -0.028 C 
ATOM     14  C   UNL     1      -8.655  36.187  25.921  1.00  0.00     0.039 C 
BRANCH  13  15
ATOM     15  C   UNL     1      -7.984  33.316  23.366  1.00  0.00     0.035 C 
BRANCH  15  16
ATOM     16  C   UNL     1      -9.217  32.794  22.619  1.00  0.00     0.079 C 
BRANCH  16  17
ATOM     17  C   UNL     1      -8.903  32.451  21.186  1.00  0.00     0.130 C 
ATOM     18  O   UNL     1      -9.578  31.618  20.602  1.00  0.00    -0.300 OA
ATOM     19  C   UNL     1      -7.793  33.143  20.453  1.00  0.00     0.087 C 
ENDBRANCH  16  17
ENDBRANCH  15  16
ENDBRANCH  13  15
ENDBRANCH  11  12
ENDBRANCH   1  11
TORSDOF 9
ENDMDL
MODEL 7
REMARK VINA RESULT:    -5.632      1.900      4.697
REMARK INTER + INTRA:         -10.349
REMARK INTER:                  -8.729
REMARK INTRA:                  -1.621
REMARK UNBOUND:                -1.754
REMARK SMILES CC(=O)CCC=C(C)CCC=C(C)CCC=C(C)C
REMARK SMILES IDX 10 1 11 2 12 3 13 4 14 5 15 6 16 7 18 8 17 9 19 10 9 11 7 12
REMARK SMILES IDX 6 13 8 14 5 15 4 16 2 17 3 18 1 19
REMARK H PARENT
REMARK Flexibility Score: inf
ROOT
ATOM      1  C   UNL     1      -8.837  29.441  25.403  1.00  0.00     0.032 C 
ENDROOT
BRANCH   1   2
ATOM      2  C   UNL     1      -9.139  29.820  23.975  1.00  0.00    -0.028 C 
ATOM      3  C   UNL     1      -8.227  30.295  23.096  1.00  0.00    -0.077 C 
ATOM      4  C   UNL     1      -6.785  30.526  23.487  1.00  0.00     0.039 C 
BRANCH   3   5
ATOM      5  C   UNL     1      -8.662  30.660  21.692  1.00  0.00     0.034 C 
BRANCH   5   6
ATOM      6  C   UNL     1      -9.646  31.839  21.687  1.00  0.00     0.032 C 
BRANCH   6   7
ATOM      7  C   UNL     1      -9.008  33.123  22.166  1.00  0.00    -0.028 C 
ATOM      8  C   UNL     1      -7.472  35.038  22.048  1.00  0.00     0.039 C 
ATOM      9  C   UNL     1      -8.038  33.763  21.480  1.00  0.00    -0.080 C 
ATOM     10  C   UNL     1      -7.517  33.232  20.166  1.00  0.00     0.039 C 
ENDBRANCH   6   7
ENDBRANCH   5   6
ENDBRANCH   3   5
ENDBRANCH   1   2
BRANCH   1  11
ATOM     11  C   UNL     1     -10.083  29.570  26.287  1.00  0.00     0.034 C 
BRANCH  11  12
ATOM     12  C   UNL     1      -9.849  30.542  27.428  1.00  0.00    -0.077 C 
ATOM     13  C   UNL     1      -9.725  31.879  27.255  1.00  0.00    -0.028 C 
ATOM     14  C   UNL     1      -9.736  30.000  28.832  1.00  0.00     0.039 C 
BRANCH  13  15
ATOM     15  C   UNL     1      -9.821  32.612  25.935  1.00  0.00     0.035 C 
BRANCH  15  16
ATOM     16  C   UNL     1      -8.496  33.297  25.579  1.00  0.00     0.079 C 
BRANCH  16  17
ATOM     17  C   UNL     1      -8.491  34.750  25.976  1.00  0.00     0.130 C 
ATOM     18  O   UNL     1      -7.934  35.093  27.007  1.00  0.00    -0.300 OA
ATOM     19  C   UNL     1      -9.132  35.789  25.105  1.00  0.00     0.087 C 
ENDBRANCH  16  17
ENDBRANCH  15  16
ENDBRANCH  13  15
ENDBRANCH  11  12
ENDBRANCH   1  11
TORSDOF 9
ENDMDL
MODEL 8
REMARK VINA RESULT:    -5.600      2.072      6.190
REMARK INTER + INTRA:         -10.300
REMARK INTER:                  -9.196
REMARK INTRA:                  -1.105
REMARK UNBOUND:                -1.754
REMARK SMILES CC(=O)CCC=C(C)CCC=C(C)CCC=C(C)C
REMARK SMILES IDX 10 1 11 2 12 3 13 4 14 5 15 6 16 7 18 8 17 9 19 10 9 11 7 12
REMARK SMILES IDX 6 13 8 14 5 15 4 16 2 17 3 18 1 19
REMARK H PARENT
REMARK Flexibility Score: inf
ROOT
ATOM      1  C   UNL     1      -9.281  28.423  23.879  1.00  0.00     0.032 C 
ENDROOT
BRANCH   1   2
ATOM      2  C   UNL     1      -9.426  29.609  24.800  1.00  0.00    -0.028 C 
ATOM      3  C   UNL     1      -9.693  29.525  26.124  1.00  0.00    -0.077 C 
ATOM      4  C   UNL     1      -9.908  28.197  26.814  1.00  0.00     0.039 C 
BRANCH   3   5
ATOM      5  C   UNL     1      -9.837  30.794  26.939  1.00  0.00     0.034 C 
BRANCH   5   6
ATOM      6  C   UNL     1      -8.473  31.412  27.280  1.00  0.00     0.032 C 
BRANCH   6   7
ATOM      7  C   UNL     1      -8.522  32.921  27.334  1.00  0.00    -0.028 C 
ATOM      8  C   UNL     1      -8.497  35.197  26.404  1.00  0.00     0.039 C 
ATOM      9  C   UNL     1      -8.436  33.700  26.236  1.00  0.00    -0.080 C 
ATOM     10  C   UNL     1      -8.284  33.108  24.855  1.00  0.00     0.039 C 
ENDBRANCH   6   7
ENDBRANCH   5   6
ENDBRANCH   3   5
ENDBRANCH   1   2
BRANCH   1  11
ATOM     11  C   UNL     1      -8.717  28.844  22.517  1.00  0.00     0.034 C 
BRANCH  11  12
ATOM     12  C   UNL     1      -7.725  29.983  22.661  1.00  0.00    -0.077 C 
ATOM     13  C   UNL     1      -7.925  31.216  22.137  1.00  0.00    -0.028 C 
ATOM     14  C   UNL     1      -6.442  29.737  23.414  1.00  0.00     0.039 C 
BRANCH  13  15
ATOM     15  C   UNL     1      -9.147  31.661  21.364  1.00  0.00     0.035 C 
BRANCH  15  16
ATOM     16  C   UNL     1      -9.319  33.184  21.420  1.00  0.00     0.079 C 
BRANCH  16  17
ATOM     17  C   UNL     1      -8.037  33.906  21.094  1.00  0.00     0.130 C 
ATOM     18  O   UNL     1      -7.419  33.614  20.082  1.00  0.00    -0.300 OA
ATOM     19  C   UNL     1      -7.525  35.003  21.978  1.00  0.00     0.087 C 
ENDBRANCH  16  17
ENDBRANCH  15  16
ENDBRANCH  13  15
ENDBRANCH  11  12
ENDBRANCH   1  11
TORSDOF 9
ENDMDL
MODEL 9
REMARK VINA RESULT:    -5.001     17.068     18.710
REMARK INTER + INTRA:          -9.386
REMARK INTER:                  -8.567
REMARK INTRA:                  -0.820
REMARK UNBOUND:                -1.754
REMARK SMILES CC(=O)CCC=C(C)CCC=C(C)CCC=C(C)C
REMARK SMILES IDX 10 1 11 2 12 3 13 4 14 5 15 6 16 7 18 8 17 9 19 10 9 11 7 12
REMARK SMILES IDX 6 13 8 14 5 15 4 16 2 17 3 18 1 19
REMARK H PARENT
REMARK Flexibility Score: inf
ROOT
ATOM      1  C   UNL     1      -1.710  47.766  16.440  1.00  0.00     0.032 C 
ENDROOT
BRANCH   1   2
ATOM      2  C   UNL     1      -1.126  47.658  15.054  1.00  0.00    -0.028 C 
ATOM      3  C   UNL     1      -1.853  47.482  13.926  1.00  0.00    -0.077 C 
ATOM      4  C   UNL     1      -3.357  47.340  13.957  1.00  0.00     0.039 C 
BRANCH   3   5
ATOM      5  C   UNL     1      -1.144  47.367  12.592  1.00  0.00     0.034 C 
BRANCH   5   6
ATOM      6  C   UNL     1      -2.085  47.668  11.417  1.00  0.00     0.032 C 
BRANCH   6   7
ATOM      7  C   UNL     1      -2.157  46.526  10.430  1.00  0.00    -0.028 C 
ATOM      8  C   UNL     1      -3.279  44.845   9.030  1.00  0.00     0.039 C 
ATOM      9  C   UNL     1      -3.322  45.981  10.019  1.00  0.00    -0.080 C 
ATOM     10  C   UNL     1      -4.653  46.484  10.525  1.00  0.00     0.039 C 
ENDBRANCH   6   7
ENDBRANCH   5   6
ENDBRANCH   3   5
ENDBRANCH   1   2
BRANCH   1  11
ATOM     11  C   UNL     1      -0.607  47.893  17.498  1.00  0.00     0.034 C 
BRANCH  11  12
ATOM     12  C   UNL     1      -1.173  47.764  18.900  1.00  0.00    -0.077 C 
ATOM     13  C   UNL     1      -0.449  47.330  19.959  1.00  0.00    -0.028 C 
ATOM     14  C   UNL     1      -2.619  48.124  19.136  1.00  0.00     0.039 C 
BRANCH  13  15
ATOM     15  C   UNL     1       1.011  46.936  19.929  1.00  0.00     0.035 C 
BRANCH  15  16
ATOM     16  C   UNL     1       1.184  45.421  20.096  1.00  0.00     0.079 C 
BRANCH  16  17
ATOM     17  C   UNL     1       2.621  45.043  20.344  1.00  0.00     0.130 C 
ATOM     18  O   UNL     1       3.420  45.898  20.691  1.00  0.00    -0.300 OA
ATOM     19  C   UNL     1       3.080  43.622  20.203  1.00  0.00     0.087 C 
ENDBRANCH  16  17
ENDBRANCH  15  16
ENDBRANCH  13  15
ENDBRANCH  11  12
ENDBRANCH   1  11
TORSDOF 9
ENDMDL
