MODEL 1
REMARK VINA RESULT:    -4.720      0.000      0.000
REMARK INTER + INTRA:         -10.136
REMARK INTER:                  -8.308
REMARK INTRA:                  -1.828
REMARK UNBOUND:                -1.828
REMARK SMILES CCCCCCCCCCCCCCC(=O)[O-]
REMARK SMILES IDX 9 1 10 2 11 3 12 4 13 5 14 6 15 7 16 8 17 9 8 10 7 11 6 12
REMARK SMILES IDX 5 13 4 14 3 15 2 16 1 17
REMARK H PARENT
REMARK Flexibility Score: inf
ROOT
ATOM      1  C   UNL     1      64.009  30.762  11.374  1.00  0.00     0.000 C 
ENDROOT
BRANCH   1   2
ATOM      2  C   UNL     1      64.364  32.209  11.755  1.00  0.00     0.000 C 
BRANCH   2   3
ATOM      3  C   UNL     1      63.456  32.765  12.865  1.00  0.00     0.000 C 
BRANCH   3   4
ATOM      4  C   UNL     1      61.965  32.457  12.631  1.00  0.00     0.000 C 
BRANCH   4   5
ATOM      5  C   UNL     1      60.998  33.108  13.638  1.00  0.00     0.006 C 
BRANCH   5   6
ATOM      6  C   UNL     1      60.347  32.093  14.585  1.00  0.00     0.053 C 
BRANCH   6   7
ATOM      7  C   UNL     1      61.252  31.801  15.740  1.00  0.00     0.041 C 
ATOM      8  O   UNL     1      61.514  30.611  16.057  1.00  0.00    -0.550 OA
ATOM      9  O   UNL     1      61.767  32.845  16.499  1.00  0.00    -0.550 OA
ENDBRANCH   6   7
ENDBRANCH   5   6
ENDBRANCH   4   5
ENDBRANCH   3   4
ENDBRANCH   2   3
ENDBRANCH   1   2
BRANCH   1  10
ATOM     10  C   UNL     1      64.485  30.386   9.962  1.00  0.00     0.000 C 
BRANCH  10  11
ATOM     11  C   UNL     1      63.765  29.130   9.456  1.00  0.00    -0.000 C 
BRANCH  11  12
ATOM     12  C   UNL     1      62.348  29.466   8.971  1.00  0.00    -0.000 C 
BRANCH  12  13
ATOM     13  C   UNL     1      61.346  28.330   9.238  1.00  0.00    -0.000 C 
BRANCH  13  14
ATOM     14  C   UNL     1      60.027  28.837   9.847  1.00  0.00    -0.000 C 
BRANCH  14  15
ATOM     15  C   UNL     1      60.250  29.737  11.073  1.00  0.00    -0.000 C 
BRANCH  15  16
ATOM     16  C   UNL     1      60.108  28.974  12.398  1.00  0.00    -0.003 C 
ATOM     17  C   UNL     1      61.463  28.795  13.077  1.00  0.00     0.004 C 
ENDBRANCH  15  16
ENDBRANCH  14  15
ENDBRANCH  13  14
ENDBRANCH  12  13
ENDBRANCH  11  12
ENDBRANCH  10  11
ENDBRANCH   1  10
TORSDOF 13
ENDMDL
MODEL 2
REMARK VINA RESULT:    -4.686      2.979      5.570
REMARK INTER + INTRA:         -10.075
REMARK INTER:                  -8.033
REMARK INTRA:                  -2.042
REMARK UNBOUND:                -1.828
REMARK SMILES CCCCCCCCCCCCCCC(=O)[O-]
REMARK SMILES IDX 9 1 10 2 11 3 12 4 13 5 14 6 15 7 16 8 17 9 8 10 7 11 6 12
REMARK SMILES IDX 5 13 4 14 3 15 2 16 1 17
REMARK H PARENT
REMARK Flexibility Score: inf
ROOT
ATOM      1  C   UNL     1      60.776  28.640  10.831  1.00  0.00     0.000 C 
ENDROOT
BRANCH   1   2
ATOM      2  C   UNL     1      60.615  29.823   9.860  1.00  0.00     0.000 C 
BRANCH   2   3
ATOM      3  C   UNL     1      61.872  30.061   9.008  1.00  0.00     0.000 C 
BRANCH   3   4
ATOM      4  C   UNL     1      63.031  29.112   9.370  1.00  0.00     0.000 C 
BRANCH   4   5
ATOM      5  C   UNL     1      64.439  29.721   9.236  1.00  0.00     0.006 C 
BRANCH   5   6
ATOM      6  C   UNL     1      64.486  31.208   9.604  1.00  0.00     0.053 C 
BRANCH   6   7
ATOM      7  C   UNL     1      65.904  31.673   9.718  1.00  0.00     0.041 C 
ATOM      8  O   UNL     1      66.840  30.973   9.251  1.00  0.00    -0.550 OA
ATOM      9  O   UNL     1      66.195  32.857  10.383  1.00  0.00    -0.550 OA
ENDBRANCH   6   7
ENDBRANCH   5   6
ENDBRANCH   4   5
ENDBRANCH   3   4
ENDBRANCH   2   3
ENDBRANCH   1   2
BRANCH   1  10
ATOM     10  C   UNL     1      59.987  28.831  12.135  1.00  0.00     0.000 C 
BRANCH  10  11
ATOM     11  C   UNL     1      60.886  28.611  13.358  1.00  0.00    -0.000 C 
BRANCH  11  12
ATOM     12  C   UNL     1      62.307  29.131  13.097  1.00  0.00    -0.000 C 
BRANCH  12  13
ATOM     13  C   UNL     1      62.541  30.533  13.684  1.00  0.00    -0.000 C 
BRANCH  13  14
ATOM     14  C   UNL     1      62.458  31.641  12.619  1.00  0.00    -0.000 C 
BRANCH  14  15
ATOM     15  C   UNL     1      61.094  32.347  12.608  1.00  0.00    -0.000 C 
BRANCH  15  16
ATOM     16  C   UNL     1      60.429  32.369  13.992  1.00  0.00    -0.003 C 
ATOM     17  C   UNL     1      60.880  33.584  14.799  1.00  0.00     0.004 C 
ENDBRANCH  15  16
ENDBRANCH  14  15
ENDBRANCH  13  14
ENDBRANCH  12  13
ENDBRANCH  11  12
ENDBRANCH  10  11
ENDBRANCH   1  10
TORSDOF 13
ENDMDL
MODEL 3
REMARK VINA RESULT:    -4.611      1.853      3.666
REMARK INTER + INTRA:          -9.943
REMARK INTER:                  -8.400
REMARK INTRA:                  -1.543
REMARK UNBOUND:                -1.828
REMARK SMILES CCCCCCCCCCCCCCC(=O)[O-]
REMARK SMILES IDX 9 1 10 2 11 3 12 4 13 5 14 6 15 7 16 8 17 9 8 10 7 11 6 12
REMARK SMILES IDX 5 13 4 14 3 15 2 16 1 17
REMARK H PARENT
REMARK Flexibility Score: inf
ROOT
ATOM      1  C   UNL     1      61.141  30.738  14.234  1.00  0.00     0.000 C 
ENDROOT
BRANCH   1   2
ATOM      2  C   UNL     1      60.333  31.944  13.726  1.00  0.00     0.000 C 
BRANCH   2   3
ATOM      3  C   UNL     1      61.098  33.270  13.874  1.00  0.00     0.000 C 
BRANCH   3   4
ATOM      4  C   UNL     1      62.565  33.072  14.298  1.00  0.00     0.000 C 
BRANCH   4   5
ATOM      5  C   UNL     1      62.991  33.846  15.559  1.00  0.00     0.006 C 
BRANCH   5   6
ATOM      6  C   UNL     1      61.943  33.793  16.676  1.00  0.00     0.053 C 
BRANCH   6   7
ATOM      7  C   UNL     1      62.421  34.548  17.877  1.00  0.00     0.041 C 
ATOM      8  O   UNL     1      63.516  35.168  17.841  1.00  0.00    -0.550 OA
ATOM      9  O   UNL     1      61.680  34.525  19.051  1.00  0.00    -0.550 OA
ENDBRANCH   6   7
ENDBRANCH   5   6
ENDBRANCH   4   5
ENDBRANCH   3   4
ENDBRANCH   2   3
ENDBRANCH   1   2
BRANCH   1  10
ATOM     10  C   UNL     1      61.116  29.552  13.257  1.00  0.00     0.000 C 
BRANCH  10  11
ATOM     11  C   UNL     1      62.468  28.829  13.237  1.00  0.00    -0.000 C 
BRANCH  11  12
ATOM     12  C   UNL     1      63.586  29.765  12.757  1.00  0.00    -0.000 C 
BRANCH  12  13
ATOM     13  C   UNL     1      63.307  30.354  11.364  1.00  0.00    -0.000 C 
BRANCH  13  14
ATOM     14  C   UNL     1      63.600  29.356  10.230  1.00  0.00    -0.000 C 
BRANCH  14  15
ATOM     15  C   UNL     1      62.483  29.318   9.175  1.00  0.00    -0.000 C 
BRANCH  15  16
ATOM     16  C   UNL     1      61.368  28.324   9.531  1.00  0.00    -0.003 C 
ATOM     17  C   UNL     1      60.041  29.043   9.752  1.00  0.00     0.004 C 
ENDBRANCH  15  16
ENDBRANCH  14  15
ENDBRANCH  13  14
ENDBRANCH  12  13
ENDBRANCH  11  12
ENDBRANCH  10  11
ENDBRANCH   1  10
TORSDOF 13
ENDMDL
MODEL 4
REMARK VINA RESULT:    -4.576     12.315     14.203
REMARK INTER + INTRA:          -9.882
REMARK INTER:                  -7.834
REMARK INTRA:                  -2.048
REMARK UNBOUND:                -1.828
REMARK SMILES CCCCCCCCCCCCCCC(=O)[O-]
REMARK SMILES IDX 9 1 10 2 11 3 12 4 13 5 14 6 15 7 16 8 17 9 8 10 7 11 6 12
REMARK SMILES IDX 5 13 4 14 3 15 2 16 1 17
REMARK H PARENT
REMARK Flexibility Score: inf
ROOT
ATOM      1  C   UNL     1      64.740  29.553  26.423  1.00  0.00     0.000 C 
ENDROOT
BRANCH   1   2
ATOM      2  C   UNL     1      66.247  29.368  26.183  1.00  0.00     0.000 C 
BRANCH   2   3
ATOM      3  C   UNL     1      66.672  29.778  24.763  1.00  0.00     0.000 C 
BRANCH   3   4
ATOM      4  C   UNL     1      66.994  28.570  23.862  1.00  0.00     0.000 C 
BRANCH   4   5
ATOM      5  C   UNL     1      65.794  27.994  23.088  1.00  0.00     0.006 C 
BRANCH   5   6
ATOM      6  C   UNL     1      65.733  26.463  23.131  1.00  0.00     0.053 C 
BRANCH   6   7
ATOM      7  C   UNL     1      64.846  26.007  24.246  1.00  0.00     0.041 C 
ATOM      8  O   UNL     1      65.222  26.118  25.442  1.00  0.00    -0.550 OA
ATOM      9  O   UNL     1      63.622  25.414  23.962  1.00  0.00    -0.550 OA
ENDBRANCH   6   7
ENDBRANCH   5   6
ENDBRANCH   4   5
ENDBRANCH   3   4
ENDBRANCH   2   3
ENDBRANCH   1   2
BRANCH   1  10
ATOM     10  C   UNL     1      64.089  30.508  25.410  1.00  0.00     0.000 C 
BRANCH  10  11
ATOM     11  C   UNL     1      62.639  30.101  25.125  1.00  0.00    -0.000 C 
BRANCH  11  12
ATOM     12  C   UNL     1      62.536  28.597  24.832  1.00  0.00    -0.000 C 
BRANCH  12  13
ATOM     13  C   UNL     1      61.100  28.066  24.963  1.00  0.00    -0.000 C 
BRANCH  13  14
ATOM     14  C   UNL     1      60.894  27.222  26.234  1.00  0.00    -0.000 C 
BRANCH  14  15
ATOM     15  C   UNL     1      62.206  26.975  26.996  1.00  0.00    -0.000 C 
BRANCH  15  16
ATOM     16  C   UNL     1      62.140  27.454  28.453  1.00  0.00    -0.003 C 
ATOM     17  C   UNL     1      61.615  28.884  28.539  1.00  0.00     0.004 C 
ENDBRANCH  15  16
ENDBRANCH  14  15
ENDBRANCH  13  14
ENDBRANCH  12  13
ENDBRANCH  11  12
ENDBRANCH  10  11
ENDBRANCH   1  10
TORSDOF 13
ENDMDL
MODEL 5
REMARK VINA RESULT:    -4.566     12.161     13.828
REMARK INTER + INTRA:          -9.864
REMARK INTER:                  -7.895
REMARK INTRA:                  -1.969
REMARK UNBOUND:                -1.828
REMARK SMILES CCCCCCCCCCCCCCC(=O)[O-]
REMARK SMILES IDX 9 1 10 2 11 3 12 4 13 5 14 6 15 7 16 8 17 9 8 10 7 11 6 12
REMARK SMILES IDX 5 13 4 14 3 15 2 16 1 17
REMARK H PARENT
REMARK Flexibility Score: inf
ROOT
ATOM      1  C   UNL     1      64.956  29.106  26.288  1.00  0.00     0.000 C 
ENDROOT
BRANCH   1   2
ATOM      2  C   UNL     1      63.863  30.185  26.352  1.00  0.00     0.000 C 
BRANCH   2   3
ATOM      3  C   UNL     1      62.906  30.125  25.150  1.00  0.00     0.000 C 
BRANCH   3   4
ATOM      4  C   UNL     1      62.391  28.702  24.863  1.00  0.00     0.000 C 
BRANCH   4   5
ATOM      5  C   UNL     1      61.168  28.270  25.693  1.00  0.00     0.006 C 
BRANCH   5   6
ATOM      6  C   UNL     1      61.478  27.126  26.665  1.00  0.00     0.053 C 
BRANCH   6   7
ATOM      7  C   UNL     1      61.658  27.654  28.053  1.00  0.00     0.041 C 
ATOM      8  O   UNL     1      62.197  26.940  28.939  1.00  0.00    -0.550 OA
ATOM      9  O   UNL     1      61.185  28.918  28.381  1.00  0.00    -0.550 OA
ENDBRANCH   6   7
ENDBRANCH   5   6
ENDBRANCH   4   5
ENDBRANCH   3   4
ENDBRANCH   2   3
ENDBRANCH   1   2
BRANCH   1  10
ATOM     10  C   UNL     1      66.354  29.691  26.031  1.00  0.00     0.000 C 
BRANCH  10  11
ATOM     11  C   UNL     1      66.953  29.132  24.735  1.00  0.00    -0.000 C 
BRANCH  11  12
ATOM     12  C   UNL     1      66.137  29.579  23.514  1.00  0.00    -0.000 C 
BRANCH  12  13
ATOM     13  C   UNL     1      65.476  28.400  22.781  1.00  0.00    -0.000 C 
BRANCH  13  14
ATOM     14  C   UNL     1      66.467  27.265  22.471  1.00  0.00    -0.000 C 
BRANCH  14  15
ATOM     15  C   UNL     1      65.998  25.906  23.016  1.00  0.00    -0.000 C 
BRANCH  15  16
ATOM     16  C   UNL     1      65.175  26.041  24.306  1.00  0.00    -0.003 C 
ATOM     17  C   UNL     1      63.737  25.577  24.091  1.00  0.00     0.004 C 
ENDBRANCH  15  16
ENDBRANCH  14  15
ENDBRANCH  13  14
ENDBRANCH  12  13
ENDBRANCH  11  12
ENDBRANCH  10  11
ENDBRANCH   1  10
TORSDOF 13
ENDMDL
MODEL 6
REMARK VINA RESULT:    -4.546     12.633     15.365
REMARK INTER + INTRA:          -9.829
REMARK INTER:                  -7.908
REMARK INTRA:                  -1.921
REMARK UNBOUND:                -1.828
REMARK SMILES CCCCCCCCCCCCCCC(=O)[O-]
REMARK SMILES IDX 9 1 10 2 11 3 12 4 13 5 14 6 15 7 16 8 17 9 8 10 7 11 6 12
REMARK SMILES IDX 5 13 4 14 3 15 2 16 1 17
REMARK H PARENT
REMARK Flexibility Score: inf
ROOT
ATOM      1  C   UNL     1      61.599  27.490  25.428  1.00  0.00     0.000 C 
ENDROOT
BRANCH   1   2
ATOM      2  C   UNL     1      61.735  28.960  24.997  1.00  0.00     0.000 C 
BRANCH   2   3
ATOM      3  C   UNL     1      63.178  29.478  25.116  1.00  0.00     0.000 C 
BRANCH   3   4
ATOM      4  C   UNL     1      64.124  28.862  24.068  1.00  0.00     0.000 C 
BRANCH   4   5
ATOM      5  C   UNL     1      65.448  28.309  24.628  1.00  0.00     0.006 C 
BRANCH   5   6
ATOM      6  C   UNL     1      65.342  26.848  25.081  1.00  0.00     0.053 C 
BRANCH   6   7
ATOM      7  C   UNL     1      64.981  25.968  23.926  1.00  0.00     0.041 C 
ATOM      8  O   UNL     1      63.847  25.424  23.873  1.00  0.00    -0.550 OA
ATOM      9  O   UNL     1      65.915  25.711  22.931  1.00  0.00    -0.550 OA
ENDBRANCH   6   7
ENDBRANCH   5   6
ENDBRANCH   4   5
ENDBRANCH   3   4
ENDBRANCH   2   3
ENDBRANCH   1   2
BRANCH   1  10
ATOM     10  C   UNL     1      62.163  27.228  26.833  1.00  0.00     0.000 C 
BRANCH  10  11
ATOM     11  C   UNL     1      61.075  27.394  27.901  1.00  0.00    -0.000 C 
BRANCH  11  12
ATOM     12  C   UNL     1      61.310  28.663  28.733  1.00  0.00    -0.000 C 
BRANCH  12  13
ATOM     13  C   UNL     1      62.799  29.035  28.838  1.00  0.00    -0.000 C 
BRANCH  13  14
ATOM     14  C   UNL     1      63.041  30.548  28.703  1.00  0.00    -0.000 C 
BRANCH  14  15
ATOM     15  C   UNL     1      64.527  30.920  28.827  1.00  0.00    -0.000 C 
BRANCH  15  16
ATOM     16  C   UNL     1      65.410  30.168  27.821  1.00  0.00    -0.003 C 
ATOM     17  C   UNL     1      66.873  30.581  27.956  1.00  0.00     0.004 C 
ENDBRANCH  15  16
ENDBRANCH  14  15
ENDBRANCH  13  14
ENDBRANCH  12  13
ENDBRANCH  11  12
ENDBRANCH  10  11
ENDBRANCH   1  10
TORSDOF 13
ENDMDL
MODEL 7
REMARK VINA RESULT:    -4.523      1.407      3.139
REMARK INTER + INTRA:          -9.789
REMARK INTER:                  -8.087
REMARK INTRA:                  -1.702
REMARK UNBOUND:                -1.828
REMARK SMILES CCCCCCCCCCCCCCC(=O)[O-]
REMARK SMILES IDX 9 1 10 2 11 3 12 4 13 5 14 6 15 7 16 8 17 9 8 10 7 11 6 12
REMARK SMILES IDX 5 13 4 14 3 15 2 16 1 17
REMARK H PARENT
REMARK Flexibility Score: inf
ROOT
ATOM      1  C   UNL     1      62.170  29.054  12.845  1.00  0.00     0.000 C 
ENDROOT
BRANCH   1   2
ATOM      2  C   UNL     1      62.744  30.251  13.621  1.00  0.00     0.000 C 
BRANCH   2   3
ATOM      3  C   UNL     1      62.662  31.564  12.825  1.00  0.00     0.000 C 
BRANCH   3   4
ATOM      4  C   UNL     1      61.236  32.147  12.774  1.00  0.00     0.000 C 
BRANCH   4   5
ATOM      5  C   UNL     1      61.005  33.385  13.661  1.00  0.00     0.006 C 
BRANCH   5   6
ATOM      6  C   UNL     1      60.920  33.044  15.154  1.00  0.00     0.053 C 
BRANCH   6   7
ATOM      7  C   UNL     1      61.878  33.886  15.937  1.00  0.00     0.041 C 
ATOM      8  O   UNL     1      61.479  34.534  16.940  1.00  0.00    -0.550 OA
ATOM      9  O   UNL     1      63.201  33.995  15.529  1.00  0.00    -0.550 OA
ENDBRANCH   6   7
ENDBRANCH   5   6
ENDBRANCH   4   5
ENDBRANCH   3   4
ENDBRANCH   2   3
ENDBRANCH   1   2
BRANCH   1  10
ATOM     10  C   UNL     1      60.776  28.638  13.339  1.00  0.00     0.000 C 
BRANCH  10  11
ATOM     11  C   UNL     1      59.785  28.543  12.173  1.00  0.00    -0.000 C 
BRANCH  11  12
ATOM     12  C   UNL     1      60.273  29.360  10.968  1.00  0.00    -0.000 C 
BRANCH  12  13
ATOM     13  C   UNL     1      60.243  28.557   9.657  1.00  0.00    -0.000 C 
BRANCH  13  14
ATOM     14  C   UNL     1      61.577  28.621   8.893  1.00  0.00    -0.000 C 
BRANCH  14  15
ATOM     15  C   UNL     1      62.441  29.821   9.315  1.00  0.00    -0.000 C 
BRANCH  15  16
ATOM     16  C   UNL     1      63.866  29.410   9.712  1.00  0.00    -0.003 C 
ATOM     17  C   UNL     1      64.785  30.626   9.799  1.00  0.00     0.004 C 
ENDBRANCH  15  16
ENDBRANCH  14  15
ENDBRANCH  13  14
ENDBRANCH  12  13
ENDBRANCH  11  12
ENDBRANCH  10  11
ENDBRANCH   1  10
TORSDOF 13
ENDMDL
MODEL 8
REMARK VINA RESULT:    -4.515      1.321      3.668
REMARK INTER + INTRA:          -9.774
REMARK INTER:                  -7.908
REMARK INTRA:                  -1.866
REMARK UNBOUND:                -1.828
REMARK SMILES CCCCCCCCCCCCCCC(=O)[O-]
REMARK SMILES IDX 9 1 10 2 11 3 12 4 13 5 14 6 15 7 16 8 17 9 8 10 7 11 6 12
REMARK SMILES IDX 5 13 4 14 3 15 2 16 1 17
REMARK H PARENT
REMARK Flexibility Score: inf
ROOT
ATOM      1  C   UNL     1      60.697  28.525  12.456  1.00  0.00     0.000 C 
ENDROOT
BRANCH   1   2
ATOM      2  C   UNL     1      61.550  29.007  13.641  1.00  0.00     0.000 C 
BRANCH   2   3
ATOM      3  C   UNL     1      62.924  29.538  13.201  1.00  0.00     0.000 C 
BRANCH   3   4
ATOM      4  C   UNL     1      63.172  30.994  13.638  1.00  0.00     0.000 C 
BRANCH   4   5
ATOM      5  C   UNL     1      62.351  32.053  12.878  1.00  0.00     0.006 C 
BRANCH   5   6
ATOM      6  C   UNL     1      61.663  33.059  13.808  1.00  0.00     0.053 C 
BRANCH   6   7
ATOM      7  C   UNL     1      60.689  32.360  14.704  1.00  0.00     0.041 C 
ATOM      8  O   UNL     1      59.553  32.032  14.271  1.00  0.00    -0.550 OA
ATOM      9  O   UNL     1      61.018  32.113  16.030  1.00  0.00    -0.550 OA
ENDBRANCH   6   7
ENDBRANCH   5   6
ENDBRANCH   4   5
ENDBRANCH   3   4
ENDBRANCH   2   3
ENDBRANCH   1   2
BRANCH   1  10
ATOM     10  C   UNL     1      60.035  29.682  11.691  1.00  0.00     0.000 C 
BRANCH  10  11
ATOM     11  C   UNL     1      60.288  29.558  10.184  1.00  0.00    -0.000 C 
BRANCH  11  12
ATOM     12  C   UNL     1      61.363  28.502   9.890  1.00  0.00    -0.000 C 
BRANCH  12  13
ATOM     13  C   UNL     1      62.473  29.030   8.967  1.00  0.00    -0.000 C 
BRANCH  13  14
ATOM     14  C   UNL     1      63.770  29.357   9.729  1.00  0.00    -0.000 C 
BRANCH  14  15
ATOM     15  C   UNL     1      64.375  30.707   9.310  1.00  0.00    -0.000 C 
BRANCH  15  16
ATOM     16  C   UNL     1      65.113  31.404  10.462  1.00  0.00    -0.003 C 
ATOM     17  C   UNL     1      66.261  32.264   9.939  1.00  0.00     0.004 C 
ENDBRANCH  15  16
ENDBRANCH  14  15
ENDBRANCH  13  14
ENDBRANCH  12  13
ENDBRANCH  11  12
ENDBRANCH  10  11
ENDBRANCH   1  10
TORSDOF 13
ENDMDL
MODEL 9
REMARK VINA RESULT:    -4.496      2.903      6.046
REMARK INTER + INTRA:          -9.742
REMARK INTER:                  -8.070
REMARK INTRA:                  -1.672
REMARK UNBOUND:                -1.828
REMARK SMILES CCCCCCCCCCCCCCC(=O)[O-]
REMARK SMILES IDX 9 1 10 2 11 3 12 4 13 5 14 6 15 7 16 8 17 9 8 10 7 11 6 12
REMARK SMILES IDX 5 13 4 14 3 15 2 16 1 17
REMARK H PARENT
REMARK Flexibility Score: inf
ROOT
ATOM      1  C   UNL     1      61.235  28.749  13.258  1.00  0.00     0.000 C 
ENDROOT
BRANCH   1   2
ATOM      2  C   UNL     1      60.026  28.988  12.339  1.00  0.00     0.000 C 
BRANCH   2   3
ATOM      3  C   UNL     1      60.439  29.349  10.903  1.00  0.00     0.000 C 
BRANCH   3   4
ATOM      4  C   UNL     1      61.871  28.896  10.559  1.00  0.00     0.000 C 
BRANCH   4   5
ATOM      5  C   UNL     1      62.543  29.674   9.412  1.00  0.00     0.006 C 
BRANCH   5   6
ATOM      6  C   UNL     1      64.022  29.314   9.232  1.00  0.00     0.053 C 
BRANCH   6   7
ATOM      7  C   UNL     1      64.884  30.515   9.462  1.00  0.00     0.041 C 
ATOM      8  O   UNL     1      65.993  30.622   8.875  1.00  0.00    -0.550 OA
ATOM      9  O   UNL     1      64.485  31.494  10.363  1.00  0.00    -0.550 OA
ENDBRANCH   6   7
ENDBRANCH   5   6
ENDBRANCH   4   5
ENDBRANCH   3   4
ENDBRANCH   2   3
ENDBRANCH   1   2
BRANCH   1  10
ATOM     10  C   UNL     1      61.557  29.962  14.144  1.00  0.00     0.000 C 
BRANCH  10  11
ATOM     11  C   UNL     1      62.643  30.836  13.506  1.00  0.00    -0.000 C 
BRANCH  11  12
ATOM     12  C   UNL     1      62.041  32.125  12.926  1.00  0.00    -0.000 C 
BRANCH  12  13
ATOM     13  C   UNL     1      60.781  32.580  13.680  1.00  0.00    -0.000 C 
BRANCH  13  14
ATOM     14  C   UNL     1      61.072  33.696  14.698  1.00  0.00    -0.000 C 
BRANCH  14  15
ATOM     15  C   UNL     1      61.479  33.148  16.075  1.00  0.00    -0.000 C 
BRANCH  15  16
ATOM     16  C   UNL     1      62.745  33.820  16.627  1.00  0.00    -0.003 C 
ATOM     17  C   UNL     1      63.832  33.906  15.559  1.00  0.00     0.004 C 
ENDBRANCH  15  16
ENDBRANCH  14  15
ENDBRANCH  13  14
ENDBRANCH  12  13
ENDBRANCH  11  12
ENDBRANCH  10  11
ENDBRANCH   1  10
TORSDOF 13
ENDMDL
