MODEL 1
REMARK VINA RESULT:    -4.806      0.000      0.000
REMARK INTER + INTRA:          -4.806
REMARK INTER:                  -4.806
REMARK INTRA:                   0.000
REMARK UNBOUND:                 0.000
REMARK SMILES CC1=CC(=O)[C@H]2C[C@@H]1C2(C)C
REMARK SMILES IDX 1 1 2 2 3 3 4 4 5 5 6 6 7 7 8 8 9 9 10 10 11 11
REMARK H PARENT
REMARK Flexibility Score: inf
ROOT
ATOM      1  C   UNL     1     -26.189  10.875 -31.387  1.00  0.00     0.040 C 
ATOM      2  C   UNL     1     -27.061  11.449 -30.315  1.00  0.00    -0.066 C 
ATOM      3  C   UNL     1     -27.044  10.952 -29.046  1.00  0.00     0.047 C 
ATOM      4  C   UNL     1     -27.987  11.593 -28.072  1.00  0.00     0.159 C 
ATOM      5  O   UNL     1     -28.093  11.198 -26.882  1.00  0.00    -0.295 OA
ATOM      6  C   UNL     1     -28.808  12.757 -28.625  1.00  0.00     0.067 C 
ATOM      7  C   UNL     1     -27.782  13.608 -29.403  1.00  0.00     0.021 C 
ATOM      8  C   UNL     1     -28.005  12.640 -30.587  1.00  0.00     0.022 C 
ATOM      9  C   UNL     1     -29.411  12.332 -29.994  1.00  0.00    -0.019 C 
ATOM     10  C   UNL     1     -29.968  10.886 -30.139  1.00  0.00     0.012 C 
ATOM     11  C   UNL     1     -30.492  13.321 -30.496  1.00  0.00     0.012 C 
ENDROOT
TORSDOF 0
ENDMDL
MODEL 2
REMARK VINA RESULT:    -4.495      2.102      3.033
REMARK INTER + INTRA:          -4.495
REMARK INTER:                  -4.495
REMARK INTRA:                   0.000
REMARK UNBOUND:                 0.000
REMARK SMILES CC1=CC(=O)[C@H]2C[C@@H]1C2(C)C
REMARK SMILES IDX 1 1 2 2 3 3 4 4 5 5 6 6 7 7 8 8 9 9 10 10 11 11
REMARK H PARENT
REMARK Flexibility Score: inf
ROOT
ATOM      1  C   UNL     1     -25.978  14.602 -30.215  1.00  0.00     0.040 C 
ATOM      2  C   UNL     1     -26.794  13.352 -30.312  1.00  0.00    -0.066 C 
ATOM      3  C   UNL     1     -27.007  12.737 -31.509  1.00  0.00     0.047 C 
ATOM      4  C   UNL     1     -27.868  11.510 -31.478  1.00  0.00     0.159 C 
ATOM      5  O   UNL     1     -28.170  10.875 -32.523  1.00  0.00    -0.295 OA
ATOM      6  C   UNL     1     -28.352  11.084 -30.093  1.00  0.00     0.067 C 
ATOM      7  C   UNL     1     -27.093  11.184 -29.205  1.00  0.00     0.021 C 
ATOM      8  C   UNL     1     -27.417  12.689 -29.065  1.00  0.00     0.022 C 
ATOM      9  C   UNL     1     -28.905  12.336 -29.355  1.00  0.00    -0.019 C 
ATOM     10  C   UNL     1     -29.757  13.355 -30.165  1.00  0.00     0.012 C 
ATOM     11  C   UNL     1     -29.685  11.966 -28.069  1.00  0.00     0.012 C 
ENDROOT
TORSDOF 0
ENDMDL
MODEL 3
REMARK VINA RESULT:    -4.493      0.899      3.166
REMARK INTER + INTRA:          -4.493
REMARK INTER:                  -4.493
REMARK INTRA:                   0.000
REMARK UNBOUND:                 0.000
REMARK SMILES CC1=CC(=O)[C@H]2C[C@@H]1C2(C)C
REMARK SMILES IDX 1 1 2 2 3 3 4 4 5 5 6 6 7 7 8 8 9 9 10 10 11 11
REMARK H PARENT
REMARK Flexibility Score: inf
ROOT
ATOM      1  C   UNL     1     -30.749  14.008 -30.499  1.00  0.00     0.040 C 
ATOM      2  C   UNL     1     -29.687  13.112 -29.946  1.00  0.00    -0.066 C 
ATOM      3  C   UNL     1     -29.520  12.956 -28.603  1.00  0.00     0.047 C 
ATOM      4  C   UNL     1     -28.401  12.055 -28.175  1.00  0.00     0.159 C 
ATOM      5  O   UNL     1     -28.120  11.862 -26.963  1.00  0.00    -0.295 OA
ATOM      6  C   UNL     1     -27.625  11.390 -29.311  1.00  0.00     0.067 C 
ATOM      7  C   UNL     1     -28.722  10.880 -30.270  1.00  0.00     0.021 C 
ATOM      8  C   UNL     1     -28.743  12.307 -30.865  1.00  0.00     0.022 C 
ATOM      9  C   UNL     1     -27.276  12.471 -30.373  1.00  0.00    -0.019 C 
ATOM     10  C   UNL     1     -26.820  13.874 -29.877  1.00  0.00     0.012 C 
ATOM     11  C   UNL     1     -26.245  11.966 -31.412  1.00  0.00     0.012 C 
ENDROOT
TORSDOF 0
ENDMDL
MODEL 4
REMARK VINA RESULT:    -4.400      2.020      3.035
REMARK INTER + INTRA:          -4.400
REMARK INTER:                  -4.400
REMARK INTRA:                   0.000
REMARK UNBOUND:                 0.000
REMARK SMILES CC1=CC(=O)[C@H]2C[C@@H]1C2(C)C
REMARK SMILES IDX 1 1 2 2 3 3 4 4 5 5 6 6 7 7 8 8 9 9 10 10 11 11
REMARK H PARENT
REMARK Flexibility Score: inf
ROOT
ATOM      1  C   UNL     1     -26.252  15.441 -30.127  1.00  0.00     0.040 C 
ATOM      2  C   UNL     1     -26.372  13.959 -29.962  1.00  0.00    -0.066 C 
ATOM      3  C   UNL     1     -25.275  13.178 -29.756  1.00  0.00     0.047 C 
ATOM      4  C   UNL     1     -25.525  11.704 -29.638  1.00  0.00     0.159 C 
ATOM      5  O   UNL     1     -24.590  10.875 -29.486  1.00  0.00    -0.295 OA
ATOM      6  C   UNL     1     -26.991  11.280 -29.714  1.00  0.00     0.067 C 
ATOM      7  C   UNL     1     -27.722  12.279 -28.790  1.00  0.00     0.021 C 
ATOM      8  C   UNL     1     -27.741  13.246 -29.996  1.00  0.00     0.022 C 
ATOM      9  C   UNL     1     -27.653  12.000 -30.924  1.00  0.00    -0.019 C 
ATOM     10  C   UNL     1     -26.840  12.123 -32.244  1.00  0.00     0.012 C 
ATOM     11  C   UNL     1     -29.047  11.418 -31.265  1.00  0.00     0.012 C 
ENDROOT
TORSDOF 0
ENDMDL
MODEL 5
REMARK VINA RESULT:    -4.378     12.363     14.164
REMARK INTER + INTRA:          -4.378
REMARK INTER:                  -4.378
REMARK INTRA:                   0.000
REMARK UNBOUND:                 0.000
REMARK SMILES CC1=CC(=O)[C@H]2C[C@@H]1C2(C)C
REMARK SMILES IDX 1 1 2 2 3 3 4 4 5 5 6 6 7 7 8 8 9 9 10 10 11 11
REMARK H PARENT
REMARK Flexibility Score: inf
ROOT
ATOM      1  C   UNL     1     -16.891  14.255 -28.745  1.00  0.00     0.040 C 
ATOM      2  C   UNL     1     -16.034  14.463 -29.953  1.00  0.00    -0.066 C 
ATOM      3  C   UNL     1     -16.442  14.059 -31.189  1.00  0.00     0.047 C 
ATOM      4  C   UNL     1     -15.480  14.296 -32.314  1.00  0.00     0.159 C 
ATOM      5  O   UNL     1     -15.724  13.932 -33.494  1.00  0.00    -0.295 OA
ATOM      6  C   UNL     1     -14.185  15.009 -31.929  1.00  0.00     0.067 C 
ATOM      7  C   UNL     1     -14.649  16.177 -31.031  1.00  0.00     0.021 C 
ATOM      8  C   UNL     1     -14.660  15.161 -29.865  1.00  0.00     0.022 C 
ATOM      9  C   UNL     1     -13.606  14.331 -30.655  1.00  0.00    -0.019 C 
ATOM     10  C   UNL     1     -13.666  12.780 -30.551  1.00  0.00     0.012 C 
ATOM     11  C   UNL     1     -12.155  14.782 -30.354  1.00  0.00     0.012 C 
ENDROOT
TORSDOF 0
ENDMDL
MODEL 6
REMARK VINA RESULT:    -4.316      9.631     11.267
REMARK INTER + INTRA:          -4.316
REMARK INTER:                  -4.316
REMARK INTRA:                   0.000
REMARK UNBOUND:                 0.000
REMARK SMILES CC1=CC(=O)[C@H]2C[C@@H]1C2(C)C
REMARK SMILES IDX 1 1 2 2 3 3 4 4 5 5 6 6 7 7 8 8 9 9 10 10 11 11
REMARK H PARENT
REMARK Flexibility Score: inf
ROOT
ATOM      1  C   UNL     1     -20.396  13.486 -29.864  1.00  0.00     0.040 C 
ATOM      2  C   UNL     1     -18.919  13.260 -29.789  1.00  0.00    -0.066 C 
ATOM      3  C   UNL     1     -18.245  12.646 -30.801  1.00  0.00     0.047 C 
ATOM      4  C   UNL     1     -16.773  12.450 -30.593  1.00  0.00     0.159 C 
ATOM      5  O   UNL     1     -16.048  11.862 -31.437  1.00  0.00    -0.295 OA
ATOM      6  C   UNL     1     -16.216  13.014 -29.287  1.00  0.00     0.067 C 
ATOM      7  C   UNL     1     -16.845  14.421 -29.183  1.00  0.00     0.021 C 
ATOM      8  C   UNL     1     -18.086  13.726 -28.576  1.00  0.00     0.022 C 
ATOM      9  C   UNL     1     -17.145  12.573 -28.120  1.00  0.00    -0.019 C 
ATOM     10  C   UNL     1     -17.705  11.121 -28.131  1.00  0.00     0.012 C 
ATOM     11  C   UNL     1     -16.515  12.840 -26.731  1.00  0.00     0.012 C 
ENDROOT
TORSDOF 0
ENDMDL
MODEL 7
REMARK VINA RESULT:    -4.188     10.718     12.380
REMARK INTER + INTRA:          -4.188
REMARK INTER:                  -4.188
REMARK INTRA:                   0.000
REMARK UNBOUND:                 0.000
REMARK SMILES CC1=CC(=O)[C@H]2C[C@@H]1C2(C)C
REMARK SMILES IDX 1 1 2 2 3 3 4 4 5 5 6 6 7 7 8 8 9 9 10 10 11 11
REMARK H PARENT
REMARK Flexibility Score: inf
ROOT
ATOM      1  C   UNL     1     -15.328  15.943 -30.149  1.00  0.00     0.040 C 
ATOM      2  C   UNL     1     -15.692  14.492 -30.130  1.00  0.00    -0.066 C 
ATOM      3  C   UNL     1     -16.036  13.832 -31.272  1.00  0.00     0.047 C 
ATOM      4  C   UNL     1     -16.410  12.389 -31.116  1.00  0.00     0.159 C 
ATOM      5  O   UNL     1     -16.784  11.683 -32.089  1.00  0.00    -0.295 OA
ATOM      6  C   UNL     1     -16.305  11.835 -29.696  1.00  0.00     0.067 C 
ATOM      7  C   UNL     1     -14.943  12.355 -29.186  1.00  0.00     0.021 C 
ATOM      8  C   UNL     1     -15.677  13.667 -28.825  1.00  0.00     0.022 C 
ATOM      9  C   UNL     1     -16.989  12.837 -28.722  1.00  0.00    -0.019 C 
ATOM     10  C   UNL     1     -18.320  13.508 -29.168  1.00  0.00     0.012 C 
ATOM     11  C   UNL     1     -17.198  12.237 -27.310  1.00  0.00     0.012 C 
ENDROOT
TORSDOF 0
ENDMDL
MODEL 8
REMARK VINA RESULT:    -2.736      1.959      2.905
REMARK INTER + INTRA:          -2.736
REMARK INTER:                  -2.736
REMARK INTRA:                   0.000
REMARK UNBOUND:                 0.000
REMARK SMILES CC1=CC(=O)[C@H]2C[C@@H]1C2(C)C
REMARK SMILES IDX 1 1 2 2 3 3 4 4 5 5 6 6 7 7 8 8 9 9 10 10 11 11
REMARK H PARENT
REMARK Flexibility Score: inf
ROOT
ATOM      1  C   UNL     1     -27.550  10.875 -32.711  1.00  0.00     0.040 C 
ATOM      2  C   UNL     1     -27.518  11.826 -31.557  1.00  0.00    -0.066 C 
ATOM      3  C   UNL     1     -26.628  12.857 -31.513  1.00  0.00     0.047 C 
ATOM      4  C   UNL     1     -26.675  13.721 -30.289  1.00  0.00     0.159 C 
ATOM      5  O   UNL     1     -25.878  14.680 -30.112  1.00  0.00    -0.295 OA
ATOM      6  C   UNL     1     -27.755  13.357 -29.271  1.00  0.00     0.067 C 
ATOM      7  C   UNL     1     -29.021  13.135 -30.128  1.00  0.00     0.021 C 
ATOM      8  C   UNL     1     -28.499  11.700 -30.372  1.00  0.00     0.022 C 
ATOM      9  C   UNL     1     -27.714  11.820 -29.033  1.00  0.00    -0.019 C 
ATOM     10  C   UNL     1     -26.326  11.125 -28.932  1.00  0.00     0.012 C 
ATOM     11  C   UNL     1     -28.563  11.389 -27.812  1.00  0.00     0.012 C 
ENDROOT
TORSDOF 0
ENDMDL
