MODEL 1
REMARK VINA RESULT:    -3.455      0.000      0.000
REMARK INTER + INTRA:          -5.560
REMARK INTER:                  -5.273
REMARK INTRA:                  -0.287
REMARK UNBOUND:                -0.287
REMARK SMILES CC1=CCC[C@H](C)C(=O)C[C@H](C(C)C)C(=O)C1
REMARK SMILES IDX 8 1 9 2 6 3 7 4 5 5 4 6 3 7 2 8 1 9 10 11 11 12 15 13 16 14
REMARK SMILES IDX 17 15 12 17 13 18 14 19
REMARK H PARENT
REMARK Flexibility Score: 70.00
ROOT
ATOM      1  C   UNL     1     -16.136  11.097 -30.388  1.00  0.00     0.136 C 
ATOM      2  O   UNL     1     -16.182   9.876 -30.336  1.00  0.00    -0.299 OA
ENDROOT
BRANCH   1   3
ATOM      3  C   UNL     1     -17.200  11.917 -29.684  1.00  0.00     0.053 C 
ATOM      4  C   UNL     1     -18.550  11.693 -30.371  1.00  0.00     0.016 C 
BRANCH   3   5
ATOM      5  C   UNL     1     -17.304  11.570 -28.179  1.00  0.00     0.015 C 
BRANCH   5   6
ATOM      6  C   UNL     1     -16.249  12.261 -27.303  1.00  0.00     0.028 C 
BRANCH   6   7
ATOM      7  C   UNL     1     -15.289  11.263 -26.699  1.00  0.00    -0.028 C 
ATOM      8  C   UNL     1     -13.958  11.223 -26.939  1.00  0.00    -0.070 CG0
ATOM      9  C   UNL     1     -13.149  10.144 -26.265  1.00  0.00     0.039 C 
ATOM     10  G   UNL     1     -13.254  12.207 -27.857  1.00  0.00     0.000 G0
ENDBRANCH   6   7
ENDBRANCH   5   6
ENDBRANCH   3   5
ENDBRANCH   1   3
BRANCH   1  11
ATOM     11  C   UNL     1     -15.045  11.756 -31.200  1.00  0.00     0.087 C 
BRANCH  11  12
ATOM     12  C   UNL     1     -14.105  12.653 -30.355  1.00  0.00     0.066 C 
BRANCH  12  13
ATOM     13  C   UNL     1     -13.316  11.836 -29.336  1.00  0.00     0.140 C 
ATOM     14  O   UNL     1     -12.686  10.860 -29.717  1.00  0.00    -0.299 OA
BRANCH  13  15
ATOM     15  C   UNL     1     -13.234  12.203 -27.867  1.00  0.00     0.106 CG0
ATOM     16  G   UNL     1     -13.947  11.231 -26.942  1.00  0.00     0.000 G0
ENDBRANCH  13  15
ENDBRANCH  12  13
BRANCH  12  17
ATOM     17  C   UNL     1     -13.186  13.532 -31.260  1.00  0.00    -0.006 C 
ATOM     18  C   UNL     1     -13.267  15.041 -30.966  1.00  0.00     0.008 C 
ATOM     19  C   UNL     1     -13.461  13.279 -32.751  1.00  0.00     0.008 C 
ENDBRANCH  12  17
ENDBRANCH  11  12
ENDBRANCH   1  11
TORSDOF 1
ENDMDL
MODEL 2
REMARK VINA RESULT:    -3.361      1.961      2.646
REMARK INTER + INTRA:          -5.416
REMARK INTER:                  -5.799
REMARK INTRA:                   0.382
REMARK UNBOUND:                -0.287
REMARK SMILES CC1=CCC[C@H](C)C(=O)C[C@H](C(C)C)C(=O)C1
REMARK SMILES IDX 8 1 9 2 6 3 7 4 5 5 4 6 3 7 2 8 1 9 10 11 11 12 15 13 16 14
REMARK SMILES IDX 17 15 12 17 13 18 14 19
REMARK H PARENT
REMARK Flexibility Score: 70.00
ROOT
ATOM      1  C   UNL     1     -17.689  12.316 -29.147  1.00  0.00     0.136 C 
ATOM      2  O   UNL     1     -18.613  12.826 -29.765  1.00  0.00    -0.299 OA
ENDROOT
BRANCH   1   3
ATOM      3  C   UNL     1     -17.796  10.873 -28.695  1.00  0.00     0.053 C 
ATOM      4  C   UNL     1     -19.102  10.272 -29.223  1.00  0.00     0.016 C 
BRANCH   3   5
ATOM      5  C   UNL     1     -16.590  10.023 -29.163  1.00  0.00     0.015 C 
BRANCH   5   6
ATOM      6  C   UNL     1     -15.427   9.981 -28.160  1.00  0.00     0.028 C 
BRANCH   6   7
ATOM      7  C   UNL     1     -14.092   9.903 -28.862  1.00  0.00    -0.028 C 
ATOM      8  C   UNL     1     -13.293  10.961 -29.131  1.00  0.00    -0.070 CG0
ATOM      9  C   UNL     1     -11.998  10.705 -29.858  1.00  0.00     0.039 C 
ATOM     10  G   UNL     1     -13.649  12.385 -28.738  1.00  0.00     0.000 G0
ENDBRANCH   6   7
ENDBRANCH   5   6
ENDBRANCH   3   5
ENDBRANCH   1   3
BRANCH   1  11
ATOM     11  C   UNL     1     -16.483  13.160 -28.804  1.00  0.00     0.087 C 
BRANCH  11  12
ATOM     12  C   UNL     1     -15.641  13.563 -30.041  1.00  0.00     0.066 C 
BRANCH  12  13
ATOM     13  C   UNL     1     -14.158  13.274 -29.829  1.00  0.00     0.140 C 
ATOM     14  O   UNL     1     -13.340  13.802 -30.568  1.00  0.00    -0.299 OA
BRANCH  13  15
ATOM     15  C   UNL     1     -13.639  12.392 -28.711  1.00  0.00     0.106 CG0
ATOM     16  G   UNL     1     -13.308  10.973 -29.138  1.00  0.00     0.000 G0
ENDBRANCH  13  15
ENDBRANCH  12  13
BRANCH  12  17
ATOM     17  C   UNL     1     -16.199  12.916 -31.348  1.00  0.00    -0.006 C 
ATOM     18  C   UNL     1     -15.163  12.094 -32.136  1.00  0.00     0.008 C 
ATOM     19  C   UNL     1     -16.834  13.969 -32.267  1.00  0.00     0.008 C 
ENDBRANCH  12  17
ENDBRANCH  11  12
ENDBRANCH   1  11
TORSDOF 1
ENDMDL
MODEL 3
REMARK VINA RESULT:    -2.286     10.027     12.749
REMARK INTER + INTRA:          -3.776
REMARK INTER:                  -3.862
REMARK INTRA:                   0.087
REMARK UNBOUND:                -0.287
REMARK SMILES CC1=CCC[C@H](C)C(=O)C[C@H](C(C)C)C(=O)C1
REMARK SMILES IDX 8 1 9 2 6 3 7 4 5 5 4 6 3 7 2 8 1 9 10 11 11 12 15 13 16 14
REMARK SMILES IDX 17 15 12 17 13 18 14 19
REMARK H PARENT
REMARK Flexibility Score: 70.00
ROOT
ATOM      1  C   UNL     1     -25.334  12.691 -30.854  1.00  0.00     0.136 C 
ATOM      2  O   UNL     1     -24.420  13.266 -30.280  1.00  0.00    -0.299 OA
ENDROOT
BRANCH   1   3
ATOM      3  C   UNL     1     -26.217  13.463 -31.814  1.00  0.00     0.053 C 
ATOM      4  C   UNL     1     -26.640  12.544 -32.964  1.00  0.00     0.016 C 
BRANCH   3   5
ATOM      5  C   UNL     1     -27.467  14.051 -31.115  1.00  0.00     0.015 C 
BRANCH   5   6
ATOM      6  C   UNL     1     -28.684  13.114 -31.115  1.00  0.00     0.028 C 
BRANCH   6   7
ATOM      7  C   UNL     1     -29.250  12.941 -29.726  1.00  0.00    -0.028 C 
ATOM      8  C   UNL     1     -29.051  11.862 -28.935  1.00  0.00    -0.070 CG0
ATOM      9  C   UNL     1     -29.708  11.846 -27.578  1.00  0.00     0.039 C 
ATOM     10  G   UNL     1     -28.203  10.674 -29.357  1.00  0.00     0.000 G0
ENDBRANCH   6   7
ENDBRANCH   5   6
ENDBRANCH   3   5
ENDBRANCH   1   3
BRANCH   1  11
ATOM     11  C   UNL     1     -25.590  11.233 -30.548  1.00  0.00     0.087 C 
BRANCH  11  12
ATOM     12  C   UNL     1     -25.571  10.909 -29.034  1.00  0.00     0.066 C 
BRANCH  12  13
ATOM     13  C   UNL     1     -26.946  10.474 -28.535  1.00  0.00     0.140 C 
ATOM     14  O   UNL     1     -27.045   9.986 -27.418  1.00  0.00    -0.299 OA
BRANCH  13  15
ATOM     15  C   UNL     1     -28.215  10.660 -29.342  1.00  0.00     0.106 CG0
ATOM     16  G   UNL     1     -29.054  11.854 -28.920  1.00  0.00     0.000 G0
ENDBRANCH  13  15
ENDBRANCH  12  13
BRANCH  12  17
ATOM     17  C   UNL     1     -24.452   9.878 -28.683  1.00  0.00    -0.006 C 
ATOM     18  C   UNL     1     -23.900  10.007 -27.252  1.00  0.00     0.008 C 
ATOM     19  C   UNL     1     -23.295   9.942 -29.692  1.00  0.00     0.008 C 
ENDBRANCH  12  17
ENDBRANCH  11  12
ENDBRANCH   1  11
TORSDOF 1
ENDMDL
MODEL 4
REMARK VINA RESULT:    -2.200      9.552     11.686
REMARK INTER + INTRA:          -3.644
REMARK INTER:                  -4.844
REMARK INTRA:                   1.201
REMARK UNBOUND:                -0.287
REMARK SMILES CC1=CCC[C@H](C)C(=O)C[C@H](C(C)C)C(=O)C1
REMARK SMILES IDX 8 1 9 2 6 3 7 4 5 5 4 6 3 7 2 8 1 9 10 11 11 12 15 13 16 14
REMARK SMILES IDX 17 15 12 17 13 18 14 19
REMARK H PARENT
REMARK Flexibility Score: 70.00
ROOT
ATOM      1  C   UNL     1     -28.034  13.051 -30.035  1.00  0.00     0.136 C 
ATOM      2  O   UNL     1     -28.929  13.213 -30.852  1.00  0.00    -0.299 OA
ENDROOT
BRANCH   1   3
ATOM      3  C   UNL     1     -28.323  12.305 -28.747  1.00  0.00     0.053 C 
ATOM      4  C   UNL     1     -29.836  12.260 -28.515  1.00  0.00     0.016 C 
BRANCH   3   5
ATOM      5  C   UNL     1     -27.742  10.870 -28.760  1.00  0.00     0.015 C 
BRANCH   5   6
ATOM      6  C   UNL     1     -27.233  10.388 -27.394  1.00  0.00     0.028 C 
BRANCH   6   7
ATOM      7  C   UNL     1     -25.815   9.875 -27.480  1.00  0.00    -0.028 C 
ATOM      8  C   UNL     1     -24.759  10.584 -27.941  1.00  0.00    -0.070 CG0
ATOM      9  C   UNL     1     -23.412   9.909 -27.974  1.00  0.00     0.039 C 
ATOM     10  G   UNL     1     -24.877  12.018 -28.427  1.00  0.00     0.000 G0
ENDBRANCH   6   7
ENDBRANCH   5   6
ENDBRANCH   3   5
ENDBRANCH   1   3
BRANCH   1  11
ATOM     11  C   UNL     1     -26.673  13.647 -30.310  1.00  0.00     0.087 C 
BRANCH  11  12
ATOM     12  C   UNL     1     -25.666  12.635 -30.911  1.00  0.00     0.066 C 
BRANCH  12  13
ATOM     13  C   UNL     1     -24.593  12.242 -29.900  1.00  0.00     0.140 C 
ATOM     14  O   UNL     1     -23.437  12.121 -30.280  1.00  0.00    -0.299 OA
BRANCH  13  15
ATOM     15  C   UNL     1     -24.880  12.037 -28.426  1.00  0.00     0.106 CG0
ATOM     16  G   UNL     1     -24.773  10.594 -27.965  1.00  0.00     0.000 G0
ENDBRANCH  13  15
ENDBRANCH  12  13
BRANCH  12  17
ATOM     17  C   UNL     1     -26.396  11.397 -31.522  1.00  0.00    -0.006 C 
ATOM     18  C   UNL     1     -25.585  10.090 -31.456  1.00  0.00     0.008 C 
ATOM     19  C   UNL     1     -26.832  11.664 -32.971  1.00  0.00     0.008 C 
ENDBRANCH  12  17
ENDBRANCH  11  12
ENDBRANCH   1  11
TORSDOF 1
ENDMDL
MODEL 5
REMARK VINA RESULT:    -1.968     10.004     13.008
REMARK INTER + INTRA:          -3.289
REMARK INTER:                  -4.564
REMARK INTRA:                   1.275
REMARK UNBOUND:                -0.287
REMARK SMILES CC1=CCC[C@H](C)C(=O)C[C@H](C(C)C)C(=O)C1
REMARK SMILES IDX 8 1 9 2 6 3 7 4 5 5 4 6 3 7 2 8 1 9 10 11 11 12 15 13 16 14
REMARK SMILES IDX 17 15 12 17 13 18 14 19
REMARK H PARENT
REMARK Flexibility Score: 70.00
ROOT
ATOM      1  C   UNL     1     -26.448  10.732 -29.111  1.00  0.00     0.136 C 
ATOM      2  O   UNL     1     -25.849  11.330 -28.229  1.00  0.00    -0.299 OA
ENDROOT
BRANCH   1   3
ATOM      3  C   UNL     1     -27.735  10.001 -28.780  1.00  0.00     0.053 C 
ATOM      4  C   UNL     1     -27.885   9.903 -27.260  1.00  0.00     0.016 C 
BRANCH   3   5
ATOM      5  C   UNL     1     -28.975  10.693 -29.396  1.00  0.00     0.015 C 
BRANCH   5   6
ATOM      6  C   UNL     1     -29.277  12.078 -28.805  1.00  0.00     0.028 C 
BRANCH   6   7
ATOM      7  C   UNL     1     -29.776  13.035 -29.861  1.00  0.00    -0.028 C 
ATOM      8  C   UNL     1     -28.990  13.823 -30.630  1.00  0.00    -0.070 CG0
ATOM      9  C   UNL     1     -29.658  14.735 -31.627  1.00  0.00     0.039 C 
ATOM     10  G   UNL     1     -27.474  13.828 -30.527  1.00  0.00     0.000 G0
ENDBRANCH   6   7
ENDBRANCH   5   6
ENDBRANCH   3   5
ENDBRANCH   1   3
BRANCH   1  11
ATOM     11  C   UNL     1     -25.858  10.694 -30.502  1.00  0.00     0.087 C 
BRANCH  11  12
ATOM     12  C   UNL     1     -25.501  12.095 -31.058  1.00  0.00     0.066 C 
BRANCH  12  13
ATOM     13  C   UNL     1     -26.749  12.876 -31.458  1.00  0.00     0.140 C 
ATOM     14  O   UNL     1     -27.230  12.697 -32.567  1.00  0.00    -0.299 OA
BRANCH  13  15
ATOM     15  C   UNL     1     -27.458  13.837 -30.525  1.00  0.00     0.106 CG0
ATOM     16  G   UNL     1     -28.972  13.816 -30.641  1.00  0.00     0.000 G0
ENDBRANCH  13  15
ENDBRANCH  12  13
BRANCH  12  17
ATOM     17  C   UNL     1     -24.589  12.888 -30.069  1.00  0.00    -0.006 C 
ATOM     18  C   UNL     1     -24.399  14.371 -30.435  1.00  0.00     0.008 C 
ATOM     19  C   UNL     1     -23.218  12.213 -29.909  1.00  0.00     0.008 C 
ENDBRANCH  12  17
ENDBRANCH  11  12
ENDBRANCH   1  11
TORSDOF 1
ENDMDL
MODEL 6
REMARK VINA RESULT:    -1.906      9.327     11.644
REMARK INTER + INTRA:          -3.195
REMARK INTER:                  -3.668
REMARK INTRA:                   0.473
REMARK UNBOUND:                -0.287
REMARK SMILES CC1=CCC[C@H](C)C(=O)C[C@H](C(C)C)C(=O)C1
REMARK SMILES IDX 8 1 9 2 6 3 7 4 5 5 4 6 3 7 2 8 1 9 10 11 11 12 15 13 16 14
REMARK SMILES IDX 17 15 12 17 13 18 14 19
REMARK H PARENT
REMARK Flexibility Score: 70.00
ROOT
ATOM      1  C   UNL     1     -27.302  10.578 -31.041  1.00  0.00     0.136 C 
ATOM      2  O   UNL     1     -28.473  10.308 -30.815  1.00  0.00    -0.299 OA
ENDROOT
BRANCH   1   3
ATOM      3  C   UNL     1     -26.959  11.567 -32.137  1.00  0.00     0.053 C 
ATOM      4  C   UNL     1     -27.112  10.886 -33.500  1.00  0.00     0.016 C 
BRANCH   3   5
ATOM      5  C   UNL     1     -27.840  12.838 -32.074  1.00  0.00     0.015 C 
BRANCH   5   6
ATOM      6  C   UNL     1     -27.266  13.955 -31.190  1.00  0.00     0.028 C 
BRANCH   6   7
ATOM      7  C   UNL     1     -25.770  14.079 -31.355  1.00  0.00    -0.028 C 
ATOM      8  C   UNL     1     -24.858  13.837 -30.385  1.00  0.00    -0.070 CG0
ATOM      9  C   UNL     1     -23.401  14.029 -30.718  1.00  0.00     0.039 C 
ATOM     10  G   UNL     1     -25.242  13.391 -28.985  1.00  0.00     0.000 G0
ENDBRANCH   6   7
ENDBRANCH   5   6
ENDBRANCH   3   5
ENDBRANCH   1   3
BRANCH   1  11
ATOM     11  C   UNL     1     -26.222   9.875 -30.250  1.00  0.00     0.087 C 
BRANCH  11  12
ATOM     12  C   UNL     1     -25.136  10.834 -29.701  1.00  0.00     0.066 C 
BRANCH  12  13
ATOM     13  C   UNL     1     -25.751  11.977 -28.897  1.00  0.00     0.140 C 
ATOM     14  O   UNL     1     -26.657  11.730 -28.114  1.00  0.00    -0.299 OA
BRANCH  13  15
ATOM     15  C   UNL     1     -25.261  13.408 -28.987  1.00  0.00     0.106 CG0
ATOM     16  G   UNL     1     -24.851  13.841 -30.384  1.00  0.00     0.000 G0
ENDBRANCH  13  15
ENDBRANCH  12  13
BRANCH  12  17
ATOM     17  C   UNL     1     -24.039  10.062 -28.904  1.00  0.00    -0.006 C 
ATOM     18  C   UNL     1     -24.054  10.329 -27.388  1.00  0.00     0.008 C 
ATOM     19  C   UNL     1     -22.637  10.341 -29.467  1.00  0.00     0.008 C 
ENDBRANCH  12  17
ENDBRANCH  11  12
ENDBRANCH   1  11
TORSDOF 1
ENDMDL
MODEL 7
REMARK VINA RESULT:    -1.868     10.344     12.539
REMARK INTER + INTRA:          -3.137
REMARK INTER:                  -4.722
REMARK INTRA:                   1.585
REMARK UNBOUND:                -0.287
REMARK SMILES CC1=CCC[C@H](C)C(=O)C[C@H](C(C)C)C(=O)C1
REMARK SMILES IDX 8 1 9 2 6 3 7 4 5 5 4 6 3 7 2 8 1 9 10 11 11 12 15 13 16 14
REMARK SMILES IDX 17 15 12 17 13 18 14 19
REMARK H PARENT
REMARK Flexibility Score: 70.00
ROOT
ATOM      1  C   UNL     1     -28.476  11.063 -29.114  1.00  0.00     0.136 C 
ATOM      2  O   UNL     1     -29.183  10.067 -29.168  1.00  0.00    -0.299 OA
ENDROOT
BRANCH   1   3
ATOM      3  C   UNL     1     -27.205  11.036 -28.290  1.00  0.00     0.053 C 
ATOM      4  C   UNL     1     -27.271   9.876 -27.293  1.00  0.00     0.016 C 
BRANCH   3   5
ATOM      5  C   UNL     1     -25.939  10.910 -29.172  1.00  0.00     0.015 C 
BRANCH   5   6
ATOM      6  C   UNL     1     -24.704  11.622 -28.601  1.00  0.00     0.028 C 
BRANCH   6   7
ATOM      7  C   UNL     1     -24.117  12.597 -29.594  1.00  0.00    -0.028 C 
ATOM      8  C   UNL     1     -24.791  13.619 -30.170  1.00  0.00    -0.070 CG0
ATOM      9  C   UNL     1     -24.053  14.487 -31.157  1.00  0.00     0.039 C 
ATOM     10  G   UNL     1     -26.249  13.921 -29.868  1.00  0.00     0.000 G0
ENDBRANCH   6   7
ENDBRANCH   5   6
ENDBRANCH   3   5
ENDBRANCH   1   3
BRANCH   1  11
ATOM     11  C   UNL     1     -28.921  12.317 -29.832  1.00  0.00     0.087 C 
BRANCH  11  12
ATOM     12  C   UNL     1     -28.153  12.576 -31.152  1.00  0.00     0.066 C 
BRANCH  12  13
ATOM     13  C   UNL     1     -27.212  13.771 -31.029  1.00  0.00     0.140 C 
ATOM     14  O   UNL     1     -27.251  14.647 -31.882  1.00  0.00    -0.299 OA
BRANCH  13  15
ATOM     15  C   UNL     1     -26.255  13.954 -29.869  1.00  0.00     0.106 CG0
ATOM     16  G   UNL     1     -24.814  13.594 -30.187  1.00  0.00     0.000 G0
ENDBRANCH  13  15
ENDBRANCH  12  13
BRANCH  12  17
ATOM     17  C   UNL     1     -27.425  11.289 -31.653  1.00  0.00    -0.006 C 
ATOM     18  C   UNL     1     -26.362  11.546 -32.736  1.00  0.00     0.008 C 
ATOM     19  C   UNL     1     -28.428  10.237 -32.151  1.00  0.00     0.008 C 
ENDBRANCH  12  17
ENDBRANCH  11  12
ENDBRANCH   1  11
TORSDOF 1
ENDMDL
MODEL 8
REMARK VINA RESULT:    -1.776     11.390     13.021
REMARK INTER + INTRA:          -2.997
REMARK INTER:                  -2.848
REMARK INTRA:                  -0.149
REMARK UNBOUND:                -0.287
REMARK SMILES CC1=CCC[C@H](C)C(=O)C[C@H](C(C)C)C(=O)C1
REMARK SMILES IDX 8 1 9 2 6 3 7 4 5 5 4 6 3 7 2 8 1 9 10 11 11 12 15 13 16 14
REMARK SMILES IDX 17 15 12 17 13 18 14 19
REMARK H PARENT
REMARK Flexibility Score: 70.00
ROOT
ATOM      1  C   UNL     1     -25.007  19.935 -34.513  1.00  0.00     0.136 C 
ATOM      2  O   UNL     1     -24.905  20.361 -35.655  1.00  0.00    -0.299 OA
ENDROOT
BRANCH   1   3
ATOM      3  C   UNL     1     -26.297  20.148 -33.747  1.00  0.00     0.053 C 
ATOM      4  C   UNL     1     -27.171  21.158 -34.497  1.00  0.00     0.016 C 
BRANCH   3   5
ATOM      5  C   UNL     1     -27.075  18.827 -33.532  1.00  0.00     0.015 C 
BRANCH   5   6
ATOM      6  C   UNL     1     -27.430  18.542 -32.065  1.00  0.00     0.028 C 
BRANCH   6   7
ATOM      7  C   UNL     1     -27.096  17.120 -31.680  1.00  0.00    -0.028 C 
ATOM      8  C   UNL     1     -25.980  16.736 -31.020  1.00  0.00    -0.070 CG0
ATOM      9  C   UNL     1     -25.796  15.268 -30.732  1.00  0.00     0.039 C 
ATOM     10  G   UNL     1     -24.911  17.715 -30.567  1.00  0.00     0.000 G0
ENDBRANCH   6   7
ENDBRANCH   5   6
ENDBRANCH   3   5
ENDBRANCH   1   3
BRANCH   1  11
ATOM     11  C   UNL     1     -23.819  19.250 -33.877  1.00  0.00     0.087 C 
BRANCH  11  12
ATOM     12  C   UNL     1     -23.780  19.392 -32.335  1.00  0.00     0.066 C 
BRANCH  12  13
ATOM     13  C   UNL     1     -23.861  18.034 -31.644  1.00  0.00     0.140 C 
ATOM     14  O   UNL     1     -23.043  17.172 -31.931  1.00  0.00    -0.299 OA
BRANCH  13  15
ATOM     15  C   UNL     1     -24.887  17.709 -30.576  1.00  0.00     0.106 CG0
ATOM     16  G   UNL     1     -25.973  16.748 -31.026  1.00  0.00     0.000 G0
ENDBRANCH  13  15
ENDBRANCH  12  13
BRANCH  12  17
ATOM     17  C   UNL     1     -22.548  20.229 -31.868  1.00  0.00    -0.006 C 
ATOM     18  C   UNL     1     -22.247  20.125 -30.361  1.00  0.00     0.008 C 
ATOM     19  C   UNL     1     -22.691  21.706 -32.267  1.00  0.00     0.008 C 
ENDBRANCH  12  17
ENDBRANCH  11  12
ENDBRANCH   1  11
TORSDOF 1
ENDMDL
MODEL 9
REMARK VINA RESULT:    -1.671      9.098     12.223
REMARK INTER + INTRA:          -2.837
REMARK INTER:                  -4.218
REMARK INTRA:                   1.381
REMARK UNBOUND:                -0.287
REMARK SMILES CC1=CCC[C@H](C)C(=O)C[C@H](C(C)C)C(=O)C1
REMARK SMILES IDX 8 1 9 2 6 3 7 4 5 5 4 6 3 7 2 8 1 9 10 11 11 12 15 13 16 14
REMARK SMILES IDX 17 15 12 17 13 18 14 19
REMARK H PARENT
REMARK Flexibility Score: 70.00
ROOT
ATOM      1  C   UNL     1     -27.354  10.899 -31.903  1.00  0.00     0.136 C 
ATOM      2  O   UNL     1     -27.287  10.001 -32.731  1.00  0.00    -0.299 OA
ENDROOT
BRANCH   1   3
ATOM      3  C   UNL     1     -26.562  12.174 -32.117  1.00  0.00     0.053 C 
ATOM      4  C   UNL     1     -26.375  12.409 -33.619  1.00  0.00     0.016 C 
BRANCH   3   5
ATOM      5  C   UNL     1     -27.244  13.402 -31.466  1.00  0.00     0.015 C 
BRANCH   5   6
ATOM      6  C   UNL     1     -26.422  14.053 -30.344  1.00  0.00     0.028 C 
BRANCH   6   7
ATOM      7  C   UNL     1     -24.957  13.702 -30.454  1.00  0.00    -0.028 C 
ATOM      8  C   UNL     1     -24.358  12.663 -29.829  1.00  0.00    -0.070 CG0
ATOM      9  C   UNL     1     -22.878  12.468 -30.037  1.00  0.00     0.039 C 
ATOM     10  G   UNL     1     -25.110  11.696 -28.930  1.00  0.00     0.000 G0
ENDBRANCH   6   7
ENDBRANCH   5   6
ENDBRANCH   3   5
ENDBRANCH   1   3
BRANCH   1  11
ATOM     11  C   UNL     1     -28.187  10.690 -30.660  1.00  0.00     0.087 C 
BRANCH  11  12
ATOM     12  C   UNL     1     -27.347  10.325 -29.410  1.00  0.00     0.066 C 
BRANCH  12  13
ATOM     13  C   UNL     1     -25.862  10.594 -29.633  1.00  0.00     0.140 C 
ATOM     14  O   UNL     1     -25.256   9.927 -30.460  1.00  0.00    -0.299 OA
BRANCH  13  15
ATOM     15  C   UNL     1     -25.102  11.686 -28.909  1.00  0.00     0.106 CG0
ATOM     16  G   UNL     1     -24.356  12.640 -29.826  1.00  0.00     0.000 G0
ENDBRANCH  13  15
ENDBRANCH  12  13
BRANCH  12  17
ATOM     17  C   UNL     1     -27.897  11.023 -28.126  1.00  0.00    -0.006 C 
ATOM     18  C   UNL     1     -28.349  10.050 -27.022  1.00  0.00     0.008 C 
ATOM     19  C   UNL     1     -29.041  11.992 -28.463  1.00  0.00     0.008 C 
ENDBRANCH  12  17
ENDBRANCH  11  12
ENDBRANCH   1  11
TORSDOF 1
ENDMDL
