MODEL 1
REMARK VINA RESULT:    -6.869      0.000      0.000
REMARK INTER + INTRA:          -7.521
REMARK INTER:                  -7.270
REMARK INTRA:                  -0.250
REMARK UNBOUND:                -0.250
REMARK SMILES O=c1cc(-c2ccccc2)oc2ccccc12
REMARK SMILES IDX 4 1 3 2 2 3 1 4 17 5 16 6 15 7 14 8 13 9 12 10 11 11 5 12
REMARK SMILES IDX 8 13 7 14 9 15 6 16 10 17
REMARK H PARENT
REMARK Flexibility Score: inf
ROOT
ATOM      1  C   UNL     1       9.670 -12.123 -23.887  1.00  0.00     0.138 A 
ATOM      2  C   UNL     1       9.880 -13.378 -24.496  1.00  0.00     0.100 A 
ATOM      3  C   UNL     1      10.200 -14.482 -23.703  1.00  0.00     0.193 A 
ATOM      4  O   UNL     1      10.388 -15.605 -24.248  1.00  0.00    -0.289 OA
ATOM      5  C   UNL     1      10.309 -14.328 -22.314  1.00  0.00     0.065 A 
ATOM      6  C   UNL     1      10.629 -15.398 -21.459  1.00  0.00     0.016 A 
ATOM      7  C   UNL     1      10.725 -15.189 -20.081  1.00  0.00     0.001 A 
ATOM      8  C   UNL     1      10.504 -13.916 -19.545  1.00  0.00     0.004 A 
ATOM      9  C   UNL     1      10.185 -12.846 -20.387  1.00  0.00     0.048 A 
ATOM     10  C   UNL     1      10.086 -13.046 -21.769  1.00  0.00     0.138 A 
ATOM     11  O   UNL     1       9.784 -12.022 -22.562  1.00  0.00    -0.456 OA
ENDROOT
BRANCH   1  12
ATOM     12  C   UNL     1       9.323 -10.890 -24.660  1.00  0.00     0.017 A 
ATOM     13  C   UNL     1       8.613  -8.620 -26.178  1.00  0.00     0.000 A 
ATOM     14  C   UNL     1       9.471  -8.489 -25.087  1.00  0.00     0.001 A 
ATOM     15  C   UNL     1       8.107  -9.873 -26.519  1.00  0.00     0.001 A 
ATOM     16  C   UNL     1       9.826  -9.611 -24.331  1.00  0.00     0.012 A 
ATOM     17  C   UNL     1       8.456 -10.999 -25.768  1.00  0.00     0.012 A 
ENDBRANCH   1  12
TORSDOF 1
ENDMDL
MODEL 2
REMARK VINA RESULT:    -6.560      1.225      5.827
REMARK INTER + INTRA:          -7.193
REMARK INTER:                  -6.932
REMARK INTRA:                  -0.261
REMARK UNBOUND:                -0.250
REMARK SMILES O=c1cc(-c2ccccc2)oc2ccccc12
REMARK SMILES IDX 4 1 3 2 2 3 1 4 17 5 16 6 15 7 14 8 13 9 12 10 11 11 5 12
REMARK SMILES IDX 8 13 7 14 9 15 6 16 10 17
REMARK H PARENT
REMARK Flexibility Score: inf
ROOT
ATOM      1  C   UNL     1       9.450 -12.773 -23.280  1.00  0.00     0.138 A 
ATOM      2  C   UNL     1       8.816 -13.387 -24.381  1.00  0.00     0.100 A 
ATOM      3  C   UNL     1       8.451 -12.613 -25.485  1.00  0.00     0.193 A 
ATOM      4  O   UNL     1       7.883 -13.162 -26.468  1.00  0.00    -0.289 OA
ATOM      5  C   UNL     1       8.720 -11.237 -25.483  1.00  0.00     0.065 A 
ATOM      6  C   UNL     1       8.379 -10.401 -26.562  1.00  0.00     0.016 A 
ATOM      7  C   UNL     1       8.671  -9.035 -26.509  1.00  0.00     0.001 A 
ATOM      8  C   UNL     1       9.303  -8.494 -25.385  1.00  0.00     0.004 A 
ATOM      9  C   UNL     1       9.646  -9.317 -24.309  1.00  0.00     0.048 A 
ATOM     10  C   UNL     1       9.358 -10.686 -24.352  1.00  0.00     0.138 A 
ATOM     11  O   UNL     1       9.687 -11.461 -23.323  1.00  0.00    -0.456 OA
ENDROOT
BRANCH   1  12
ATOM     12  C   UNL     1       9.874 -13.527 -22.060  1.00  0.00     0.017 A 
ATOM     13  C   UNL     1      10.670 -15.031 -19.810  1.00  0.00     0.000 A 
ATOM     14  C   UNL     1      10.521 -13.650 -19.707  1.00  0.00     0.001 A 
ATOM     15  C   UNL     1      10.425 -15.669 -21.025  1.00  0.00     0.001 A 
ATOM     16  C   UNL     1      10.127 -12.898 -20.819  1.00  0.00     0.012 A 
ATOM     17  C   UNL     1      10.031 -14.927 -22.141  1.00  0.00     0.012 A 
ENDBRANCH   1  12
TORSDOF 1
ENDMDL
MODEL 3
REMARK VINA RESULT:    -6.200      2.605      4.911
REMARK INTER + INTRA:          -6.813
REMARK INTER:                  -6.576
REMARK INTRA:                  -0.236
REMARK UNBOUND:                -0.250
REMARK SMILES O=c1cc(-c2ccccc2)oc2ccccc12
REMARK SMILES IDX 4 1 3 2 2 3 1 4 17 5 16 6 15 7 14 8 13 9 12 10 11 11 5 12
REMARK SMILES IDX 8 13 7 14 9 15 6 16 10 17
REMARK H PARENT
REMARK Flexibility Score: inf
ROOT
ATOM      1  C   UNL     1      10.065 -15.105 -24.261  1.00  0.00     0.138 A 
ATOM      2  C   UNL     1       9.720 -13.737 -24.267  1.00  0.00     0.100 A 
ATOM      3  C   UNL     1       9.733 -13.018 -23.071  1.00  0.00     0.193 A 
ATOM      4  O   UNL     1       9.424 -11.795 -23.077  1.00  0.00    -0.289 OA
ATOM      5  C   UNL     1      10.089 -13.665 -21.879  1.00  0.00     0.065 A 
ATOM      6  C   UNL     1      10.122 -12.999 -20.641  1.00  0.00     0.016 A 
ATOM      7  C   UNL     1      10.484 -13.693 -19.482  1.00  0.00     0.001 A 
ATOM      8  C   UNL     1      10.814 -15.050 -19.549  1.00  0.00     0.004 A 
ATOM      9  C   UNL     1      10.784 -15.720 -20.776  1.00  0.00     0.048 A 
ATOM     10  C   UNL     1      10.424 -15.034 -21.942  1.00  0.00     0.138 A 
ATOM     11  O   UNL     1      10.397 -15.680 -23.103  1.00  0.00    -0.456 OA
ENDROOT
BRANCH   1  12
ATOM     12  C   UNL     1      10.077 -15.948 -25.496  1.00  0.00     0.017 A 
ATOM     13  C   UNL     1      10.194 -17.561 -27.809  1.00  0.00     0.000 A 
ATOM     14  C   UNL     1       9.009 -16.909 -27.472  1.00  0.00     0.001 A 
ATOM     15  C   UNL     1      11.321 -17.416 -27.001  1.00  0.00     0.001 A 
ATOM     16  C   UNL     1       8.945 -16.108 -26.327  1.00  0.00     0.012 A 
ATOM     17  C   UNL     1      11.266 -16.618 -25.855  1.00  0.00     0.012 A 
ENDBRANCH   1  12
TORSDOF 1
ENDMDL
MODEL 4
REMARK VINA RESULT:    -6.119      3.588      5.937
REMARK INTER + INTRA:          -6.727
REMARK INTER:                  -6.490
REMARK INTRA:                  -0.237
REMARK UNBOUND:                -0.250
REMARK SMILES O=c1cc(-c2ccccc2)oc2ccccc12
REMARK SMILES IDX 4 1 3 2 2 3 1 4 17 5 16 6 15 7 14 8 13 9 12 10 11 11 5 12
REMARK SMILES IDX 8 13 7 14 9 15 6 16 10 17
REMARK H PARENT
REMARK Flexibility Score: inf
ROOT
ATOM      1  C   UNL     1      10.400 -16.483 -22.383  1.00  0.00     0.138 A 
ATOM      2  C   UNL     1      11.239 -16.666 -23.503  1.00  0.00     0.100 A 
ATOM      3  C   UNL     1      11.209 -17.879 -24.194  1.00  0.00     0.193 A 
ATOM      4  O   UNL     1      11.960 -18.042 -25.195  1.00  0.00    -0.289 OA
ATOM      5  C   UNL     1      10.348 -18.898 -23.765  1.00  0.00     0.065 A 
ATOM      6  C   UNL     1      10.270 -20.143 -24.416  1.00  0.00     0.016 A 
ATOM      7  C   UNL     1       9.394 -21.125 -23.945  1.00  0.00     0.001 A 
ATOM      8  C   UNL     1       8.591 -20.875 -22.828  1.00  0.00     0.004 A 
ATOM      9  C   UNL     1       8.662 -19.641 -22.175  1.00  0.00     0.048 A 
ATOM     10  C   UNL     1       9.536 -18.651 -22.638  1.00  0.00     0.138 A 
ATOM     11  O   UNL     1       9.597 -17.480 -22.010  1.00  0.00    -0.456 OA
ENDROOT
BRANCH   1  12
ATOM     12  C   UNL     1      10.368 -15.217 -21.587  1.00  0.00     0.017 A 
ATOM     13  C   UNL     1      10.291 -12.779 -20.168  1.00  0.00     0.000 A 
ATOM     14  C   UNL     1      10.514 -13.975 -19.488  1.00  0.00     0.001 A 
ATOM     15  C   UNL     1      10.106 -12.789 -21.550  1.00  0.00     0.001 A 
ATOM     16  C   UNL     1      10.554 -15.187 -20.186  1.00  0.00     0.012 A 
ATOM     17  C   UNL     1      10.143 -13.995 -22.255  1.00  0.00     0.012 A 
ENDBRANCH   1  12
TORSDOF 1
ENDMDL
MODEL 5
REMARK VINA RESULT:    -5.952      3.504      6.231
REMARK INTER + INTRA:          -6.550
REMARK INTER:                  -6.288
REMARK INTRA:                  -0.262
REMARK UNBOUND:                -0.250
REMARK SMILES O=c1cc(-c2ccccc2)oc2ccccc12
REMARK SMILES IDX 4 1 3 2 2 3 1 4 17 5 16 6 15 7 14 8 13 9 12 10 11 11 5 12
REMARK SMILES IDX 8 13 7 14 9 15 6 16 10 17
REMARK H PARENT
REMARK Flexibility Score: inf
ROOT
ATOM      1  C   UNL     1      10.723 -16.319 -23.160  1.00  0.00     0.138 A 
ATOM      2  C   UNL     1      11.304 -17.577 -22.890  1.00  0.00     0.100 A 
ATOM      3  C   UNL     1      11.446 -18.505 -23.923  1.00  0.00     0.193 A 
ATOM      4  O   UNL     1      11.964 -19.629 -23.681  1.00  0.00    -0.289 OA
ATOM      5  C   UNL     1      11.009 -18.176 -25.214  1.00  0.00     0.065 A 
ATOM      6  C   UNL     1      11.123 -19.065 -26.298  1.00  0.00     0.016 A 
ATOM      7  C   UNL     1      10.671 -18.685 -27.565  1.00  0.00     0.001 A 
ATOM      8  C   UNL     1      10.105 -17.421 -27.761  1.00  0.00     0.004 A 
ATOM      9  C   UNL     1       9.989 -16.531 -26.689  1.00  0.00     0.048 A 
ATOM     10  C   UNL     1      10.438 -16.902 -25.416  1.00  0.00     0.138 A 
ATOM     11  O   UNL     1      10.322 -16.049 -24.403  1.00  0.00    -0.456 OA
ENDROOT
BRANCH   1  12
ATOM     12  C   UNL     1      10.533 -15.268 -22.114  1.00  0.00     0.017 A 
ATOM     13  C   UNL     1      10.188 -13.352 -20.071  1.00  0.00     0.000 A 
ATOM     14  C   UNL     1      10.141 -12.962 -21.408  1.00  0.00     0.001 A 
ATOM     15  C   UNL     1      10.406 -14.690 -19.744  1.00  0.00     0.001 A 
ATOM     16  C   UNL     1      10.312 -13.907 -22.425  1.00  0.00     0.012 A 
ATOM     17  C   UNL     1      10.578 -15.640 -20.753  1.00  0.00     0.012 A 
ENDBRANCH   1  12
TORSDOF 1
ENDMDL
MODEL 6
REMARK VINA RESULT:    -5.924      1.847      2.969
REMARK INTER + INTRA:          -6.520
REMARK INTER:                  -6.288
REMARK INTRA:                  -0.232
REMARK UNBOUND:                -0.250
REMARK SMILES O=c1cc(-c2ccccc2)oc2ccccc12
REMARK SMILES IDX 4 1 3 2 2 3 1 4 17 5 16 6 15 7 14 8 13 9 12 10 11 11 5 12
REMARK SMILES IDX 8 13 7 14 9 15 6 16 10 17
REMARK H PARENT
REMARK Flexibility Score: inf
ROOT
ATOM      1  C   UNL     1       9.728 -13.460 -23.683  1.00  0.00     0.138 A 
ATOM      2  C   UNL     1       9.403 -13.673 -22.326  1.00  0.00     0.100 A 
ATOM      3  C   UNL     1       9.690 -14.904 -21.735  1.00  0.00     0.193 A 
ATOM      4  O   UNL     1       9.398 -15.094 -20.522  1.00  0.00    -0.289 OA
ATOM      5  C   UNL     1      10.296 -15.913 -22.497  1.00  0.00     0.065 A 
ATOM      6  C   UNL     1      10.611 -17.175 -21.961  1.00  0.00     0.016 A 
ATOM      7  C   UNL     1      11.215 -18.146 -22.766  1.00  0.00     0.001 A 
ATOM      8  C   UNL     1      11.509 -17.866 -24.104  1.00  0.00     0.004 A 
ATOM      9  C   UNL     1      11.200 -16.614 -24.644  1.00  0.00     0.048 A 
ATOM     10  C   UNL     1      10.595 -15.636 -23.847  1.00  0.00     0.138 A 
ATOM     11  O   UNL     1      10.304 -14.449 -24.370  1.00  0.00    -0.456 OA
ENDROOT
BRANCH   1  12
ATOM     12  C   UNL     1       9.457 -12.173 -24.394  1.00  0.00     0.017 A 
ATOM     13  C   UNL     1       8.884  -9.791 -25.795  1.00  0.00     0.000 A 
ATOM     14  C   UNL     1       9.761  -9.770 -24.712  1.00  0.00     0.001 A 
ATOM     15  C   UNL     1       8.291 -10.991 -26.185  1.00  0.00     0.001 A 
ATOM     16  C   UNL     1      10.048 -10.947 -24.013  1.00  0.00     0.012 A 
ATOM     17  C   UNL     1       8.572 -12.171 -25.493  1.00  0.00     0.012 A 
ENDBRANCH   1  12
TORSDOF 1
ENDMDL
MODEL 7
REMARK VINA RESULT:    -5.906      3.045      6.977
REMARK INTER + INTRA:          -6.502
REMARK INTER:                  -6.272
REMARK INTRA:                  -0.230
REMARK UNBOUND:                -0.250
REMARK SMILES O=c1cc(-c2ccccc2)oc2ccccc12
REMARK SMILES IDX 4 1 3 2 2 3 1 4 17 5 16 6 15 7 14 8 13 9 12 10 11 11 5 12
REMARK SMILES IDX 8 13 7 14 9 15 6 16 10 17
REMARK H PARENT
REMARK Flexibility Score: inf
ROOT
ATOM      1  C   UNL     1      10.138 -16.778 -22.174  1.00  0.00     0.138 A 
ATOM      2  C   UNL     1      10.413 -16.276 -20.884  1.00  0.00     0.100 A 
ATOM      3  C   UNL     1      10.539 -14.899 -20.694  1.00  0.00     0.193 A 
ATOM      4  O   UNL     1      10.785 -14.451 -19.540  1.00  0.00    -0.289 OA
ATOM      5  C   UNL     1      10.391 -14.034 -21.787  1.00  0.00     0.065 A 
ATOM      6  C   UNL     1      10.506 -12.637 -21.663  1.00  0.00     0.016 A 
ATOM      7  C   UNL     1      10.349 -11.820 -22.787  1.00  0.00     0.001 A 
ATOM      8  C   UNL     1      10.077 -12.386 -24.036  1.00  0.00     0.004 A 
ATOM      9  C   UNL     1       9.961 -13.773 -24.168  1.00  0.00     0.048 A 
ATOM     10  C   UNL     1      10.116 -14.600 -23.049  1.00  0.00     0.138 A 
ATOM     11  O   UNL     1      10.005 -15.918 -23.185  1.00  0.00    -0.456 OA
ENDROOT
BRANCH   1  12
ATOM     12  C   UNL     1       9.987 -18.237 -22.465  1.00  0.00     0.017 A 
ATOM     13  C   UNL     1       9.623 -20.992 -22.959  1.00  0.00     0.000 A 
ATOM     14  C   UNL     1      10.692 -20.314 -23.542  1.00  0.00     0.001 A 
ATOM     15  C   UNL     1       8.734 -20.307 -22.131  1.00  0.00     0.001 A 
ATOM     16  C   UNL     1      10.878 -18.948 -23.302  1.00  0.00     0.012 A 
ATOM     17  C   UNL     1       8.912 -18.943 -21.885  1.00  0.00     0.012 A 
ENDBRANCH   1  12
TORSDOF 1
ENDMDL
MODEL 8
REMARK VINA RESULT:    -5.741      3.248      6.539
REMARK INTER + INTRA:          -6.327
REMARK INTER:                  -6.068
REMARK INTRA:                  -0.258
REMARK UNBOUND:                -0.250
REMARK SMILES O=c1cc(-c2ccccc2)oc2ccccc12
REMARK SMILES IDX 4 1 3 2 2 3 1 4 17 5 16 6 15 7 14 8 13 9 12 10 11 11 5 12
REMARK SMILES IDX 8 13 7 14 9 15 6 16 10 17
REMARK H PARENT
REMARK Flexibility Score: inf
ROOT
ATOM      1  C   UNL     1      10.174 -16.903 -23.360  1.00  0.00     0.138 A 
ATOM      2  C   UNL     1       9.969 -15.826 -24.249  1.00  0.00     0.100 A 
ATOM      3  C   UNL     1       9.933 -14.522 -23.753  1.00  0.00     0.193 A 
ATOM      4  O   UNL     1       9.749 -13.560 -24.548  1.00  0.00    -0.289 OA
ATOM      5  C   UNL     1      10.101 -14.299 -22.379  1.00  0.00     0.065 A 
ATOM      6  C   UNL     1      10.076 -13.011 -21.816  1.00  0.00     0.016 A 
ATOM      7  C   UNL     1      10.250 -12.845 -20.438  1.00  0.00     0.001 A 
ATOM      8  C   UNL     1      10.449 -13.959 -19.616  1.00  0.00     0.004 A 
ATOM      9  C   UNL     1      10.476 -15.243 -20.168  1.00  0.00     0.048 A 
ATOM     10  C   UNL     1      10.304 -15.419 -21.545  1.00  0.00     0.138 A 
ATOM     11  O   UNL     1      10.330 -16.644 -22.060  1.00  0.00    -0.456 OA
ENDROOT
BRANCH   1  12
ATOM     12  C   UNL     1      10.226 -18.330 -23.806  1.00  0.00     0.017 A 
ATOM     13  C   UNL     1      10.296 -21.048 -24.559  1.00  0.00     0.000 A 
ATOM     14  C   UNL     1      10.638 -20.060 -25.481  1.00  0.00     0.001 A 
ATOM     15  C   UNL     1       9.919 -20.692 -23.265  1.00  0.00     0.001 A 
ATOM     16  C   UNL     1      10.605 -18.711 -25.113  1.00  0.00     0.012 A 
ATOM     17  C   UNL     1       9.884 -19.346 -22.890  1.00  0.00     0.012 A 
ENDBRANCH   1  12
TORSDOF 1
ENDMDL
MODEL 9
REMARK VINA RESULT:    -5.728     15.507     17.907
REMARK INTER + INTRA:          -6.313
REMARK INTER:                  -6.056
REMARK INTRA:                  -0.258
REMARK UNBOUND:                -0.250
REMARK SMILES O=c1cc(-c2ccccc2)oc2ccccc12
REMARK SMILES IDX 4 1 3 2 2 3 1 4 17 5 16 6 15 7 14 8 13 9 12 10 11 11 5 12
REMARK SMILES IDX 8 13 7 14 9 15 6 16 10 17
REMARK H PARENT
REMARK Flexibility Score: inf
ROOT
ATOM      1  C   UNL     1      23.059  -4.524 -29.399  1.00  0.00     0.138 A 
ATOM      2  C   UNL     1      23.331  -3.202 -28.987  1.00  0.00     0.100 A 
ATOM      3  C   UNL     1      23.114  -2.146 -29.874  1.00  0.00     0.193 A 
ATOM      4  O   UNL     1      23.359  -0.965 -29.505  1.00  0.00    -0.289 OA
ATOM      5  C   UNL     1      22.629  -2.413 -31.161  1.00  0.00     0.065 A 
ATOM      6  C   UNL     1      22.389  -1.396 -32.102  1.00  0.00     0.016 A 
ATOM      7  C   UNL     1      21.904  -1.718 -33.373  1.00  0.00     0.001 A 
ATOM      8  C   UNL     1      21.655  -3.051 -33.714  1.00  0.00     0.004 A 
ATOM      9  C   UNL     1      21.891  -4.069 -32.785  1.00  0.00     0.048 A 
ATOM     10  C   UNL     1      22.376  -3.757 -31.510  1.00  0.00     0.138 A 
ATOM     11  O   UNL     1      22.598  -4.731 -30.634  1.00  0.00    -0.456 OA
ENDROOT
BRANCH   1  12
ATOM     12  C   UNL     1      23.263  -5.712 -28.514  1.00  0.00     0.017 A 
ATOM     13  C   UNL     1      23.634  -7.896 -26.766  1.00  0.00     0.000 A 
ATOM     14  C   UNL     1      23.705  -8.086 -28.144  1.00  0.00     0.001 A 
ATOM     15  C   UNL     1      23.380  -6.625 -26.251  1.00  0.00     0.001 A 
ATOM     16  C   UNL     1      23.522  -7.008 -29.016  1.00  0.00     0.012 A 
ATOM     17  C   UNL     1      23.195  -5.542 -27.114  1.00  0.00     0.012 A 
ENDBRANCH   1  12
TORSDOF 1
ENDMDL
