MODEL 1
REMARK VINA RESULT:    -6.330      0.000      0.000
REMARK INTER + INTRA:         -10.681
REMARK INTER:                  -9.291
REMARK INTRA:                  -1.390
REMARK UNBOUND:                -1.390
REMARK SMILES O=c1c(O[C@H]2O[C@H](CO)[C@H](O)[C@@H](O)[C@H]2O)c(-c2ccc(O)c(O)c2)oc2cc(O)cc(O)c12
REMARK SMILES IDX 4 1 3 2 16 3 25 4 2 5 26 6 1 7 33 8 27 9 31 10 28 11 30 12
REMARK SMILES IDX 17 13 18 14 19 15 20 16 24 17 22 18 21 19 23 21 32 23 29 25
REMARK SMILES IDX 5 27 14 28 6 29 12 30 7 31 10 32 15 33 13 35 8 37 9 38 11 40
REMARK H PARENT 21 20 23 22 32 24 29 26 15 34 13 36 9 39 11 41
REMARK Flexibility Score: inf
ROOT
ATOM      1  O   UNL     1       7.126  10.185 -17.502  1.00  0.00    -0.454 OA
ENDROOT
BRANCH   1   2
ATOM      2  C   UNL     1       7.152   8.832 -17.099  1.00  0.00     0.214 A 
ATOM      3  C   UNL     1       7.350   8.561 -15.732  1.00  0.00     0.180 A 
ATOM      4  O   UNL     1       7.332   7.312 -15.287  1.00  0.00    -0.452 OA
ATOM      5  C   UNL     1       6.967   7.738 -17.976  1.00  0.00     0.239 A 
ATOM      6  C   UNL     1       7.136   6.260 -16.069  1.00  0.00     0.146 A 
ATOM      7  O   UNL     1       6.891   7.936 -19.214  1.00  0.00    -0.285 OA
ATOM      8  C   UNL     1       6.907   6.419 -17.458  1.00  0.00     0.111 A 
ATOM      9  C   UNL     1       7.173   4.987 -15.494  1.00  0.00     0.094 A 
ATOM     10  C   UNL     1       6.663   5.251 -18.244  1.00  0.00     0.134 A 
ATOM     11  C   UNL     1       6.993   3.850 -16.283  1.00  0.00     0.123 A 
ATOM     12  C   UNL     1       6.747   3.987 -17.647  1.00  0.00     0.093 A 
BRANCH   3  13
ATOM     13  C   UNL     1       7.570   9.644 -14.747  1.00  0.00     0.025 A 
ATOM     14  C   UNL     1       6.901   9.653 -13.512  1.00  0.00     0.016 A 
ATOM     15  C   UNL     1       7.118  10.686 -12.598  1.00  0.00     0.051 A 
ATOM     16  C   UNL     1       7.989  11.734 -12.910  1.00  0.00     0.157 A 
ATOM     17  C   UNL     1       8.427  10.709 -15.069  1.00  0.00     0.062 A 
ATOM     18  C   UNL     1       8.644  11.750 -14.154  1.00  0.00     0.158 A 
BRANCH  16  19
ATOM     19  O   UNL     1       8.187  12.751 -11.978  1.00  0.00    -0.504 OA
ATOM     20  H   UNL     1       7.436  13.104 -11.397  1.00  0.00     0.293 HD
ENDBRANCH  16  19
BRANCH  18  21
ATOM     21  O   UNL     1       9.506  12.797 -14.476  1.00  0.00    -0.504 OA
ATOM     22  H   UNL     1       9.810  12.959 -15.428  1.00  0.00     0.293 HD
ENDBRANCH  18  21
ENDBRANCH   3  13
BRANCH  10  23
ATOM     23  O   UNL     1       6.307   5.279 -19.595  1.00  0.00    -0.507 OA
ATOM     24  H   UNL     1       6.934   5.072 -20.359  1.00  0.00     0.293 HD
ENDBRANCH  10  23
BRANCH  11  25
ATOM     25  O   UNL     1       7.048   2.578 -15.717  1.00  0.00    -0.508 OA
ATOM     26  H   UNL     1       7.902   2.216 -15.309  1.00  0.00     0.293 HD
ENDBRANCH  11  25
ENDBRANCH   1   2
BRANCH   1  27
ATOM     27  C   UNL     1       6.024  10.953 -17.998  1.00  0.00     0.339 C 
ATOM     28  C   UNL     1       6.161  11.282 -19.521  1.00  0.00     0.214 C 
ATOM     29  O   UNL     1       5.879  12.123 -17.205  1.00  0.00    -0.332 OA
ATOM     30  C   UNL     1       5.875  12.774 -19.801  1.00  0.00     0.180 C 
ATOM     31  C   UNL     1       6.907  13.059 -17.482  1.00  0.00     0.179 C 
ATOM     32  C   UNL     1       6.704  13.701 -18.889  1.00  0.00     0.177 C 
BRANCH  28  33
ATOM     33  O   UNL     1       7.412  10.893 -20.038  1.00  0.00    -0.384 OA
ATOM     34  H   UNL     1       7.433   9.903 -20.076  1.00  0.00     0.211 HD
ENDBRANCH  28  33
BRANCH  30  35
ATOM     35  O   UNL     1       6.135  13.082 -21.147  1.00  0.00    -0.387 OA
ATOM     36  H   UNL     1       6.699  12.346 -21.506  1.00  0.00     0.211 HD
ENDBRANCH  30  35
BRANCH  31  37
ATOM     37  C   UNL     1       6.982  14.080 -16.337  1.00  0.00     0.191 C 
BRANCH  37  38
ATOM     38  O   UNL     1       8.151  14.848 -16.437  1.00  0.00    -0.394 OA
ATOM     39  H   UNL     1       8.371  15.134 -15.513  1.00  0.00     0.210 HD
ENDBRANCH  37  38
ENDBRANCH  31  37
BRANCH  32  40
ATOM     40  O   UNL     1       6.048  14.942 -18.809  1.00  0.00    -0.387 OA
ATOM     41  H   UNL     1       6.629  15.612 -19.255  1.00  0.00     0.211 HD
ENDBRANCH  32  40
ENDBRANCH   1  27
TORSDOF 12
ENDMDL
MODEL 2
REMARK VINA RESULT:    -6.128      2.633      7.631
REMARK INTER + INTRA:         -10.383
REMARK INTER:                  -9.635
REMARK INTRA:                  -0.748
REMARK UNBOUND:                -1.390
REMARK SMILES O=c1c(O[C@H]2O[C@H](CO)[C@H](O)[C@@H](O)[C@H]2O)c(-c2ccc(O)c(O)c2)oc2cc(O)cc(O)c12
REMARK SMILES IDX 4 1 3 2 16 3 25 4 2 5 26 6 1 7 33 8 27 9 31 10 28 11 30 12
REMARK SMILES IDX 17 13 18 14 19 15 20 16 24 17 22 18 21 19 23 21 32 23 29 25
REMARK SMILES IDX 5 27 14 28 6 29 12 30 7 31 10 32 15 33 13 35 8 37 9 38 11 40
REMARK H PARENT 21 20 23 22 32 24 29 26 15 34 13 36 9 39 11 41
REMARK Flexibility Score: inf
ROOT
ATOM      1  O   UNL     1      10.108  12.562 -16.411  1.00  0.00    -0.454 OA
ENDROOT
BRANCH   1   2
ATOM      2  C   UNL     1       9.742  13.071 -17.676  1.00  0.00     0.214 A 
ATOM      3  C   UNL     1       9.090  12.197 -18.567  1.00  0.00     0.180 A 
ATOM      4  O   UNL     1       8.676  12.632 -19.749  1.00  0.00    -0.452 OA
ATOM      5  C   UNL     1       9.965  14.404 -18.092  1.00  0.00     0.239 A 
ATOM      6  C   UNL     1       8.841  13.879 -20.169  1.00  0.00     0.146 A 
ATOM      7  O   UNL     1      10.633  15.181 -17.367  1.00  0.00    -0.285 OA
ATOM      8  C   UNL     1       9.466  14.847 -19.343  1.00  0.00     0.111 A 
ATOM      9  C   UNL     1       8.394  14.215 -21.448  1.00  0.00     0.094 A 
ATOM     10  C   UNL     1       9.581  16.184 -19.834  1.00  0.00     0.134 A 
ATOM     11  C   UNL     1       8.566  15.510 -21.939  1.00  0.00     0.123 A 
ATOM     12  C   UNL     1       9.162  16.480 -21.136  1.00  0.00     0.093 A 
BRANCH   3  13
ATOM     13  C   UNL     1       8.833  10.781 -18.221  1.00  0.00     0.025 A 
ATOM     14  C   UNL     1       9.882   9.853 -18.124  1.00  0.00     0.016 A 
ATOM     15  C   UNL     1       9.620   8.520 -17.803  1.00  0.00     0.051 A 
ATOM     16  C   UNL     1       8.306   8.089 -17.593  1.00  0.00     0.157 A 
ATOM     17  C   UNL     1       7.512  10.342 -18.034  1.00  0.00     0.062 A 
ATOM     18  C   UNL     1       7.244   9.003 -17.714  1.00  0.00     0.158 A 
BRANCH  16  19
ATOM     19  O   UNL     1       8.074   6.753 -17.273  1.00  0.00    -0.504 OA
ATOM     20  H   UNL     1       8.676   6.007 -17.601  1.00  0.00     0.293 HD
ENDBRANCH  16  19
BRANCH  18  21
ATOM     21  O   UNL     1       5.931   8.578 -17.518  1.00  0.00    -0.504 OA
ATOM     22  H   UNL     1       5.407   8.121 -18.253  1.00  0.00     0.293 HD
ENDBRANCH  18  21
ENDBRANCH   3  13
BRANCH  10  23
ATOM     23  O   UNL     1      10.067  17.253 -19.078  1.00  0.00    -0.507 OA
ATOM     24  H   UNL     1      10.951  17.716 -19.237  1.00  0.00     0.293 HD
ENDBRANCH  10  23
BRANCH  11  25
ATOM     25  O   UNL     1       8.140  15.845 -23.223  1.00  0.00    -0.508 OA
ATOM     26  H   UNL     1       7.173  16.082 -23.415  1.00  0.00     0.293 HD
ENDBRANCH  11  25
ENDBRANCH   1   2
BRANCH   1  27
ATOM     27  C   UNL     1       9.705  13.011 -15.111  1.00  0.00     0.339 C 
ATOM     28  C   UNL     1       9.176  11.845 -14.213  1.00  0.00     0.214 C 
ATOM     29  O   UNL     1       8.752  14.055 -15.256  1.00  0.00    -0.332 OA
ATOM     30  C   UNL     1       7.847  12.225 -13.524  1.00  0.00     0.180 C 
ATOM     31  C   UNL     1       7.499  13.547 -15.682  1.00  0.00     0.179 C 
ATOM     32  C   UNL     1       6.806  12.753 -14.533  1.00  0.00     0.177 C 
BRANCH  28  33
ATOM     33  O   UNL     1       9.059  10.636 -14.926  1.00  0.00    -0.384 OA
ATOM     34  H   UNL     1       9.448  10.772 -15.827  1.00  0.00     0.211 HD
ENDBRANCH  28  33
BRANCH  30  35
ATOM     35  O   UNL     1       7.317  11.123 -12.833  1.00  0.00    -0.387 OA
ATOM     36  H   UNL     1       6.352  11.075 -13.065  1.00  0.00     0.211 HD
ENDBRANCH  30  35
BRANCH  31  37
ATOM     37  C   UNL     1       6.652  14.700 -16.241  1.00  0.00     0.191 C 
BRANCH  37  38
ATOM     38  O   UNL     1       6.686  15.802 -15.374  1.00  0.00    -0.394 OA
ATOM     39  H   UNL     1       7.043  16.559 -15.906  1.00  0.00     0.210 HD
ENDBRANCH  37  38
ENDBRANCH  31  37
BRANCH  32  40
ATOM     40  O   UNL     1       5.877  13.544 -13.835  1.00  0.00    -0.387 OA
ATOM     41  H   UNL     1       6.372  14.316 -13.456  1.00  0.00     0.211 HD
ENDBRANCH  32  40
ENDBRANCH   1  27
TORSDOF 12
ENDMDL
MODEL 3
REMARK VINA RESULT:    -6.053      1.824      5.105
REMARK INTER + INTRA:         -10.274
REMARK INTER:                  -8.456
REMARK INTRA:                  -1.818
REMARK UNBOUND:                -1.390
REMARK SMILES O=c1c(O[C@H]2O[C@H](CO)[C@H](O)[C@@H](O)[C@H]2O)c(-c2ccc(O)c(O)c2)oc2cc(O)cc(O)c12
REMARK SMILES IDX 4 1 3 2 16 3 25 4 2 5 26 6 1 7 33 8 27 9 31 10 28 11 30 12
REMARK SMILES IDX 17 13 18 14 19 15 20 16 24 17 22 18 21 19 23 21 32 23 29 25
REMARK SMILES IDX 5 27 14 28 6 29 12 30 7 31 10 32 15 33 13 35 8 37 9 38 11 40
REMARK H PARENT 21 20 23 22 32 24 29 26 15 34 13 36 9 39 11 41
REMARK Flexibility Score: inf
ROOT
ATOM      1  O   UNL     1       7.009   8.005 -15.312  1.00  0.00    -0.454 OA
ENDROOT
BRANCH   1   2
ATOM      2  C   UNL     1       7.087   7.013 -16.314  1.00  0.00     0.214 A 
ATOM      3  C   UNL     1       7.322   7.438 -17.636  1.00  0.00     0.180 A 
ATOM      4  O   UNL     1       7.457   6.549 -18.611  1.00  0.00    -0.452 OA
ATOM      5  C   UNL     1       6.971   5.625 -16.070  1.00  0.00     0.239 A 
ATOM      6  C   UNL     1       7.381   5.239 -18.422  1.00  0.00     0.146 A 
ATOM      7  O   UNL     1       6.660   5.217 -14.924  1.00  0.00    -0.285 OA
ATOM      8  C   UNL     1       7.168   4.702 -17.128  1.00  0.00     0.111 A 
ATOM      9  C   UNL     1       7.505   4.399 -19.531  1.00  0.00     0.094 A 
ATOM     10  C   UNL     1       7.135   3.282 -16.980  1.00  0.00     0.134 A 
ATOM     11  C   UNL     1       7.410   3.015 -19.382  1.00  0.00     0.123 A 
ATOM     12  C   UNL     1       7.220   2.467 -18.115  1.00  0.00     0.093 A 
BRANCH   3  13
ATOM     13  C   UNL     1       7.438   8.872 -17.985  1.00  0.00     0.025 A 
ATOM     14  C   UNL     1       6.347   9.584 -18.509  1.00  0.00     0.016 A 
ATOM     15  C   UNL     1       6.477  10.935 -18.838  1.00  0.00     0.051 A 
ATOM     16  C   UNL     1       7.701  11.589 -18.668  1.00  0.00     0.157 A 
ATOM     17  C   UNL     1       8.673   9.523 -17.837  1.00  0.00     0.062 A 
ATOM     18  C   UNL     1       8.808  10.879 -18.169  1.00  0.00     0.158 A 
BRANCH  16  19
ATOM     19  O   UNL     1       7.802  12.938 -19.003  1.00  0.00    -0.504 OA
ATOM     20  H   UNL     1       7.872  13.250 -19.965  1.00  0.00     0.293 HD
ENDBRANCH  16  19
BRANCH  18  21
ATOM     21  O   UNL     1      10.034  11.522 -18.007  1.00  0.00    -0.504 OA
ATOM     22  H   UNL     1      10.246  12.055 -17.172  1.00  0.00     0.293 HD
ENDBRANCH  18  21
ENDBRANCH   3  13
BRANCH  10  23
ATOM     23  O   UNL     1       7.051   2.627 -15.749  1.00  0.00    -0.507 OA
ATOM     24  H   UNL     1       6.928   3.087 -14.858  1.00  0.00     0.293 HD
ENDBRANCH  10  23
BRANCH  11  25
ATOM     25  O   UNL     1       7.514   2.173 -20.487  1.00  0.00    -0.508 OA
ATOM     26  H   UNL     1       8.384   2.071 -20.997  1.00  0.00     0.293 HD
ENDBRANCH  11  25
ENDBRANCH   1   2
BRANCH   1  27
ATOM     27  C   UNL     1       7.961   8.329 -14.292  1.00  0.00     0.339 C 
ATOM     28  C   UNL     1       7.377   8.158 -12.852  1.00  0.00     0.214 C 
ATOM     29  O   UNL     1       8.457   9.641 -14.521  1.00  0.00    -0.332 OA
ATOM     30  C   UNL     1       7.694   9.384 -11.968  1.00  0.00     0.180 C 
ATOM     31  C   UNL     1       7.484  10.619 -14.194  1.00  0.00     0.179 C 
ATOM     32  C   UNL     1       7.287  10.706 -12.650  1.00  0.00     0.177 C 
BRANCH  28  33
ATOM     33  O   UNL     1       5.996   7.879 -12.867  1.00  0.00    -0.384 OA
ATOM     34  H   UNL     1       5.776   7.470 -13.743  1.00  0.00     0.211 HD
ENDBRANCH  28  33
BRANCH  30  35
ATOM     35  O   UNL     1       7.048   9.277 -10.725  1.00  0.00    -0.387 OA
ATOM     36  H   UNL     1       6.298   8.637 -10.845  1.00  0.00     0.211 HD
ENDBRANCH  30  35
BRANCH  31  37
ATOM     37  C   UNL     1       7.872  11.953 -14.849  1.00  0.00     0.191 C 
BRANCH  37  38
ATOM     38  O   UNL     1       9.266  12.095 -14.893  1.00  0.00    -0.394 OA
ATOM     39  H   UNL     1       9.504  12.696 -14.141  1.00  0.00     0.210 HD
ENDBRANCH  37  38
ENDBRANCH  31  37
BRANCH  32  40
ATOM     40  O   UNL     1       8.045  11.747 -12.083  1.00  0.00    -0.387 OA
ATOM     41  H   UNL     1       8.986  11.619 -12.374  1.00  0.00     0.211 HD
ENDBRANCH  32  40
ENDBRANCH   1  27
TORSDOF 12
ENDMDL
MODEL 4
REMARK VINA RESULT:    -5.994      1.972      4.937
REMARK INTER + INTRA:         -10.186
REMARK INTER:                  -9.001
REMARK INTRA:                  -1.185
REMARK UNBOUND:                -1.390
REMARK SMILES O=c1c(O[C@H]2O[C@H](CO)[C@H](O)[C@@H](O)[C@H]2O)c(-c2ccc(O)c(O)c2)oc2cc(O)cc(O)c12
REMARK SMILES IDX 4 1 3 2 16 3 25 4 2 5 26 6 1 7 33 8 27 9 31 10 28 11 30 12
REMARK SMILES IDX 17 13 18 14 19 15 20 16 24 17 22 18 21 19 23 21 32 23 29 25
REMARK SMILES IDX 5 27 14 28 6 29 12 30 7 31 10 32 15 33 13 35 8 37 9 38 11 40
REMARK H PARENT 21 20 23 22 32 24 29 26 15 34 13 36 9 39 11 41
REMARK Flexibility Score: inf
ROOT
ATOM      1  O   UNL     1       7.064  11.374 -15.576  1.00  0.00    -0.454 OA
ENDROOT
BRANCH   1   2
ATOM      2  C   UNL     1       6.841  10.044 -15.994  1.00  0.00     0.214 A 
ATOM      3  C   UNL     1       6.804   9.793 -17.380  1.00  0.00     0.180 A 
ATOM      4  O   UNL     1       6.649   8.557 -17.833  1.00  0.00    -0.452 OA
ATOM      5  C   UNL     1       6.680   8.949 -15.114  1.00  0.00     0.239 A 
ATOM      6  C   UNL     1       6.520   7.499 -17.044  1.00  0.00     0.146 A 
ATOM      7  O   UNL     1       6.605   9.149 -13.877  1.00  0.00    -0.285 OA
ATOM      8  C   UNL     1       6.565   7.635 -15.633  1.00  0.00     0.111 A 
ATOM      9  C   UNL     1       6.328   6.248 -17.633  1.00  0.00     0.094 A 
ATOM     10  C   UNL     1       6.460   6.455 -14.835  1.00  0.00     0.134 A 
ATOM     11  C   UNL     1       6.167   5.111 -16.841  1.00  0.00     0.123 A 
ATOM     12  C   UNL     1       6.226   5.221 -15.453  1.00  0.00     0.093 A 
BRANCH   3  13
ATOM     13  C   UNL     1       6.945  10.882 -18.373  1.00  0.00     0.025 A 
ATOM     14  C   UNL     1       5.875  11.744 -18.665  1.00  0.00     0.016 A 
ATOM     15  C   UNL     1       6.025  12.762 -19.609  1.00  0.00     0.051 A 
ATOM     16  C   UNL     1       7.237  12.922 -20.289  1.00  0.00     0.157 A 
ATOM     17  C   UNL     1       8.153  11.029 -19.072  1.00  0.00     0.062 A 
ATOM     18  C   UNL     1       8.306  12.048 -20.024  1.00  0.00     0.158 A 
BRANCH  16  19
ATOM     19  O   UNL     1       7.359  13.947 -21.225  1.00  0.00    -0.504 OA
ATOM     20  H   UNL     1       6.612  14.609 -21.400  1.00  0.00     0.293 HD
ENDBRANCH  16  19
BRANCH  18  21
ATOM     21  O   UNL     1       9.513  12.196 -20.705  1.00  0.00    -0.504 OA
ATOM     22  H   UNL     1       9.585  12.764 -21.540  1.00  0.00     0.293 HD
ENDBRANCH  18  21
ENDBRANCH   3  13
BRANCH  10  23
ATOM     23  O   UNL     1       6.606   6.437 -13.446  1.00  0.00    -0.507 OA
ATOM     24  H   UNL     1       6.345   5.665 -12.849  1.00  0.00     0.293 HD
ENDBRANCH  10  23
BRANCH  11  25
ATOM     25  O   UNL     1       5.955   3.863 -17.424  1.00  0.00    -0.508 OA
ATOM     26  H   UNL     1       6.629   3.112 -17.327  1.00  0.00     0.293 HD
ENDBRANCH  11  25
ENDBRANCH   1   2
BRANCH   1  27
ATOM     27  C   UNL     1       8.174  11.912 -14.846  1.00  0.00     0.339 C 
ATOM     28  C   UNL     1       8.597  13.327 -15.359  1.00  0.00     0.214 C 
ATOM     29  O   UNL     1       9.248  10.982 -14.883  1.00  0.00    -0.332 OA
ATOM     30  C   UNL     1      10.127  13.418 -15.557  1.00  0.00     0.180 C 
ATOM     31  C   UNL     1       9.854  10.952 -16.164  1.00  0.00     0.179 C 
ATOM     32  C   UNL     1      10.665  12.259 -16.420  1.00  0.00     0.177 C 
BRANCH  28  33
ATOM     33  O   UNL     1       7.904  13.699 -16.527  1.00  0.00    -0.384 OA
ATOM     34  H   UNL     1       7.229  14.380 -16.279  1.00  0.00     0.211 HD
ENDBRANCH  28  33
BRANCH  30  35
ATOM     35  O   UNL     1      10.475  14.646 -16.146  1.00  0.00    -0.387 OA
ATOM     36  H   UNL     1       9.643  15.186 -16.198  1.00  0.00     0.211 HD
ENDBRANCH  30  35
BRANCH  31  37
ATOM     37  C   UNL     1      10.685   9.667 -16.298  1.00  0.00     0.191 C 
BRANCH  37  38
ATOM     38  O   UNL     1      11.308   9.611 -17.553  1.00  0.00    -0.394 OA
ATOM     39  H   UNL     1      11.741   8.721 -17.604  1.00  0.00     0.210 HD
ENDBRANCH  37  38
ENDBRANCH  31  37
BRANCH  32  40
ATOM     40  O   UNL     1      12.032  12.093 -16.132  1.00  0.00    -0.387 OA
ATOM     41  H   UNL     1      12.259  11.144 -16.313  1.00  0.00     0.211 HD
ENDBRANCH  32  40
ENDBRANCH   1  27
TORSDOF 12
ENDMDL
MODEL 5
REMARK VINA RESULT:    -5.929      2.346      7.987
REMARK INTER + INTRA:         -10.091
REMARK INTER:                  -8.658
REMARK INTRA:                  -1.433
REMARK UNBOUND:                -1.390
REMARK SMILES O=c1c(O[C@H]2O[C@H](CO)[C@H](O)[C@@H](O)[C@H]2O)c(-c2ccc(O)c(O)c2)oc2cc(O)cc(O)c12
REMARK SMILES IDX 4 1 3 2 16 3 25 4 2 5 26 6 1 7 33 8 27 9 31 10 28 11 30 12
REMARK SMILES IDX 17 13 18 14 19 15 20 16 24 17 22 18 21 19 23 21 32 23 29 25
REMARK SMILES IDX 5 27 14 28 6 29 12 30 7 31 10 32 15 33 13 35 8 37 9 38 11 40
REMARK H PARENT 21 20 23 22 32 24 29 26 15 34 13 36 9 39 11 41
REMARK Flexibility Score: inf
ROOT
ATOM      1  O   UNL     1       8.465  12.405 -16.605  1.00  0.00    -0.454 OA
ENDROOT
BRANCH   1   2
ATOM      2  C   UNL     1       8.506  12.989 -17.890  1.00  0.00     0.214 A 
ATOM      3  C   UNL     1       8.060  12.210 -18.975  1.00  0.00     0.180 A 
ATOM      4  O   UNL     1       8.027  12.722 -20.198  1.00  0.00    -0.452 OA
ATOM      5  C   UNL     1       8.941  14.309 -18.151  1.00  0.00     0.239 A 
ATOM      6  C   UNL     1       8.401  13.962 -20.483  1.00  0.00     0.146 A 
ATOM      7  O   UNL     1       9.441  14.995 -17.225  1.00  0.00    -0.285 OA
ATOM      8  C   UNL     1       8.847  14.839 -19.462  1.00  0.00     0.111 A 
ATOM      9  C   UNL     1       8.356  14.382 -21.814  1.00  0.00     0.094 A 
ATOM     10  C   UNL     1       9.199  16.175 -19.823  1.00  0.00     0.134 A 
ATOM     11  C   UNL     1       8.760  15.671 -22.162  1.00  0.00     0.123 A 
ATOM     12  C   UNL     1       9.184  16.554 -21.170  1.00  0.00     0.093 A 
BRANCH   3  13
ATOM     13  C   UNL     1       7.605  10.813 -18.797  1.00  0.00     0.025 A 
ATOM     14  C   UNL     1       6.287  10.432 -19.097  1.00  0.00     0.016 A 
ATOM     15  C   UNL     1       5.875   9.110 -18.917  1.00  0.00     0.051 A 
ATOM     16  C   UNL     1       6.765   8.154 -18.418  1.00  0.00     0.157 A 
ATOM     17  C   UNL     1       8.491   9.858 -18.273  1.00  0.00     0.062 A 
ATOM     18  C   UNL     1       8.079   8.529 -18.088  1.00  0.00     0.158 A 
BRANCH  16  19
ATOM     19  O   UNL     1       6.327   6.842 -18.249  1.00  0.00    -0.504 OA
ATOM     20  H   UNL     1       6.652   6.258 -17.488  1.00  0.00     0.293 HD
ENDBRANCH  16  19
BRANCH  18  21
ATOM     21  O   UNL     1       8.969   7.584 -17.580  1.00  0.00    -0.504 OA
ATOM     22  H   UNL     1       9.606   7.809 -16.825  1.00  0.00     0.293 HD
ENDBRANCH  18  21
ENDBRANCH   3  13
BRANCH  10  23
ATOM     23  O   UNL     1       9.539  17.169 -18.901  1.00  0.00    -0.507 OA
ATOM     24  H   UNL     1      10.438  17.628 -18.855  1.00  0.00     0.293 HD
ENDBRANCH  10  23
BRANCH  11  25
ATOM     25  O   UNL     1       8.735  16.089 -23.491  1.00  0.00    -0.508 OA
ATOM     26  H   UNL     1       7.886  16.049 -24.043  1.00  0.00     0.293 HD
ENDBRANCH  11  25
ENDBRANCH   1   2
BRANCH   1  27
ATOM     27  C   UNL     1       7.460  12.534 -15.592  1.00  0.00     0.339 C 
ATOM     28  C   UNL     1       8.035  13.088 -14.247  1.00  0.00     0.214 C 
ATOM     29  O   UNL     1       6.806  11.284 -15.425  1.00  0.00    -0.332 OA
ATOM     30  C   UNL     1       7.548  12.252 -13.042  1.00  0.00     0.180 C 
ATOM     31  C   UNL     1       7.641  10.357 -14.752  1.00  0.00     0.179 C 
ATOM     32  C   UNL     1       7.797  10.744 -13.250  1.00  0.00     0.177 C 
BRANCH  28  33
ATOM     33  O   UNL     1       9.440  13.187 -14.270  1.00  0.00    -0.384 OA
ATOM     34  H   UNL     1       9.757  12.839 -15.141  1.00  0.00     0.211 HD
ENDBRANCH  28  33
BRANCH  30  35
ATOM     35  O   UNL     1       8.179  12.676 -11.861  1.00  0.00    -0.387 OA
ATOM     36  H   UNL     1       9.158  12.602 -12.015  1.00  0.00     0.211 HD
ENDBRANCH  30  35
BRANCH  31  37
ATOM     37  C   UNL     1       7.100   8.937 -14.976  1.00  0.00     0.191 C 
BRANCH  37  38
ATOM     38  O   UNL     1       8.062   7.981 -14.620  1.00  0.00    -0.394 OA
ATOM     39  H   UNL     1       8.940   8.434 -14.697  1.00  0.00     0.210 HD
ENDBRANCH  37  38
ENDBRANCH  31  37
BRANCH  32  40
ATOM     40  O   UNL     1       6.903  10.033 -12.429  1.00  0.00    -0.387 OA
ATOM     41  H   UNL     1       7.249   9.107 -12.349  1.00  0.00     0.211 HD
ENDBRANCH  32  40
ENDBRANCH   1  27
TORSDOF 12
ENDMDL
MODEL 6
REMARK VINA RESULT:    -5.669      3.051      7.957
REMARK INTER + INTRA:          -9.709
REMARK INTER:                  -8.859
REMARK INTRA:                  -0.850
REMARK UNBOUND:                -1.390
REMARK SMILES O=c1c(O[C@H]2O[C@H](CO)[C@H](O)[C@@H](O)[C@H]2O)c(-c2ccc(O)c(O)c2)oc2cc(O)cc(O)c12
REMARK SMILES IDX 4 1 3 2 16 3 25 4 2 5 26 6 1 7 33 8 27 9 31 10 28 11 30 12
REMARK SMILES IDX 17 13 18 14 19 15 20 16 24 17 22 18 21 19 23 21 32 23 29 25
REMARK SMILES IDX 5 27 14 28 6 29 12 30 7 31 10 32 15 33 13 35 8 37 9 38 11 40
REMARK H PARENT 21 20 23 22 32 24 29 26 15 34 13 36 9 39 11 41
REMARK Flexibility Score: inf
ROOT
ATOM      1  O   UNL     1       8.291  13.189 -15.393  1.00  0.00    -0.454 OA
ENDROOT
BRANCH   1   2
ATOM      2  C   UNL     1       8.451  13.786 -16.663  1.00  0.00     0.214 A 
ATOM      3  C   UNL     1       9.178  13.070 -17.634  1.00  0.00     0.180 A 
ATOM      4  O   UNL     1       9.318  13.557 -18.859  1.00  0.00    -0.452 OA
ATOM      5  C   UNL     1       7.908  15.040 -17.027  1.00  0.00     0.239 A 
ATOM      6  C   UNL     1       8.804  14.715 -19.250  1.00  0.00     0.146 A 
ATOM      7  O   UNL     1       7.343  15.750 -16.159  1.00  0.00    -0.285 OA
ATOM      8  C   UNL     1       8.036  15.506 -18.359  1.00  0.00     0.111 A 
ATOM      9  C   UNL     1       9.045  15.143 -20.557  1.00  0.00     0.094 A 
ATOM     10  C   UNL     1       7.475  16.726 -18.847  1.00  0.00     0.134 A 
ATOM     11  C   UNL     1       8.541  16.365 -21.004  1.00  0.00     0.123 A 
ATOM     12  C   UNL     1       7.768  17.149 -20.149  1.00  0.00     0.093 A 
BRANCH   3  13
ATOM     13  C   UNL     1       9.798  11.759 -17.334  1.00  0.00     0.025 A 
ATOM     14  C   UNL     1      10.796  11.633 -16.355  1.00  0.00     0.016 A 
ATOM     15  C   UNL     1      11.373  10.389 -16.090  1.00  0.00     0.051 A 
ATOM     16  C   UNL     1      10.977   9.258 -16.812  1.00  0.00     0.157 A 
ATOM     17  C   UNL     1       9.417  10.628 -18.075  1.00  0.00     0.062 A 
ATOM     18  C   UNL     1       9.997   9.378 -17.814  1.00  0.00     0.158 A 
BRANCH  16  19
ATOM     19  O   UNL     1      11.569   8.030 -16.526  1.00  0.00    -0.504 OA
ATOM     20  H   UNL     1      12.326   7.653 -17.084  1.00  0.00     0.293 HD
ENDBRANCH  16  19
BRANCH  18  21
ATOM     21  O   UNL     1       9.605   8.258 -18.544  1.00  0.00    -0.504 OA
ATOM     22  H   UNL     1       8.787   8.274 -19.142  1.00  0.00     0.293 HD
ENDBRANCH  18  21
ENDBRANCH   3  13
BRANCH  10  23
ATOM     23  O   UNL     1       6.606  17.535 -18.112  1.00  0.00    -0.507 OA
ATOM     24  H   UNL     1       5.791  17.997 -18.489  1.00  0.00     0.293 HD
ENDBRANCH  10  23
BRANCH  11  25
ATOM     25  O   UNL     1       8.795  16.806 -22.301  1.00  0.00    -0.508 OA
ATOM     26  H   UNL     1       9.170  17.730 -22.483  1.00  0.00     0.293 HD
ENDBRANCH  11  25
ENDBRANCH   1   2
BRANCH   1  27
ATOM     27  C   UNL     1       7.089  12.739 -14.758  1.00  0.00     0.339 C 
ATOM     28  C   UNL     1       7.351  12.136 -13.339  1.00  0.00     0.214 C 
ATOM     29  O   UNL     1       6.424  11.823 -15.618  1.00  0.00    -0.332 OA
ATOM     30  C   UNL     1       6.621  10.787 -13.157  1.00  0.00     0.180 C 
ATOM     31  C   UNL     1       7.100  10.577 -15.658  1.00  0.00     0.179 C 
ATOM     32  C   UNL     1       6.921   9.810 -14.312  1.00  0.00     0.177 C 
BRANCH  28  33
ATOM     33  O   UNL     1       8.726  12.018 -13.057  1.00  0.00    -0.384 OA
ATOM     34  H   UNL     1       9.217  12.027 -13.918  1.00  0.00     0.211 HD
ENDBRANCH  28  33
BRANCH  30  35
ATOM     35  O   UNL     1       6.975  10.195 -11.933  1.00  0.00    -0.387 OA
ATOM     36  H   UNL     1       6.171  10.236 -11.351  1.00  0.00     0.211 HD
ENDBRANCH  30  35
BRANCH  31  37
ATOM     37  C   UNL     1       6.632   9.790 -16.890  1.00  0.00     0.191 C 
BRANCH  37  38
ATOM     38  O   UNL     1       7.015   8.445 -16.791  1.00  0.00    -0.394 OA
ATOM     39  H   UNL     1       7.723   8.310 -17.471  1.00  0.00     0.210 HD
ENDBRANCH  37  38
ENDBRANCH  31  37
BRANCH  32  40
ATOM     40  O   UNL     1       5.875   8.872 -14.378  1.00  0.00    -0.387 OA
ATOM     41  H   UNL     1       5.112   9.244 -13.864  1.00  0.00     0.211 HD
ENDBRANCH  32  40
ENDBRANCH   1  27
TORSDOF 12
ENDMDL
MODEL 7
REMARK VINA RESULT:    -5.606      1.796      6.785
REMARK INTER + INTRA:          -9.618
REMARK INTER:                  -7.994
REMARK INTRA:                  -1.624
REMARK UNBOUND:                -1.390
REMARK SMILES O=c1c(O[C@H]2O[C@H](CO)[C@H](O)[C@@H](O)[C@H]2O)c(-c2ccc(O)c(O)c2)oc2cc(O)cc(O)c12
REMARK SMILES IDX 4 1 3 2 16 3 25 4 2 5 26 6 1 7 33 8 27 9 31 10 28 11 30 12
REMARK SMILES IDX 17 13 18 14 19 15 20 16 24 17 22 18 21 19 23 21 32 23 29 25
REMARK SMILES IDX 5 27 14 28 6 29 12 30 7 31 10 32 15 33 13 35 8 37 9 38 11 40
REMARK H PARENT 21 20 23 22 32 24 29 26 15 34 13 36 9 39 11 41
REMARK Flexibility Score: inf
ROOT
ATOM      1  O   UNL     1       6.376   8.620 -17.797  1.00  0.00    -0.454 OA
ENDROOT
BRANCH   1   2
ATOM      2  C   UNL     1       6.616  10.011 -17.788  1.00  0.00     0.214 A 
ATOM      3  C   UNL     1       7.102  10.582 -16.596  1.00  0.00     0.180 A 
ATOM      4  O   UNL     1       7.394  11.875 -16.543  1.00  0.00    -0.452 OA
ATOM      5  C   UNL     1       6.423  10.859 -18.903  1.00  0.00     0.239 A 
ATOM      6  C   UNL     1       7.253  12.699 -17.571  1.00  0.00     0.146 A 
ATOM      7  O   UNL     1       5.895  10.405 -19.948  1.00  0.00    -0.285 OA
ATOM      8  C   UNL     1       6.791  12.226 -18.825  1.00  0.00     0.111 A 
ATOM      9  C   UNL     1       7.560  14.049 -17.389  1.00  0.00     0.094 A 
ATOM     10  C   UNL     1       6.697  13.153 -19.907  1.00  0.00     0.134 A 
ATOM     11  C   UNL     1       7.407  14.957 -18.438  1.00  0.00     0.123 A 
ATOM     12  C   UNL     1       6.972  14.507 -19.683  1.00  0.00     0.093 A 
BRANCH   3  13
ATOM     13  C   UNL     1       7.315   9.774 -15.375  1.00  0.00     0.025 A 
ATOM     14  C   UNL     1       6.293   9.603 -14.427  1.00  0.00     0.016 A 
ATOM     15  C   UNL     1       6.514   8.841 -13.278  1.00  0.00     0.051 A 
ATOM     16  C   UNL     1       7.763   8.256 -13.048  1.00  0.00     0.157 A 
ATOM     17  C   UNL     1       8.576   9.205 -15.131  1.00  0.00     0.062 A 
ATOM     18  C   UNL     1       8.802   8.442 -13.976  1.00  0.00     0.158 A 
BRANCH  16  19
ATOM     19  O   UNL     1       7.955   7.500 -11.893  1.00  0.00    -0.504 OA
ATOM     20  H   UNL     1       8.396   7.883 -11.065  1.00  0.00     0.293 HD
ENDBRANCH  16  19
BRANCH  18  21
ATOM     21  O   UNL     1      10.053   7.871 -13.748  1.00  0.00    -0.504 OA
ATOM     22  H   UNL     1      10.147   6.930 -13.386  1.00  0.00     0.293 HD
ENDBRANCH  18  21
ENDBRANCH   3  13
BRANCH  10  23
ATOM     23  O   UNL     1       6.371  12.794 -21.217  1.00  0.00    -0.507 OA
ATOM     24  H   UNL     1       7.043  12.591 -21.943  1.00  0.00     0.293 HD
ENDBRANCH  10  23
BRANCH  11  25
ATOM     25  O   UNL     1       7.694  16.308 -18.255  1.00  0.00    -0.508 OA
ATOM     26  H   UNL     1       7.043  16.930 -17.788  1.00  0.00     0.293 HD
ENDBRANCH  11  25
ENDBRANCH   1   2
BRANCH   1  27
ATOM     27  C   UNL     1       7.307   7.550 -18.001  1.00  0.00     0.339 C 
ATOM     28  C   UNL     1       7.056   6.787 -19.343  1.00  0.00     0.214 C 
ATOM     29  O   UNL     1       7.272   6.684 -16.875  1.00  0.00    -0.332 OA
ATOM     30  C   UNL     1       7.064   5.257 -19.130  1.00  0.00     0.180 C 
ATOM     31  C   UNL     1       6.086   5.909 -16.862  1.00  0.00     0.179 C 
ATOM     32  C   UNL     1       6.120   4.830 -17.988  1.00  0.00     0.177 C 
BRANCH  28  33
ATOM     33  O   UNL     1       5.875   7.211 -19.983  1.00  0.00    -0.384 OA
ATOM     34  H   UNL     1       5.120   7.072 -19.356  1.00  0.00     0.211 HD
ENDBRANCH  28  33
BRANCH  30  35
ATOM     35  O   UNL     1       6.704   4.592 -20.314  1.00  0.00    -0.387 OA
ATOM     36  H   UNL     1       5.843   4.130 -20.133  1.00  0.00     0.211 HD
ENDBRANCH  30  35
BRANCH  31  37
ATOM     37  C   UNL     1       5.875   5.333 -15.454  1.00  0.00     0.191 C 
BRANCH  37  38
ATOM     38  O   UNL     1       7.102   4.969 -14.881  1.00  0.00    -0.394 OA
ATOM     39  H   UNL     1       6.948   4.097 -14.435  1.00  0.00     0.210 HD
ENDBRANCH  37  38
ENDBRANCH  31  37
BRANCH  32  40
ATOM     40  O   UNL     1       6.549   3.581 -17.505  1.00  0.00    -0.387 OA
ATOM     41  H   UNL     1       7.530   3.640 -17.367  1.00  0.00     0.211 HD
ENDBRANCH  32  40
ENDBRANCH   1  27
TORSDOF 12
ENDMDL
MODEL 8
REMARK VINA RESULT:    -5.591      2.211      7.011
REMARK INTER + INTRA:          -9.596
REMARK INTER:                  -8.713
REMARK INTRA:                  -0.883
REMARK UNBOUND:                -1.390
REMARK SMILES O=c1c(O[C@H]2O[C@H](CO)[C@H](O)[C@@H](O)[C@H]2O)c(-c2ccc(O)c(O)c2)oc2cc(O)cc(O)c12
REMARK SMILES IDX 4 1 3 2 16 3 25 4 2 5 26 6 1 7 33 8 27 9 31 10 28 11 30 12
REMARK SMILES IDX 17 13 18 14 19 15 20 16 24 17 22 18 21 19 23 21 32 23 29 25
REMARK SMILES IDX 5 27 14 28 6 29 12 30 7 31 10 32 15 33 13 35 8 37 9 38 11 40
REMARK H PARENT 21 20 23 22 32 24 29 26 15 34 13 36 9 39 11 41
REMARK Flexibility Score: inf
ROOT
ATOM      1  O   UNL     1       6.985  10.910 -18.176  1.00  0.00    -0.454 OA
ENDROOT
BRANCH   1   2
ATOM      2  C   UNL     1       7.198  12.305 -18.212  1.00  0.00     0.214 A 
ATOM      3  C   UNL     1       7.252  12.990 -16.982  1.00  0.00     0.180 A 
ATOM      4  O   UNL     1       7.501  14.291 -16.950  1.00  0.00    -0.452 OA
ATOM      5  C   UNL     1       7.387  13.051 -19.399  1.00  0.00     0.239 A 
ATOM      6  C   UNL     1       7.709  15.023 -18.036  1.00  0.00     0.146 A 
ATOM      7  O   UNL     1       7.245  12.494 -20.515  1.00  0.00    -0.285 OA
ATOM      8  C   UNL     1       7.699  14.432 -19.324  1.00  0.00     0.111 A 
ATOM      9  C   UNL     1       7.929  16.394 -17.883  1.00  0.00     0.094 A 
ATOM     10  C   UNL     1       7.969  15.263 -20.454  1.00  0.00     0.134 A 
ATOM     11  C   UNL     1       8.132  17.206 -18.999  1.00  0.00     0.123 A 
ATOM     12  C   UNL     1       8.144  16.640 -20.273  1.00  0.00     0.093 A 
BRANCH   3  13
ATOM     13  C   UNL     1       7.046  12.292 -15.693  1.00  0.00     0.025 A 
ATOM     14  C   UNL     1       6.061  11.301 -15.550  1.00  0.00     0.016 A 
ATOM     15  C   UNL     1       5.878  10.658 -14.324  1.00  0.00     0.051 A 
ATOM     16  C   UNL     1       6.660  11.008 -13.219  1.00  0.00     0.157 A 
ATOM     17  C   UNL     1       7.814  12.660 -14.577  1.00  0.00     0.062 A 
ATOM     18  C   UNL     1       7.630  12.018 -13.343  1.00  0.00     0.158 A 
BRANCH  16  19
ATOM     19  O   UNL     1       6.456  10.349 -12.008  1.00  0.00    -0.504 OA
ATOM     20  H   UNL     1       5.622   9.804 -11.825  1.00  0.00     0.293 HD
ENDBRANCH  16  19
BRANCH  18  21
ATOM     21  O   UNL     1       8.406  12.379 -12.243  1.00  0.00    -0.504 OA
ATOM     22  H   UNL     1       8.052  12.305 -11.297  1.00  0.00     0.293 HD
ENDBRANCH  18  21
ENDBRANCH   3  13
BRANCH  10  23
ATOM     23  O   UNL     1       8.105  14.786 -21.760  1.00  0.00    -0.507 OA
ATOM     24  H   UNL     1       8.893  14.973 -22.363  1.00  0.00     0.293 HD
ENDBRANCH  10  23
BRANCH  11  25
ATOM     25  O   UNL     1       8.332  18.577 -18.853  1.00  0.00    -0.508 OA
ATOM     26  H   UNL     1       7.996  19.078 -18.039  1.00  0.00     0.293 HD
ENDBRANCH  11  25
ENDBRANCH   1   2
BRANCH   1  27
ATOM     27  C   UNL     1       7.852   9.857 -18.614  1.00  0.00     0.339 C 
ATOM     28  C   UNL     1       7.379   8.450 -18.122  1.00  0.00     0.214 C 
ATOM     29  O   UNL     1       9.181  10.152 -18.207  1.00  0.00    -0.332 OA
ATOM     30  C   UNL     1       8.550   7.643 -17.519  1.00  0.00     0.180 C 
ATOM     31  C   UNL     1       9.341   9.966 -16.810  1.00  0.00     0.179 C 
ATOM     32  C   UNL     1       9.314   8.449 -16.449  1.00  0.00     0.177 C 
BRANCH  28  33
ATOM     33  O   UNL     1       6.297   8.536 -17.224  1.00  0.00    -0.384 OA
ATOM     34  H   UNL     1       6.121   7.627 -16.869  1.00  0.00     0.211 HD
ENDBRANCH  28  33
BRANCH  30  35
ATOM     35  O   UNL     1       8.084   6.441 -16.960  1.00  0.00    -0.387 OA
ATOM     36  H   UNL     1       7.094   6.511 -16.912  1.00  0.00     0.211 HD
ENDBRANCH  30  35
BRANCH  31  37
ATOM     37  C   UNL     1      10.611  10.694 -16.347  1.00  0.00     0.191 C 
BRANCH  37  38
ATOM     38  O   UNL     1      10.720  11.944 -16.974  1.00  0.00    -0.394 OA
ATOM     39  H   UNL     1      10.040  11.948 -17.696  1.00  0.00     0.210 HD
ENDBRANCH  37  38
ENDBRANCH  31  37
BRANCH  32  40
ATOM     40  O   UNL     1      10.609   7.915 -16.335  1.00  0.00    -0.387 OA
ATOM     41  H   UNL     1      10.547   6.944 -16.535  1.00  0.00     0.211 HD
ENDBRANCH  32  40
ENDBRANCH   1  27
TORSDOF 12
ENDMDL
MODEL 9
REMARK VINA RESULT:    -5.582      3.020      7.645
REMARK INTER + INTRA:          -9.582
REMARK INTER:                  -8.241
REMARK INTRA:                  -1.341
REMARK UNBOUND:                -1.390
REMARK SMILES O=c1c(O[C@H]2O[C@H](CO)[C@H](O)[C@@H](O)[C@H]2O)c(-c2ccc(O)c(O)c2)oc2cc(O)cc(O)c12
REMARK SMILES IDX 4 1 3 2 16 3 25 4 2 5 26 6 1 7 33 8 27 9 31 10 28 11 30 12
REMARK SMILES IDX 17 13 18 14 19 15 20 16 24 17 22 18 21 19 23 21 32 23 29 25
REMARK SMILES IDX 5 27 14 28 6 29 12 30 7 31 10 32 15 33 13 35 8 37 9 38 11 40
REMARK H PARENT 21 20 23 22 32 24 29 26 15 34 13 36 9 39 11 41
REMARK Flexibility Score: inf
ROOT
ATOM      1  O   UNL     1       8.792  11.786 -17.806  1.00  0.00    -0.454 OA
ENDROOT
BRANCH   1   2
ATOM      2  C   UNL     1       8.377  13.134 -17.861  1.00  0.00     0.214 A 
ATOM      3  C   UNL     1       7.629  13.632 -16.777  1.00  0.00     0.180 A 
ATOM      4  O   UNL     1       7.256  14.904 -16.748  1.00  0.00    -0.452 OA
ATOM      5  C   UNL     1       8.687  14.019 -18.920  1.00  0.00     0.239 A 
ATOM      6  C   UNL     1       7.546  15.773 -17.706  1.00  0.00     0.146 A 
ATOM      7  O   UNL     1       9.262  13.585 -19.948  1.00  0.00    -0.285 OA
ATOM      8  C   UNL     1       8.312  15.384 -18.833  1.00  0.00     0.111 A 
ATOM      9  C   UNL     1       7.070  17.080 -17.585  1.00  0.00     0.094 A 
ATOM     10  C   UNL     1       8.627  16.373 -19.814  1.00  0.00     0.134 A 
ATOM     11  C   UNL     1       7.333  18.023 -18.580  1.00  0.00     0.123 A 
ATOM     12  C   UNL     1       8.101  17.665 -19.686  1.00  0.00     0.093 A 
BRANCH   3  13
ATOM     13  C   UNL     1       7.244  12.772 -15.635  1.00  0.00     0.025 A 
ATOM     14  C   UNL     1       6.231  11.807 -15.760  1.00  0.00     0.016 A 
ATOM     15  C   UNL     1       5.878  11.008 -14.670  1.00  0.00     0.051 A 
ATOM     16  C   UNL     1       6.515  11.174 -13.437  1.00  0.00     0.157 A 
ATOM     17  C   UNL     1       7.867  12.953 -14.390  1.00  0.00     0.062 A 
ATOM     18  C   UNL     1       7.512  12.155 -13.292  1.00  0.00     0.158 A 
BRANCH  16  19
ATOM     19  O   UNL     1       6.143  10.362 -12.367  1.00  0.00    -0.504 OA
ATOM     20  H   UNL     1       6.083   9.354 -12.450  1.00  0.00     0.293 HD
ENDBRANCH  16  19
BRANCH  18  21
ATOM     21  O   UNL     1       8.144  12.333 -12.063  1.00  0.00    -0.504 OA
ATOM     22  H   UNL     1       7.992  11.694 -11.292  1.00  0.00     0.293 HD
ENDBRANCH  18  21
ENDBRANCH   3  13
BRANCH  10  23
ATOM     23  O   UNL     1       9.469  16.151 -20.906  1.00  0.00    -0.507 OA
ATOM     24  H   UNL     1       9.156  16.004 -21.855  1.00  0.00     0.293 HD
ENDBRANCH  10  23
BRANCH  11  25
ATOM     25  O   UNL     1       6.844  19.323 -18.474  1.00  0.00    -0.508 OA
ATOM     26  H   UNL     1       7.147  20.057 -19.104  1.00  0.00     0.293 HD
ENDBRANCH  11  25
ENDBRANCH   1   2
BRANCH   1  27
ATOM     27  C   UNL     1       9.922  11.221 -17.130  1.00  0.00     0.339 C 
ATOM     28  C   UNL     1      10.854  10.415 -18.093  1.00  0.00     0.214 C 
ATOM     29  O   UNL     1       9.464  10.434 -16.039  1.00  0.00    -0.332 OA
ATOM     30  C   UNL     1      11.226   9.040 -17.494  1.00  0.00     0.180 C 
ATOM     31  C   UNL     1       8.884   9.223 -16.491  1.00  0.00     0.179 C 
ATOM     32  C   UNL     1       9.980   8.256 -17.036  1.00  0.00     0.177 C 
BRANCH  28  33
ATOM     33  O   UNL     1      10.300  10.282 -19.381  1.00  0.00    -0.384 OA
ATOM     34  H   UNL     1      10.010   9.341 -19.494  1.00  0.00     0.211 HD
ENDBRANCH  28  33
BRANCH  30  35
ATOM     35  O   UNL     1      11.948   8.275 -18.426  1.00  0.00    -0.387 OA
ATOM     36  H   UNL     1      12.840   8.702 -18.518  1.00  0.00     0.211 HD
ENDBRANCH  30  35
BRANCH  31  37
ATOM     37  C   UNL     1       8.029   8.623 -15.365  1.00  0.00     0.191 C 
BRANCH  37  38
ATOM     38  O   UNL     1       8.745   8.599 -14.160  1.00  0.00    -0.394 OA
ATOM     39  H   UNL     1       8.677   9.514 -13.783  1.00  0.00     0.210 HD
ENDBRANCH  37  38
ENDBRANCH  31  37
BRANCH  32  40
ATOM     40  O   UNL     1      10.380   7.319 -16.067  1.00  0.00    -0.387 OA
ATOM     41  H   UNL     1       9.596   7.141 -15.485  1.00  0.00     0.211 HD
ENDBRANCH  32  40
ENDBRANCH   1  27
TORSDOF 12
ENDMDL
