MODEL 1
REMARK VINA RESULT:     7.988      0.000      0.000
REMARK INTER + INTRA:          11.608
REMARK INTER:                  11.256
REMARK INTRA:                   0.352
REMARK UNBOUND:                 0.352
REMARK SMILES C=C(CC[C@H](C(=O)[O-])[C@H]1[C@H](O)C[C@@]2(C)C3=C(CC[C@]12C)[C@]1(C)CC[C@H](O)C(C)(C)[C@H]1CC3)C(C)C
REMARK SMILES IDX 4 1 5 2 6 3 7 4 8 5 9 6 10 7 19 8 12 9 13 10 18 11 20 12
REMARK SMILES IDX 14 13 15 14 17 15 16 16 32 17 21 18 31 19 30 20 23 21 22 22
REMARK SMILES IDX 27 23 24 24 25 25 28 26 29 27 11 28 26 30 3 32 2 33 1 34
REMARK SMILES IDX 33 35 34 36 35 37
REMARK H PARENT 11 29 26 31
REMARK Flexibility Score: inf
ROOT
ATOM      1  C   UNL     1      27.245  42.780  21.136  1.00  0.00     0.014 C 
ENDROOT
BRANCH   1   2
ATOM      2  C   UNL     1      27.494  42.630  19.614  1.00  0.00     0.042 C 
BRANCH   2   3
ATOM      3  C   UNL     1      26.624  43.620  18.874  1.00  0.00     0.045 C 
ATOM      4  O   UNL     1      26.986  44.054  17.749  1.00  0.00    -0.550 OA
ATOM      5  O   UNL     1      25.459  44.115  19.448  1.00  0.00    -0.550 OA
ENDBRANCH   2   3
BRANCH   2   6
ATOM      6  C   UNL     1      27.328  41.178  19.039  1.00  0.00     0.033 C 
ATOM      7  C   UNL     1      28.640  40.689  18.344  1.00  0.00     0.119 C 
ATOM      8  C   UNL     1      27.016  40.011  20.036  1.00  0.00    -0.017 C 
ATOM      9  C   UNL     1      28.773  39.173  18.608  1.00  0.00     0.043 C 
ATOM     10  C   UNL     1      27.425  38.747  19.218  1.00  0.00    -0.003 C 
ATOM     11  C   UNL     1      25.542  39.826  20.449  1.00  0.00     0.012 C 
ATOM     12  C   UNL     1      27.879  40.180  21.337  1.00  0.00     0.013 C 
ATOM     13  C   UNL     1      26.463  38.386  18.036  1.00  0.00     0.017 C 
ATOM     14  C   UNL     1      27.414  37.523  20.125  1.00  0.00    -0.064 C 
ATOM     15  C   UNL     1      25.315  38.487  21.202  1.00  0.00     0.032 C 
ATOM     16  C   UNL     1      26.338  37.354  20.970  1.00  0.00    -0.064 C 
ATOM     17  C   UNL     1      28.471  36.429  19.915  1.00  0.00     0.032 C 
ATOM     18  C   UNL     1      26.156  35.995  21.674  1.00  0.00    -0.008 C 
ATOM     19  C   UNL     1      28.486  35.267  20.940  1.00  0.00     0.009 C 
ATOM     20  C   UNL     1      27.593  35.573  22.158  1.00  0.00     0.007 C 
ATOM     21  C   UNL     1      25.168  36.015  22.890  1.00  0.00     0.014 C 
ATOM     22  C   UNL     1      25.539  35.049  20.601  1.00  0.00     0.016 C 
ATOM     23  C   UNL     1      27.642  34.556  23.365  1.00  0.00    -0.006 C 
ATOM     24  C   UNL     1      25.871  36.302  24.212  1.00  0.00     0.033 C 
ATOM     25  C   UNL     1      26.848  35.168  24.598  1.00  0.00     0.120 C 
ATOM     26  C   UNL     1      27.037  33.177  22.997  1.00  0.00     0.014 C 
ATOM     27  C   UNL     1      29.120  34.286  23.764  1.00  0.00     0.014 C 
BRANCH   7  28
ATOM     28  O   UNL     1      28.662  40.986  16.970  1.00  0.00    -0.393 OA
ATOM     29  H   UNL     1      28.071  40.342  16.504  1.00  0.00     0.210 HD
ENDBRANCH   7  28
BRANCH  25  30
ATOM     30  O   UNL     1      27.722  35.692  25.573  1.00  0.00    -0.393 OA
ATOM     31  H   UNL     1      28.588  35.883  25.125  1.00  0.00     0.210 HD
ENDBRANCH  25  30
ENDBRANCH   2   6
ENDBRANCH   1   2
BRANCH   1  32
ATOM     32  C   UNL     1      28.349  43.532  21.904  1.00  0.00     0.031 C 
BRANCH  32  33
ATOM     33  C   UNL     1      28.388  43.094  23.353  1.00  0.00    -0.075 C 
ATOM     34  C   UNL     1      28.986  41.932  23.674  1.00  0.00     0.008 C 
BRANCH  33  35
ATOM     35  C   UNL     1      27.752  43.972  24.424  1.00  0.00     0.008 C 
ATOM     36  C   UNL     1      26.220  43.922  24.354  1.00  0.00     0.012 C 
ATOM     37  C   UNL     1      28.257  43.592  25.821  1.00  0.00     0.012 C 
ENDBRANCH  33  35
ENDBRANCH  32  33
ENDBRANCH   1  32
TORSDOF 8
ENDMDL
