MODEL 1
REMARK VINA RESULT:    -4.191      0.000      0.000
REMARK INTER + INTRA:          -4.445
REMARK INTER:                  -4.436
REMARK INTRA:                  -0.009
REMARK UNBOUND:                -0.009
REMARK SMILES O=Cc1ccccc1
REMARK SMILES IDX 6 1 5 2 4 3 3 4 8 5 7 6 2 7 1 8
REMARK H PARENT
REMARK Flexibility Score: inf
ROOT
ATOM      1  C   UNL     1       6.759  12.770   4.944  1.00  0.00     0.000 A 
ATOM      2  C   UNL     1       6.003  11.756   4.348  1.00  0.00     0.001 A 
ATOM      3  C   UNL     1       5.223  10.908   5.139  1.00  0.00     0.011 A 
ATOM      4  C   UNL     1       5.193  11.069   6.536  1.00  0.00     0.014 A 
ATOM      5  C   UNL     1       5.955  12.091   7.125  1.00  0.00     0.011 A 
ATOM      6  C   UNL     1       6.735  12.938   6.330  1.00  0.00     0.001 A 
ENDROOT
BRANCH   4   7
ATOM      7  C   UNL     1       4.377  10.186   7.389  1.00  0.00     0.260 C 
ATOM      8  O   UNL     1       4.774   9.030   7.697  1.00  0.00    -0.298 OA
ENDBRANCH   4   7
TORSDOF 1
ENDMDL
MODEL 2
REMARK VINA RESULT:    -4.187      0.099      1.716
REMARK INTER + INTRA:          -4.441
REMARK INTER:                  -4.432
REMARK INTRA:                  -0.009
REMARK UNBOUND:                -0.009
REMARK SMILES O=Cc1ccccc1
REMARK SMILES IDX 6 1 5 2 4 3 3 4 8 5 7 6 2 7 1 8
REMARK H PARENT
REMARK Flexibility Score: inf
ROOT
ATOM      1  C   UNL     1       6.765  12.761   5.016  1.00  0.00     0.000 A 
ATOM      2  C   UNL     1       6.743  12.877   6.409  1.00  0.00     0.001 A 
ATOM      3  C   UNL     1       5.962  12.006   7.173  1.00  0.00     0.011 A 
ATOM      4  C   UNL     1       5.193  11.008   6.545  1.00  0.00     0.014 A 
ATOM      5  C   UNL     1       5.222  10.898   5.145  1.00  0.00     0.011 A 
ATOM      6  C   UNL     1       6.006  11.772   4.385  1.00  0.00     0.001 A 
ENDROOT
BRANCH   4   7
ATOM      7  C   UNL     1       4.363  10.077   7.331  1.00  0.00     0.260 C 
ATOM      8  O   UNL     1       4.859   9.044   7.854  1.00  0.00    -0.298 OA
ENDBRANCH   4   7
TORSDOF 1
ENDMDL
MODEL 3
REMARK VINA RESULT:    -4.125     16.304     17.284
REMARK INTER + INTRA:          -4.375
REMARK INTER:                  -4.366
REMARK INTRA:                  -0.009
REMARK UNBOUND:                -0.009
REMARK SMILES O=Cc1ccccc1
REMARK SMILES IDX 6 1 5 2 4 3 3 4 8 5 7 6 2 7 1 8
REMARK H PARENT
REMARK Flexibility Score: inf
ROOT
ATOM      1  C   UNL     1      -4.674   9.755  -9.111  1.00  0.00     0.000 A 
ATOM      2  C   UNL     1      -5.658   9.473  -8.160  1.00  0.00     0.001 A 
ATOM      3  C   UNL     1      -5.725  10.216  -6.978  1.00  0.00     0.011 A 
ATOM      4  C   UNL     1      -4.803  11.251  -6.738  1.00  0.00     0.014 A 
ATOM      5  C   UNL     1      -3.817  11.529  -7.700  1.00  0.00     0.011 A 
ATOM      6  C   UNL     1      -3.755  10.782  -8.882  1.00  0.00     0.001 A 
ENDROOT
BRANCH   4   7
ATOM      7  C   UNL     1      -4.855  12.048  -5.499  1.00  0.00     0.260 C 
ATOM      8  O   UNL     1      -5.507  13.125  -5.445  1.00  0.00    -0.298 OA
ENDBRANCH   4   7
TORSDOF 1
ENDMDL
MODEL 4
REMARK VINA RESULT:    -4.072      1.254      1.887
REMARK INTER + INTRA:          -4.319
REMARK INTER:                  -4.308
REMARK INTRA:                  -0.011
REMARK UNBOUND:                -0.009
REMARK SMILES O=Cc1ccccc1
REMARK SMILES IDX 6 1 5 2 4 3 3 4 8 5 7 6 2 7 1 8
REMARK H PARENT
REMARK Flexibility Score: inf
ROOT
ATOM      1  C   UNL     1       5.984  11.889   4.370  1.00  0.00     0.000 A 
ATOM      2  C   UNL     1       5.337  10.890   5.104  1.00  0.00     0.001 A 
ATOM      3  C   UNL     1       5.339  10.935   6.501  1.00  0.00     0.011 A 
ATOM      4  C   UNL     1       5.990  11.984   7.176  1.00  0.00     0.014 A 
ATOM      5  C   UNL     1       6.637  12.983   6.430  1.00  0.00     0.011 A 
ATOM      6  C   UNL     1       6.632  12.934   5.032  1.00  0.00     0.001 A 
ENDROOT
BRANCH   4   7
ATOM      7  C   UNL     1       6.004  12.051   8.649  1.00  0.00     0.260 C 
ATOM      8  O   UNL     1       4.983  11.752   9.324  1.00  0.00    -0.298 OA
ENDBRANCH   4   7
TORSDOF 1
ENDMDL
MODEL 5
REMARK VINA RESULT:    -3.995     16.587     17.430
REMARK INTER + INTRA:          -4.237
REMARK INTER:                  -4.224
REMARK INTRA:                  -0.014
REMARK UNBOUND:                -0.009
REMARK SMILES O=Cc1ccccc1
REMARK SMILES IDX 6 1 5 2 4 3 3 4 8 5 7 6 2 7 1 8
REMARK H PARENT
REMARK Flexibility Score: inf
ROOT
ATOM      1  C   UNL     1      -3.523  11.856  -8.180  1.00  0.00     0.000 A 
ATOM      2  C   UNL     1      -3.820  10.859  -9.114  1.00  0.00     0.001 A 
ATOM      3  C   UNL     1      -4.733   9.850  -8.795  1.00  0.00     0.011 A 
ATOM      4  C   UNL     1      -5.357   9.831  -7.534  1.00  0.00     0.014 A 
ATOM      5  C   UNL     1      -5.052  10.837  -6.602  1.00  0.00     0.011 A 
ATOM      6  C   UNL     1      -4.138  11.845  -6.926  1.00  0.00     0.001 A 
ENDROOT
BRANCH   4   7
ATOM      7  C   UNL     1      -6.324   8.776  -7.177  1.00  0.00     0.260 C 
ATOM      8  O   UNL     1      -7.079   8.899  -6.175  1.00  0.00    -0.298 OA
ENDBRANCH   4   7
TORSDOF 1
ENDMDL
MODEL 6
REMARK VINA RESULT:    -3.958      1.666      1.805
REMARK INTER + INTRA:          -4.198
REMARK INTER:                  -4.186
REMARK INTRA:                  -0.013
REMARK UNBOUND:                -0.009
REMARK SMILES O=Cc1ccccc1
REMARK SMILES IDX 6 1 5 2 4 3 3 4 8 5 7 6 2 7 1 8
REMARK H PARENT
REMARK Flexibility Score: inf
ROOT
ATOM      1  C   UNL     1       8.676  11.742   4.601  1.00  0.00     0.000 A 
ATOM      2  C   UNL     1       7.428  12.165   4.136  1.00  0.00     0.001 A 
ATOM      3  C   UNL     1       6.266  11.815   4.830  1.00  0.00     0.011 A 
ATOM      4  C   UNL     1       6.346  11.036   5.999  1.00  0.00     0.014 A 
ATOM      5  C   UNL     1       7.605  10.617   6.459  1.00  0.00     0.011 A 
ATOM      6  C   UNL     1       8.765  10.970   5.761  1.00  0.00     0.001 A 
ENDROOT
BRANCH   4   7
ATOM      7  C   UNL     1       5.134  10.656   6.747  1.00  0.00     0.260 C 
ATOM      8  O   UNL     1       5.082   9.577   7.396  1.00  0.00    -0.298 OA
ENDBRANCH   4   7
TORSDOF 1
ENDMDL
MODEL 7
REMARK VINA RESULT:    -3.950      3.144      4.145
REMARK INTER + INTRA:          -4.190
REMARK INTER:                  -4.176
REMARK INTRA:                  -0.014
REMARK UNBOUND:                -0.009
REMARK SMILES O=Cc1ccccc1
REMARK SMILES IDX 6 1 5 2 4 3 3 4 8 5 7 6 2 7 1 8
REMARK H PARENT
REMARK Flexibility Score: inf
ROOT
ATOM      1  C   UNL     1       6.265  10.581   6.298  1.00  0.00     0.000 A 
ATOM      2  C   UNL     1       5.695  11.255   5.215  1.00  0.00     0.001 A 
ATOM      3  C   UNL     1       6.511  11.907   4.286  1.00  0.00     0.011 A 
ATOM      4  C   UNL     1       7.910  11.889   4.436  1.00  0.00     0.014 A 
ATOM      5  C   UNL     1       8.474  11.209   5.528  1.00  0.00     0.011 A 
ATOM      6  C   UNL     1       7.653  10.558   6.455  1.00  0.00     0.001 A 
ENDROOT
BRANCH   4   7
ATOM      7  C   UNL     1       8.790  12.569   3.469  1.00  0.00     0.260 C 
ATOM      8  O   UNL     1      10.043  12.546   3.601  1.00  0.00    -0.298 OA
ENDBRANCH   4   7
TORSDOF 1
ENDMDL
MODEL 8
REMARK VINA RESULT:    -3.913      2.801      3.606
REMARK INTER + INTRA:          -4.151
REMARK INTER:                  -4.139
REMARK INTRA:                  -0.012
REMARK UNBOUND:                -0.009
REMARK SMILES O=Cc1ccccc1
REMARK SMILES IDX 6 1 5 2 4 3 3 4 8 5 7 6 2 7 1 8
REMARK H PARENT
REMARK Flexibility Score: inf
ROOT
ATOM      1  C   UNL     1       5.207  11.153   7.259  1.00  0.00     0.000 A 
ATOM      2  C   UNL     1       4.125  10.334   6.923  1.00  0.00     0.001 A 
ATOM      3  C   UNL     1       2.952  10.377   7.682  1.00  0.00     0.011 A 
ATOM      4  C   UNL     1       2.854  11.242   8.787  1.00  0.00     0.014 A 
ATOM      5  C   UNL     1       3.947  12.061   9.117  1.00  0.00     0.011 A 
ATOM      6  C   UNL     1       5.118  12.015   8.354  1.00  0.00     0.001 A 
ENDROOT
BRANCH   4   7
ATOM      7  C   UNL     1       1.627  11.304   9.602  1.00  0.00     0.260 C 
ATOM      8  O   UNL     1       1.201  12.400  10.056  1.00  0.00    -0.298 OA
ENDBRANCH   4   7
TORSDOF 1
ENDMDL
MODEL 9
REMARK VINA RESULT:    -3.820      1.921      3.902
REMARK INTER + INTRA:          -4.052
REMARK INTER:                  -4.043
REMARK INTRA:                  -0.010
REMARK UNBOUND:                -0.009
REMARK SMILES O=Cc1ccccc1
REMARK SMILES IDX 6 1 5 2 4 3 3 4 8 5 7 6 2 7 1 8
REMARK H PARENT
REMARK Flexibility Score: inf
ROOT
ATOM      1  C   UNL     1       3.927  10.452   9.486  1.00  0.00     0.000 A 
ATOM      2  C   UNL     1       4.500  11.704   9.243  1.00  0.00     0.001 A 
ATOM      3  C   UNL     1       5.192  11.940   8.052  1.00  0.00     0.011 A 
ATOM      4  C   UNL     1       5.316  10.919   7.091  1.00  0.00     0.014 A 
ATOM      5  C   UNL     1       4.736   9.665   7.343  1.00  0.00     0.011 A 
ATOM      6  C   UNL     1       4.045   9.434   8.536  1.00  0.00     0.001 A 
ENDROOT
BRANCH   4   7
ATOM      7  C   UNL     1       6.041  11.146   5.828  1.00  0.00     0.260 C 
ATOM      8  O   UNL     1       5.441  11.125   4.720  1.00  0.00    -0.298 OA
ENDBRANCH   4   7
TORSDOF 1
ENDMDL
