MODEL 1
REMARK VINA RESULT:    -3.694      0.000      0.000
REMARK INTER + INTRA:          -6.129
REMARK INTER:                  -5.638
REMARK INTRA:                  -0.492
REMARK UNBOUND:                -0.492
REMARK SMILES CC1=CCC[C@H](C)C(=O)C[C@H](C(C)C)C(=O)C1
REMARK SMILES IDX 8 1 9 2 6 3 7 4 5 5 4 6 3 7 2 8 1 9 10 11 11 12 15 13 16 14
REMARK SMILES IDX 17 15 12 17 13 18 14 19
REMARK H PARENT
REMARK Flexibility Score: 70.00
ROOT
ATOM      1  C   UNL     1      26.430  -4.347  52.300  1.00  0.00     0.136 C 
ATOM      2  O   UNL     1      25.725  -4.276  51.303  1.00  0.00    -0.299 OA
ENDROOT
BRANCH   1   3
ATOM      3  C   UNL     1      26.397  -3.225  53.312  1.00  0.00     0.053 C 
ATOM      4  C   UNL     1      26.627  -1.871  52.631  1.00  0.00     0.016 C 
BRANCH   3   5
ATOM      5  C   UNL     1      25.042  -3.257  54.070  1.00  0.00     0.015 C 
BRANCH   5   6
ATOM      6  C   UNL     1      25.009  -4.190  55.293  1.00  0.00     0.028 C 
BRANCH   6   7
ATOM      7  C   UNL     1      26.168  -4.054  56.257  1.00  0.00    -0.028 C 
ATOM      8  C   UNL     1      27.156  -4.956  56.466  1.00  0.00    -0.070 CG0
ATOM      9  C   UNL     1      28.122  -4.680  57.592  1.00  0.00     0.039 C 
ATOM     10  G   UNL     1      27.316  -6.236  55.662  1.00  0.00     0.000 G0
ENDBRANCH   6   7
ENDBRANCH   5   6
ENDBRANCH   3   5
ENDBRANCH   1   3
BRANCH   1  11
ATOM     11  C   UNL     1      27.313  -5.562  52.485  1.00  0.00     0.087 C 
BRANCH  11  12
ATOM     12  C   UNL     1      28.526  -5.353  53.440  1.00  0.00     0.066 C 
BRANCH  12  13
ATOM     13  C   UNL     1      28.467  -6.251  54.676  1.00  0.00     0.140 C 
ATOM     14  O   UNL     1      29.402  -7.008  54.893  1.00  0.00    -0.299 OA
BRANCH  13  15
ATOM     15  C   UNL     1      27.318  -6.249  55.676  1.00  0.00     0.106 CG0
ATOM     16  G   UNL     1      27.144  -4.961  56.465  1.00  0.00     0.000 G0
ENDBRANCH  13  15
ENDBRANCH  12  13
BRANCH  12  17
ATOM     17  C   UNL     1      29.874  -5.493  52.660  1.00  0.00    -0.006 C 
ATOM     18  C   UNL     1      29.643  -5.637  51.151  1.00  0.00     0.008 C 
ATOM     19  C   UNL     1      30.879  -4.352  52.916  1.00  0.00     0.008 C 
ENDBRANCH  12  17
ENDBRANCH  11  12
ENDBRANCH   1  11
TORSDOF 1
ENDMDL
MODEL 2
REMARK VINA RESULT:    -3.367     11.257     13.258
REMARK INTER + INTRA:          -5.631
REMARK INTER:                  -5.438
REMARK INTRA:                  -0.193
REMARK UNBOUND:                -0.492
REMARK SMILES CC1=CCC[C@H](C)C(=O)C[C@H](C(C)C)C(=O)C1
REMARK SMILES IDX 8 1 9 2 6 3 7 4 5 5 4 6 3 7 2 8 1 9 10 11 11 12 15 13 16 14
REMARK SMILES IDX 17 15 12 17 13 18 14 19
REMARK H PARENT
REMARK Flexibility Score: 70.00
ROOT
ATOM      1  C   UNL     1      15.914  -1.996  59.831  1.00  0.00     0.136 C 
ATOM      2  O   UNL     1      16.524  -2.316  58.820  1.00  0.00    -0.299 OA
ENDROOT
BRANCH   1   3
ATOM      3  C   UNL     1      15.639  -0.534  60.096  1.00  0.00     0.053 C 
ATOM      4  C   UNL     1      14.535  -0.370  61.147  1.00  0.00     0.016 C 
BRANCH   3   5
ATOM      5  C   UNL     1      16.954   0.164  60.540  1.00  0.00     0.015 C 
BRANCH   5   6
ATOM      6  C   UNL     1      17.551  -0.363  61.856  1.00  0.00     0.028 C 
BRANCH   6   7
ATOM      7  C   UNL     1      18.817  -1.182  61.723  1.00  0.00    -0.028 C 
ATOM      8  C   UNL     1      18.979  -2.482  62.065  1.00  0.00    -0.070 CG0
ATOM      9  C   UNL     1      20.374  -3.051  61.995  1.00  0.00     0.039 C 
ATOM     10  G   UNL     1      17.848  -3.375  62.549  1.00  0.00     0.000 G0
ENDBRANCH   6   7
ENDBRANCH   5   6
ENDBRANCH   3   5
ENDBRANCH   1   3
BRANCH   1  11
ATOM     11  C   UNL     1      15.455  -3.079  60.781  1.00  0.00     0.087 C 
BRANCH  11  12
ATOM     12  C   UNL     1      16.226  -4.428  60.663  1.00  0.00     0.066 C 
BRANCH  12  13
ATOM     13  C   UNL     1      17.432  -4.503  61.599  1.00  0.00     0.140 C 
ATOM     14  O   UNL     1      18.127  -5.508  61.578  1.00  0.00    -0.299 OA
BRANCH  13  15
ATOM     15  C   UNL     1      17.842  -3.387  62.552  1.00  0.00     0.106 CG0
ATOM     16  G   UNL     1      18.965  -2.490  62.057  1.00  0.00     0.000 G0
ENDBRANCH  13  15
ENDBRANCH  12  13
BRANCH  12  17
ATOM     17  C   UNL     1      15.252  -5.639  60.840  1.00  0.00    -0.006 C 
ATOM     18  C   UNL     1      14.680  -5.702  62.262  1.00  0.00     0.008 C 
ATOM     19  C   UNL     1      14.095  -5.678  59.822  1.00  0.00     0.008 C 
ENDBRANCH  12  17
ENDBRANCH  11  12
ENDBRANCH   1  11
TORSDOF 1
ENDMDL
MODEL 3
REMARK VINA RESULT:    -3.364      2.183      5.138
REMARK INTER + INTRA:          -5.626
REMARK INTER:                  -5.242
REMARK INTRA:                  -0.383
REMARK UNBOUND:                -0.492
REMARK SMILES CC1=CCC[C@H](C)C(=O)C[C@H](C(C)C)C(=O)C1
REMARK SMILES IDX 8 1 9 2 6 3 7 4 5 5 4 6 3 7 2 8 1 9 10 11 11 12 15 13 16 14
REMARK SMILES IDX 17 15 12 17 13 18 14 19
REMARK H PARENT
REMARK Flexibility Score: 70.00
ROOT
ATOM      1  C   UNL     1      29.058  -4.778  54.193  1.00  0.00     0.136 C 
ATOM      2  O   UNL     1      29.512  -4.248  55.197  1.00  0.00    -0.299 OA
ENDROOT
BRANCH   1   3
ATOM      3  C   UNL     1      29.944  -4.948  52.981  1.00  0.00     0.053 C 
ATOM      4  C   UNL     1      29.170  -5.592  51.826  1.00  0.00     0.016 C 
BRANCH   3   5
ATOM      5  C   UNL     1      30.527  -3.566  52.574  1.00  0.00     0.015 C 
BRANCH   5   6
ATOM      6  C   UNL     1      29.711  -2.810  51.511  1.00  0.00     0.028 C 
BRANCH   6   7
ATOM      7  C   UNL     1      28.804  -1.717  52.033  1.00  0.00    -0.028 C 
ATOM      8  C   UNL     1      27.469  -1.806  52.243  1.00  0.00    -0.070 CG0
ATOM      9  C   UNL     1      26.738  -0.540  52.616  1.00  0.00     0.039 C 
ATOM     10  G   UNL     1      26.672  -3.090  52.083  1.00  0.00     0.000 G0
ENDBRANCH   6   7
ENDBRANCH   5   6
ENDBRANCH   3   5
ENDBRANCH   1   3
BRANCH   1  11
ATOM     11  C   UNL     1      27.620  -5.249  54.201  1.00  0.00     0.087 C 
BRANCH  11  12
ATOM     12  C   UNL     1      26.571  -4.147  54.536  1.00  0.00     0.066 C 
BRANCH  12  13
ATOM     13  C   UNL     1      25.897  -3.574  53.290  1.00  0.00     0.140 C 
ATOM     14  O   UNL     1      24.678  -3.479  53.276  1.00  0.00    -0.299 OA
BRANCH  13  15
ATOM     15  C   UNL     1      26.653  -3.088  52.060  1.00  0.00     0.106 CG0
ATOM     16  G   UNL     1      27.456  -1.811  52.252  1.00  0.00     0.000 G0
ENDBRANCH  13  15
ENDBRANCH  12  13
BRANCH  12  17
ATOM     17  C   UNL     1      25.539  -4.670  55.590  1.00  0.00    -0.006 C 
ATOM     18  C   UNL     1      26.033  -5.946  56.281  1.00  0.00     0.008 C 
ATOM     19  C   UNL     1      25.141  -3.632  56.658  1.00  0.00     0.008 C 
ENDBRANCH  12  17
ENDBRANCH  11  12
ENDBRANCH   1  11
TORSDOF 1
ENDMDL
MODEL 4
REMARK VINA RESULT:    -3.213     11.126     13.302
REMARK INTER + INTRA:          -5.395
REMARK INTER:                  -5.155
REMARK INTRA:                  -0.240
REMARK UNBOUND:                -0.492
REMARK SMILES CC1=CCC[C@H](C)C(=O)C[C@H](C(C)C)C(=O)C1
REMARK SMILES IDX 8 1 9 2 6 3 7 4 5 5 4 6 3 7 2 8 1 9 10 11 11 12 15 13 16 14
REMARK SMILES IDX 17 15 12 17 13 18 14 19
REMARK H PARENT
REMARK Flexibility Score: 70.00
ROOT
ATOM      1  C   UNL     1      17.849   0.028  57.627  1.00  0.00     0.136 C 
ATOM      2  O   UNL     1      18.859  -0.166  56.964  1.00  0.00    -0.299 OA
ENDROOT
BRANCH   1   3
ATOM      3  C   UNL     1      16.533   0.253  56.919  1.00  0.00     0.053 C 
ATOM      4  C   UNL     1      16.432  -0.621  55.664  1.00  0.00     0.016 C 
BRANCH   3   5
ATOM      5  C   UNL     1      15.365  -0.031  57.905  1.00  0.00     0.015 C 
BRANCH   5   6
ATOM      6  C   UNL     1      14.637   1.221  58.420  1.00  0.00     0.028 C 
BRANCH   6   7
ATOM      7  C   UNL     1      14.474   1.317  59.922  1.00  0.00    -0.028 C 
ATOM      8  C   UNL     1      15.322   1.916  60.791  1.00  0.00    -0.070 CG0
ATOM      9  C   UNL     1      15.039   1.751  62.264  1.00  0.00     0.039 C 
ATOM     10  G   UNL     1      16.551   2.703  60.366  1.00  0.00     0.000 G0
ENDBRANCH   6   7
ENDBRANCH   5   6
ENDBRANCH   3   5
ENDBRANCH   1   3
BRANCH   1  11
ATOM     11  C   UNL     1      17.955   0.034  59.136  1.00  0.00     0.087 C 
BRANCH  11  12
ATOM     12  C   UNL     1      18.737   1.241  59.734  1.00  0.00     0.066 C 
BRANCH  12  13
ATOM     13  C   UNL     1      17.897   2.063  60.711  1.00  0.00     0.140 C 
ATOM     14  O   UNL     1      18.328   2.246  61.841  1.00  0.00    -0.299 OA
BRANCH  13  15
ATOM     15  C   UNL     1      16.557   2.696  60.360  1.00  0.00     0.106 CG0
ATOM     16  G   UNL     1      15.332   1.908  60.796  1.00  0.00     0.000 G0
ENDBRANCH  13  15
ENDBRANCH  12  13
BRANCH  12  17
ATOM     17  C   UNL     1      20.091   0.767  60.358  1.00  0.00    -0.006 C 
ATOM     18  C   UNL     1      20.040  -0.711  60.764  1.00  0.00     0.008 C 
ATOM     19  C   UNL     1      21.322   1.008  59.462  1.00  0.00     0.008 C 
ENDBRANCH  12  17
ENDBRANCH  11  12
ENDBRANCH   1  11
TORSDOF 1
ENDMDL
MODEL 5
REMARK VINA RESULT:    -3.167     10.916     12.894
REMARK INTER + INTRA:          -5.325
REMARK INTER:                  -5.241
REMARK INTRA:                  -0.084
REMARK UNBOUND:                -0.492
REMARK SMILES CC1=CCC[C@H](C)C(=O)C[C@H](C(C)C)C(=O)C1
REMARK SMILES IDX 8 1 9 2 6 3 7 4 5 5 4 6 3 7 2 8 1 9 10 11 11 12 15 13 16 14
REMARK SMILES IDX 17 15 12 17 13 18 14 19
REMARK H PARENT
REMARK Flexibility Score: 70.00
ROOT
ATOM      1  C   UNL     1      16.130  -0.770  58.333  1.00  0.00     0.136 C 
ATOM      2  O   UNL     1      16.827  -1.423  57.568  1.00  0.00    -0.299 OA
ENDROOT
BRANCH   1   3
ATOM      3  C   UNL     1      15.533   0.535  57.859  1.00  0.00     0.053 C 
ATOM      4  C   UNL     1      14.703   1.189  58.969  1.00  0.00     0.016 C 
BRANCH   3   5
ATOM      5  C   UNL     1      16.672   1.473  57.372  1.00  0.00     0.015 C 
BRANCH   5   6
ATOM      6  C   UNL     1      17.519   2.095  58.495  1.00  0.00     0.028 C 
BRANCH   6   7
ATOM      7  C   UNL     1      18.852   1.428  58.761  1.00  0.00    -0.028 C 
ATOM      8  C   UNL     1      19.176   0.670  59.835  1.00  0.00    -0.070 CG0
ATOM      9  C   UNL     1      20.615   0.237  59.971  1.00  0.00     0.039 C 
ATOM     10  G   UNL     1      18.187   0.273  60.919  1.00  0.00     0.000 G0
ENDBRANCH   6   7
ENDBRANCH   5   6
ENDBRANCH   3   5
ENDBRANCH   1   3
BRANCH   1  11
ATOM     11  C   UNL     1      15.890  -1.295  59.731  1.00  0.00     0.087 C 
BRANCH  11  12
ATOM     12  C   UNL     1      17.075  -2.101  60.343  1.00  0.00     0.066 C 
BRANCH  12  13
ATOM     13  C   UNL     1      18.031  -1.223  61.150  1.00  0.00     0.140 C 
ATOM     14  O   UNL     1      18.721  -1.750  62.012  1.00  0.00    -0.299 OA
BRANCH  13  15
ATOM     15  C   UNL     1      18.200   0.275  60.936  1.00  0.00     0.106 CG0
ATOM     16  G   UNL     1      19.171   0.670  59.835  1.00  0.00     0.000 G0
ENDBRANCH  13  15
ENDBRANCH  12  13
BRANCH  12  17
ATOM     17  C   UNL     1      16.547  -3.324  61.162  1.00  0.00    -0.006 C 
ATOM     18  C   UNL     1      15.810  -2.880  62.431  1.00  0.00     0.008 C 
ATOM     19  C   UNL     1      15.649  -4.286  60.359  1.00  0.00     0.008 C 
ENDBRANCH  12  17
ENDBRANCH  11  12
ENDBRANCH   1  11
TORSDOF 1
ENDMDL
MODEL 6
REMARK VINA RESULT:    -3.157     12.112     14.367
REMARK INTER + INTRA:          -5.309
REMARK INTER:                  -4.819
REMARK INTRA:                  -0.490
REMARK UNBOUND:                -0.492
REMARK SMILES CC1=CCC[C@H](C)C(=O)C[C@H](C(C)C)C(=O)C1
REMARK SMILES IDX 8 1 9 2 6 3 7 4 5 5 4 6 3 7 2 8 1 9 10 11 11 12 15 13 16 14
REMARK SMILES IDX 17 15 12 17 13 18 14 19
REMARK H PARENT
REMARK Flexibility Score: 70.00
ROOT
ATOM      1  C   UNL     1      17.045   1.940  62.146  1.00  0.00     0.136 C 
ATOM      2  O   UNL     1      17.897   2.668  62.637  1.00  0.00    -0.299 OA
ENDROOT
BRANCH   1   3
ATOM      3  C   UNL     1      15.633   2.457  61.989  1.00  0.00     0.053 C 
ATOM      4  C   UNL     1      15.058   2.893  63.341  1.00  0.00     0.016 C 
BRANCH   3   5
ATOM      5  C   UNL     1      15.626   3.625  60.964  1.00  0.00     0.015 C 
BRANCH   5   6
ATOM      6  C   UNL     1      15.591   3.190  59.490  1.00  0.00     0.028 C 
BRANCH   6   7
ATOM      7  C   UNL     1      16.904   3.289  58.743  1.00  0.00    -0.028 C 
ATOM      8  C   UNL     1      17.574   2.275  58.147  1.00  0.00    -0.070 CG0
ATOM      9  C   UNL     1      18.946   2.577  57.596  1.00  0.00     0.039 C 
ATOM     10  G   UNL     1      17.039   0.856  58.041  1.00  0.00     0.000 G0
ENDBRANCH   6   7
ENDBRANCH   5   6
ENDBRANCH   3   5
ENDBRANCH   1   3
BRANCH   1  11
ATOM     11  C   UNL     1      17.436   0.545  61.713  1.00  0.00     0.087 C 
BRANCH  11  12
ATOM     12  C   UNL     1      16.594  -0.039  60.540  1.00  0.00     0.066 C 
BRANCH  12  13
ATOM     13  C   UNL     1      17.360  -0.066  59.218  1.00  0.00     0.140 C 
ATOM     14  O   UNL     1      18.267  -0.876  59.084  1.00  0.00    -0.299 OA
BRANCH  13  15
ATOM     15  C   UNL     1      17.053   0.844  58.036  1.00  0.00     0.106 CG0
ATOM     16  G   UNL     1      17.577   2.266  58.156  1.00  0.00     0.000 G0
ENDBRANCH  13  15
ENDBRANCH  12  13
BRANCH  12  17
ATOM     17  C   UNL     1      16.008  -1.438  60.923  1.00  0.00    -0.006 C 
ATOM     18  C   UNL     1      16.831  -2.113  62.027  1.00  0.00     0.008 C 
ATOM     19  C   UNL     1      14.523  -1.414  61.335  1.00  0.00     0.008 C 
ENDBRANCH  12  17
ENDBRANCH  11  12
ENDBRANCH   1  11
TORSDOF 1
ENDMDL
MODEL 7
REMARK VINA RESULT:    -3.154     12.239     14.271
REMARK INTER + INTRA:          -5.305
REMARK INTER:                  -4.945
REMARK INTRA:                  -0.360
REMARK UNBOUND:                -0.492
REMARK SMILES CC1=CCC[C@H](C)C(=O)C[C@H](C(C)C)C(=O)C1
REMARK SMILES IDX 8 1 9 2 6 3 7 4 5 5 4 6 3 7 2 8 1 9 10 11 11 12 15 13 16 14
REMARK SMILES IDX 17 15 12 17 13 18 14 19
REMARK H PARENT
REMARK Flexibility Score: 70.00
ROOT
ATOM      1  C   UNL     1      15.554   0.169  58.145  1.00  0.00     0.136 C 
ATOM      2  O   UNL     1      14.740   0.125  57.234  1.00  0.00    -0.299 OA
ENDROOT
BRANCH   1   3
ATOM      3  C   UNL     1      16.946   0.690  57.869  1.00  0.00     0.053 C 
ATOM      4  C   UNL     1      17.635  -0.144  56.784  1.00  0.00     0.016 C 
BRANCH   3   5
ATOM      5  C   UNL     1      16.864   2.189  57.468  1.00  0.00     0.015 C 
BRANCH   5   6
ATOM      6  C   UNL     1      16.123   3.086  58.474  1.00  0.00     0.028 C 
BRANCH   6   7
ATOM      7  C   UNL     1      16.928   3.530  59.677  1.00  0.00    -0.028 C 
ATOM      8  C   UNL     1      16.787   3.093  60.950  1.00  0.00    -0.070 CG0
ATOM      9  C   UNL     1      17.591   3.792  62.018  1.00  0.00     0.039 C 
ATOM     10  G   UNL     1      15.842   1.974  61.360  1.00  0.00     0.000 G0
ENDBRANCH   6   7
ENDBRANCH   5   6
ENDBRANCH   3   5
ENDBRANCH   1   3
BRANCH   1  11
ATOM     11  C   UNL     1      15.137  -0.300  59.521  1.00  0.00     0.087 C 
BRANCH  11  12
ATOM     12  C   UNL     1      16.311  -0.549  60.514  1.00  0.00     0.066 C 
BRANCH  12  13
ATOM     13  C   UNL     1      16.495   0.595  61.511  1.00  0.00     0.140 C 
ATOM     14  O   UNL     1      17.214   0.413  62.483  1.00  0.00    -0.299 OA
BRANCH  13  15
ATOM     15  C   UNL     1      15.852   1.968  61.361  1.00  0.00     0.106 CG0
ATOM     16  G   UNL     1      16.797   3.087  60.954  1.00  0.00     0.000 G0
ENDBRANCH  13  15
ENDBRANCH  12  13
BRANCH  12  17
ATOM     17  C   UNL     1      16.155  -1.938  61.216  1.00  0.00    -0.006 C 
ATOM     18  C   UNL     1      14.872  -2.009  62.053  1.00  0.00     0.008 C 
ATOM     19  C   UNL     1      16.206  -3.144  60.258  1.00  0.00     0.008 C 
ENDBRANCH  12  17
ENDBRANCH  11  12
ENDBRANCH   1  11
TORSDOF 1
ENDMDL
MODEL 8
REMARK VINA RESULT:    -3.127      2.889      5.327
REMARK INTER + INTRA:          -5.264
REMARK INTER:                  -4.810
REMARK INTRA:                  -0.454
REMARK UNBOUND:                -0.492
REMARK SMILES CC1=CCC[C@H](C)C(=O)C[C@H](C(C)C)C(=O)C1
REMARK SMILES IDX 8 1 9 2 6 3 7 4 5 5 4 6 3 7 2 8 1 9 10 11 11 12 15 13 16 14
REMARK SMILES IDX 17 15 12 17 13 18 14 19
REMARK H PARENT
REMARK Flexibility Score: 70.00
ROOT
ATOM      1  C   UNL     1      26.152  -4.788  53.985  1.00  0.00     0.136 C 
ATOM      2  O   UNL     1      26.134  -5.622  54.880  1.00  0.00    -0.299 OA
ENDROOT
BRANCH   1   3
ATOM      3  C   UNL     1      26.749  -5.154  52.645  1.00  0.00     0.053 C 
ATOM      4  C   UNL     1      25.945  -4.526  51.501  1.00  0.00     0.016 C 
BRANCH   3   5
ATOM      5  C   UNL     1      28.236  -4.707  52.607  1.00  0.00     0.015 C 
BRANCH   5   6
ATOM      6  C   UNL     1      28.557  -3.621  51.567  1.00  0.00     0.028 C 
BRANCH   6   7
ATOM      7  C   UNL     1      29.301  -2.409  52.087  1.00  0.00    -0.028 C 
ATOM      8  C   UNL     1      28.753  -1.298  52.634  1.00  0.00    -0.070 CG0
ATOM      9  C   UNL     1      29.678  -0.146  52.939  1.00  0.00     0.039 C 
ATOM     10  G   UNL     1      27.268  -1.138  52.915  1.00  0.00     0.000 G0
ENDBRANCH   6   7
ENDBRANCH   5   6
ENDBRANCH   3   5
ENDBRANCH   1   3
BRANCH   1  11
ATOM     11  C   UNL     1      25.573  -3.416  54.252  1.00  0.00     0.087 C 
BRANCH  11  12
ATOM     12  C   UNL     1      26.475  -2.478  55.108  1.00  0.00     0.066 C 
BRANCH  12  13
ATOM     13  C   UNL     1      26.851  -1.191  54.375  1.00  0.00     0.140 C 
ATOM     14  O   UNL     1      26.848  -0.140  55.001  1.00  0.00    -0.299 OA
BRANCH  13  15
ATOM     15  C   UNL     1      27.255  -1.131  52.908  1.00  0.00     0.106 CG0
ATOM     16  G   UNL     1      28.742  -1.287  52.635  1.00  0.00     0.000 G0
ENDBRANCH  13  15
ENDBRANCH  12  13
BRANCH  12  17
ATOM     17  C   UNL     1      25.823  -2.207  56.503  1.00  0.00    -0.006 C 
ATOM     18  C   UNL     1      24.296  -2.111  56.405  1.00  0.00     0.008 C 
ATOM     19  C   UNL     1      26.201  -3.231  57.592  1.00  0.00     0.008 C 
ENDBRANCH  12  17
ENDBRANCH  11  12
ENDBRANCH   1  11
TORSDOF 1
ENDMDL
MODEL 9
REMARK VINA RESULT:    -3.028     11.196     13.784
REMARK INTER + INTRA:          -5.114
REMARK INTER:                  -4.679
REMARK INTRA:                  -0.435
REMARK UNBOUND:                -0.492
REMARK SMILES CC1=CCC[C@H](C)C(=O)C[C@H](C(C)C)C(=O)C1
REMARK SMILES IDX 8 1 9 2 6 3 7 4 5 5 4 6 3 7 2 8 1 9 10 11 11 12 15 13 16 14
REMARK SMILES IDX 17 15 12 17 13 18 14 19
REMARK H PARENT
REMARK Flexibility Score: 70.00
ROOT
ATOM      1  C   UNL     1      17.335  -0.650  57.462  1.00  0.00     0.136 C 
ATOM      2  O   UNL     1      17.258  -1.366  56.474  1.00  0.00    -0.299 OA
ENDROOT
BRANCH   1   3
ATOM      3  C   UNL     1      18.545   0.238  57.640  1.00  0.00     0.053 C 
ATOM      4  C   UNL     1      19.838  -0.582  57.570  1.00  0.00     0.016 C 
BRANCH   3   5
ATOM      5  C   UNL     1      18.522   1.358  56.564  1.00  0.00     0.015 C 
BRANCH   5   6
ATOM      6  C   UNL     1      17.137   1.973  56.302  1.00  0.00     0.028 C 
BRANCH   6   7
ATOM      7  C   UNL     1      16.803   3.210  57.108  1.00  0.00    -0.028 C 
ATOM      8  C   UNL     1      15.871   3.310  58.086  1.00  0.00    -0.070 CG0
ATOM      9  C   UNL     1      15.597   4.684  58.646  1.00  0.00     0.039 C 
ATOM     10  G   UNL     1      15.069   2.131  58.613  1.00  0.00     0.000 G0
ENDBRANCH   6   7
ENDBRANCH   5   6
ENDBRANCH   3   5
ENDBRANCH   1   3
BRANCH   1  11
ATOM     11  C   UNL     1      16.211  -0.679  58.475  1.00  0.00     0.087 C 
BRANCH  11  12
ATOM     12  C   UNL     1      16.471   0.149  59.768  1.00  0.00     0.066 C 
BRANCH  12  13
ATOM     13  C   UNL     1      15.629   1.423  59.833  1.00  0.00     0.140 C 
ATOM     14  O   UNL     1      15.408   1.922  60.928  1.00  0.00    -0.299 OA
BRANCH  13  15
ATOM     15  C   UNL     1      15.058   2.131  58.612  1.00  0.00     0.106 CG0
ATOM     16  G   UNL     1      15.878   3.304  58.098  1.00  0.00     0.000 G0
ENDBRANCH  13  15
ENDBRANCH  12  13
BRANCH  12  17
ATOM     17  C   UNL     1      16.306  -0.746  61.040  1.00  0.00    -0.006 C 
ATOM     18  C   UNL     1      15.656  -2.093  60.703  1.00  0.00     0.008 C 
ATOM     19  C   UNL     1      17.613  -0.990  61.819  1.00  0.00     0.008 C 
ENDBRANCH  12  17
ENDBRANCH  11  12
ENDBRANCH   1  11
TORSDOF 1
ENDMDL
