MODEL 1
REMARK VINA RESULT:    -7.071      0.000      0.000
REMARK INTER + INTRA:          -8.914
REMARK INTER:                  -8.725
REMARK INTRA:                  -0.189
REMARK UNBOUND:                -0.189
REMARK SMILES COc1cc(-c2oc3cc(O)cc(O)c3c(=O)c2O)ccc1O
REMARK SMILES IDX 6 1 18 2 16 3 17 4 15 5 13 6 12 7 10 8 9 9 8 10 7 11 5 12
REMARK SMILES IDX 3 13 22 14 4 15 21 16 20 17 2 18 1 19 23 20 19 22 14 24
REMARK SMILES IDX 11 26
REMARK H PARENT 23 21 19 23 14 25 11 27
REMARK Flexibility Score: inf
ROOT
ATOM      1  C   UNL     1      23.003  16.345   4.012  1.00  0.00     0.180 A 
ATOM      2  C   UNL     1      24.055  15.488   3.644  1.00  0.00     0.208 A 
ATOM      3  C   UNL     1      23.755  14.187   3.214  1.00  0.00     0.238 A 
ATOM      4  O   UNL     1      24.694  13.451   2.815  1.00  0.00    -0.285 OA
ATOM      5  C   UNL     1      22.412  13.738   3.211  1.00  0.00     0.111 A 
ATOM      6  C   UNL     1      21.994  12.424   2.838  1.00  0.00     0.134 A 
ATOM      7  C   UNL     1      20.628  12.126   2.772  1.00  0.00     0.093 A 
ATOM      8  C   UNL     1      19.666  13.070   3.126  1.00  0.00     0.123 A 
ATOM      9  C   UNL     1      20.064  14.341   3.545  1.00  0.00     0.094 A 
ATOM     10  C   UNL     1      21.418  14.680   3.584  1.00  0.00     0.146 A 
ATOM     11  O   UNL     1      21.751  15.907   3.968  1.00  0.00    -0.452 OA
ENDROOT
BRANCH   1  12
ATOM     12  C   UNL     1      23.241  17.736   4.461  1.00  0.00     0.025 A 
ATOM     13  C   UNL     1      23.160  19.477   6.178  1.00  0.00     0.161 A 
ATOM     14  C   UNL     1      23.763  20.374   5.286  1.00  0.00     0.157 A 
ATOM     15  C   UNL     1      22.906  18.154   5.761  1.00  0.00     0.062 A 
ATOM     16  C   UNL     1      24.118  19.953   3.997  1.00  0.00     0.051 A 
ATOM     17  C   UNL     1      23.865  18.642   3.591  1.00  0.00     0.016 A 
BRANCH  13  18
ATOM     18  O   UNL     1      22.830  19.932   7.464  1.00  0.00    -0.493 OA
ATOM     19  C   UNL     1      23.513  19.553   8.654  1.00  0.00     0.278 C 
ENDBRANCH  13  18
BRANCH  14  20
ATOM     20  O   UNL     1      24.013  21.685   5.690  1.00  0.00    -0.504 OA
ATOM     21  H   UNL     1      23.783  22.006   6.623  1.00  0.00     0.293 HD
ENDBRANCH  14  20
ENDBRANCH   1  12
BRANCH   2  22
ATOM     22  O   UNL     1      25.381  15.925   3.727  1.00  0.00    -0.502 OA
ATOM     23  H   UNL     1      26.152  15.293   3.904  1.00  0.00     0.293 HD
ENDBRANCH   2  22
BRANCH   6  24
ATOM     24  O   UNL     1      22.874  11.376   2.550  1.00  0.00    -0.507 OA
ATOM     25  H   UNL     1      22.767  10.724   1.789  1.00  0.00     0.293 HD
ENDBRANCH   6  24
BRANCH   8  26
ATOM     26  O   UNL     1      18.315  12.733   3.064  1.00  0.00    -0.508 OA
ATOM     27  H   UNL     1      17.768  12.887   2.225  1.00  0.00     0.293 HD
ENDBRANCH   8  26
TORSDOF 6
ENDMDL
MODEL 2
REMARK VINA RESULT:    -6.545      1.226      2.813
REMARK INTER + INTRA:          -8.265
REMARK INTER:                  -7.927
REMARK INTRA:                  -0.338
REMARK UNBOUND:                -0.189
REMARK SMILES COc1cc(-c2oc3cc(O)cc(O)c3c(=O)c2O)ccc1O
REMARK SMILES IDX 6 1 18 2 16 3 17 4 15 5 13 6 12 7 10 8 9 9 8 10 7 11 5 12
REMARK SMILES IDX 3 13 22 14 4 15 21 16 20 17 2 18 1 19 23 20 19 22 14 24
REMARK SMILES IDX 11 26
REMARK H PARENT 23 21 19 23 14 25 11 27
REMARK Flexibility Score: inf
ROOT
ATOM      1  C   UNL     1      22.663  16.589   4.048  1.00  0.00     0.180 A 
ATOM      2  C   UNL     1      21.334  16.241   3.748  1.00  0.00     0.208 A 
ATOM      3  C   UNL     1      21.049  14.928   3.345  1.00  0.00     0.238 A 
ATOM      4  O   UNL     1      19.849  14.604   3.150  1.00  0.00    -0.285 OA
ATOM      5  C   UNL     1      22.101  13.993   3.191  1.00  0.00     0.111 A 
ATOM      6  C   UNL     1      21.935  12.647   2.745  1.00  0.00     0.134 A 
ATOM      7  C   UNL     1      23.035  11.781   2.734  1.00  0.00     0.093 A 
ATOM      8  C   UNL     1      24.306  12.227   3.091  1.00  0.00     0.123 A 
ATOM      9  C   UNL     1      24.492  13.556   3.476  1.00  0.00     0.094 A 
ATOM     10  C   UNL     1      23.407  14.433   3.534  1.00  0.00     0.146 A 
ATOM     11  O   UNL     1      23.624  15.682   3.927  1.00  0.00    -0.452 OA
ENDROOT
BRANCH   1  12
ATOM     12  C   UNL     1      23.038  17.950   4.495  1.00  0.00     0.025 A 
ATOM     13  C   UNL     1      23.128  19.694   6.208  1.00  0.00     0.161 A 
ATOM     14  C   UNL     1      23.821  20.524   5.317  1.00  0.00     0.157 A 
ATOM     15  C   UNL     1      22.744  18.403   5.793  1.00  0.00     0.062 A 
ATOM     16  C   UNL     1      24.135  20.067   4.030  1.00  0.00     0.051 A 
ATOM     17  C   UNL     1      23.753  18.787   3.625  1.00  0.00     0.016 A 
BRANCH  13  18
ATOM     18  O   UNL     1      22.843  20.183   7.493  1.00  0.00    -0.493 OA
ATOM     19  C   UNL     1      23.198  19.525   8.704  1.00  0.00     0.278 C 
ENDBRANCH  13  18
BRANCH  14  20
ATOM     20  O   UNL     1      24.201  21.804   5.719  1.00  0.00    -0.504 OA
ATOM     21  H   UNL     1      25.157  22.128   5.623  1.00  0.00     0.293 HD
ENDBRANCH  14  20
ENDBRANCH   1  12
BRANCH   2  22
ATOM     22  O   UNL     1      20.320  17.199   3.832  1.00  0.00    -0.502 OA
ATOM     23  H   UNL     1      20.105  17.692   4.690  1.00  0.00     0.293 HD
ENDBRANCH   2  22
BRANCH   6  24
ATOM     24  O   UNL     1      20.725  12.120   2.281  1.00  0.00    -0.507 OA
ATOM     25  H   UNL     1      20.398  11.183   2.455  1.00  0.00     0.293 HD
ENDBRANCH   6  24
BRANCH   8  26
ATOM     26  O   UNL     1      25.382  11.342   3.051  1.00  0.00    -0.508 OA
ATOM     27  H   UNL     1      25.436  10.604   2.359  1.00  0.00     0.293 HD
ENDBRANCH   8  26
TORSDOF 6
ENDMDL
MODEL 3
REMARK VINA RESULT:    -5.401      1.599      7.205
REMARK INTER + INTRA:          -6.853
REMARK INTER:                  -6.668
REMARK INTRA:                  -0.184
REMARK UNBOUND:                -0.189
REMARK SMILES COc1cc(-c2oc3cc(O)cc(O)c3c(=O)c2O)ccc1O
REMARK SMILES IDX 6 1 18 2 16 3 17 4 15 5 13 6 12 7 10 8 9 9 8 10 7 11 5 12
REMARK SMILES IDX 3 13 22 14 4 15 21 16 20 17 2 18 1 19 23 20 19 22 14 24
REMARK SMILES IDX 11 26
REMARK H PARENT 23 21 19 23 14 25 11 27
REMARK Flexibility Score: inf
ROOT
ATOM      1  C   UNL     1      22.110  16.891   4.249  1.00  0.00     0.180 A 
ATOM      2  C   UNL     1      22.702  17.657   3.229  1.00  0.00     0.208 A 
ATOM      3  C   UNL     1      23.423  18.810   3.575  1.00  0.00     0.238 A 
ATOM      4  O   UNL     1      24.012  19.449   2.666  1.00  0.00    -0.285 OA
ATOM      5  C   UNL     1      23.495  19.217   4.930  1.00  0.00     0.111 A 
ATOM      6  C   UNL     1      24.160  20.393   5.392  1.00  0.00     0.134 A 
ATOM      7  C   UNL     1      24.258  20.637   6.767  1.00  0.00     0.093 A 
ATOM      8  C   UNL     1      23.661  19.785   7.694  1.00  0.00     0.123 A 
ATOM      9  C   UNL     1      22.961  18.661   7.252  1.00  0.00     0.094 A 
ATOM     10  C   UNL     1      22.879  18.370   5.889  1.00  0.00     0.146 A 
ATOM     11  O   UNL     1      22.222  17.279   5.514  1.00  0.00    -0.452 OA
ENDROOT
BRANCH   1  12
ATOM     12  C   UNL     1      21.348  15.654   3.963  1.00  0.00     0.025 A 
ATOM     13  C   UNL     1      21.208  13.384   3.062  1.00  0.00     0.161 A 
ATOM     14  C   UNL     1      19.877  13.304   3.491  1.00  0.00     0.157 A 
ATOM     15  C   UNL     1      21.943  14.562   3.308  1.00  0.00     0.062 A 
ATOM     16  C   UNL     1      19.288  14.383   4.164  1.00  0.00     0.051 A 
ATOM     17  C   UNL     1      20.020  15.546   4.404  1.00  0.00     0.016 A 
BRANCH  13  18
ATOM     18  O   UNL     1      21.766  12.278   2.402  1.00  0.00    -0.493 OA
ATOM     19  C   UNL     1      23.164  12.037   2.271  1.00  0.00     0.278 C 
ENDBRANCH  13  18
BRANCH  14  20
ATOM     20  O   UNL     1      19.143  12.143   3.249  1.00  0.00    -0.504 OA
ATOM     21  H   UNL     1      19.580  11.229   3.250  1.00  0.00     0.293 HD
ENDBRANCH  14  20
ENDBRANCH   1  12
BRANCH   2  22
ATOM     22  O   UNL     1      22.554  17.282   1.891  1.00  0.00    -0.502 OA
ATOM     23  H   UNL     1      21.997  16.485   1.608  1.00  0.00     0.293 HD
ENDBRANCH   2  22
BRANCH   6  24
ATOM     24  O   UNL     1      24.715  21.360   4.548  1.00  0.00    -0.507 OA
ATOM     25  H   UNL     1      25.702  21.535   4.439  1.00  0.00     0.293 HD
ENDBRANCH   6  24
BRANCH   8  26
ATOM     26  O   UNL     1      23.763  20.069   9.055  1.00  0.00    -0.508 OA
ATOM     27  H   UNL     1      24.081  19.372   9.719  1.00  0.00     0.293 HD
ENDBRANCH   8  26
TORSDOF 6
ENDMDL
MODEL 4
REMARK VINA RESULT:    -5.302      3.457      8.154
REMARK INTER + INTRA:          -6.731
REMARK INTER:                  -6.698
REMARK INTRA:                  -0.032
REMARK UNBOUND:                -0.189
REMARK SMILES COc1cc(-c2oc3cc(O)cc(O)c3c(=O)c2O)ccc1O
REMARK SMILES IDX 6 1 18 2 16 3 17 4 15 5 13 6 12 7 10 8 9 9 8 10 7 11 5 12
REMARK SMILES IDX 3 13 22 14 4 15 21 16 20 17 2 18 1 19 23 20 19 22 14 24
REMARK SMILES IDX 11 26
REMARK H PARENT 23 21 19 23 14 25 11 27
REMARK Flexibility Score: inf
ROOT
ATOM      1  C   UNL     1      22.778  19.644   8.789  1.00  0.00     0.180 A 
ATOM      2  C   UNL     1      23.727  20.073   9.734  1.00  0.00     0.208 A 
ATOM      3  C   UNL     1      23.344  20.187  11.080  1.00  0.00     0.238 A 
ATOM      4  O   UNL     1      24.216  20.499  11.930  1.00  0.00    -0.285 OA
ATOM      5  C   UNL     1      22.004  19.926  11.456  1.00  0.00     0.111 A 
ATOM      6  C   UNL     1      21.493  20.053  12.783  1.00  0.00     0.134 A 
ATOM      7  C   UNL     1      20.175  19.664  13.057  1.00  0.00     0.093 A 
ATOM      8  C   UNL     1      19.331  19.216  12.042  1.00  0.00     0.123 A 
ATOM      9  C   UNL     1      19.803  19.140  10.731  1.00  0.00     0.094 A 
ATOM     10  C   UNL     1      21.124  19.483  10.434  1.00  0.00     0.146 A 
ATOM     11  O   UNL     1      21.537  19.375   9.177  1.00  0.00    -0.452 OA
ENDROOT
BRANCH   1  12
ATOM     12  C   UNL     1      23.112  19.486   7.355  1.00  0.00     0.025 A 
ATOM     13  C   UNL     1      23.077  18.194   5.278  1.00  0.00     0.161 A 
ATOM     14  C   UNL     1      23.717  19.252   4.618  1.00  0.00     0.157 A 
ATOM     15  C   UNL     1      22.770  18.319   6.649  1.00  0.00     0.062 A 
ATOM     16  C   UNL     1      24.038  20.424   5.316  1.00  0.00     0.051 A 
ATOM     17  C   UNL     1      23.732  20.542   6.672  1.00  0.00     0.016 A 
BRANCH  13  18
ATOM     18  O   UNL     1      22.760  17.041   4.543  1.00  0.00    -0.493 OA
ATOM     19  C   UNL     1      21.709  16.138   4.871  1.00  0.00     0.278 C 
ENDBRANCH  13  18
BRANCH  14  20
ATOM     20  O   UNL     1      24.027  19.133   3.264  1.00  0.00    -0.504 OA
ATOM     21  H   UNL     1      24.520  18.326   2.901  1.00  0.00     0.293 HD
ENDBRANCH  14  20
ENDBRANCH   1  12
BRANCH   2  22
ATOM     22  O   UNL     1      25.024  20.400   9.331  1.00  0.00    -0.502 OA
ATOM     23  H   UNL     1      25.392  20.146   8.422  1.00  0.00     0.293 HD
ENDBRANCH   2  22
BRANCH   6  24
ATOM     24  O   UNL     1      22.222  20.574  13.857  1.00  0.00    -0.507 OA
ATOM     25  H   UNL     1      22.088  21.489  14.257  1.00  0.00     0.293 HD
ENDBRANCH   6  24
BRANCH   8  26
ATOM     26  O   UNL     1      18.021  18.854  12.348  1.00  0.00    -0.508 OA
ATOM     27  H   UNL     1      17.548  18.107  11.853  1.00  0.00     0.293 HD
ENDBRANCH   8  26
TORSDOF 6
ENDMDL
MODEL 5
REMARK VINA RESULT:    -5.185      2.296      5.019
REMARK INTER + INTRA:          -6.587
REMARK INTER:                  -6.345
REMARK INTRA:                  -0.242
REMARK UNBOUND:                -0.189
REMARK SMILES COc1cc(-c2oc3cc(O)cc(O)c3c(=O)c2O)ccc1O
REMARK SMILES IDX 6 1 18 2 16 3 17 4 15 5 13 6 12 7 10 8 9 9 8 10 7 11 5 12
REMARK SMILES IDX 3 13 22 14 4 15 21 16 20 17 2 18 1 19 23 20 19 22 14 24
REMARK SMILES IDX 11 26
REMARK H PARENT 23 21 19 23 14 25 11 27
REMARK Flexibility Score: inf
ROOT
ATOM      1  C   UNL     1      23.119  19.056   6.917  1.00  0.00     0.180 A 
ATOM      2  C   UNL     1      23.773  19.863   5.969  1.00  0.00     0.208 A 
ATOM      3  C   UNL     1      23.882  19.407   4.646  1.00  0.00     0.238 A 
ATOM      4  O   UNL     1      24.403  20.165   3.788  1.00  0.00    -0.285 OA
ATOM      5  C   UNL     1      23.388  18.126   4.299  1.00  0.00     0.111 A 
ATOM      6  C   UNL     1      23.484  17.542   2.999  1.00  0.00     0.134 A 
ATOM      7  C   UNL     1      22.863  16.313   2.746  1.00  0.00     0.093 A 
ATOM      8  C   UNL     1      22.206  15.616   3.758  1.00  0.00     0.123 A 
ATOM      9  C   UNL     1      22.152  16.151   5.046  1.00  0.00     0.094 A 
ATOM     10  C   UNL     1      22.729  17.393   5.320  1.00  0.00     0.146 A 
ATOM     11  O   UNL     1      22.635  17.874   6.554  1.00  0.00    -0.452 OA
ENDROOT
BRANCH   1  12
ATOM     12  C   UNL     1      22.951  19.477   8.326  1.00  0.00     0.025 A 
ATOM     13  C   UNL     1      21.534  20.080  10.228  1.00  0.00     0.161 A 
ATOM     14  C   UNL     1      22.678  20.220  11.025  1.00  0.00     0.157 A 
ATOM     15  C   UNL     1      21.676  19.701   8.877  1.00  0.00     0.062 A 
ATOM     16  C   UNL     1      23.947  19.976  10.485  1.00  0.00     0.051 A 
ATOM     17  C   UNL     1      24.082  19.600   9.147  1.00  0.00     0.016 A 
BRANCH  13  18
ATOM     18  O   UNL     1      20.280  20.322  10.809  1.00  0.00    -0.493 OA
ATOM     19  C   UNL     1      19.387  19.306  11.253  1.00  0.00     0.278 C 
ENDBRANCH  13  18
BRANCH  14  20
ATOM     20  O   UNL     1      22.545  20.599  12.361  1.00  0.00    -0.504 OA
ATOM     21  H   UNL     1      21.696  21.030  12.708  1.00  0.00     0.293 HD
ENDBRANCH  14  20
ENDBRANCH   1  12
BRANCH   2  22
ATOM     22  O   UNL     1      24.323  21.090   6.349  1.00  0.00    -0.502 OA
ATOM     23  H   UNL     1      25.163  21.160   6.910  1.00  0.00     0.293 HD
ENDBRANCH   2  22
BRANCH   6  24
ATOM     24  O   UNL     1      24.194  18.111   1.936  1.00  0.00    -0.507 OA
ATOM     25  H   UNL     1      25.193  18.240   1.912  1.00  0.00     0.293 HD
ENDBRANCH   6  24
BRANCH   8  26
ATOM     26  O   UNL     1      21.614  14.386   3.474  1.00  0.00    -0.508 OA
ATOM     27  H   UNL     1      22.015  13.749   2.795  1.00  0.00     0.293 HD
ENDBRANCH   8  26
TORSDOF 6
ENDMDL
MODEL 6
REMARK VINA RESULT:    -4.990      2.392      4.222
REMARK INTER + INTRA:          -6.346
REMARK INTER:                  -6.100
REMARK INTRA:                  -0.246
REMARK UNBOUND:                -0.189
REMARK SMILES COc1cc(-c2oc3cc(O)cc(O)c3c(=O)c2O)ccc1O
REMARK SMILES IDX 6 1 18 2 16 3 17 4 15 5 13 6 12 7 10 8 9 9 8 10 7 11 5 12
REMARK SMILES IDX 3 13 22 14 4 15 21 16 20 17 2 18 1 19 23 20 19 22 14 24
REMARK SMILES IDX 11 26
REMARK H PARENT 23 21 19 23 14 25 11 27
REMARK Flexibility Score: inf
ROOT
ATOM      1  C   UNL     1      23.451  18.466   5.780  1.00  0.00     0.180 A 
ATOM      2  C   UNL     1      22.148  18.675   5.293  1.00  0.00     0.208 A 
ATOM      3  C   UNL     1      21.670  17.860   4.255  1.00  0.00     0.238 A 
ATOM      4  O   UNL     1      20.480  18.004   3.876  1.00  0.00    -0.285 OA
ATOM      5  C   UNL     1      22.518  16.884   3.678  1.00  0.00     0.111 A 
ATOM      6  C   UNL     1      22.155  16.032   2.591  1.00  0.00     0.134 A 
ATOM      7  C   UNL     1      23.040  15.030   2.173  1.00  0.00     0.093 A 
ATOM      8  C   UNL     1      24.297  14.890   2.756  1.00  0.00     0.123 A 
ATOM      9  C   UNL     1      24.685  15.752   3.783  1.00  0.00     0.094 A 
ATOM     10  C   UNL     1      23.810  16.736   4.248  1.00  0.00     0.146 A 
ATOM     11  O   UNL     1      24.211  17.521   5.241  1.00  0.00    -0.452 OA
ENDROOT
BRANCH   1  12
ATOM     12  C   UNL     1      24.018  19.275   6.882  1.00  0.00     0.025 A 
ATOM     13  C   UNL     1      24.041  19.993   9.221  1.00  0.00     0.161 A 
ATOM     14  C   UNL     1      25.165  20.787   8.958  1.00  0.00     0.157 A 
ATOM     15  C   UNL     1      23.474  19.232   8.178  1.00  0.00     0.062 A 
ATOM     16  C   UNL     1      25.722  20.815   7.673  1.00  0.00     0.051 A 
ATOM     17  C   UNL     1      25.157  20.059   6.645  1.00  0.00     0.016 A 
BRANCH  13  18
ATOM     18  O   UNL     1      23.519  19.983  10.524  1.00  0.00    -0.493 OA
ATOM     19  C   UNL     1      22.141  19.815  10.839  1.00  0.00     0.278 C 
ENDBRANCH  13  18
BRANCH  14  20
ATOM     20  O   UNL     1      25.729  21.546   9.984  1.00  0.00    -0.504 OA
ATOM     21  H   UNL     1      26.678  21.385  10.302  1.00  0.00     0.293 HD
ENDBRANCH  14  20
ENDBRANCH   1  12
BRANCH   2  22
ATOM     22  O   UNL     1      21.354  19.695   5.824  1.00  0.00    -0.502 OA
ATOM     23  H   UNL     1      20.622  20.149   5.291  1.00  0.00     0.293 HD
ENDBRANCH   2  22
BRANCH   6  24
ATOM     24  O   UNL     1      20.958  16.143   1.876  1.00  0.00    -0.507 OA
ATOM     25  H   UNL     1      20.870  16.545   0.956  1.00  0.00     0.293 HD
ENDBRANCH   6  24
BRANCH   8  26
ATOM     26  O   UNL     1      25.159  13.893   2.303  1.00  0.00    -0.508 OA
ATOM     27  H   UNL     1      24.835  13.149   1.695  1.00  0.00     0.293 HD
ENDBRANCH   8  26
TORSDOF 6
ENDMDL
MODEL 7
REMARK VINA RESULT:    -4.906      2.801      7.747
REMARK INTER + INTRA:          -6.242
REMARK INTER:                  -5.984
REMARK INTRA:                  -0.258
REMARK UNBOUND:                -0.189
REMARK SMILES COc1cc(-c2oc3cc(O)cc(O)c3c(=O)c2O)ccc1O
REMARK SMILES IDX 6 1 18 2 16 3 17 4 15 5 13 6 12 7 10 8 9 9 8 10 7 11 5 12
REMARK SMILES IDX 3 13 22 14 4 15 21 16 20 17 2 18 1 19 23 20 19 22 14 24
REMARK SMILES IDX 11 26
REMARK H PARENT 23 21 19 23 14 25 11 27
REMARK Flexibility Score: inf
ROOT
ATOM      1  C   UNL     1      23.262  18.970   6.999  1.00  0.00     0.180 A 
ATOM      2  C   UNL     1      24.445  19.729   7.046  1.00  0.00     0.208 A 
ATOM      3  C   UNL     1      24.851  20.280   8.271  1.00  0.00     0.238 A 
ATOM      4  O   UNL     1      25.948  20.894   8.321  1.00  0.00    -0.285 OA
ATOM      5  C   UNL     1      24.043  20.115   9.422  1.00  0.00     0.111 A 
ATOM      6  C   UNL     1      24.334  20.667  10.706  1.00  0.00     0.134 A 
ATOM      7  C   UNL     1      23.516  20.348  11.797  1.00  0.00     0.093 A 
ATOM      8  C   UNL     1      22.384  19.551  11.640  1.00  0.00     0.123 A 
ATOM      9  C   UNL     1      22.059  19.050  10.378  1.00  0.00     0.094 A 
ATOM     10  C   UNL     1      22.876  19.319   9.279  1.00  0.00     0.146 A 
ATOM     11  O   UNL     1      22.541  18.805   8.102  1.00  0.00    -0.452 OA
ENDROOT
BRANCH   1  12
ATOM     12  C   UNL     1      22.777  18.345   5.748  1.00  0.00     0.025 A 
ATOM     13  C   UNL     1      23.007  16.712   3.940  1.00  0.00     0.161 A 
ATOM     14  C   UNL     1      21.789  17.149   3.401  1.00  0.00     0.157 A 
ATOM     15  C   UNL     1      23.494  17.310   5.120  1.00  0.00     0.062 A 
ATOM     16  C   UNL     1      21.063  18.164   4.037  1.00  0.00     0.051 A 
ATOM     17  C   UNL     1      21.550  18.753   5.205  1.00  0.00     0.016 A 
BRANCH  13  18
ATOM     18  O   UNL     1      23.699  15.684   3.282  1.00  0.00    -0.493 OA
ATOM     19  C   UNL     1      25.104  15.470   3.374  1.00  0.00     0.278 C 
ENDBRANCH  13  18
BRANCH  14  20
ATOM     20  O   UNL     1      21.303  16.564   2.232  1.00  0.00    -0.504 OA
ATOM     21  H   UNL     1      21.328  15.561   2.091  1.00  0.00     0.293 HD
ENDBRANCH  14  20
ENDBRANCH   1  12
BRANCH   2  22
ATOM     22  O   UNL     1      25.189  19.945   5.883  1.00  0.00    -0.502 OA
ATOM     23  H   UNL     1      25.093  20.784   5.324  1.00  0.00     0.293 HD
ENDBRANCH   2  22
BRANCH   6  24
ATOM     24  O   UNL     1      25.390  21.549  10.958  1.00  0.00    -0.507 OA
ATOM     25  H   UNL     1      25.875  22.085  10.256  1.00  0.00     0.293 HD
ENDBRANCH   6  24
BRANCH   8  26
ATOM     26  O   UNL     1      21.583  19.268  12.745  1.00  0.00    -0.508 OA
ATOM     27  H   UNL     1      21.831  18.543  13.407  1.00  0.00     0.293 HD
ENDBRANCH   8  26
TORSDOF 6
ENDMDL
MODEL 8
REMARK VINA RESULT:    -4.683      3.536      7.778
REMARK INTER + INTRA:          -5.968
REMARK INTER:                  -6.246
REMARK INTRA:                   0.278
REMARK UNBOUND:                -0.189
REMARK SMILES COc1cc(-c2oc3cc(O)cc(O)c3c(=O)c2O)ccc1O
REMARK SMILES IDX 6 1 18 2 16 3 17 4 15 5 13 6 12 7 10 8 9 9 8 10 7 11 5 12
REMARK SMILES IDX 3 13 22 14 4 15 21 16 20 17 2 18 1 19 23 20 19 22 14 24
REMARK SMILES IDX 11 26
REMARK H PARENT 23 21 19 23 14 25 11 27
REMARK Flexibility Score: inf
ROOT
ATOM      1  C   UNL     1      23.569  19.231   7.371  1.00  0.00     0.180 A 
ATOM      2  C   UNL     1      24.687  20.023   7.687  1.00  0.00     0.208 A 
ATOM      3  C   UNL     1      24.858  20.462   9.009  1.00  0.00     0.238 A 
ATOM      4  O   UNL     1      25.898  21.106   9.301  1.00  0.00    -0.285 OA
ATOM      5  C   UNL     1      23.881  20.153   9.986  1.00  0.00     0.111 A 
ATOM      6  C   UNL     1      23.928  20.584  11.347  1.00  0.00     0.134 A 
ATOM      7  C   UNL     1      22.959  20.128  12.250  1.00  0.00     0.093 A 
ATOM      8  C   UNL     1      21.911  19.311  11.831  1.00  0.00     0.123 A 
ATOM      9  C   UNL     1      21.824  18.928  10.491  1.00  0.00     0.094 A 
ATOM     10  C   UNL     1      22.796  19.335   9.575  1.00  0.00     0.146 A 
ATOM     11  O   UNL     1      22.686  18.930   8.316  1.00  0.00    -0.452 OA
ENDROOT
BRANCH   1  12
ATOM     12  C   UNL     1      23.330  18.718   6.003  1.00  0.00     0.025 A 
ATOM     13  C   UNL     1      21.818  18.035   4.204  1.00  0.00     0.161 A 
ATOM     14  C   UNL     1      22.923  17.794   3.377  1.00  0.00     0.157 A 
ATOM     15  C   UNL     1      22.027  18.505   5.517  1.00  0.00     0.062 A 
ATOM     16  C   UNL     1      24.221  18.027   3.851  1.00  0.00     0.051 A 
ATOM     17  C   UNL     1      24.422  18.492   5.152  1.00  0.00     0.016 A 
BRANCH  13  18
ATOM     18  O   UNL     1      20.533  17.801   3.689  1.00  0.00    -0.493 OA
ATOM     19  C   UNL     1      19.350  18.443   4.152  1.00  0.00     0.278 C 
ENDBRANCH  13  18
BRANCH  14  20
ATOM     20  O   UNL     1      22.724  17.327   2.079  1.00  0.00    -0.504 OA
ATOM     21  H   UNL     1      22.440  17.947   1.329  1.00  0.00     0.293 HD
ENDBRANCH  14  20
ENDBRANCH   1  12
BRANCH   2  22
ATOM     22  O   UNL     1      25.600  20.381   6.692  1.00  0.00    -0.502 OA
ATOM     23  H   UNL     1      26.541  20.690   6.902  1.00  0.00     0.293 HD
ENDBRANCH   2  22
BRANCH   6  24
ATOM     24  O   UNL     1      24.881  21.472  11.855  1.00  0.00    -0.507 OA
ATOM     25  H   UNL     1      25.118  22.362  11.445  1.00  0.00     0.293 HD
ENDBRANCH   6  24
BRANCH   8  26
ATOM     26  O   UNL     1      20.955  18.890  12.754  1.00  0.00    -0.508 OA
ATOM     27  H   UNL     1      20.576  19.522  13.449  1.00  0.00     0.293 HD
ENDBRANCH   8  26
TORSDOF 6
ENDMDL
