MODEL 1
REMARK VINA RESULT:    -4.798      0.000      0.000
REMARK INTER + INTRA:          -6.018
REMARK INTER:                  -6.762
REMARK INTRA:                   0.743
REMARK UNBOUND:                 0.743
REMARK SMILES CC1=CCC(=C(C)C)C(=O)CC(C)=CCC1
REMARK SMILES IDX 12 1 14 2 13 3 15 4 16 5 2 6 1 7 3 8 11 10 9 11 10 12 5 13
REMARK SMILES IDX 6 14 7 15 8 16 4 17
REMARK H PARENT
REMARK Flexibility Score: 60.00
ROOT
ATOM      1  C   UNL     1       4.073  22.723   6.576  1.00  0.00    -0.070 C 
ATOM      2  C   UNL     1       5.114  22.495   7.411  1.00  0.00    -0.027 C 
ATOM      3  C   UNL     1       3.450  24.097   6.581  1.00  0.00     0.039 C 
ENDROOT
BRANCH   2   4
ATOM      4  C   UNL     1       5.825  21.177   7.609  1.00  0.00     0.032 C 
BRANCH   4   5
ATOM      5  C   UNL     1       6.865  20.887   6.512  1.00  0.00     0.034 C 
BRANCH   5   6
ATOM      6  C   UNL     1       6.512  19.670   5.679  1.00  0.00    -0.077 C 
ATOM      7  C   UNL     1       6.591  18.311   6.328  1.00  0.00     0.039 C 
ATOM      8  C   UNL     1       6.108  19.731   4.389  1.00  0.00    -0.023 CG0
ATOM      9  G   UNL     1       5.909  20.992   3.582  1.00  0.00     0.000 G0
ENDBRANCH   5   6
ENDBRANCH   4   5
ENDBRANCH   2   4
BRANCH   1  10
ATOM     10  C   UNL     1       3.488  21.673   5.651  1.00  0.00     0.111 C 
BRANCH  10  11
ATOM     11  C   UNL     1       3.637  22.043   4.194  1.00  0.00     0.163 C 
ATOM     12  O   UNL     1       2.992  23.037   3.766  1.00  0.00    -0.294 OA
BRANCH  11  13
ATOM     13  C   UNL     1       4.448  21.228   3.240  1.00  0.00    -0.002 C 
ATOM     14  C   UNL     1       3.918  20.833   2.045  1.00  0.00    -0.069 C 
ATOM     15  C   UNL     1       4.752  20.100   1.018  1.00  0.00     0.039 C 
ATOM     16  C   UNL     1       2.486  21.155   1.675  1.00  0.00     0.039 C 
BRANCH  13  17
ATOM     17  C   UNL     1       5.917  20.983   3.563  1.00  0.00     0.066 CG0
ATOM     18  G   UNL     1       6.107  19.732   4.387  1.00  0.00     0.000 G0
ENDBRANCH  13  17
ENDBRANCH  11  13
ENDBRANCH  10  11
ENDBRANCH   1  10
TORSDOF 0
ENDMDL
MODEL 2
REMARK VINA RESULT:    -4.678      2.196      3.919
REMARK INTER + INTRA:          -5.849
REMARK INTER:                  -6.990
REMARK INTRA:                   1.142
REMARK UNBOUND:                 0.743
REMARK SMILES CC1=CCC(=C(C)C)C(=O)CC(C)=CCC1
REMARK SMILES IDX 12 1 14 2 13 3 15 4 16 5 2 6 1 7 3 8 11 10 9 11 10 12 5 13
REMARK SMILES IDX 6 14 7 15 8 16 4 17
REMARK H PARENT
REMARK Flexibility Score: 60.00
ROOT
ATOM      1  C   UNL     1       5.936  21.365   4.832  1.00  0.00    -0.070 C 
ATOM      2  C   UNL     1       6.713  21.105   5.910  1.00  0.00    -0.027 C 
ATOM      3  C   UNL     1       6.419  20.895   3.483  1.00  0.00     0.039 C 
ENDROOT
BRANCH   2   4
ATOM      4  C   UNL     1       6.445  21.551   7.328  1.00  0.00     0.032 C 
BRANCH   4   5
ATOM      5  C   UNL     1       5.578  20.553   8.117  1.00  0.00     0.034 C 
BRANCH   5   6
ATOM      6  C   UNL     1       5.328  19.266   7.355  1.00  0.00    -0.077 C 
ATOM      7  C   UNL     1       6.499  18.353   7.089  1.00  0.00     0.039 C 
ATOM      8  C   UNL     1       4.110  18.875   6.915  1.00  0.00    -0.023 CG0
ATOM      9  G   UNL     1       2.811  19.614   7.130  1.00  0.00     0.000 G0
ENDBRANCH   5   6
ENDBRANCH   4   5
ENDBRANCH   2   4
BRANCH   1  10
ATOM     10  C   UNL     1       4.621  22.118   4.901  1.00  0.00     0.111 C 
BRANCH  10  11
ATOM     11  C   UNL     1       3.449  21.203   5.166  1.00  0.00     0.163 C 
ATOM     12  O   UNL     1       2.910  20.629   4.182  1.00  0.00    -0.294 OA
BRANCH  11  13
ATOM     13  C   UNL     1       2.864  21.026   6.530  1.00  0.00    -0.002 C 
ATOM     14  C   UNL     1       2.279  22.079   7.173  1.00  0.00    -0.069 C 
ATOM     15  C   UNL     1       1.586  21.900   8.506  1.00  0.00     0.039 C 
ATOM     16  C   UNL     1       2.256  23.461   6.559  1.00  0.00     0.039 C 
BRANCH  13  17
ATOM     17  C   UNL     1       2.798  19.619   7.111  1.00  0.00     0.066 CG0
ATOM     18  G   UNL     1       4.097  18.873   6.919  1.00  0.00     0.000 G0
ENDBRANCH  13  17
ENDBRANCH  11  13
ENDBRANCH  10  11
ENDBRANCH   1  10
TORSDOF 0
ENDMDL
MODEL 3
REMARK VINA RESULT:    -4.578      2.197      4.029
REMARK INTER + INTRA:          -5.708
REMARK INTER:                  -6.406
REMARK INTRA:                   0.697
REMARK UNBOUND:                 0.743
REMARK SMILES CC1=CCC(=C(C)C)C(=O)CC(C)=CCC1
REMARK SMILES IDX 12 1 14 2 13 3 15 4 16 5 2 6 1 7 3 8 11 10 9 11 10 12 5 13
REMARK SMILES IDX 6 14 7 15 8 16 4 17
REMARK H PARENT
REMARK Flexibility Score: 60.00
ROOT
ATOM      1  C   UNL     1       3.678  19.010   7.013  1.00  0.00    -0.070 C 
ATOM      2  C   UNL     1       5.016  18.807   6.988  1.00  0.00    -0.027 C 
ATOM      3  C   UNL     1       2.800  18.028   6.280  1.00  0.00     0.039 C 
ENDROOT
BRANCH   2   4
ATOM      4  C   UNL     1       6.065  19.709   7.594  1.00  0.00     0.032 C 
BRANCH   4   5
ATOM      5  C   UNL     1       6.959  20.384   6.538  1.00  0.00     0.034 C 
BRANCH   5   6
ATOM      6  C   UNL     1       6.184  20.824   5.311  1.00  0.00    -0.077 C 
ATOM      7  C   UNL     1       6.444  20.112   4.008  1.00  0.00     0.039 C 
ATOM      8  C   UNL     1       5.255  21.808   5.319  1.00  0.00    -0.023 CG0
ATOM      9  G   UNL     1       4.811  22.596   6.528  1.00  0.00     0.000 G0
ENDBRANCH   5   6
ENDBRANCH   4   5
ENDBRANCH   2   4
BRANCH   1  10
ATOM     10  C   UNL     1       3.015  20.179   7.718  1.00  0.00     0.111 C 
BRANCH  10  11
ATOM     11  C   UNL     1       2.602  21.269   6.759  1.00  0.00     0.163 C 
ATOM     12  O   UNL     1       1.687  21.015   5.930  1.00  0.00    -0.294 OA
BRANCH  11  13
ATOM     13  C   UNL     1       3.292  22.593   6.707  1.00  0.00    -0.002 C 
ATOM     14  C   UNL     1       2.600  23.743   6.957  1.00  0.00    -0.069 C 
ATOM     15  C   UNL     1       3.297  25.085   7.014  1.00  0.00     0.039 C 
ATOM     16  C   UNL     1       1.113  23.722   7.236  1.00  0.00     0.039 C 
BRANCH  13  17
ATOM     17  C   UNL     1       4.805  22.615   6.522  1.00  0.00     0.066 CG0
ATOM     18  G   UNL     1       5.233  21.794   5.328  1.00  0.00     0.000 G0
ENDBRANCH  13  17
ENDBRANCH  11  13
ENDBRANCH  10  11
ENDBRANCH   1  10
TORSDOF 0
ENDMDL
MODEL 4
REMARK VINA RESULT:    -4.496      1.359      1.849
REMARK INTER + INTRA:          -5.592
REMARK INTER:                  -6.266
REMARK INTRA:                   0.674
REMARK UNBOUND:                 0.743
REMARK SMILES CC1=CCC(=C(C)C)C(=O)CC(C)=CCC1
REMARK SMILES IDX 12 1 14 2 13 3 15 4 16 5 2 6 1 7 3 8 11 10 9 11 10 12 5 13
REMARK SMILES IDX 6 14 7 15 8 16 4 17
REMARK H PARENT
REMARK Flexibility Score: 60.00
ROOT
ATOM      1  C   UNL     1       2.791  20.691   6.862  1.00  0.00    -0.070 C 
ATOM      2  C   UNL     1       3.737  19.895   7.413  1.00  0.00    -0.027 C 
ATOM      3  C   UNL     1       1.977  21.564   7.784  1.00  0.00     0.039 C 
ENDROOT
BRANCH   2   4
ATOM      4  C   UNL     1       4.603  18.900   6.677  1.00  0.00     0.032 C 
BRANCH   4   5
ATOM      5  C   UNL     1       6.100  19.255   6.728  1.00  0.00     0.034 C 
BRANCH   5   6
ATOM      6  C   UNL     1       6.359  20.732   6.501  1.00  0.00    -0.077 C 
ATOM      7  C   UNL     1       6.832  21.563   7.667  1.00  0.00     0.039 C 
ATOM      8  C   UNL     1       6.210  21.348   5.305  1.00  0.00    -0.023 CG0
ATOM      9  G   UNL     1       5.806  20.684   4.011  1.00  0.00     0.000 G0
ENDBRANCH   5   6
ENDBRANCH   4   5
ENDBRANCH   2   4
BRANCH   1  10
ATOM     10  C   UNL     1       2.491  20.741   5.375  1.00  0.00     0.111 C 
BRANCH  10  11
ATOM     11  C   UNL     1       3.469  21.610   4.621  1.00  0.00     0.163 C 
ATOM     12  O   UNL     1       3.448  22.852   4.836  1.00  0.00    -0.294 OA
BRANCH  11  13
ATOM     13  C   UNL     1       4.392  21.061   3.581  1.00  0.00    -0.002 C 
ATOM     14  C   UNL     1       4.014  21.032   2.269  1.00  0.00    -0.069 C 
ATOM     15  C   UNL     1       4.969  20.581   1.186  1.00  0.00     0.039 C 
ATOM     16  C   UNL     1       2.641  21.495   1.835  1.00  0.00     0.039 C 
BRANCH  13  17
ATOM     17  C   UNL     1       5.808  20.683   3.997  1.00  0.00     0.066 CG0
ATOM     18  G   UNL     1       6.202  21.337   5.300  1.00  0.00     0.000 G0
ENDBRANCH  13  17
ENDBRANCH  11  13
ENDBRANCH  10  11
ENDBRANCH   1  10
TORSDOF 0
ENDMDL
MODEL 5
REMARK VINA RESULT:    -4.483      2.240      3.332
REMARK INTER + INTRA:          -5.574
REMARK INTER:                  -6.211
REMARK INTRA:                   0.638
REMARK UNBOUND:                 0.743
REMARK SMILES CC1=CCC(=C(C)C)C(=O)CC(C)=CCC1
REMARK SMILES IDX 12 1 14 2 13 3 15 4 16 5 2 6 1 7 3 8 11 10 9 11 10 12 5 13
REMARK SMILES IDX 6 14 7 15 8 16 4 17
REMARK H PARENT
REMARK Flexibility Score: 60.00
ROOT
ATOM      1  C   UNL     1       5.025  21.500   4.584  1.00  0.00    -0.070 C 
ATOM      2  C   UNL     1       6.172  20.974   5.074  1.00  0.00    -0.027 C 
ATOM      3  C   UNL     1       4.594  21.088   3.199  1.00  0.00     0.039 C 
ENDROOT
BRANCH   2   4
ATOM      4  C   UNL     1       6.809  21.312   6.401  1.00  0.00     0.032 C 
BRANCH   4   5
ATOM      5  C   UNL     1       5.991  20.810   7.605  1.00  0.00     0.034 C 
BRANCH   5   6
ATOM      6  C   UNL     1       5.368  19.449   7.361  1.00  0.00    -0.077 C 
ATOM      7  C   UNL     1       6.280  18.251   7.265  1.00  0.00     0.039 C 
ATOM      8  C   UNL     1       4.036  19.240   7.245  1.00  0.00    -0.023 CG0
ATOM      9  G   UNL     1       2.960  20.292   7.369  1.00  0.00     0.000 G0
ENDBRANCH   5   6
ENDBRANCH   4   5
ENDBRANCH   2   4
BRANCH   1  10
ATOM     10  C   UNL     1       4.161  22.493   5.339  1.00  0.00     0.111 C 
BRANCH  10  11
ATOM     11  C   UNL     1       2.729  22.030   5.462  1.00  0.00     0.163 C 
ATOM     12  O   UNL     1       1.814  22.838   5.146  1.00  0.00    -0.294 OA
BRANCH  11  13
ATOM     13  C   UNL     1       2.364  20.692   6.019  1.00  0.00    -0.002 C 
ATOM     14  C   UNL     1       1.652  19.802   5.267  1.00  0.00    -0.069 C 
ATOM     15  C   UNL     1       1.363  18.404   5.767  1.00  0.00     0.039 C 
ATOM     16  C   UNL     1       1.162  20.157   3.881  1.00  0.00     0.039 C 
BRANCH  13  17
ATOM     17  C   UNL     1       2.935  20.292   7.374  1.00  0.00     0.066 CG0
ATOM     18  G   UNL     1       4.024  19.255   7.238  1.00  0.00     0.000 G0
ENDBRANCH  13  17
ENDBRANCH  11  13
ENDBRANCH  10  11
ENDBRANCH   1  10
TORSDOF 0
ENDMDL
MODEL 6
REMARK VINA RESULT:    -4.471      1.689      4.098
REMARK INTER + INTRA:          -5.558
REMARK INTER:                  -6.142
REMARK INTRA:                   0.585
REMARK UNBOUND:                 0.743
REMARK SMILES CC1=CCC(=C(C)C)C(=O)CC(C)=CCC1
REMARK SMILES IDX 12 1 14 2 13 3 15 4 16 5 2 6 1 7 3 8 11 10 9 11 10 12 5 13
REMARK SMILES IDX 6 14 7 15 8 16 4 17
REMARK H PARENT
REMARK Flexibility Score: 60.00
ROOT
ATOM      1  C   UNL     1       6.005  20.940   6.729  1.00  0.00    -0.070 C 
ATOM      2  C   UNL     1       6.529  20.515   5.556  1.00  0.00    -0.027 C 
ATOM      3  C   UNL     1       6.013  19.984   7.896  1.00  0.00     0.039 C 
ENDROOT
BRANCH   2   4
ATOM      4  C   UNL     1       6.551  21.287   4.259  1.00  0.00     0.032 C 
BRANCH   4   5
ATOM      5  C   UNL     1       5.799  20.573   3.122  1.00  0.00     0.034 C 
BRANCH   5   6
ATOM      6  C   UNL     1       4.507  21.273   2.745  1.00  0.00    -0.077 C 
ATOM      7  C   UNL     1       4.458  22.032   1.443  1.00  0.00     0.039 C 
ATOM      8  C   UNL     1       3.385  21.242   3.500  1.00  0.00    -0.023 CG0
ATOM      9  G   UNL     1       3.213  20.494   4.801  1.00  0.00     0.000 G0
ENDBRANCH   5   6
ENDBRANCH   4   5
ENDBRANCH   2   4
BRANCH   1  10
ATOM     10  C   UNL     1       5.393  22.314   6.932  1.00  0.00     0.111 C 
BRANCH  10  11
ATOM     11  C   UNL     1       4.115  22.495   6.148  1.00  0.00     0.163 C 
ATOM     12  O   UNL     1       3.875  23.632   5.658  1.00  0.00    -0.294 OA
BRANCH  11  13
ATOM     13  C   UNL     1       3.101  21.407   6.007  1.00  0.00    -0.002 C 
ATOM     14  C   UNL     1       2.042  21.335   6.866  1.00  0.00    -0.069 C 
ATOM     15  C   UNL     1       0.946  20.309   6.680  1.00  0.00     0.039 C 
ATOM     16  C   UNL     1       1.892  22.309   8.014  1.00  0.00     0.039 C 
BRANCH  13  17
ATOM     17  C   UNL     1       3.193  20.483   4.799  1.00  0.00     0.066 CG0
ATOM     18  G   UNL     1       3.377  21.258   3.516  1.00  0.00     0.000 G0
ENDBRANCH  13  17
ENDBRANCH  11  13
ENDBRANCH  10  11
ENDBRANCH   1  10
TORSDOF 0
ENDMDL
MODEL 7
REMARK VINA RESULT:    -4.458      1.905      4.039
REMARK INTER + INTRA:          -5.539
REMARK INTER:                  -6.078
REMARK INTRA:                   0.539
REMARK UNBOUND:                 0.743
REMARK SMILES CC1=CCC(=C(C)C)C(=O)CC(C)=CCC1
REMARK SMILES IDX 12 1 14 2 13 3 15 4 16 5 2 6 1 7 3 8 11 10 9 11 10 12 5 13
REMARK SMILES IDX 6 14 7 15 8 16 4 17
REMARK H PARENT
REMARK Flexibility Score: 60.00
ROOT
ATOM      1  C   UNL     1       5.935  21.188   6.814  1.00  0.00    -0.070 C 
ATOM      2  C   UNL     1       6.618  20.718   5.744  1.00  0.00    -0.027 C 
ATOM      3  C   UNL     1       6.132  20.495   8.139  1.00  0.00     0.039 C 
ENDROOT
BRANCH   2   4
ATOM      4  C   UNL     1       6.506  21.223   4.325  1.00  0.00     0.032 C 
BRANCH   4   5
ATOM      5  C   UNL     1       5.498  20.422   3.481  1.00  0.00     0.034 C 
BRANCH   5   6
ATOM      6  C   UNL     1       4.517  21.312   2.742  1.00  0.00    -0.077 C 
ATOM      7  C   UNL     1       4.934  21.888   1.412  1.00  0.00     0.039 C 
ATOM      8  C   UNL     1       3.276  21.607   3.197  1.00  0.00    -0.023 CG0
ATOM      9  G   UNL     1       2.653  21.085   4.470  1.00  0.00     0.000 G0
ENDBRANCH   5   6
ENDBRANCH   4   5
ENDBRANCH   2   4
BRANCH   1  10
ATOM     10  C   UNL     1       4.968  22.356   6.752  1.00  0.00     0.111 C 
BRANCH  10  11
ATOM     11  C   UNL     1       3.526  21.909   6.748  1.00  0.00     0.163 C 
ATOM     12  O   UNL     1       3.101  21.267   7.746  1.00  0.00    -0.294 OA
BRANCH  11  13
ATOM     13  C   UNL     1       2.623  22.127   5.578  1.00  0.00    -0.002 C 
ATOM     14  C   UNL     1       1.925  23.294   5.452  1.00  0.00    -0.069 C 
ATOM     15  C   UNL     1       1.088  23.581   4.225  1.00  0.00     0.039 C 
ATOM     16  C   UNL     1       1.995  24.371   6.512  1.00  0.00     0.039 C 
BRANCH  13  17
ATOM     17  C   UNL     1       2.622  21.090   4.461  1.00  0.00     0.066 CG0
ATOM     18  G   UNL     1       3.279  21.617   3.208  1.00  0.00     0.000 G0
ENDBRANCH  13  17
ENDBRANCH  11  13
ENDBRANCH  10  11
ENDBRANCH   1  10
TORSDOF 0
ENDMDL
MODEL 8
REMARK VINA RESULT:    -4.106      2.466      4.180
REMARK INTER + INTRA:          -5.044
REMARK INTER:                  -6.208
REMARK INTRA:                   1.165
REMARK UNBOUND:                 0.743
REMARK SMILES CC1=CCC(=C(C)C)C(=O)CC(C)=CCC1
REMARK SMILES IDX 12 1 14 2 13 3 15 4 16 5 2 6 1 7 3 8 11 10 9 11 10 12 5 13
REMARK SMILES IDX 6 14 7 15 8 16 4 17
REMARK H PARENT
REMARK Flexibility Score: 60.00
ROOT
ATOM      1  C   UNL     1       4.893  18.958   7.000  1.00  0.00    -0.070 C 
ATOM      2  C   UNL     1       3.989  18.029   6.612  1.00  0.00    -0.027 C 
ATOM      3  C   UNL     1       6.356  18.597   6.921  1.00  0.00     0.039 C 
ENDROOT
BRANCH   2   4
ATOM      4  C   UNL     1       2.486  18.167   6.682  1.00  0.00     0.032 C 
BRANCH   4   5
ATOM      5  C   UNL     1       2.006  19.615   6.478  1.00  0.00     0.034 C 
BRANCH   5   6
ATOM      6  C   UNL     1       1.763  19.950   5.019  1.00  0.00    -0.077 C 
ATOM      7  C   UNL     1       0.885  19.029   4.210  1.00  0.00     0.039 C 
ATOM      8  C   UNL     1       2.272  21.042   4.402  1.00  0.00    -0.023 CG0
ATOM      9  G   UNL     1       3.120  22.111   5.050  1.00  0.00     0.000 G0
ENDBRANCH   5   6
ENDBRANCH   4   5
ENDBRANCH   2   4
BRANCH   1  10
ATOM     10  C   UNL     1       4.521  20.332   7.526  1.00  0.00     0.111 C 
BRANCH  10  11
ATOM     11  C   UNL     1       5.046  21.444   6.650  1.00  0.00     0.163 C 
ATOM     12  O   UNL     1       5.867  22.258   7.152  1.00  0.00    -0.294 OA
BRANCH  11  13
ATOM     13  C   UNL     1       4.566  21.657   5.251  1.00  0.00    -0.002 C 
ATOM     14  C   UNL     1       5.357  21.321   4.190  1.00  0.00    -0.069 C 
ATOM     15  C   UNL     1       4.854  21.426   2.768  1.00  0.00     0.039 C 
ATOM     16  C   UNL     1       6.756  20.782   4.392  1.00  0.00     0.039 C 
BRANCH  13  17
ATOM     17  C   UNL     1       3.125  22.108   5.040  1.00  0.00     0.066 CG0
ATOM     18  G   UNL     1       2.287  21.023   4.407  1.00  0.00     0.000 G0
ENDBRANCH  13  17
ENDBRANCH  11  13
ENDBRANCH  10  11
ENDBRANCH   1  10
TORSDOF 0
ENDMDL
MODEL 9
REMARK VINA RESULT:    -3.992      1.869      3.667
REMARK INTER + INTRA:          -4.882
REMARK INTER:                  -5.709
REMARK INTRA:                   0.827
REMARK UNBOUND:                 0.743
REMARK SMILES CC1=CCC(=C(C)C)C(=O)CC(C)=CCC1
REMARK SMILES IDX 12 1 14 2 13 3 15 4 16 5 2 6 1 7 3 8 11 10 9 11 10 12 5 13
REMARK SMILES IDX 6 14 7 15 8 16 4 17
REMARK H PARENT
REMARK Flexibility Score: 60.00
ROOT
ATOM      1  C   UNL     1       5.455  20.822   6.543  1.00  0.00    -0.070 C 
ATOM      2  C   UNL     1       4.551  21.314   7.422  1.00  0.00    -0.027 C 
ATOM      3  C   UNL     1       6.916  21.093   6.803  1.00  0.00     0.039 C 
ENDROOT
BRANCH   2   4
ATOM      4  C   UNL     1       3.049  21.215   7.303  1.00  0.00     0.032 C 
BRANCH   4   5
ATOM      5  C   UNL     1       2.359  22.589   7.252  1.00  0.00     0.034 C 
BRANCH   5   6
ATOM      6  C   UNL     1       2.984  23.520   6.231  1.00  0.00    -0.077 C 
ATOM      7  C   UNL     1       3.498  24.857   6.701  1.00  0.00     0.039 C 
ATOM      8  C   UNL     1       3.128  23.213   4.920  1.00  0.00    -0.023 CG0
ATOM      9  G   UNL     1       2.734  21.909   4.268  1.00  0.00     0.000 G0
ENDBRANCH   5   6
ENDBRANCH   4   5
ENDBRANCH   2   4
BRANCH   1  10
ATOM     10  C   UNL     1       5.082  20.031   5.302  1.00  0.00     0.111 C 
BRANCH  10  11
ATOM     11  C   UNL     1       5.105  20.879   4.053  1.00  0.00     0.163 C 
ATOM     12  O   UNL     1       6.225  21.246   3.606  1.00  0.00    -0.294 OA
BRANCH  11  13
ATOM     13  C   UNL     1       3.857  21.358   3.387  1.00  0.00    -0.002 C 
ATOM     14  C   UNL     1       3.672  21.168   2.048  1.00  0.00    -0.069 C 
ATOM     15  C   UNL     1       2.373  21.548   1.371  1.00  0.00     0.039 C 
ATOM     16  C   UNL     1       4.738  20.524   1.189  1.00  0.00     0.039 C 
BRANCH  13  17
ATOM     17  C   UNL     1       2.741  21.920   4.259  1.00  0.00     0.066 CG0
ATOM     18  G   UNL     1       3.144  23.219   4.916  1.00  0.00     0.000 G0
ENDBRANCH  13  17
ENDBRANCH  11  13
ENDBRANCH  10  11
ENDBRANCH   1  10
TORSDOF 0
ENDMDL
