MODEL 1
REMARK VINA RESULT:    -3.632      0.000      0.000
REMARK INTER + INTRA:          -4.209
REMARK INTER:                  -4.162
REMARK INTRA:                  -0.046
REMARK UNBOUND:                -0.046
REMARK SMILES CC(C)[C@H]([NH3+])C(=O)[O-]
REMARK SMILES IDX 4 1 5 2 6 6 7 7 8 8 2 9 1 10 3 11
REMARK H PARENT 5 3 5 4 5 5
REMARK Flexibility Score: inf
ROOT
ATOM      1  C   UNL     1       8.231  60.149  34.838  1.00  0.00     0.230 C 
ENDROOT
BRANCH   1   2
ATOM      2  N   UNL     1       7.739  60.667  36.124  1.00  0.00    -0.350 N 
ATOM      3  H   UNL     1       6.923  61.305  35.978  1.00  0.00     0.345 HD
ATOM      4  H   UNL     1       8.500  61.195  36.614  1.00  0.00     0.345 HD
ATOM      5  H   UNL     1       7.462  59.877  36.749  1.00  0.00     0.345 HD
ENDBRANCH   1   2
BRANCH   1   6
ATOM      6  C   UNL     1       7.868  61.120  33.740  1.00  0.00     0.099 C 
ATOM      7  O   UNL     1       6.664  61.424  33.536  1.00  0.00    -0.544 OA
ATOM      8  O   UNL     1       8.862  61.685  32.950  1.00  0.00    -0.544 OA
ENDBRANCH   1   6
BRANCH   1   9
ATOM      9  C   UNL     1       7.664  58.730  34.530  1.00  0.00     0.047 C 
ATOM     10  C   UNL     1       8.784  57.764  34.103  1.00  0.00     0.014 C 
ATOM     11  C   UNL     1       6.920  58.136  35.737  1.00  0.00     0.014 C 
ENDBRANCH   1   9
TORSDOF 3
ENDMDL
MODEL 2
REMARK VINA RESULT:    -3.627      4.951      6.666
REMARK INTER + INTRA:          -4.204
REMARK INTER:                  -4.159
REMARK INTRA:                  -0.046
REMARK UNBOUND:                -0.046
REMARK SMILES CC(C)[C@H]([NH3+])C(=O)[O-]
REMARK SMILES IDX 4 1 5 2 6 6 7 7 8 8 2 9 1 10 3 11
REMARK H PARENT 5 3 5 4 5 5
REMARK Flexibility Score: inf
ROOT
ATOM      1  C   UNL     1       8.173  65.328  33.633  1.00  0.00     0.230 C 
ENDROOT
BRANCH   1   2
ATOM      2  N   UNL     1       7.852  64.824  32.290  1.00  0.00    -0.350 N 
ATOM      3  H   UNL     1       7.454  65.586  31.694  1.00  0.00     0.345 HD
ATOM      4  H   UNL     1       7.156  64.044  32.355  1.00  0.00     0.345 HD
ATOM      5  H   UNL     1       8.709  64.435  31.836  1.00  0.00     0.345 HD
ENDBRANCH   1   2
BRANCH   1   6
ATOM      6  C   UNL     1       7.725  64.319  34.663  1.00  0.00     0.099 C 
ATOM      7  O   UNL     1       8.545  63.866  35.505  1.00  0.00    -0.544 OA
ATOM      8  O   UNL     1       6.405  63.885  34.690  1.00  0.00    -0.544 OA
ENDBRANCH   1   6
BRANCH   1   9
ATOM      9  C   UNL     1       7.519  66.718  33.903  1.00  0.00     0.047 C 
ATOM     10  C   UNL     1       8.564  67.740  34.386  1.00  0.00     0.014 C 
ATOM     11  C   UNL     1       6.814  67.271  32.654  1.00  0.00     0.014 C 
ENDBRANCH   1   9
TORSDOF 3
ENDMDL
MODEL 3
REMARK VINA RESULT:    -3.623     10.011     10.767
REMARK INTER + INTRA:          -4.199
REMARK INTER:                  -4.152
REMARK INTRA:                  -0.047
REMARK UNBOUND:                -0.046
REMARK SMILES CC(C)[C@H]([NH3+])C(=O)[O-]
REMARK SMILES IDX 4 1 5 2 6 6 7 7 8 8 2 9 1 10 3 11
REMARK H PARENT 5 3 5 4 5 5
REMARK Flexibility Score: inf
ROOT
ATOM      1  C   UNL     1      -2.700  62.312  36.230  1.00  0.00     0.230 C 
ENDROOT
BRANCH   1   2
ATOM      2  N   UNL     1      -2.545  60.890  35.890  1.00  0.00    -0.350 N 
ATOM      3  H   UNL     1      -1.900  60.773  35.074  1.00  0.00     0.345 HD
ATOM      4  H   UNL     1      -3.475  60.474  35.650  1.00  0.00     0.345 HD
ATOM      5  H   UNL     1      -2.173  60.361  36.710  1.00  0.00     0.345 HD
ENDBRANCH   1   2
BRANCH   1   6
ATOM      6  C   UNL     1      -2.131  63.156  35.114  1.00  0.00     0.099 C 
ATOM      7  O   UNL     1      -2.893  63.849  34.392  1.00  0.00    -0.544 OA
ATOM      8  O   UNL     1      -0.761  63.173  34.880  1.00  0.00    -0.544 OA
ENDBRANCH   1   6
BRANCH   1   9
ATOM      9  C   UNL     1      -2.020  62.662  37.588  1.00  0.00     0.047 C 
ATOM     10  C   UNL     1      -3.045  63.206  38.600  1.00  0.00     0.014 C 
ATOM     11  C   UNL     1      -1.306  61.446  38.200  1.00  0.00     0.014 C 
ENDBRANCH   1   9
TORSDOF 3
ENDMDL
MODEL 4
REMARK VINA RESULT:    -3.589     10.273     11.121
REMARK INTER + INTRA:          -4.160
REMARK INTER:                  -4.112
REMARK INTRA:                  -0.048
REMARK UNBOUND:                -0.046
REMARK SMILES CC(C)[C@H]([NH3+])C(=O)[O-]
REMARK SMILES IDX 4 1 5 2 6 6 7 7 8 8 2 9 1 10 3 11
REMARK H PARENT 5 3 5 4 5 5
REMARK Flexibility Score: inf
ROOT
ATOM      1  C   UNL     1      -2.369  62.807  31.015  1.00  0.00     0.230 C 
ENDROOT
BRANCH   1   2
ATOM      2  N   UNL     1      -2.181  64.237  31.302  1.00  0.00    -0.350 N 
ATOM      3  H   UNL     1      -2.890  64.572  31.994  1.00  0.00     0.345 HD
ATOM      4  H   UNL     1      -2.274  64.796  30.421  1.00  0.00     0.345 HD
ATOM      5  H   UNL     1      -1.219  64.407  31.674  1.00  0.00     0.345 HD
ENDBRANCH   1   2
BRANCH   1   6
ATOM      6  C   UNL     1      -1.925  61.998  32.210  1.00  0.00     0.099 C 
ATOM      7  O   UNL     1      -0.714  61.989  32.555  1.00  0.00    -0.544 OA
ATOM      8  O   UNL     1      -2.851  61.260  32.938  1.00  0.00    -0.544 OA
ENDBRANCH   1   6
BRANCH   1   9
ATOM      9  C   UNL     1      -1.598  62.367  29.733  1.00  0.00     0.047 C 
ATOM     10  C   UNL     1      -2.560  61.802  28.672  1.00  0.00     0.014 C 
ATOM     11  C   UNL     1      -0.796  63.526  29.120  1.00  0.00     0.014 C 
ENDBRANCH   1   9
TORSDOF 3
ENDMDL
MODEL 5
REMARK VINA RESULT:    -3.575     10.450     11.267
REMARK INTER + INTRA:          -4.144
REMARK INTER:                  -4.083
REMARK INTRA:                  -0.061
REMARK UNBOUND:                -0.046
REMARK SMILES CC(C)[C@H]([NH3+])C(=O)[O-]
REMARK SMILES IDX 4 1 5 2 6 6 7 7 8 8 2 9 1 10 3 11
REMARK H PARENT 5 3 5 4 5 5
REMARK Flexibility Score: inf
ROOT
ATOM      1  C   UNL     1      -1.891  62.441  36.507  1.00  0.00     0.230 C 
ENDROOT
BRANCH   1   2
ATOM      2  N   UNL     1      -1.302  61.280  35.823  1.00  0.00    -0.350 N 
ATOM      3  H   UNL     1      -0.835  61.572  34.934  1.00  0.00     0.345 HD
ATOM      4  H   UNL     1      -2.047  60.578  35.600  1.00  0.00     0.345 HD
ATOM      5  H   UNL     1      -0.609  60.807  36.445  1.00  0.00     0.345 HD
ENDBRANCH   1   2
BRANCH   1   6
ATOM      6  C   UNL     1      -1.887  62.195  37.997  1.00  0.00     0.099 C 
ATOM      7  O   UNL     1      -1.077  61.374  38.501  1.00  0.00    -0.544 OA
ATOM      8  O   UNL     1      -2.775  62.876  38.821  1.00  0.00    -0.544 OA
ENDBRANCH   1   6
BRANCH   1   9
ATOM      9  C   UNL     1      -3.335  62.741  36.002  1.00  0.00     0.047 C 
ATOM     10  C   UNL     1      -3.310  63.464  34.642  1.00  0.00     0.014 C 
ATOM     11  C   UNL     1      -4.175  61.460  35.875  1.00  0.00     0.014 C 
ENDBRANCH   1   9
TORSDOF 3
ENDMDL
MODEL 6
REMARK VINA RESULT:    -3.526      5.452      6.343
REMARK INTER + INTRA:          -4.088
REMARK INTER:                  -4.029
REMARK INTRA:                  -0.059
REMARK UNBOUND:                -0.046
REMARK SMILES CC(C)[C@H]([NH3+])C(=O)[O-]
REMARK SMILES IDX 4 1 5 2 6 6 7 7 8 8 2 9 1 10 3 11
REMARK H PARENT 5 3 5 4 5 5
REMARK Flexibility Score: inf
ROOT
ATOM      1  C   UNL     1       7.462  65.608  33.774  1.00  0.00     0.230 C 
ENDROOT
BRANCH   1   2
ATOM      2  N   UNL     1       7.146  64.880  32.535  1.00  0.00    -0.350 N 
ATOM      3  H   UNL     1       6.365  65.347  32.020  1.00  0.00     0.345 HD
ATOM      4  H   UNL     1       6.866  63.896  32.758  1.00  0.00     0.345 HD
ATOM      5  H   UNL     1       7.990  64.829  31.922  1.00  0.00     0.345 HD
ENDBRANCH   1   2
BRANCH   1   6
ATOM      6  C   UNL     1       7.431  67.092  33.500  1.00  0.00     0.099 C 
ATOM      7  O   UNL     1       6.701  67.552  32.583  1.00  0.00    -0.544 OA
ATOM      8  O   UNL     1       8.206  67.960  34.260  1.00  0.00    -0.544 OA
ENDBRANCH   1   6
BRANCH   1   9
ATOM      9  C   UNL     1       8.843  65.184  34.359  1.00  0.00     0.047 C 
ATOM     10  C   UNL     1       8.719  63.903  35.205  1.00  0.00     0.014 C 
ATOM     11  C   UNL     1       9.889  64.958  33.256  1.00  0.00     0.014 C 
ENDBRANCH   1   9
TORSDOF 3
ENDMDL
MODEL 7
REMARK VINA RESULT:    -3.519      2.317      3.204
REMARK INTER + INTRA:          -4.080
REMARK INTER:                  -4.021
REMARK INTRA:                  -0.058
REMARK UNBOUND:                -0.046
REMARK SMILES CC(C)[C@H]([NH3+])C(=O)[O-]
REMARK SMILES IDX 4 1 5 2 6 6 7 7 8 8 2 9 1 10 3 11
REMARK H PARENT 5 3 5 4 5 5
REMARK Flexibility Score: inf
ROOT
ATOM      1  C   UNL     1       7.545  59.889  34.668  1.00  0.00     0.230 C 
ENDROOT
BRANCH   1   2
ATOM      2  N   UNL     1       7.087  60.587  35.879  1.00  0.00    -0.350 N 
ATOM      3  H   UNL     1       6.677  59.911  36.563  1.00  0.00     0.345 HD
ATOM      4  H   UNL     1       6.361  61.300  35.630  1.00  0.00     0.345 HD
ATOM      5  H   UNL     1       7.881  61.099  36.324  1.00  0.00     0.345 HD
ENDBRANCH   1   2
BRANCH   1   6
ATOM      6  C   UNL     1       7.612  58.406  34.944  1.00  0.00     0.099 C 
ATOM      7  O   UNL     1       6.819  57.879  35.768  1.00  0.00    -0.544 OA
ATOM      8  O   UNL     1       8.546  57.614  34.288  1.00  0.00    -0.544 OA
ENDBRANCH   1   6
BRANCH   1   9
ATOM      9  C   UNL     1       8.927  60.422  34.180  1.00  0.00     0.047 C 
ATOM     10  C   UNL     1       8.759  61.653  33.271  1.00  0.00     0.014 C 
ATOM     11  C   UNL     1       9.848  60.787  35.356  1.00  0.00     0.014 C 
ENDBRANCH   1   9
TORSDOF 3
ENDMDL
MODEL 8
REMARK VINA RESULT:    -3.510     10.731     11.407
REMARK INTER + INTRA:          -4.070
REMARK INTER:                  -4.004
REMARK INTRA:                  -0.066
REMARK UNBOUND:                -0.046
REMARK SMILES CC(C)[C@H]([NH3+])C(=O)[O-]
REMARK SMILES IDX 4 1 5 2 6 6 7 7 8 8 2 9 1 10 3 11
REMARK H PARENT 5 3 5 4 5 5
REMARK Flexibility Score: inf
ROOT
ATOM      1  C   UNL     1      -1.746  62.522  30.933  1.00  0.00     0.230 C 
ENDROOT
BRANCH   1   2
ATOM      2  N   UNL     1      -1.215  63.672  31.679  1.00  0.00    -0.350 N 
ATOM      3  H   UNL     1      -0.239  63.892  31.374  1.00  0.00     0.345 HD
ATOM      4  H   UNL     1      -1.211  63.465  32.705  1.00  0.00     0.345 HD
ATOM      5  H   UNL     1      -1.824  64.508  31.536  1.00  0.00     0.345 HD
ENDBRANCH   1   2
BRANCH   1   6
ATOM      6  C   UNL     1      -1.614  62.785  29.452  1.00  0.00     0.099 C 
ATOM      7  O   UNL     1      -0.838  63.685  29.035  1.00  0.00    -0.544 OA
ATOM      8  O   UNL     1      -2.344  62.033  28.540  1.00  0.00    -0.544 OA
ENDBRANCH   1   6
BRANCH   1   9
ATOM      9  C   UNL     1      -3.229  62.222  31.309  1.00  0.00     0.047 C 
ATOM     10  C   UNL     1      -3.327  61.550  32.691  1.00  0.00     0.014 C 
ATOM     11  C   UNL     1      -4.090  63.495  31.307  1.00  0.00     0.014 C 
ENDBRANCH   1   9
TORSDOF 3
ENDMDL
MODEL 9
REMARK VINA RESULT:    -3.491     15.415     16.504
REMARK INTER + INTRA:          -4.047
REMARK INTER:                  -3.969
REMARK INTRA:                  -0.078
REMARK UNBOUND:                -0.046
REMARK SMILES CC(C)[C@H]([NH3+])C(=O)[O-]
REMARK SMILES IDX 4 1 5 2 6 6 7 7 8 8 2 9 1 10 3 11
REMARK H PARENT 5 3 5 4 5 5
REMARK Flexibility Score: inf
ROOT
ATOM      1  C   UNL     1      -5.149  56.133  42.723  1.00  0.00     0.230 C 
ENDROOT
BRANCH   1   2
ATOM      2  N   UNL     1      -4.192  55.243  43.397  1.00  0.00    -0.350 N 
ATOM      3  H   UNL     1      -4.640  54.327  43.630  1.00  0.00     0.345 HD
ATOM      4  H   UNL     1      -3.848  55.688  44.280  1.00  0.00     0.345 HD
ATOM      5  H   UNL     1      -3.358  55.082  42.788  1.00  0.00     0.345 HD
ENDBRANCH   1   2
BRANCH   1   6
ATOM      6  C   UNL     1      -6.420  56.203  43.534  1.00  0.00     0.099 C 
ATOM      7  O   UNL     1      -7.113  55.168  43.716  1.00  0.00    -0.544 OA
ATOM      8  O   UNL     1      -6.832  57.409  44.088  1.00  0.00    -0.544 OA
ENDBRANCH   1   6
BRANCH   1   9
ATOM      9  C   UNL     1      -5.450  55.666  41.266  1.00  0.00     0.047 C 
ATOM     10  C   UNL     1      -6.384  56.654  40.546  1.00  0.00     0.014 C 
ATOM     11  C   UNL     1      -4.163  55.498  40.442  1.00  0.00     0.014 C 
ENDBRANCH   1   9
TORSDOF 3
ENDMDL
