MODEL 1
REMARK VINA RESULT:     9.965      0.000      0.000
REMARK INTER + INTRA:          12.139
REMARK INTER:                  12.587
REMARK INTRA:                  -0.447
REMARK UNBOUND:                -0.447
REMARK SMILES COc1cc(O)c2c(=O)c(OC)c(-c3ccc(O)c(O)c3)oc2c1
REMARK SMILES IDX 3 1 4 2 5 3 7 4 23 5 24 6 22 7 13 8 10 9 8 10 9 11 2 12 1 13
REMARK SMILES IDX 6 14 14 16 21 17 15 18 19 19 16 20 17 21 20 22 18 24 11 26
REMARK SMILES IDX 12 27
REMARK H PARENT 6 15 20 23 18 25
REMARK Flexibility Score: inf
ROOT
ATOM      1  C   UNL     1      -2.489  -6.887   4.818  1.00  0.00     0.126 A 
ATOM      2  C   UNL     1      -3.302  -7.825   5.455  1.00  0.00     0.093 A 
ATOM      3  C   UNL     1      -4.574  -7.486   5.930  1.00  0.00     0.134 A 
ATOM      4  C   UNL     1      -5.088  -6.176   5.696  1.00  0.00     0.111 A 
ATOM      5  C   UNL     1      -4.243  -5.224   5.074  1.00  0.00     0.146 A 
ATOM      6  C   UNL     1      -2.962  -5.578   4.646  1.00  0.00     0.094 A 
ATOM      7  O   UNL     1      -4.653  -3.978   4.880  1.00  0.00    -0.452 OA
ATOM      8  C   UNL     1      -5.855  -3.539   5.226  1.00  0.00     0.180 A 
ATOM      9  C   UNL     1      -6.800  -4.425   5.779  1.00  0.00     0.210 A 
ATOM     10  C   UNL     1      -6.409  -5.766   6.002  1.00  0.00     0.239 A 
ATOM     11  O   UNL     1      -7.251  -6.598   6.426  1.00  0.00    -0.285 OA
ENDROOT
BRANCH   1  12
ATOM     12  O   UNL     1      -1.219  -7.293   4.382  1.00  0.00    -0.496 OA
ATOM     13  C   UNL     1      -0.859  -7.482   3.017  1.00  0.00     0.278 C 
ENDBRANCH   1  12
BRANCH   3  14
ATOM     14  O   UNL     1      -5.257  -8.473   6.647  1.00  0.00    -0.507 OA
ATOM     15  H   UNL     1      -6.135  -8.882   6.364  1.00  0.00     0.293 HD
ENDBRANCH   3  14
BRANCH   8  16
ATOM     16  C   UNL     1      -6.167  -2.112   4.984  1.00  0.00     0.025 A 
ATOM     17  C   UNL     1      -5.736  -1.108   5.870  1.00  0.00     0.062 A 
ATOM     18  C   UNL     1      -6.853  -1.743   3.815  1.00  0.00     0.016 A 
ATOM     19  C   UNL     1      -6.021   0.240   5.610  1.00  0.00     0.158 A 
ATOM     20  C   UNL     1      -7.137  -0.399   3.557  1.00  0.00     0.051 A 
ATOM     21  C   UNL     1      -6.725   0.595   4.454  1.00  0.00     0.157 A 
BRANCH  19  22
ATOM     22  O   UNL     1      -5.601   1.233   6.494  1.00  0.00    -0.504 OA
ATOM     23  H   UNL     1      -4.913   1.045   7.215  1.00  0.00     0.293 HD
ENDBRANCH  19  22
BRANCH  21  24
ATOM     24  O   UNL     1      -7.009   1.936   4.200  1.00  0.00    -0.504 OA
ATOM     25  H   UNL     1      -7.145   2.601   4.953  1.00  0.00     0.293 HD
ENDBRANCH  21  24
ENDBRANCH   8  16
BRANCH   9  26
ATOM     26  O   UNL     1      -8.095  -3.935   6.045  1.00  0.00    -0.490 OA
ATOM     27  C   UNL     1      -8.623  -3.575   7.317  1.00  0.00     0.278 C 
ENDBRANCH   9  26
TORSDOF 6
ENDMDL
MODEL 2
REMARK VINA RESULT:    10.123      6.289      9.967
REMARK INTER + INTRA:          12.339
REMARK INTER:                  12.818
REMARK INTRA:                  -0.478
REMARK UNBOUND:                -0.447
REMARK SMILES COc1cc(O)c2c(=O)c(OC)c(-c3ccc(O)c(O)c3)oc2c1
REMARK SMILES IDX 3 1 4 2 5 3 7 4 23 5 24 6 22 7 13 8 10 9 8 10 9 11 2 12 1 13
REMARK SMILES IDX 6 14 14 16 21 17 15 18 19 19 16 20 17 21 20 22 18 24 11 26
REMARK SMILES IDX 12 27
REMARK H PARENT 6 15 20 23 18 25
REMARK Flexibility Score: inf
ROOT
ATOM      1  C   UNL     1     -15.005  -3.120  12.729  1.00  0.00     0.126 A 
ATOM      2  C   UNL     1     -14.226  -4.228  13.059  1.00  0.00     0.093 A 
ATOM      3  C   UNL     1     -12.959  -4.423  12.497  1.00  0.00     0.134 A 
ATOM      4  C   UNL     1     -12.415  -3.435  11.624  1.00  0.00     0.111 A 
ATOM      5  C   UNL     1     -13.226  -2.328  11.274  1.00  0.00     0.146 A 
ATOM      6  C   UNL     1     -14.504  -2.179  11.818  1.00  0.00     0.094 A 
ATOM      7  O   UNL     1     -12.789  -1.408  10.425  1.00  0.00    -0.452 OA
ATOM      8  C   UNL     1     -11.587  -1.439   9.866  1.00  0.00     0.180 A 
ATOM      9  C   UNL     1     -10.673  -2.453  10.208  1.00  0.00     0.210 A 
ATOM     10  C   UNL     1     -11.094  -3.456  11.113  1.00  0.00     0.239 A 
ATOM     11  O   UNL     1     -10.278  -4.333  11.493  1.00  0.00    -0.285 OA
ENDROOT
BRANCH   1  12
ATOM     12  O   UNL     1     -16.272  -2.996  13.319  1.00  0.00    -0.496 OA
ATOM     13  C   UNL     1     -16.709  -1.861  14.057  1.00  0.00     0.278 C 
ENDBRANCH   1  12
BRANCH   3  14
ATOM     14  O   UNL     1     -12.312  -5.622  12.815  1.00  0.00    -0.507 OA
ATOM     15  H   UNL     1     -11.777  -5.777  13.657  1.00  0.00     0.293 HD
ENDBRANCH   3  14
BRANCH   8  16
ATOM     16  C   UNL     1     -11.242  -0.363   8.907  1.00  0.00     0.025 A 
ATOM     17  C   UNL     1     -11.591  -0.457   7.547  1.00  0.00     0.062 A 
ATOM     18  C   UNL     1     -10.611   0.801   9.372  1.00  0.00     0.016 A 
ATOM     19  C   UNL     1     -11.277   0.582   6.660  1.00  0.00     0.158 A 
ATOM     20  C   UNL     1     -10.297   1.836   8.487  1.00  0.00     0.051 A 
ATOM     21  C   UNL     1     -10.627   1.729   7.130  1.00  0.00     0.157 A 
BRANCH  19  22
ATOM     22  O   UNL     1     -11.616   0.484   5.311  1.00  0.00    -0.504 OA
ATOM     23  H   UNL     1     -12.458   0.912   4.943  1.00  0.00     0.293 HD
ENDBRANCH  19  22
BRANCH  21  24
ATOM     24  O   UNL     1     -10.314   2.759   6.244  1.00  0.00    -0.504 OA
ATOM     25  H   UNL     1      -9.890   3.623   6.564  1.00  0.00     0.293 HD
ENDBRANCH  21  24
ENDBRANCH   8  16
BRANCH   9  26
ATOM     26  O   UNL     1      -9.375  -2.392   9.660  1.00  0.00    -0.490 OA
ATOM     27  C   UNL     1      -8.902  -3.095   8.516  1.00  0.00     0.278 C 
ENDBRANCH   9  26
TORSDOF 6
ENDMDL
MODEL 3
REMARK VINA RESULT:    10.431      4.076      5.585
REMARK INTER + INTRA:          12.728
REMARK INTER:                  12.698
REMARK INTRA:                   0.030
REMARK UNBOUND:                -0.447
REMARK SMILES COc1cc(O)c2c(=O)c(OC)c(-c3ccc(O)c(O)c3)oc2c1
REMARK SMILES IDX 3 1 4 2 5 3 7 4 23 5 24 6 22 7 13 8 10 9 8 10 9 11 2 12 1 13
REMARK SMILES IDX 6 14 14 16 21 17 15 18 19 19 16 20 17 21 20 22 18 24 11 26
REMARK SMILES IDX 12 27
REMARK H PARENT 6 15 20 23 18 25
REMARK Flexibility Score: inf
ROOT
ATOM      1  C   UNL     1      -8.282  -4.513   4.046  1.00  0.00     0.126 A 
ATOM      2  C   UNL     1      -7.889  -5.732   4.597  1.00  0.00     0.093 A 
ATOM      3  C   UNL     1      -7.847  -5.928   5.982  1.00  0.00     0.134 A 
ATOM      4  C   UNL     1      -8.285  -4.888   6.855  1.00  0.00     0.111 A 
ATOM      5  C   UNL     1      -8.656  -3.645   6.286  1.00  0.00     0.146 A 
ATOM      6  C   UNL     1      -8.649  -3.464   4.901  1.00  0.00     0.094 A 
ATOM      7  O   UNL     1      -9.020  -2.629   7.055  1.00  0.00    -0.452 OA
ATOM      8  C   UNL     1      -9.084  -2.696   8.378  1.00  0.00     0.180 A 
ATOM      9  C   UNL     1      -8.814  -3.910   9.038  1.00  0.00     0.210 A 
ATOM     10  C   UNL     1      -8.422  -5.024   8.258  1.00  0.00     0.239 A 
ATOM     11  O   UNL     1      -8.245  -6.139   8.811  1.00  0.00    -0.285 OA
ENDROOT
BRANCH   1  12
ATOM     12  O   UNL     1      -8.285  -4.382   2.649  1.00  0.00    -0.496 OA
ATOM     13  C   UNL     1      -9.458  -4.386   1.843  1.00  0.00     0.278 C 
ENDBRANCH   1  12
BRANCH   3  14
ATOM     14  O   UNL     1      -7.335  -7.152   6.425  1.00  0.00    -0.507 OA
ATOM     15  H   UNL     1      -6.838  -7.809   5.842  1.00  0.00     0.293 HD
ENDBRANCH   3  14
BRANCH   8  16
ATOM     16  C   UNL     1      -9.473  -1.472   9.116  1.00  0.00     0.025 A 
ATOM     17  C   UNL     1      -8.734  -1.020  10.224  1.00  0.00     0.062 A 
ATOM     18  C   UNL     1     -10.563  -0.711   8.665  1.00  0.00     0.016 A 
ATOM     19  C   UNL     1      -9.104   0.155  10.894  1.00  0.00     0.158 A 
ATOM     20  C   UNL     1     -10.933   0.459   9.334  1.00  0.00     0.051 A 
ATOM     21  C   UNL     1     -10.207   0.893  10.450  1.00  0.00     0.157 A 
BRANCH  19  22
ATOM     22  O   UNL     1      -8.376   0.597  11.998  1.00  0.00    -0.504 OA
ATOM     23  H   UNL     1      -7.368   0.697  11.962  1.00  0.00     0.293 HD
ENDBRANCH  19  22
BRANCH  21  24
ATOM     24  O   UNL     1     -10.574   2.059  11.121  1.00  0.00    -0.504 OA
ATOM     25  H   UNL     1     -11.231   2.718  10.718  1.00  0.00     0.293 HD
ENDBRANCH  21  24
ENDBRANCH   8  16
BRANCH   9  26
ATOM     26  O   UNL     1      -8.984  -3.959  10.437  1.00  0.00    -0.490 OA
ATOM     27  C   UNL     1     -10.215  -4.095  11.140  1.00  0.00     0.278 C 
ENDBRANCH   9  26
TORSDOF 6
ENDMDL
MODEL 4
REMARK VINA RESULT:    10.440      4.104      5.600
REMARK INTER + INTRA:          12.739
REMARK INTER:                  12.184
REMARK INTRA:                   0.556
REMARK UNBOUND:                -0.447
REMARK SMILES COc1cc(O)c2c(=O)c(OC)c(-c3ccc(O)c(O)c3)oc2c1
REMARK SMILES IDX 3 1 4 2 5 3 7 4 23 5 24 6 22 7 13 8 10 9 8 10 9 11 2 12 1 13
REMARK SMILES IDX 6 14 14 16 21 17 15 18 19 19 16 20 17 21 20 22 18 24 11 26
REMARK SMILES IDX 12 27
REMARK H PARENT 6 15 20 23 18 25
REMARK Flexibility Score: inf
ROOT
ATOM      1  C   UNL     1      -8.259  -4.809   4.154  1.00  0.00     0.126 A 
ATOM      2  C   UNL     1      -7.832  -5.957   4.821  1.00  0.00     0.093 A 
ATOM      3  C   UNL     1      -7.797  -6.020   6.218  1.00  0.00     0.134 A 
ATOM      4  C   UNL     1      -8.277  -4.917   6.986  1.00  0.00     0.111 A 
ATOM      5  C   UNL     1      -8.682  -3.747   6.300  1.00  0.00     0.146 A 
ATOM      6  C   UNL     1      -8.668  -3.697   4.903  1.00  0.00     0.094 A 
ATOM      7  O   UNL     1      -9.086  -2.675   6.967  1.00  0.00    -0.452 OA
ATOM      8  C   UNL     1      -9.160  -2.619   8.290  1.00  0.00     0.180 A 
ATOM      9  C   UNL     1      -8.857  -3.755   9.064  1.00  0.00     0.210 A 
ATOM     10  C   UNL     1      -8.422  -4.924   8.395  1.00  0.00     0.239 A 
ATOM     11  O   UNL     1      -8.214  -5.976   9.052  1.00  0.00    -0.285 OA
ENDROOT
BRANCH   1  12
ATOM     12  O   UNL     1      -8.253  -4.811   2.751  1.00  0.00    -0.496 OA
ATOM     13  C   UNL     1      -9.410  -4.633   1.941  1.00  0.00     0.278 C 
ENDBRANCH   1  12
BRANCH   3  14
ATOM     14  O   UNL     1      -7.249  -7.179   6.778  1.00  0.00    -0.507 OA
ATOM     15  H   UNL     1      -6.408  -7.203   7.334  1.00  0.00     0.293 HD
ENDBRANCH   3  14
BRANCH   8  16
ATOM     16  C   UNL     1      -9.595  -1.344   8.905  1.00  0.00     0.025 A 
ATOM     17  C   UNL     1     -10.391  -0.425   8.198  1.00  0.00     0.062 A 
ATOM     18  C   UNL     1      -9.261  -1.072  10.242  1.00  0.00     0.016 A 
ATOM     19  C   UNL     1     -10.814   0.765   8.807  1.00  0.00     0.158 A 
ATOM     20  C   UNL     1      -9.681   0.115  10.848  1.00  0.00     0.051 A 
ATOM     21  C   UNL     1     -10.455   1.037  10.132  1.00  0.00     0.157 A 
BRANCH  19  22
ATOM     22  O   UNL     1     -11.596   1.679   8.102  1.00  0.00    -0.504 OA
ATOM     23  H   UNL     1     -12.609   1.644   8.130  1.00  0.00     0.293 HD
ENDBRANCH  19  22
BRANCH  21  24
ATOM     24  O   UNL     1     -10.875   2.223  10.733  1.00  0.00    -0.504 OA
ATOM     25  H   UNL     1     -11.850   2.499  10.737  1.00  0.00     0.293 HD
ENDBRANCH  21  24
ENDBRANCH   8  16
BRANCH   9  26
ATOM     26  O   UNL     1      -9.039  -3.677  10.460  1.00  0.00    -0.490 OA
ATOM     27  C   UNL     1     -10.205  -4.046  11.187  1.00  0.00     0.278 C 
ENDBRANCH   9  26
TORSDOF 6
ENDMDL
MODEL 5
REMARK VINA RESULT:    10.483      3.457      8.200
REMARK INTER + INTRA:          12.793
REMARK INTER:                  12.216
REMARK INTRA:                   0.577
REMARK UNBOUND:                -0.447
REMARK SMILES COc1cc(O)c2c(=O)c(OC)c(-c3ccc(O)c(O)c3)oc2c1
REMARK SMILES IDX 3 1 4 2 5 3 7 4 23 5 24 6 22 7 13 8 10 9 8 10 9 11 2 12 1 13
REMARK SMILES IDX 6 14 14 16 21 17 15 18 19 19 16 20 17 21 20 22 18 24 11 26
REMARK SMILES IDX 12 27
REMARK H PARENT 6 15 20 23 18 25
REMARK Flexibility Score: inf
ROOT
ATOM      1  C   UNL     1     -11.305  -3.722  11.462  1.00  0.00     0.126 A 
ATOM      2  C   UNL     1     -11.476  -2.356  11.237  1.00  0.00     0.093 A 
ATOM      3  C   UNL     1     -10.800  -1.695  10.205  1.00  0.00     0.134 A 
ATOM      4  C   UNL     1      -9.973  -2.441   9.314  1.00  0.00     0.111 A 
ATOM      5  C   UNL     1      -9.784  -3.821   9.568  1.00  0.00     0.146 A 
ATOM      6  C   UNL     1     -10.440  -4.448  10.631  1.00  0.00     0.094 A 
ATOM      7  O   UNL     1      -8.984  -4.550   8.802  1.00  0.00    -0.452 OA
ATOM      8  C   UNL     1      -8.330  -4.064   7.755  1.00  0.00     0.180 A 
ATOM      9  C   UNL     1      -8.511  -2.723   7.368  1.00  0.00     0.210 A 
ATOM     10  C   UNL     1      -9.358  -1.907   8.155  1.00  0.00     0.239 A 
ATOM     11  O   UNL     1      -9.596  -0.727   7.794  1.00  0.00    -0.285 OA
ENDROOT
BRANCH   1  12
ATOM     12  O   UNL     1     -12.003  -4.315  12.524  1.00  0.00    -0.496 OA
ATOM     13  C   UNL     1     -13.082  -5.230  12.367  1.00  0.00     0.278 C 
ENDBRANCH   1  12
BRANCH   3  14
ATOM     14  O   UNL     1     -10.962  -0.308  10.139  1.00  0.00    -0.507 OA
ATOM     15  H   UNL     1     -10.611   0.343  10.826  1.00  0.00     0.293 HD
ENDBRANCH   3  14
BRANCH   8  16
ATOM     16  C   UNL     1      -7.441  -4.983   7.008  1.00  0.00     0.025 A 
ATOM     17  C   UNL     1      -6.962  -6.171   7.589  1.00  0.00     0.062 A 
ATOM     18  C   UNL     1      -7.118  -4.698   5.672  1.00  0.00     0.016 A 
ATOM     19  C   UNL     1      -6.142  -7.041   6.856  1.00  0.00     0.158 A 
ATOM     20  C   UNL     1      -6.299  -5.564   4.942  1.00  0.00     0.051 A 
ATOM     21  C   UNL     1      -5.806  -6.735   5.533  1.00  0.00     0.157 A 
BRANCH  19  22
ATOM     22  O   UNL     1      -5.661  -8.214   7.437  1.00  0.00    -0.504 OA
ATOM     23  H   UNL     1      -6.285  -8.962   7.717  1.00  0.00     0.293 HD
ENDBRANCH  19  22
BRANCH  21  24
ATOM     24  O   UNL     1      -4.988  -7.600   4.808  1.00  0.00    -0.504 OA
ATOM     25  H   UNL     1      -4.947  -7.569   3.796  1.00  0.00     0.293 HD
ENDBRANCH  21  24
ENDBRANCH   8  16
BRANCH   9  26
ATOM     26  O   UNL     1      -7.867  -2.277   6.195  1.00  0.00    -0.490 OA
ATOM     27  C   UNL     1      -6.701  -1.462   6.123  1.00  0.00     0.278 C 
ENDBRANCH   9  26
TORSDOF 6
ENDMDL
MODEL 6
REMARK VINA RESULT:    10.606      3.654      6.533
REMARK INTER + INTRA:          12.948
REMARK INTER:                  12.439
REMARK INTRA:                   0.510
REMARK UNBOUND:                -0.447
REMARK SMILES COc1cc(O)c2c(=O)c(OC)c(-c3ccc(O)c(O)c3)oc2c1
REMARK SMILES IDX 3 1 4 2 5 3 7 4 23 5 24 6 22 7 13 8 10 9 8 10 9 11 2 12 1 13
REMARK SMILES IDX 6 14 14 16 21 17 15 18 19 19 16 20 17 21 20 22 18 24 11 26
REMARK SMILES IDX 12 27
REMARK H PARENT 6 15 20 23 18 25
REMARK Flexibility Score: inf
ROOT
ATOM      1  C   UNL     1      -6.341  -6.550   6.365  1.00  0.00     0.126 A 
ATOM      2  C   UNL     1      -6.122  -5.575   5.392  1.00  0.00     0.093 A 
ATOM      3  C   UNL     1      -6.773  -4.337   5.441  1.00  0.00     0.134 A 
ATOM      4  C   UNL     1      -7.622  -4.029   6.545  1.00  0.00     0.111 A 
ATOM      5  C   UNL     1      -7.858  -5.036   7.512  1.00  0.00     0.146 A 
ATOM      6  C   UNL     1      -7.227  -6.279   7.417  1.00  0.00     0.094 A 
ATOM      7  O   UNL     1      -8.681  -4.821   8.529  1.00  0.00    -0.452 OA
ATOM      8  C   UNL     1      -9.315  -3.673   8.729  1.00  0.00     0.180 A 
ATOM      9  C   UNL     1      -9.087  -2.580   7.871  1.00  0.00     0.210 A 
ATOM     10  C   UNL     1      -8.215  -2.763   6.772  1.00  0.00     0.239 A 
ATOM     11  O   UNL     1      -7.936  -1.786   6.030  1.00  0.00    -0.285 OA
ENDROOT
BRANCH   1  12
ATOM     12  O   UNL     1      -5.667  -7.775   6.245  1.00  0.00    -0.496 OA
ATOM     13  C   UNL     1      -4.635  -8.215   7.121  1.00  0.00     0.278 C 
ENDBRANCH   1  12
BRANCH   3  14
ATOM     14  O   UNL     1      -6.563  -3.478   4.357  1.00  0.00    -0.507 OA
ATOM     15  H   UNL     1      -6.960  -2.554   4.274  1.00  0.00     0.293 HD
ENDBRANCH   3  14
BRANCH   8  16
ATOM     16  C   UNL     1     -10.232  -3.582   9.889  1.00  0.00     0.025 A 
ATOM     17  C   UNL     1     -10.768  -4.736  10.489  1.00  0.00     0.062 A 
ATOM     18  C   UNL     1     -10.526  -2.325  10.441  1.00  0.00     0.016 A 
ATOM     19  C   UNL     1     -11.615  -4.629  11.601  1.00  0.00     0.158 A 
ATOM     20  C   UNL     1     -11.372  -2.220  11.548  1.00  0.00     0.051 A 
ATOM     21  C   UNL     1     -11.920  -3.370  12.129  1.00  0.00     0.157 A 
BRANCH  19  22
ATOM     22  O   UNL     1     -12.153  -5.774  12.190  1.00  0.00    -0.504 OA
ATOM     23  H   UNL     1     -12.133  -5.912  13.194  1.00  0.00     0.293 HD
ENDBRANCH  19  22
BRANCH  21  24
ATOM     24  O   UNL     1     -12.765  -3.268  13.233  1.00  0.00    -0.504 OA
ATOM     25  H   UNL     1     -12.406  -3.065  14.159  1.00  0.00     0.293 HD
ENDBRANCH  21  24
ENDBRANCH   8  16
BRANCH   9  26
ATOM     26  O   UNL     1      -9.712  -1.353   8.177  1.00  0.00    -0.490 OA
ATOM     27  C   UNL     1     -10.722  -0.701   7.415  1.00  0.00     0.278 C 
ENDBRANCH   9  26
TORSDOF 6
ENDMDL
MODEL 7
REMARK VINA RESULT:    11.655      3.347      8.419
REMARK INTER + INTRA:          14.274
REMARK INTER:                  14.500
REMARK INTRA:                  -0.226
REMARK UNBOUND:                -0.447
REMARK SMILES COc1cc(O)c2c(=O)c(OC)c(-c3ccc(O)c(O)c3)oc2c1
REMARK SMILES IDX 3 1 4 2 5 3 7 4 23 5 24 6 22 7 13 8 10 9 8 10 9 11 2 12 1 13
REMARK SMILES IDX 6 14 14 16 21 17 15 18 19 19 16 20 17 21 20 22 18 24 11 26
REMARK SMILES IDX 12 27
REMARK H PARENT 6 15 20 23 18 25
REMARK Flexibility Score: inf
ROOT
ATOM      1  C   UNL     1     -10.755  -2.810  10.909  1.00  0.00     0.126 A 
ATOM      2  C   UNL     1     -10.631  -1.635  10.167  1.00  0.00     0.093 A 
ATOM      3  C   UNL     1      -9.866  -1.589   8.995  1.00  0.00     0.134 A 
ATOM      4  C   UNL     1      -9.257  -2.781   8.503  1.00  0.00     0.111 A 
ATOM      5  C   UNL     1      -9.366  -3.961   9.279  1.00  0.00     0.146 A 
ATOM      6  C   UNL     1     -10.102  -3.969  10.467  1.00  0.00     0.094 A 
ATOM      7  O   UNL     1      -8.775  -5.084   8.894  1.00  0.00    -0.452 OA
ATOM      8  C   UNL     1      -8.071  -5.195   7.776  1.00  0.00     0.180 A 
ATOM      9  C   UNL     1      -7.968  -4.103   6.892  1.00  0.00     0.210 A 
ATOM     10  C   UNL     1      -8.585  -2.884   7.261  1.00  0.00     0.239 A 
ATOM     11  O   UNL     1      -8.573  -1.914   6.461  1.00  0.00    -0.285 OA
ENDROOT
BRANCH   1  12
ATOM     12  O   UNL     1     -11.524  -2.779  12.081  1.00  0.00    -0.496 OA
ATOM     13  C   UNL     1     -12.664  -3.599  12.318  1.00  0.00     0.278 C 
ENDBRANCH   1  12
BRANCH   3  14
ATOM     14  O   UNL     1      -9.723  -0.336   8.392  1.00  0.00    -0.507 OA
ATOM     15  H   UNL     1     -10.268  -0.013   7.606  1.00  0.00     0.293 HD
ENDBRANCH   3  14
BRANCH   8  16
ATOM     16  C   UNL     1      -7.434  -6.501   7.486  1.00  0.00     0.025 A 
ATOM     17  C   UNL     1      -6.053  -6.602   7.239  1.00  0.00     0.062 A 
ATOM     18  C   UNL     1      -8.210  -7.670   7.519  1.00  0.00     0.016 A 
ATOM     19  C   UNL     1      -5.465  -7.850   6.991  1.00  0.00     0.158 A 
ATOM     20  C   UNL     1      -7.624  -8.914   7.269  1.00  0.00     0.051 A 
ATOM     21  C   UNL     1      -6.252  -9.008   7.003  1.00  0.00     0.157 A 
BRANCH  19  22
ATOM     22  O   UNL     1      -4.097  -7.948   6.738  1.00  0.00    -0.504 OA
ATOM     23  H   UNL     1      -3.409  -7.625   7.409  1.00  0.00     0.293 HD
ENDBRANCH  19  22
BRANCH  21  24
ATOM     24  O   UNL     1      -5.665 -10.247   6.753  1.00  0.00    -0.504 OA
ATOM     25  H   UNL     1      -5.663 -10.983   7.449  1.00  0.00     0.293 HD
ENDBRANCH  21  24
ENDBRANCH   8  16
BRANCH   9  26
ATOM     26  O   UNL     1      -7.288  -4.296   5.672  1.00  0.00    -0.490 OA
ATOM     27  C   UNL     1      -7.867  -4.663   4.425  1.00  0.00     0.278 C 
ENDBRANCH   9  26
TORSDOF 6
ENDMDL
MODEL 8
REMARK VINA RESULT:    12.059      3.642      7.131
REMARK INTER + INTRA:          14.784
REMARK INTER:                  15.167
REMARK INTRA:                  -0.383
REMARK UNBOUND:                -0.447
REMARK SMILES COc1cc(O)c2c(=O)c(OC)c(-c3ccc(O)c(O)c3)oc2c1
REMARK SMILES IDX 3 1 4 2 5 3 7 4 23 5 24 6 22 7 13 8 10 9 8 10 9 11 2 12 1 13
REMARK SMILES IDX 6 14 14 16 21 17 15 18 19 19 16 20 17 21 20 22 18 24 11 26
REMARK SMILES IDX 12 27
REMARK H PARENT 6 15 20 23 18 25
REMARK Flexibility Score: inf
ROOT
ATOM      1  C   UNL     1      -9.950  -1.030  10.667  1.00  0.00     0.126 A 
ATOM      2  C   UNL     1     -10.085  -2.196  11.421  1.00  0.00     0.093 A 
ATOM      3  C   UNL     1      -9.823  -3.456  10.869  1.00  0.00     0.134 A 
ATOM      4  C   UNL     1      -9.336  -3.553   9.532  1.00  0.00     0.111 A 
ATOM      5  C   UNL     1      -9.230  -2.365   8.768  1.00  0.00     0.146 A 
ATOM      6  C   UNL     1      -9.537  -1.124   9.331  1.00  0.00     0.094 A 
ATOM      7  O   UNL     1      -8.833  -2.405   7.503  1.00  0.00    -0.452 OA
ATOM      8  C   UNL     1      -8.495  -3.523   6.876  1.00  0.00     0.180 A 
ATOM      9  C   UNL     1      -8.488  -4.749   7.568  1.00  0.00     0.210 A 
ATOM     10  C   UNL     1      -8.903  -4.755   8.922  1.00  0.00     0.239 A 
ATOM     11  O   UNL     1      -8.839  -5.820   9.587  1.00  0.00    -0.285 OA
ENDROOT
BRANCH   1  12
ATOM     12  O   UNL     1     -10.246   0.197  11.280  1.00  0.00    -0.496 OA
ATOM     13  C   UNL     1     -10.409   1.427  10.582  1.00  0.00     0.278 C 
ENDBRANCH   1  12
BRANCH   3  14
ATOM     14  O   UNL     1     -10.094  -4.562  11.681  1.00  0.00    -0.507 OA
ATOM     15  H   UNL     1     -10.392  -4.506  12.643  1.00  0.00     0.293 HD
ENDBRANCH   3  14
BRANCH   8  16
ATOM     16  C   UNL     1      -8.104  -3.426   5.450  1.00  0.00     0.025 A 
ATOM     17  C   UNL     1      -8.906  -3.975   4.433  1.00  0.00     0.062 A 
ATOM     18  C   UNL     1      -6.943  -2.718   5.099  1.00  0.00     0.016 A 
ATOM     19  C   UNL     1      -8.530  -3.850   3.088  1.00  0.00     0.158 A 
ATOM     20  C   UNL     1      -6.569  -2.596   3.758  1.00  0.00     0.051 A 
ATOM     21  C   UNL     1      -7.359  -3.164   2.750  1.00  0.00     0.157 A 
BRANCH  19  22
ATOM     22  O   UNL     1      -9.322  -4.403   2.081  1.00  0.00    -0.504 OA
ATOM     23  H   UNL     1      -9.175  -4.172   1.105  1.00  0.00     0.293 HD
ENDBRANCH  19  22
BRANCH  21  24
ATOM     24  O   UNL     1      -6.987  -3.045   1.412  1.00  0.00    -0.504 OA
ATOM     25  H   UNL     1      -7.454  -3.573   0.683  1.00  0.00     0.293 HD
ENDBRANCH  21  24
ENDBRANCH   8  16
BRANCH   9  26
ATOM     26  O   UNL     1      -8.034  -5.896   6.886  1.00  0.00    -0.490 OA
ATOM     27  C   UNL     1      -6.707  -6.411   6.881  1.00  0.00     0.278 C 
ENDBRANCH   9  26
TORSDOF 6
ENDMDL
