MODEL 1
REMARK VINA RESULT:    -3.910      0.000      0.000
REMARK INTER + INTRA:          -4.274
REMARK INTER:                  -4.253
REMARK INTRA:                  -0.022
REMARK UNBOUND:                -0.022
REMARK SMILES OCc1ccco1
REMARK SMILES IDX 2 1 3 2 5 3 6 4 4 5 7 6 1 7
REMARK H PARENT 1 8
REMARK Flexibility Score: inf
ROOT
ATOM      1  C   UNL     1      13.794 -25.018 -32.122  1.00  0.00     0.231 C 
ENDROOT
BRANCH   1   2
ATOM      2  C   UNL     1      14.624 -26.228 -31.831  1.00  0.00     0.129 A 
ATOM      3  C   UNL     1      15.391 -28.085 -30.943  1.00  0.00     0.042 A 
ATOM      4  C   UNL     1      16.235 -27.620 -31.933  1.00  0.00     0.195 A 
ATOM      5  C   UNL     1      14.350 -27.184 -30.874  1.00  0.00     0.048 A 
ATOM      6  O   UNL     1      15.752 -26.510 -32.442  1.00  0.00    -0.467 OA
ENDBRANCH   1   2
BRANCH   1   7
ATOM      7  O   UNL     1      14.400 -24.252 -33.125  1.00  0.00    -0.388 OA
ATOM      8  H   UNL     1      14.068 -24.603 -33.992  1.00  0.00     0.211 HD
ENDBRANCH   1   7
TORSDOF 2
ENDMDL
MODEL 2
REMARK VINA RESULT:    -3.819      2.278      3.163
REMARK INTER + INTRA:          -4.175
REMARK INTER:                  -4.154
REMARK INTRA:                  -0.022
REMARK UNBOUND:                -0.022
REMARK SMILES OCc1ccco1
REMARK SMILES IDX 2 1 3 2 5 3 6 4 4 5 7 6 1 7
REMARK H PARENT 1 8
REMARK Flexibility Score: inf
ROOT
ATOM      1  C   UNL     1      14.824 -24.728 -32.565  1.00  0.00     0.231 C 
ENDROOT
BRANCH   1   2
ATOM      2  C   UNL     1      13.764 -24.953 -31.534  1.00  0.00     0.129 A 
ATOM      3  C   UNL     1      12.179 -24.636 -30.048  1.00  0.00     0.042 A 
ATOM      4  C   UNL     1      12.514 -25.973 -30.140  1.00  0.00     0.195 A 
ATOM      5  C   UNL     1      12.989 -23.975 -30.946  1.00  0.00     0.048 A 
ATOM      6  O   UNL     1      13.464 -26.130 -31.033  1.00  0.00    -0.467 OA
ENDBRANCH   1   2
BRANCH   1   7
ATOM      7  O   UNL     1      15.410 -25.948 -32.924  1.00  0.00    -0.388 OA
ATOM      8  H   UNL     1      16.373 -25.881 -32.692  1.00  0.00     0.211 HD
ENDBRANCH   1   7
TORSDOF 2
ENDMDL
MODEL 3
REMARK VINA RESULT:    -3.645      1.837      3.582
REMARK INTER + INTRA:          -3.986
REMARK INTER:                  -3.973
REMARK INTRA:                  -0.013
REMARK UNBOUND:                -0.022
REMARK SMILES OCc1ccco1
REMARK SMILES IDX 2 1 3 2 5 3 6 4 4 5 7 6 1 7
REMARK H PARENT 1 8
REMARK Flexibility Score: inf
ROOT
ATOM      1  C   UNL     1      18.116 -28.760 -32.001  1.00  0.00     0.231 C 
ENDROOT
BRANCH   1   2
ATOM      2  C   UNL     1      16.780 -28.217 -31.604  1.00  0.00     0.129 A 
ATOM      3  C   UNL     1      14.855 -27.908 -30.593  1.00  0.00     0.042 A 
ATOM      4  C   UNL     1      15.012 -27.026 -31.645  1.00  0.00     0.195 A 
ATOM      5  C   UNL     1      15.996 -28.681 -30.567  1.00  0.00     0.048 A 
ATOM      6  O   UNL     1      16.169 -27.237 -32.230  1.00  0.00    -0.467 OA
ENDBRANCH   1   2
BRANCH   1   7
ATOM      7  O   UNL     1      19.132 -28.079 -31.319  1.00  0.00    -0.388 OA
ATOM      8  H   UNL     1      19.896 -28.708 -31.245  1.00  0.00     0.211 HD
ENDBRANCH   1   7
TORSDOF 2
ENDMDL
MODEL 4
REMARK VINA RESULT:    -3.473     16.053     16.461
REMARK INTER + INTRA:          -3.800
REMARK INTER:                  -3.784
REMARK INTRA:                  -0.015
REMARK UNBOUND:                -0.022
REMARK SMILES OCc1ccco1
REMARK SMILES IDX 2 1 3 2 5 3 6 4 4 5 7 6 1 7
REMARK H PARENT 1 8
REMARK Flexibility Score: inf
ROOT
ATOM      1  C   UNL     1      26.723 -17.912 -29.080  1.00  0.00     0.231 C 
ENDROOT
BRANCH   1   2
ATOM      2  C   UNL     1      28.185 -17.965 -28.772  1.00  0.00     0.129 A 
ATOM      3  C   UNL     1      30.212 -17.438 -28.109  1.00  0.00     0.042 A 
ATOM      4  C   UNL     1      30.189 -18.688 -28.699  1.00  0.00     0.195 A 
ATOM      5  C   UNL     1      28.918 -16.968 -28.159  1.00  0.00     0.048 A 
ATOM      6  O   UNL     1      28.967 -18.972 -29.086  1.00  0.00    -0.467 OA
ENDBRANCH   1   2
BRANCH   1   7
ATOM      7  O   UNL     1      26.331 -16.588 -29.315  1.00  0.00    -0.388 OA
ATOM      8  H   UNL     1      27.122 -16.019 -29.127  1.00  0.00     0.211 HD
ENDBRANCH   1   7
TORSDOF 2
ENDMDL
MODEL 5
REMARK VINA RESULT:    -3.470      1.132      3.026
REMARK INTER + INTRA:          -3.796
REMARK INTER:                  -3.775
REMARK INTRA:                  -0.021
REMARK UNBOUND:                -0.022
REMARK SMILES OCc1ccco1
REMARK SMILES IDX 2 1 3 2 5 3 6 4 4 5 7 6 1 7
REMARK H PARENT 1 8
REMARK Flexibility Score: inf
ROOT
ATOM      1  C   UNL     1      14.911 -27.841 -30.920  1.00  0.00     0.231 C 
ENDROOT
BRANCH   1   2
ATOM      2  C   UNL     1      14.616 -26.493 -31.498  1.00  0.00     0.129 A 
ATOM      3  C   UNL     1      13.651 -24.579 -31.977  1.00  0.00     0.042 A 
ATOM      4  C   UNL     1      14.805 -24.753 -32.715  1.00  0.00     0.195 A 
ATOM      5  C   UNL     1      13.525 -25.705 -31.192  1.00  0.00     0.048 A 
ATOM      6  O   UNL     1      15.357 -25.905 -32.409  1.00  0.00    -0.467 OA
ENDBRANCH   1   2
BRANCH   1   7
ATOM      7  O   UNL     1      16.175 -28.274 -31.338  1.00  0.00    -0.388 OA
ATOM      8  H   UNL     1      16.398 -29.072 -30.791  1.00  0.00     0.211 HD
ENDBRANCH   1   7
TORSDOF 2
ENDMDL
MODEL 6
REMARK VINA RESULT:    -3.449      1.587      2.166
REMARK INTER + INTRA:          -3.773
REMARK INTER:                  -3.759
REMARK INTRA:                  -0.014
REMARK UNBOUND:                -0.022
REMARK SMILES OCc1ccco1
REMARK SMILES IDX 2 1 3 2 5 3 6 4 4 5 7 6 1 7
REMARK H PARENT 1 8
REMARK Flexibility Score: inf
ROOT
ATOM      1  C   UNL     1      12.832 -23.790 -31.699  1.00  0.00     0.231 C 
ENDROOT
BRANCH   1   2
ATOM      2  C   UNL     1      13.801 -24.928 -31.724  1.00  0.00     0.129 A 
ATOM      3  C   UNL     1      15.558 -26.182 -32.130  1.00  0.00     0.042 A 
ATOM      4  C   UNL     1      14.609 -26.875 -31.404  1.00  0.00     0.195 A 
ATOM      5  C   UNL     1      15.036 -24.924 -32.341  1.00  0.00     0.048 A 
ATOM      6  O   UNL     1      13.572 -26.101 -31.180  1.00  0.00    -0.467 OA
ENDBRANCH   1   2
BRANCH   1   7
ATOM      7  O   UNL     1      12.244 -23.633 -32.961  1.00  0.00    -0.388 OA
ATOM      8  H   UNL     1      12.966 -23.341 -33.577  1.00  0.00     0.211 HD
ENDBRANCH   1   7
TORSDOF 2
ENDMDL
MODEL 7
REMARK VINA RESULT:    -3.383     16.669     17.082
REMARK INTER + INTRA:          -3.701
REMARK INTER:                  -3.689
REMARK INTRA:                  -0.013
REMARK UNBOUND:                -0.022
REMARK SMILES OCc1ccco1
REMARK SMILES IDX 2 1 3 2 5 3 6 4 4 5 7 6 1 7
REMARK H PARENT 1 8
REMARK Flexibility Score: inf
ROOT
ATOM      1  C   UNL     1      21.149 -21.372 -15.438  1.00  0.00     0.231 C 
ENDROOT
BRANCH   1   2
ATOM      2  C   UNL     1      20.091 -22.210 -16.081  1.00  0.00     0.129 A 
ATOM      3  C   UNL     1      18.647 -23.031 -17.518  1.00  0.00     0.042 A 
ATOM      4  C   UNL     1      18.566 -23.683 -16.303  1.00  0.00     0.195 A 
ATOM      5  C   UNL     1      19.631 -22.077 -17.375  1.00  0.00     0.048 A 
ATOM      6  O   UNL     1      19.437 -23.169 -15.466  1.00  0.00    -0.467 OA
ENDBRANCH   1   2
BRANCH   1   7
ATOM      7  O   UNL     1      22.416 -21.884 -15.742  1.00  0.00    -0.388 OA
ATOM      8  H   UNL     1      22.938 -21.876 -14.897  1.00  0.00     0.211 HD
ENDBRANCH   1   7
TORSDOF 2
ENDMDL
MODEL 8
REMARK VINA RESULT:    -3.335     16.273     16.858
REMARK INTER + INTRA:          -3.650
REMARK INTER:                  -3.635
REMARK INTRA:                  -0.015
REMARK UNBOUND:                -0.022
REMARK SMILES OCc1ccco1
REMARK SMILES IDX 2 1 3 2 5 3 6 4 4 5 7 6 1 7
REMARK H PARENT 1 8
REMARK Flexibility Score: inf
ROOT
ATOM      1  C   UNL     1      21.980 -24.908 -16.122  1.00  0.00     0.231 C 
ENDROOT
BRANCH   1   2
ATOM      2  C   UNL     1      20.941 -23.986 -16.675  1.00  0.00     0.129 A 
ATOM      3  C   UNL     1      19.915 -22.216 -17.474  1.00  0.00     0.042 A 
ATOM      4  C   UNL     1      19.036 -23.269 -17.308  1.00  0.00     0.195 A 
ATOM      5  C   UNL     1      21.147 -22.677 -17.062  1.00  0.00     0.048 A 
ATOM      6  O   UNL     1      19.677 -24.309 -16.827  1.00  0.00    -0.467 OA
ENDBRANCH   1   2
BRANCH   1   7
ATOM      7  O   UNL     1      22.704 -24.264 -15.111  1.00  0.00    -0.388 OA
ATOM      8  H   UNL     1      23.615 -24.104 -15.471  1.00  0.00     0.211 HD
ENDBRANCH   1   7
TORSDOF 2
ENDMDL
MODEL 9
REMARK VINA RESULT:    -3.223     17.433     17.824
REMARK INTER + INTRA:          -3.528
REMARK INTER:                  -3.515
REMARK INTRA:                  -0.013
REMARK UNBOUND:                -0.022
REMARK SMILES OCc1ccco1
REMARK SMILES IDX 2 1 3 2 5 3 6 4 4 5 7 6 1 7
REMARK H PARENT 1 8
REMARK Flexibility Score: inf
ROOT
ATOM      1  C   UNL     1      21.113 -21.839 -14.806  1.00  0.00     0.231 C 
ENDROOT
BRANCH   1   2
ATOM      2  C   UNL     1      21.511 -23.061 -15.571  1.00  0.00     0.129 A 
ATOM      3  C   UNL     1      21.847 -24.511 -17.186  1.00  0.00     0.042 A 
ATOM      4  C   UNL     1      22.220 -25.033 -15.962  1.00  0.00     0.195 A 
ATOM      5  C   UNL     1      21.386 -23.237 -16.934  1.00  0.00     0.048 A 
ATOM      6  O   UNL     1      22.005 -24.145 -15.019  1.00  0.00    -0.467 OA
ENDBRANCH   1   2
BRANCH   1   7
ATOM      7  O   UNL     1      21.895 -20.748 -15.207  1.00  0.00    -0.388 OA
ATOM      8  H   UNL     1      21.702 -20.596 -16.169  1.00  0.00     0.211 HD
ENDBRANCH   1   7
TORSDOF 2
ENDMDL
