MODEL 1
REMARK VINA RESULT:    -3.792      0.000      0.000
REMARK INTER + INTRA:          -3.792
REMARK INTER:                  -3.792
REMARK INTRA:                   0.000
REMARK UNBOUND:                 0.000
REMARK SMILES O=C1CCCCC1
REMARK SMILES IDX 5 1 4 2 3 3 2 4 1 5 7 6 6 7
REMARK H PARENT
REMARK Flexibility Score: inf
ROOT
ATOM      1  C   UNL     1      17.038  44.660  -0.006  1.00  0.00     0.001 C 
ATOM      2  C   UNL     1      17.090  44.261   1.476  1.00  0.00     0.008 C 
ATOM      3  C   UNL     1      18.455  43.670   1.849  1.00  0.00     0.075 C 
ATOM      4  C   UNL     1      19.562  44.579   1.390  1.00  0.00     0.132 C 
ATOM      5  O   UNL     1      20.514  44.810   2.121  1.00  0.00    -0.300 OA
ATOM      6  C   UNL     1      19.532  45.123  -0.011  1.00  0.00     0.075 C 
ATOM      7  C   UNL     1      18.140  45.678  -0.339  1.00  0.00     0.008 C 
ENDROOT
TORSDOF 0
ENDMDL
MODEL 2
REMARK VINA RESULT:    -3.700      1.997      2.444
REMARK INTER + INTRA:          -3.700
REMARK INTER:                  -3.700
REMARK INTRA:                   0.000
REMARK UNBOUND:                 0.000
REMARK SMILES O=C1CCCCC1
REMARK SMILES IDX 5 1 4 2 3 3 2 4 1 5 7 6 6 7
REMARK H PARENT
REMARK Flexibility Score: inf
ROOT
ATOM      1  C   UNL     1      17.864  43.923   1.818  1.00  0.00     0.001 C 
ATOM      2  C   UNL     1      17.895  42.594   1.049  1.00  0.00     0.008 C 
ATOM      3  C   UNL     1      19.021  42.577   0.006  1.00  0.00     0.075 C 
ATOM      4  C   UNL     1      20.324  42.984   0.637  1.00  0.00     0.132 C 
ATOM      5  O   UNL     1      21.351  42.375   0.379  1.00  0.00    -0.300 OA
ATOM      6  C   UNL     1      20.366  44.206   1.512  1.00  0.00     0.075 C 
ATOM      7  C   UNL     1      19.206  44.184   2.517  1.00  0.00     0.008 C 
ENDROOT
TORSDOF 0
ENDMDL
MODEL 3
REMARK VINA RESULT:    -3.596      1.740      3.083
REMARK INTER + INTRA:          -3.596
REMARK INTER:                  -3.596
REMARK INTRA:                   0.000
REMARK UNBOUND:                 0.000
REMARK SMILES O=C1CCCCC1
REMARK SMILES IDX 5 1 4 2 3 3 2 4 1 5 7 6 6 7
REMARK H PARENT
REMARK Flexibility Score: inf
ROOT
ATOM      1  C   UNL     1      20.243  43.909   0.299  1.00  0.00     0.001 C 
ATOM      2  C   UNL     1      19.496  45.218   0.005  1.00  0.00     0.008 C 
ATOM      3  C   UNL     1      17.977  45.002  -0.026  1.00  0.00     0.075 C 
ATOM      4  C   UNL     1      17.529  44.271   1.209  1.00  0.00     0.132 C 
ATOM      5  O   UNL     1      16.521  44.624   1.803  1.00  0.00    -0.300 OA
ATOM      6  C   UNL     1      18.278  43.044   1.649  1.00  0.00     0.075 C 
ATOM      7  C   UNL     1      19.789  43.308   1.638  1.00  0.00     0.008 C 
ENDROOT
TORSDOF 0
ENDMDL
MODEL 4
REMARK VINA RESULT:    -3.578      1.851      3.124
REMARK INTER + INTRA:          -3.578
REMARK INTER:                  -3.578
REMARK INTRA:                   0.000
REMARK UNBOUND:                 0.000
REMARK SMILES O=C1CCCCC1
REMARK SMILES IDX 5 1 4 2 3 3 2 4 1 5 7 6 6 7
REMARK H PARENT
REMARK Flexibility Score: inf
ROOT
ATOM      1  C   UNL     1      19.836  43.189   1.512  1.00  0.00     0.001 C 
ATOM      2  C   UNL     1      20.102  44.694   1.368  1.00  0.00     0.008 C 
ATOM      3  C   UNL     1      19.499  45.249   0.071  1.00  0.00     0.075 C 
ATOM      4  C   UNL     1      18.058  44.837  -0.052  1.00  0.00     0.132 C 
ATOM      5  O   UNL     1      17.217  45.641  -0.425  1.00  0.00    -0.300 OA
ATOM      6  C   UNL     1      17.680  43.402   0.193  1.00  0.00     0.075 C 
ATOM      7  C   UNL     1      18.329  42.893   1.487  1.00  0.00     0.008 C 
ENDROOT
TORSDOF 0
ENDMDL
MODEL 5
REMARK VINA RESULT:    -3.569      1.902      2.709
REMARK INTER + INTRA:          -3.569
REMARK INTER:                  -3.569
REMARK INTRA:                   0.000
REMARK UNBOUND:                 0.000
REMARK SMILES O=C1CCCCC1
REMARK SMILES IDX 5 1 4 2 3 3 2 4 1 5 7 6 6 7
REMARK H PARENT
REMARK Flexibility Score: inf
ROOT
ATOM      1  C   UNL     1      19.875  44.563   1.490  1.00  0.00     0.001 C 
ATOM      2  C   UNL     1      18.793  43.542   1.872  1.00  0.00     0.008 C 
ATOM      3  C   UNL     1      17.386  44.082   1.582  1.00  0.00     0.075 C 
ATOM      4  C   UNL     1      17.307  44.605   0.174  1.00  0.00     0.132 C 
ATOM      5  O   UNL     1      16.334  44.356  -0.521  1.00  0.00    -0.300 OA
ATOM      6  C   UNL     1      18.390  45.515  -0.333  1.00  0.00     0.075 C 
ATOM      7  C   UNL     1      19.772  44.941   0.004  1.00  0.00     0.008 C 
ENDROOT
TORSDOF 0
ENDMDL
MODEL 6
REMARK VINA RESULT:    -3.500      1.662      2.254
REMARK INTER + INTRA:          -3.500
REMARK INTER:                  -3.500
REMARK INTRA:                   0.000
REMARK UNBOUND:                 0.000
REMARK SMILES O=C1CCCCC1
REMARK SMILES IDX 5 1 4 2 3 3 2 4 1 5 7 6 6 7
REMARK H PARENT
REMARK Flexibility Score: inf
ROOT
ATOM      1  C   UNL     1      19.038  42.413  -0.034  1.00  0.00     0.001 C 
ATOM      2  C   UNL     1      18.225  43.629   0.432  1.00  0.00     0.008 C 
ATOM      3  C   UNL     1      18.648  44.083   1.835  1.00  0.00     0.075 C 
ATOM      4  C   UNL     1      20.142  44.246   1.902  1.00  0.00     0.132 C 
ATOM      5  O   UNL     1      20.632  45.213   2.466  1.00  0.00    -0.300 OA
ATOM      6  C   UNL     1      21.025  43.158   1.356  1.00  0.00     0.075 C 
ATOM      7  C   UNL     1      20.542  42.727  -0.035  1.00  0.00     0.008 C 
ENDROOT
TORSDOF 0
ENDMDL
MODEL 7
REMARK VINA RESULT:    -3.491      1.034      2.169
REMARK INTER + INTRA:          -3.491
REMARK INTER:                  -3.491
REMARK INTRA:                   0.000
REMARK UNBOUND:                 0.000
REMARK SMILES O=C1CCCCC1
REMARK SMILES IDX 5 1 4 2 3 3 2 4 1 5 7 6 6 7
REMARK H PARENT
REMARK Flexibility Score: inf
ROOT
ATOM      1  C   UNL     1      17.120  44.861   0.880  1.00  0.00     0.001 C 
ATOM      2  C   UNL     1      18.001  45.216  -0.326  1.00  0.00     0.008 C 
ATOM      3  C   UNL     1      19.485  45.263   0.058  1.00  0.00     0.075 C 
ATOM      4  C   UNL     1      19.875  44.008   0.791  1.00  0.00     0.132 C 
ATOM      5  O   UNL     1      20.927  43.445   0.532  1.00  0.00    -0.300 OA
ATOM      6  C   UNL     1      19.003  43.511   1.911  1.00  0.00     0.075 C 
ATOM      7  C   UNL     1      17.531  43.508   1.481  1.00  0.00     0.008 C 
ENDROOT
TORSDOF 0
ENDMDL
MODEL 8
REMARK VINA RESULT:    -3.482      1.813      2.646
REMARK INTER + INTRA:          -3.482
REMARK INTER:                  -3.482
REMARK INTRA:                   0.000
REMARK UNBOUND:                 0.000
REMARK SMILES O=C1CCCCC1
REMARK SMILES IDX 5 1 4 2 3 3 2 4 1 5 7 6 6 7
REMARK H PARENT
REMARK Flexibility Score: inf
ROOT
ATOM      1  C   UNL     1      19.518  45.179   0.206  1.00  0.00     0.001 C 
ATOM      2  C   UNL     1      20.190  43.815   0.414  1.00  0.00     0.008 C 
ATOM      3  C   UNL     1      19.542  43.043   1.571  1.00  0.00     0.075 C 
ATOM      4  C   UNL     1      18.048  43.004   1.402  1.00  0.00     0.132 C 
ATOM      5  O   UNL     1      17.432  41.969   1.609  1.00  0.00    -0.300 OA
ATOM      6  C   UNL     1      17.313  44.273   1.072  1.00  0.00     0.075 C 
ATOM      7  C   UNL     1      18.016  45.015  -0.072  1.00  0.00     0.008 C 
ENDROOT
TORSDOF 0
ENDMDL
MODEL 9
REMARK VINA RESULT:    -3.453      2.217      3.340
REMARK INTER + INTRA:          -3.453
REMARK INTER:                  -3.453
REMARK INTRA:                   0.000
REMARK UNBOUND:                 0.000
REMARK SMILES O=C1CCCCC1
REMARK SMILES IDX 5 1 4 2 3 3 2 4 1 5 7 6 6 7
REMARK H PARENT
REMARK Flexibility Score: inf
ROOT
ATOM      1  C   UNL     1      20.994  43.297   1.497  1.00  0.00     0.001 C 
ATOM      2  C   UNL     1      20.645  42.817   0.080  1.00  0.00     0.008 C 
ATOM      3  C   UNL     1      19.177  42.383  -0.019  1.00  0.00     0.075 C 
ATOM      4  C   UNL     1      18.277  43.453   0.537  1.00  0.00     0.132 C 
ATOM      5  O   UNL     1      17.248  43.757  -0.047  1.00  0.00    -0.300 OA
ATOM      6  C   UNL     1      18.607  44.073   1.866  1.00  0.00     0.075 C 
ATOM      7  C   UNL     1      20.090  44.465   1.918  1.00  0.00     0.008 C 
ENDROOT
TORSDOF 0
ENDMDL
