MODEL 1
REMARK VINA RESULT:    -3.126      0.000      0.000
REMARK INTER + INTRA:          -7.494
REMARK INTER:                  -5.502
REMARK INTRA:                  -1.991
REMARK UNBOUND:                -1.991
REMARK SMILES CCCCCCCCCCCCCCC(=O)[O-]
REMARK SMILES IDX 9 1 10 2 11 3 12 4 13 5 14 6 15 7 16 8 17 9 8 10 7 11 6 12
REMARK SMILES IDX 5 13 4 14 3 15 2 16 1 17
REMARK H PARENT
REMARK Flexibility Score: inf
ROOT
ATOM      1  C   UNL     1      31.109  12.255  20.821  1.00  0.00     0.000 C 
ENDROOT
BRANCH   1   2
ATOM      2  C   UNL     1      31.744  13.477  20.138  1.00  0.00     0.000 C 
BRANCH   2   3
ATOM      3  C   UNL     1      31.450  14.792  20.881  1.00  0.00     0.000 C 
BRANCH   3   4
ATOM      4  C   UNL     1      30.735  15.823  19.993  1.00  0.00     0.000 C 
BRANCH   4   5
ATOM      5  C   UNL     1      31.261  15.822  18.547  1.00  0.00     0.006 C 
BRANCH   5   6
ATOM      6  C   UNL     1      30.159  15.492  17.530  1.00  0.00     0.053 C 
BRANCH   6   7
ATOM      7  C   UNL     1      30.582  14.410  16.585  1.00  0.00     0.041 C 
ATOM      8  O   UNL     1      30.309  13.207  16.836  1.00  0.00    -0.550 OA
ATOM      9  O   UNL     1      31.308  14.728  15.443  1.00  0.00    -0.550 OA
ENDBRANCH   6   7
ENDBRANCH   5   6
ENDBRANCH   4   5
ENDBRANCH   3   4
ENDBRANCH   2   3
ENDBRANCH   1   2
BRANCH   1  10
ATOM     10  C   UNL     1      31.128  12.361  22.355  1.00  0.00     0.000 C 
BRANCH  10  11
ATOM     11  C   UNL     1      30.247  11.299  23.033  1.00  0.00    -0.000 C 
BRANCH  11  12
ATOM     12  C   UNL     1      29.808  10.187  22.067  1.00  0.00    -0.000 C 
BRANCH  12  13
ATOM     13  C   UNL     1      28.281  10.021  22.081  1.00  0.00    -0.000 C 
BRANCH  13  14
ATOM     14  C   UNL     1      27.538  11.359  21.951  1.00  0.00    -0.000 C 
BRANCH  14  15
ATOM     15  C   UNL     1      27.622  11.946  20.531  1.00  0.00    -0.000 C 
BRANCH  15  16
ATOM     16  C   UNL     1      27.598  13.482  20.527  1.00  0.00    -0.003 C 
ATOM     17  C   UNL     1      27.948  14.082  21.888  1.00  0.00     0.004 C 
ENDBRANCH  15  16
ENDBRANCH  14  15
ENDBRANCH  13  14
ENDBRANCH  12  13
ENDBRANCH  11  12
ENDBRANCH  10  11
ENDBRANCH   1  10
TORSDOF 13
ENDMDL
MODEL 2
REMARK VINA RESULT:    -3.034      1.403      2.792
REMARK INTER + INTRA:          -7.331
REMARK INTER:                  -5.770
REMARK INTRA:                  -1.560
REMARK UNBOUND:                -1.991
REMARK SMILES CCCCCCCCCCCCCCC(=O)[O-]
REMARK SMILES IDX 9 1 10 2 11 3 12 4 13 5 14 6 15 7 16 8 17 9 8 10 7 11 6 12
REMARK SMILES IDX 5 13 4 14 3 15 2 16 1 17
REMARK H PARENT
REMARK Flexibility Score: inf
ROOT
ATOM      1  C   UNL     1      32.062  15.260  20.182  1.00  0.00     0.000 C 
ENDROOT
BRANCH   1   2
ATOM      2  C   UNL     1      30.736  15.991  19.919  1.00  0.00     0.000 C 
BRANCH   2   3
ATOM      3  C   UNL     1      29.507  15.099  20.168  1.00  0.00     0.000 C 
BRANCH   3   4
ATOM      4  C   UNL     1      29.213  14.160  18.988  1.00  0.00     0.000 C 
BRANCH   4   5
ATOM      5  C   UNL     1      29.430  14.838  17.623  1.00  0.00     0.006 C 
BRANCH   5   6
ATOM      6  C   UNL     1      30.413  14.059  16.740  1.00  0.00     0.053 C 
BRANCH   6   7
ATOM      7  C   UNL     1      31.280  14.976  15.932  1.00  0.00     0.041 C 
ATOM      8  O   UNL     1      31.570  14.687  14.741  1.00  0.00    -0.550 OA
ATOM      9  O   UNL     1      31.795  16.132  16.505  1.00  0.00    -0.550 OA
ENDBRANCH   6   7
ENDBRANCH   5   6
ENDBRANCH   4   5
ENDBRANCH   3   4
ENDBRANCH   2   3
ENDBRANCH   1   2
BRANCH   1  10
ATOM     10  C   UNL     1      32.247  14.890  21.664  1.00  0.00     0.000 C 
BRANCH  10  11
ATOM     11  C   UNL     1      32.838  13.484  21.854  1.00  0.00    -0.000 C 
BRANCH  11  12
ATOM     12  C   UNL     1      32.148  12.696  22.978  1.00  0.00    -0.000 C 
BRANCH  12  13
ATOM     13  C   UNL     1      30.629  12.637  22.755  1.00  0.00    -0.000 C 
BRANCH  13  14
ATOM     14  C   UNL     1      30.235  11.693  21.609  1.00  0.00    -0.000 C 
BRANCH  14  15
ATOM     15  C   UNL     1      29.625  10.374  22.114  1.00  0.00    -0.000 C 
BRANCH  15  16
ATOM     16  C   UNL     1      28.127  10.257  21.789  1.00  0.00    -0.003 C 
ATOM     17  C   UNL     1      27.631  11.378  20.877  1.00  0.00     0.004 C 
ENDBRANCH  15  16
ENDBRANCH  14  15
ENDBRANCH  13  14
ENDBRANCH  12  13
ENDBRANCH  11  12
ENDBRANCH  10  11
ENDBRANCH   1  10
TORSDOF 13
ENDMDL
MODEL 3
REMARK VINA RESULT:    -2.899      1.510      2.693
REMARK INTER + INTRA:          -7.093
REMARK INTER:                  -5.297
REMARK INTRA:                  -1.796
REMARK UNBOUND:                -1.991
REMARK SMILES CCCCCCCCCCCCCCC(=O)[O-]
REMARK SMILES IDX 9 1 10 2 11 3 12 4 13 5 14 6 15 7 16 8 17 9 8 10 7 11 6 12
REMARK SMILES IDX 5 13 4 14 3 15 2 16 1 17
REMARK H PARENT
REMARK Flexibility Score: inf
ROOT
ATOM      1  C   UNL     1      30.357  14.073  18.316  1.00  0.00     0.000 C 
ENDROOT
BRANCH   1   2
ATOM      2  C   UNL     1      29.722  15.294  19.001  1.00  0.00     0.000 C 
BRANCH   2   3
ATOM      3  C   UNL     1      30.122  16.622  18.334  1.00  0.00     0.000 C 
BRANCH   3   4
ATOM      4  C   UNL     1      31.645  16.787  18.217  1.00  0.00     0.000 C 
BRANCH   4   5
ATOM      5  C   UNL     1      32.107  17.003  16.765  1.00  0.00     0.006 C 
BRANCH   5   6
ATOM      6  C   UNL     1      30.942  16.923  15.769  1.00  0.00     0.053 C 
BRANCH   6   7
ATOM      7  C   UNL     1      31.199  15.912  14.694  1.00  0.00     0.041 C 
ATOM      8  O   UNL     1      31.542  14.739  14.997  1.00  0.00    -0.550 OA
ATOM      9  O   UNL     1      31.095  16.276  13.357  1.00  0.00    -0.550 OA
ENDBRANCH   6   7
ENDBRANCH   5   6
ENDBRANCH   4   5
ENDBRANCH   3   4
ENDBRANCH   2   3
ENDBRANCH   1   2
BRANCH   1  10
ATOM     10  C   UNL     1      31.021  13.114  19.318  1.00  0.00     0.000 C 
BRANCH  10  11
ATOM     11  C   UNL     1      31.645  13.849  20.515  1.00  0.00    -0.000 C 
BRANCH  11  12
ATOM     12  C   UNL     1      31.267  13.218  21.863  1.00  0.00    -0.000 C 
BRANCH  12  13
ATOM     13  C   UNL     1      30.694  11.806  21.667  1.00  0.00    -0.000 C 
BRANCH  13  14
ATOM     14  C   UNL     1      29.353  11.605  22.388  1.00  0.00    -0.000 C 
BRANCH  14  15
ATOM     15  C   UNL     1      28.320  10.866  21.519  1.00  0.00    -0.000 C 
BRANCH  15  16
ATOM     16  C   UNL     1      27.752  11.754  20.400  1.00  0.00    -0.003 C 
ATOM     17  C   UNL     1      27.294  13.121  20.905  1.00  0.00     0.004 C 
ENDBRANCH  15  16
ENDBRANCH  14  15
ENDBRANCH  13  14
ENDBRANCH  12  13
ENDBRANCH  11  12
ENDBRANCH  10  11
ENDBRANCH   1  10
TORSDOF 13
ENDMDL
MODEL 4
REMARK VINA RESULT:    -2.803      1.263      2.369
REMARK INTER + INTRA:          -6.925
REMARK INTER:                  -5.328
REMARK INTRA:                  -1.597
REMARK UNBOUND:                -1.991
REMARK SMILES CCCCCCCCCCCCCCC(=O)[O-]
REMARK SMILES IDX 9 1 10 2 11 3 12 4 13 5 14 6 15 7 16 8 17 9 8 10 7 11 6 12
REMARK SMILES IDX 5 13 4 14 3 15 2 16 1 17
REMARK H PARENT
REMARK Flexibility Score: inf
ROOT
ATOM      1  C   UNL     1      32.684  13.932  21.049  1.00  0.00     0.000 C 
ENDROOT
BRANCH   1   2
ATOM      2  C   UNL     1      32.914  15.432  21.294  1.00  0.00     0.000 C 
BRANCH   2   3
ATOM      3  C   UNL     1      32.357  16.310  20.161  1.00  0.00     0.000 C 
BRANCH   3   4
ATOM      4  C   UNL     1      30.856  16.598  20.323  1.00  0.00     0.000 C 
BRANCH   4   5
ATOM      5  C   UNL     1      30.005  15.939  19.223  1.00  0.00     0.006 C 
BRANCH   5   6
ATOM      6  C   UNL     1      30.867  15.229  18.171  1.00  0.00     0.053 C 
BRANCH   6   7
ATOM      7  C   UNL     1      30.031  14.610  17.093  1.00  0.00     0.041 C 
ATOM      8  O   UNL     1      30.459  13.614  16.453  1.00  0.00    -0.550 OA
ATOM      9  O   UNL     1      28.794  15.155  16.773  1.00  0.00    -0.550 OA
ENDBRANCH   6   7
ENDBRANCH   5   6
ENDBRANCH   4   5
ENDBRANCH   3   4
ENDBRANCH   2   3
ENDBRANCH   1   2
BRANCH   1  10
ATOM     10  C   UNL     1      32.281  13.180  22.330  1.00  0.00     0.000 C 
BRANCH  10  11
ATOM     11  C   UNL     1      31.004  12.345  22.148  1.00  0.00    -0.000 C 
BRANCH  11  12
ATOM     12  C   UNL     1      29.781  13.200  21.786  1.00  0.00    -0.000 C 
BRANCH  12  13
ATOM     13  C   UNL     1      29.136  12.711  20.481  1.00  0.00    -0.000 C 
BRANCH  13  14
ATOM     14  C   UNL     1      28.038  11.662  20.718  1.00  0.00    -0.000 C 
BRANCH  14  15
ATOM     15  C   UNL     1      27.457  11.728  22.142  1.00  0.00    -0.000 C 
BRANCH  15  16
ATOM     16  C   UNL     1      27.715  10.441  22.941  1.00  0.00    -0.003 C 
ATOM     17  C   UNL     1      28.172   9.279  22.060  1.00  0.00     0.004 C 
ENDBRANCH  15  16
ENDBRANCH  14  15
ENDBRANCH  13  14
ENDBRANCH  12  13
ENDBRANCH  11  12
ENDBRANCH  10  11
ENDBRANCH   1  10
TORSDOF 13
ENDMDL
MODEL 5
REMARK VINA RESULT:    -2.603      1.987      3.397
REMARK INTER + INTRA:          -6.573
REMARK INTER:                  -6.006
REMARK INTRA:                  -0.567
REMARK UNBOUND:                -1.991
REMARK SMILES CCCCCCCCCCCCCCC(=O)[O-]
REMARK SMILES IDX 9 1 10 2 11 3 12 4 13 5 14 6 15 7 16 8 17 9 8 10 7 11 6 12
REMARK SMILES IDX 5 13 4 14 3 15 2 16 1 17
REMARK H PARENT
REMARK Flexibility Score: inf
ROOT
ATOM      1  C   UNL     1      31.188  14.298  19.326  1.00  0.00     0.000 C 
ENDROOT
BRANCH   1   2
ATOM      2  C   UNL     1      30.102  13.806  18.356  1.00  0.00     0.000 C 
BRANCH   2   3
ATOM      3  C   UNL     1      30.385  14.204  16.897  1.00  0.00     0.000 C 
BRANCH   3   4
ATOM      4  C   UNL     1      29.837  15.598  16.551  1.00  0.00     0.000 C 
BRANCH   4   5
ATOM      5  C   UNL     1      30.757  16.374  15.592  1.00  0.00     0.006 C 
BRANCH   5   6
ATOM      6  C   UNL     1      31.299  15.486  14.464  1.00  0.00     0.053 C 
BRANCH   6   7
ATOM      7  C   UNL     1      31.041  16.083  13.115  1.00  0.00     0.041 C 
ATOM      8  O   UNL     1      30.261  17.064  12.995  1.00  0.00    -0.550 OA
ATOM      9  O   UNL     1      31.633  15.532  11.985  1.00  0.00    -0.550 OA
ENDBRANCH   6   7
ENDBRANCH   5   6
ENDBRANCH   4   5
ENDBRANCH   3   4
ENDBRANCH   2   3
ENDBRANCH   1   2
BRANCH   1  10
ATOM     10  C   UNL     1      30.880  13.936  20.789  1.00  0.00     0.000 C 
BRANCH  10  11
ATOM     11  C   UNL     1      30.985  12.426  21.059  1.00  0.00    -0.000 C 
BRANCH  11  12
ATOM     12  C   UNL     1      30.830  12.076  22.547  1.00  0.00    -0.000 C 
BRANCH  12  13
ATOM     13  C   UNL     1      29.488  12.588  23.094  1.00  0.00    -0.000 C 
BRANCH  13  14
ATOM     14  C   UNL     1      28.328  12.380  22.108  1.00  0.00    -0.000 C 
BRANCH  14  15
ATOM     15  C   UNL     1      27.540  11.088  22.389  1.00  0.00    -0.000 C 
BRANCH  15  16
ATOM     16  C   UNL     1      28.175   9.856  21.726  1.00  0.00    -0.003 C 
ATOM     17  C   UNL     1      27.711   8.542  22.352  1.00  0.00     0.004 C 
ENDBRANCH  15  16
ENDBRANCH  14  15
ENDBRANCH  13  14
ENDBRANCH  12  13
ENDBRANCH  11  12
ENDBRANCH  10  11
ENDBRANCH   1  10
TORSDOF 13
ENDMDL
MODEL 6
REMARK VINA RESULT:    -2.509      1.562      3.068
REMARK INTER + INTRA:          -6.406
REMARK INTER:                  -5.384
REMARK INTRA:                  -1.023
REMARK UNBOUND:                -1.991
REMARK SMILES CCCCCCCCCCCCCCC(=O)[O-]
REMARK SMILES IDX 9 1 10 2 11 3 12 4 13 5 14 6 15 7 16 8 17 9 8 10 7 11 6 12
REMARK SMILES IDX 5 13 4 14 3 15 2 16 1 17
REMARK H PARENT
REMARK Flexibility Score: inf
ROOT
ATOM      1  C   UNL     1      30.194  14.501  19.058  1.00  0.00     0.000 C 
ENDROOT
BRANCH   1   2
ATOM      2  C   UNL     1      29.609  15.919  19.151  1.00  0.00     0.000 C 
BRANCH   2   3
ATOM      3  C   UNL     1      30.026  16.812  17.968  1.00  0.00     0.000 C 
BRANCH   3   4
ATOM      4  C   UNL     1      31.551  16.874  17.788  1.00  0.00     0.000 C 
BRANCH   4   5
ATOM      5  C   UNL     1      31.964  17.125  16.326  1.00  0.00     0.006 C 
BRANCH   5   6
ATOM      6  C   UNL     1      30.838  16.786  15.340  1.00  0.00     0.053 C 
BRANCH   6   7
ATOM      7  C   UNL     1      31.235  15.691  14.399  1.00  0.00     0.041 C 
ATOM      8  O   UNL     1      31.426  14.523  14.831  1.00  0.00    -0.550 OA
ATOM      9  O   UNL     1      31.427  15.966  13.051  1.00  0.00    -0.550 OA
ENDBRANCH   6   7
ENDBRANCH   5   6
ENDBRANCH   4   5
ENDBRANCH   3   4
ENDBRANCH   2   3
ENDBRANCH   1   2
BRANCH   1  10
ATOM     10  C   UNL     1      30.366  13.842  20.438  1.00  0.00     0.000 C 
BRANCH  10  11
ATOM     11  C   UNL     1      29.039  13.725  21.206  1.00  0.00    -0.000 C 
BRANCH  11  12
ATOM     12  C   UNL     1      27.863  13.325  20.302  1.00  0.00    -0.000 C 
BRANCH  12  13
ATOM     13  C   UNL     1      27.566  11.823  20.421  1.00  0.00    -0.000 C 
BRANCH  13  14
ATOM     14  C   UNL     1      27.621  11.320  21.871  1.00  0.00    -0.000 C 
BRANCH  14  15
ATOM     15  C   UNL     1      28.282   9.936  21.991  1.00  0.00    -0.000 C 
BRANCH  15  16
ATOM     16  C   UNL     1      29.816  10.018  22.034  1.00  0.00    -0.003 C 
ATOM     17  C   UNL     1      30.327  10.957  23.125  1.00  0.00     0.004 C 
ENDBRANCH  15  16
ENDBRANCH  14  15
ENDBRANCH  13  14
ENDBRANCH  12  13
ENDBRANCH  11  12
ENDBRANCH  10  11
ENDBRANCH   1  10
TORSDOF 13
ENDMDL
MODEL 7
REMARK VINA RESULT:    -2.172     17.019     19.344
REMARK INTER + INTRA:          -5.813
REMARK INTER:                  -5.665
REMARK INTRA:                  -0.148
REMARK UNBOUND:                -1.991
REMARK SMILES CCCCCCCCCCCCCCC(=O)[O-]
REMARK SMILES IDX 9 1 10 2 11 3 12 4 13 5 14 6 15 7 16 8 17 9 8 10 7 11 6 12
REMARK SMILES IDX 5 13 4 14 3 15 2 16 1 17
REMARK H PARENT
REMARK Flexibility Score: inf
ROOT
ATOM      1  C   UNL     1      29.118   2.369   5.242  1.00  0.00     0.000 C 
ENDROOT
BRANCH   1   2
ATOM      2  C   UNL     1      27.852   1.857   5.947  1.00  0.00     0.000 C 
BRANCH   2   3
ATOM      3  C   UNL     1      27.022   0.910   5.062  1.00  0.00     0.000 C 
BRANCH   3   4
ATOM      4  C   UNL     1      27.546   0.842   3.619  1.00  0.00     0.000 C 
BRANCH   4   5
ATOM      5  C   UNL     1      27.115  -0.444   2.893  1.00  0.00     0.006 C 
BRANCH   5   6
ATOM      6  C   UNL     1      27.959  -1.656   3.311  1.00  0.00     0.053 C 
BRANCH   6   7
ATOM      7  C   UNL     1      29.337  -1.253   3.735  1.00  0.00     0.041 C 
ATOM      8  O   UNL     1      30.188  -0.903   2.875  1.00  0.00    -0.550 OA
ATOM      9  O   UNL     1      29.694  -1.299   5.077  1.00  0.00    -0.550 OA
ENDBRANCH   6   7
ENDBRANCH   5   6
ENDBRANCH   4   5
ENDBRANCH   3   4
ENDBRANCH   2   3
ENDBRANCH   1   2
BRANCH   1  10
ATOM     10  C   UNL     1      28.804   3.373   4.119  1.00  0.00     0.000 C 
BRANCH  10  11
ATOM     11  C   UNL     1      27.537   4.196   4.401  1.00  0.00    -0.000 C 
BRANCH  11  12
ATOM     12  C   UNL     1      27.848   5.635   4.838  1.00  0.00    -0.000 C 
BRANCH  12  13
ATOM     13  C   UNL     1      29.252   6.057   4.377  1.00  0.00    -0.000 C 
BRANCH  13  14
ATOM     14  C   UNL     1      30.291   5.992   5.507  1.00  0.00    -0.000 C 
BRANCH  14  15
ATOM     15  C   UNL     1      29.667   6.212   6.896  1.00  0.00    -0.000 C 
BRANCH  15  16
ATOM     16  C   UNL     1      29.482   4.898   7.672  1.00  0.00    -0.003 C 
ATOM     17  C   UNL     1      28.522   5.039   8.852  1.00  0.00     0.004 C 
ENDBRANCH  15  16
ENDBRANCH  14  15
ENDBRANCH  13  14
ENDBRANCH  12  13
ENDBRANCH  11  12
ENDBRANCH  10  11
ENDBRANCH   1  10
TORSDOF 13
ENDMDL
MODEL 8
REMARK VINA RESULT:    -1.650     16.856     19.244
REMARK INTER + INTRA:          -4.895
REMARK INTER:                  -4.509
REMARK INTRA:                  -0.386
REMARK UNBOUND:                -1.991
REMARK SMILES CCCCCCCCCCCCCCC(=O)[O-]
REMARK SMILES IDX 9 1 10 2 11 3 12 4 13 5 14 6 15 7 16 8 17 9 8 10 7 11 6 12
REMARK SMILES IDX 5 13 4 14 3 15 2 16 1 17
REMARK H PARENT
REMARK Flexibility Score: inf
ROOT
ATOM      1  C   UNL     1      27.267   2.632   4.825  1.00  0.00     0.000 C 
ENDROOT
BRANCH   1   2
ATOM      2  C   UNL     1      26.928   1.444   3.910  1.00  0.00     0.000 C 
BRANCH   2   3
ATOM      3  C   UNL     1      28.126   0.991   3.057  1.00  0.00     0.000 C 
BRANCH   3   4
ATOM      4  C   UNL     1      28.246  -0.539   2.977  1.00  0.00     0.000 C 
BRANCH   4   5
ATOM      5  C   UNL     1      29.557  -1.062   3.589  1.00  0.00     0.006 C 
BRANCH   5   6
ATOM      6  C   UNL     1      29.385  -1.484   5.054  1.00  0.00     0.053 C 
BRANCH   6   7
ATOM      7  C   UNL     1      28.958  -0.336   5.916  1.00  0.00     0.041 C 
ATOM      8  O   UNL     1      27.787  -0.292   6.378  1.00  0.00    -0.550 OA
ATOM      9  O   UNL     1      29.842   0.704   6.180  1.00  0.00    -0.550 OA
ENDBRANCH   6   7
ENDBRANCH   5   6
ENDBRANCH   4   5
ENDBRANCH   3   4
ENDBRANCH   2   3
ENDBRANCH   1   2
BRANCH   1  10
ATOM     10  C   UNL     1      27.248   3.976   4.078  1.00  0.00     0.000 C 
BRANCH  10  11
ATOM     11  C   UNL     1      28.656   4.551   3.859  1.00  0.00    -0.000 C 
BRANCH  11  12
ATOM     12  C   UNL     1      29.762   3.644   4.418  1.00  0.00    -0.000 C 
BRANCH  12  13
ATOM     13  C   UNL     1      30.682   4.423   5.370  1.00  0.00    -0.000 C 
BRANCH  13  14
ATOM     14  C   UNL     1      30.356   5.924   5.414  1.00  0.00    -0.000 C 
BRANCH  14  15
ATOM     15  C   UNL     1      29.477   6.302   6.619  1.00  0.00    -0.000 C 
BRANCH  15  16
ATOM     16  C   UNL     1      28.874   5.072   7.315  1.00  0.00    -0.003 C 
ATOM     17  C   UNL     1      29.100   5.079   8.826  1.00  0.00     0.004 C 
ENDBRANCH  15  16
ENDBRANCH  14  15
ENDBRANCH  13  14
ENDBRANCH  12  13
ENDBRANCH  11  12
ENDBRANCH  10  11
ENDBRANCH   1  10
TORSDOF 13
ENDMDL
