MODEL 1
REMARK VINA RESULT:    -3.942      0.000      0.000
REMARK INTER + INTRA:          -5.662
REMARK INTER:                  -5.324
REMARK INTRA:                  -0.338
REMARK UNBOUND:                -0.338
REMARK SMILES CCCCCCCC(=O)[O-]
REMARK SMILES IDX 5 1 6 2 7 3 8 4 9 5 10 6 4 7 3 8 2 9 1 10
REMARK H PARENT
REMARK Flexibility Score: inf
ROOT
ATOM      1  C   UNL     1     -27.800 -28.769   7.801  1.00  0.00     0.000 C 
ENDROOT
BRANCH   1   2
ATOM      2  C   UNL     1     -26.608 -28.407   8.699  1.00  0.00     0.006 C 
BRANCH   2   3
ATOM      3  C   UNL     1     -26.896 -27.187   9.583  1.00  0.00     0.053 C 
BRANCH   3   4
ATOM      4  C   UNL     1     -25.921 -26.077   9.332  1.00  0.00     0.041 C 
ATOM      5  O   UNL     1     -25.805 -25.134  10.157  1.00  0.00    -0.550 OA
ATOM      6  O   UNL     1     -25.116 -26.103   8.200  1.00  0.00    -0.550 OA
ENDBRANCH   3   4
ENDBRANCH   2   3
ENDBRANCH   1   2
BRANCH   1   7
ATOM      7  C   UNL     1     -27.331 -29.162   6.392  1.00  0.00     0.000 C 
BRANCH   7   8
ATOM      8  C   UNL     1     -25.793 -29.164   6.269  1.00  0.00    -0.000 C 
BRANCH   8   9
ATOM      9  C   UNL     1     -25.266 -28.280   5.127  1.00  0.00    -0.003 C 
ATOM     10  C   UNL     1     -24.483 -29.064   4.075  1.00  0.00     0.004 C 
ENDBRANCH   8   9
ENDBRANCH   7   8
ENDBRANCH   1   7
TORSDOF 6
ENDMDL
MODEL 2
REMARK VINA RESULT:    -3.921      7.079      9.452
REMARK INTER + INTRA:          -5.634
REMARK INTER:                  -5.348
REMARK INTRA:                  -0.286
REMARK UNBOUND:                -0.338
REMARK SMILES CCCCCCCC(=O)[O-]
REMARK SMILES IDX 5 1 6 2 7 3 8 4 9 5 10 6 4 7 3 8 2 9 1 10
REMARK H PARENT
REMARK Flexibility Score: inf
ROOT
ATOM      1  C   UNL     1     -19.691 -20.764  10.110  1.00  0.00     0.000 C 
ENDROOT
BRANCH   1   2
ATOM      2  C   UNL     1     -19.923 -21.924   9.129  1.00  0.00     0.006 C 
BRANCH   2   3
ATOM      3  C   UNL     1     -21.159 -21.702   8.248  1.00  0.00     0.053 C 
BRANCH   3   4
ATOM      4  C   UNL     1     -22.378 -22.351   8.829  1.00  0.00     0.041 C 
ATOM      5  O   UNL     1     -23.525 -21.909   8.556  1.00  0.00    -0.550 OA
ATOM      6  O   UNL     1     -22.248 -23.465   9.648  1.00  0.00    -0.550 OA
ENDBRANCH   3   4
ENDBRANCH   2   3
ENDBRANCH   1   2
BRANCH   1   7
ATOM      7  C   UNL     1     -18.958 -21.245  11.370  1.00  0.00     0.000 C 
BRANCH   7   8
ATOM      8  C   UNL     1     -19.824 -22.195  12.223  1.00  0.00    -0.000 C 
BRANCH   8   9
ATOM      9  C   UNL     1     -19.098 -23.487  12.634  1.00  0.00    -0.003 C 
ATOM     10  C   UNL     1     -19.492 -23.977  14.027  1.00  0.00     0.004 C 
ENDBRANCH   8   9
ENDBRANCH   7   8
ENDBRANCH   1   7
TORSDOF 6
ENDMDL
MODEL 3
REMARK VINA RESULT:    -3.897      2.111      3.486
REMARK INTER + INTRA:          -5.601
REMARK INTER:                  -5.384
REMARK INTRA:                  -0.217
REMARK UNBOUND:                -0.338
REMARK SMILES CCCCCCCC(=O)[O-]
REMARK SMILES IDX 5 1 6 2 7 3 8 4 9 5 10 6 4 7 3 8 2 9 1 10
REMARK H PARENT
REMARK Flexibility Score: inf
ROOT
ATOM      1  C   UNL     1     -25.513 -28.310   5.113  1.00  0.00     0.000 C 
ENDROOT
BRANCH   1   2
ATOM      2  C   UNL     1     -25.644 -29.441   6.144  1.00  0.00     0.006 C 
BRANCH   2   3
ATOM      3  C   UNL     1     -27.045 -29.502   6.765  1.00  0.00     0.053 C 
BRANCH   3   4
ATOM      4  C   UNL     1     -27.094 -28.811   8.093  1.00  0.00     0.041 C 
ATOM      5  O   UNL     1     -28.063 -28.063   8.385  1.00  0.00    -0.550 OA
ATOM      6  O   UNL     1     -26.083 -29.020   9.022  1.00  0.00    -0.550 OA
ENDBRANCH   3   4
ENDBRANCH   2   3
ENDBRANCH   1   2
BRANCH   1   7
ATOM      7  C   UNL     1     -24.110 -28.291   4.489  1.00  0.00     0.000 C 
BRANCH   7   8
ATOM      8  C   UNL     1     -23.900 -29.449   3.491  1.00  0.00    -0.000 C 
BRANCH   8   9
ATOM      9  C   UNL     1     -22.790 -30.429   3.909  1.00  0.00    -0.003 C 
ATOM     10  C   UNL     1     -22.492 -31.483   2.845  1.00  0.00     0.004 C 
ENDBRANCH   8   9
ENDBRANCH   7   8
ENDBRANCH   1   7
TORSDOF 6
ENDMDL
MODEL 4
REMARK VINA RESULT:    -3.895      1.301      2.050
REMARK INTER + INTRA:          -5.600
REMARK INTER:                  -5.297
REMARK INTRA:                  -0.303
REMARK UNBOUND:                -0.338
REMARK SMILES CCCCCCCC(=O)[O-]
REMARK SMILES IDX 5 1 6 2 7 3 8 4 9 5 10 6 4 7 3 8 2 9 1 10
REMARK H PARENT
REMARK Flexibility Score: inf
ROOT
ATOM      1  C   UNL     1     -26.577 -28.392   8.922  1.00  0.00     0.000 C 
ENDROOT
BRANCH   1   2
ATOM      2  C   UNL     1     -26.298 -26.887   9.055  1.00  0.00     0.006 C 
BRANCH   2   3
ATOM      3  C   UNL     1     -27.410 -26.156   9.819  1.00  0.00     0.053 C 
BRANCH   3   4
ATOM      4  C   UNL     1     -27.283 -24.668   9.694  1.00  0.00     0.041 C 
ATOM      5  O   UNL     1     -26.147 -24.134   9.596  1.00  0.00    -0.550 OA
ATOM      6  O   UNL     1     -28.422 -23.874   9.653  1.00  0.00    -0.550 OA
ENDBRANCH   3   4
ENDBRANCH   2   3
ENDBRANCH   1   2
BRANCH   1   7
ATOM      7  C   UNL     1     -27.736 -28.655   7.950  1.00  0.00     0.000 C 
BRANCH   7   8
ATOM      8  C   UNL     1     -27.319 -29.565   6.776  1.00  0.00    -0.000 C 
BRANCH   8   9
ATOM      9  C   UNL     1     -25.818 -29.502   6.451  1.00  0.00    -0.003 C 
ATOM     10  C   UNL     1     -25.500 -28.596   5.262  1.00  0.00     0.004 C 
ENDBRANCH   8   9
ENDBRANCH   7   8
ENDBRANCH   1   7
TORSDOF 6
ENDMDL
MODEL 5
REMARK VINA RESULT:    -3.890      9.295     10.239
REMARK INTER + INTRA:          -5.593
REMARK INTER:                  -5.257
REMARK INTRA:                  -0.336
REMARK UNBOUND:                -0.338
REMARK SMILES CCCCCCCC(=O)[O-]
REMARK SMILES IDX 5 1 6 2 7 3 8 4 9 5 10 6 4 7 3 8 2 9 1 10
REMARK H PARENT
REMARK Flexibility Score: inf
ROOT
ATOM      1  C   UNL     1     -20.337 -23.046  12.762  1.00  0.00     0.000 C 
ENDROOT
BRANCH   1   2
ATOM      2  C   UNL     1     -19.078 -22.745  11.935  1.00  0.00     0.006 C 
BRANCH   2   3
ATOM      3  C   UNL     1     -19.038 -21.291  11.444  1.00  0.00     0.053 C 
BRANCH   3   4
ATOM      4  C   UNL     1     -19.624 -21.153  10.072  1.00  0.00     0.041 C 
ATOM      5  O   UNL     1     -20.115 -20.056   9.698  1.00  0.00    -0.550 OA
ATOM      6  O   UNL     1     -19.596 -22.229   9.194  1.00  0.00    -0.550 OA
ENDBRANCH   3   4
ENDBRANCH   2   3
ENDBRANCH   1   2
BRANCH   1   7
ATOM      7  C   UNL     1     -20.204 -24.384  13.502  1.00  0.00     0.000 C 
BRANCH   7   8
ATOM      8  C   UNL     1     -19.366 -24.258  14.791  1.00  0.00    -0.000 C 
BRANCH   8   9
ATOM      9  C   UNL     1     -18.318 -25.371  14.956  1.00  0.00    -0.003 C 
ATOM     10  C   UNL     1     -17.566 -25.682  13.663  1.00  0.00     0.004 C 
ENDBRANCH   8   9
ENDBRANCH   7   8
ENDBRANCH   1   7
TORSDOF 6
ENDMDL
MODEL 6
REMARK VINA RESULT:    -3.889      9.518     11.016
REMARK INTER + INTRA:          -5.591
REMARK INTER:                  -5.099
REMARK INTRA:                  -0.492
REMARK UNBOUND:                -0.338
REMARK SMILES CCCCCCCC(=O)[O-]
REMARK SMILES IDX 5 1 6 2 7 3 8 4 9 5 10 6 4 7 3 8 2 9 1 10
REMARK H PARENT
REMARK Flexibility Score: inf
ROOT
ATOM      1  C   UNL     1     -30.624 -23.916  16.237  1.00  0.00     0.000 C 
ENDROOT
BRANCH   1   2
ATOM      2  C   UNL     1     -30.492 -23.179  17.579  1.00  0.00     0.006 C 
BRANCH   2   3
ATOM      3  C   UNL     1     -29.260 -22.265  17.621  1.00  0.00     0.053 C 
BRANCH   3   4
ATOM      4  C   UNL     1     -29.640 -20.835  17.857  1.00  0.00     0.041 C 
ATOM      5  O   UNL     1     -29.209 -20.222  18.869  1.00  0.00    -0.550 OA
ATOM      6  O   UNL     1     -30.442 -20.169  16.940  1.00  0.00    -0.550 OA
ENDBRANCH   3   4
ENDBRANCH   2   3
ENDBRANCH   1   2
BRANCH   1   7
ATOM      7  C   UNL     1     -29.386 -23.688  15.358  1.00  0.00     0.000 C 
BRANCH   7   8
ATOM      8  C   UNL     1     -28.638 -25.002  15.051  1.00  0.00    -0.000 C 
BRANCH   8   9
ATOM      9  C   UNL     1     -27.310 -25.148  15.813  1.00  0.00    -0.003 C 
ATOM     10  C   UNL     1     -27.403 -26.111  16.995  1.00  0.00     0.004 C 
ENDBRANCH   8   9
ENDBRANCH   7   8
ENDBRANCH   1   7
TORSDOF 6
ENDMDL
MODEL 7
REMARK VINA RESULT:    -3.879      2.586      4.297
REMARK INTER + INTRA:          -5.578
REMARK INTER:                  -5.096
REMARK INTRA:                  -0.481
REMARK UNBOUND:                -0.338
REMARK SMILES CCCCCCCC(=O)[O-]
REMARK SMILES IDX 5 1 6 2 7 3 8 4 9 5 10 6 4 7 3 8 2 9 1 10
REMARK H PARENT
REMARK Flexibility Score: inf
ROOT
ATOM      1  C   UNL     1     -27.736 -28.684   7.937  1.00  0.00     0.000 C 
ENDROOT
BRANCH   1   2
ATOM      2  C   UNL     1     -27.223 -29.590   6.807  1.00  0.00     0.006 C 
BRANCH   2   3
ATOM      3  C   UNL     1     -26.355 -28.827   5.798  1.00  0.00     0.053 C 
BRANCH   3   4
ATOM      4  C   UNL     1     -25.001 -29.450   5.649  1.00  0.00     0.041 C 
ATOM      5  O   UNL     1     -24.566 -30.242   6.525  1.00  0.00    -0.550 OA
ATOM      6  O   UNL     1     -24.232 -29.180   4.524  1.00  0.00    -0.550 OA
ENDBRANCH   3   4
ENDBRANCH   2   3
ENDBRANCH   1   2
BRANCH   1   7
ATOM      7  C   UNL     1     -26.632 -28.409   8.968  1.00  0.00     0.000 C 
BRANCH   7   8
ATOM      8  C   UNL     1     -26.827 -27.058   9.687  1.00  0.00    -0.000 C 
BRANCH   8   9
ATOM      9  C   UNL     1     -25.955 -25.927   9.119  1.00  0.00    -0.003 C 
ATOM     10  C   UNL     1     -24.781 -26.437   8.286  1.00  0.00     0.004 C 
ENDBRANCH   8   9
ENDBRANCH   7   8
ENDBRANCH   1   7
TORSDOF 6
ENDMDL
MODEL 8
REMARK VINA RESULT:    -3.829      9.430     10.434
REMARK INTER + INTRA:          -5.510
REMARK INTER:                  -5.282
REMARK INTRA:                  -0.228
REMARK UNBOUND:                -0.338
REMARK SMILES CCCCCCCC(=O)[O-]
REMARK SMILES IDX 5 1 6 2 7 3 8 4 9 5 10 6 4 7 3 8 2 9 1 10
REMARK H PARENT
REMARK Flexibility Score: inf
ROOT
ATOM      1  C   UNL     1     -20.136 -23.139  13.107  1.00  0.00     0.000 C 
ENDROOT
BRANCH   1   2
ATOM      2  C   UNL     1     -19.500 -24.029  14.186  1.00  0.00     0.006 C 
BRANCH   2   3
ATOM      3  C   UNL     1     -18.441 -24.977  13.608  1.00  0.00     0.053 C 
BRANCH   3   4
ATOM      4  C   UNL     1     -17.731 -25.737  14.686  1.00  0.00     0.041 C 
ATOM      5  O   UNL     1     -18.384 -26.309  15.597  1.00  0.00    -0.550 OA
ATOM      6  O   UNL     1     -16.346 -25.842  14.664  1.00  0.00    -0.550 OA
ENDBRANCH   3   4
ENDBRANCH   2   3
ENDBRANCH   1   2
BRANCH   1   7
ATOM      7  C   UNL     1     -19.144 -22.856  11.970  1.00  0.00     0.000 C 
BRANCH   7   8
ATOM      8  C   UNL     1     -19.105 -21.363  11.587  1.00  0.00    -0.000 C 
BRANCH   8   9
ATOM      9  C   UNL     1     -19.459 -21.094  10.115  1.00  0.00    -0.003 C 
ATOM     10  C   UNL     1     -19.712 -22.372   9.318  1.00  0.00     0.004 C 
ENDBRANCH   8   9
ENDBRANCH   7   8
ENDBRANCH   1   7
TORSDOF 6
ENDMDL
MODEL 9
REMARK VINA RESULT:    -3.796      9.764     11.102
REMARK INTER + INTRA:          -5.465
REMARK INTER:                  -4.999
REMARK INTRA:                  -0.466
REMARK UNBOUND:                -0.338
REMARK SMILES CCCCCCCC(=O)[O-]
REMARK SMILES IDX 5 1 6 2 7 3 8 4 9 5 10 6 4 7 3 8 2 9 1 10
REMARK H PARENT
REMARK Flexibility Score: inf
ROOT
ATOM      1  C   UNL     1     -21.121 -26.591  16.427  1.00  0.00     0.000 C 
ENDROOT
BRANCH   1   2
ATOM      2  C   UNL     1     -20.446 -27.966  16.303  1.00  0.00     0.006 C 
BRANCH   2   3
ATOM      3  C   UNL     1     -21.351 -28.998  15.616  1.00  0.00     0.053 C 
BRANCH   3   4
ATOM      4  C   UNL     1     -21.590 -30.193  16.487  1.00  0.00     0.041 C 
ATOM      5  O   UNL     1     -22.288 -31.154  16.071  1.00  0.00    -0.550 OA
ATOM      6  O   UNL     1     -21.012 -30.259  17.749  1.00  0.00    -0.550 OA
ENDBRANCH   3   4
ENDBRANCH   2   3
ENDBRANCH   1   2
BRANCH   1   7
ATOM      7  C   UNL     1     -22.541 -26.619  15.844  1.00  0.00     0.000 C 
BRANCH   7   8
ATOM      8  C   UNL     1     -23.577 -25.996  16.802  1.00  0.00    -0.000 C 
BRANCH   8   9
ATOM      9  C   UNL     1     -23.229 -26.176  18.289  1.00  0.00    -0.003 C 
ATOM     10  C   UNL     1     -23.530 -27.581  18.808  1.00  0.00     0.004 C 
ENDBRANCH   8   9
ENDBRANCH   7   8
ENDBRANCH   1   7
TORSDOF 6
ENDMDL
