MODEL 1
REMARK VINA RESULT:     0.859      0.000      0.000
REMARK INTER + INTRA:           1.137
REMARK INTER:                   2.266
REMARK INTRA:                  -1.129
REMARK UNBOUND:                -1.129
REMARK SMILES CCCCCCCCCCCCCCCCCCCCCCCCCCCCCC(=O)[O-]
REMARK SMILES IDX 16 1 17 2 18 3 19 4 20 5 21 6 22 7 23 8 24 9 25 10 26 11
REMARK SMILES IDX 27 12 28 13 29 14 30 15 31 16 32 17 15 18 14 19 13 20 12 21
REMARK SMILES IDX 11 22 10 23 9 24 8 25 7 26 6 27 5 28 4 29 3 30 2 31 1 32
REMARK H PARENT
REMARK Flexibility Score: inf
ROOT
ATOM      1  C   UNL     1       0.385  26.115   8.172  1.00  0.00     0.000 C 
ENDROOT
BRANCH   1   2
ATOM      2  C   UNL     1      -0.931  25.842   8.916  1.00  0.00     0.000 C 
BRANCH   2   3
ATOM      3  C   UNL     1      -1.091  24.344   9.202  1.00  0.00     0.000 C 
BRANCH   3   4
ATOM      4  C   UNL     1      -0.204  23.902  10.374  1.00  0.00     0.000 C 
BRANCH   4   5
ATOM      5  C   UNL     1      -0.912  24.017  11.735  1.00  0.00     0.000 C 
BRANCH   5   6
ATOM      6  C   UNL     1      -0.988  25.462  12.275  1.00  0.00     0.000 C 
BRANCH   6   7
ATOM      7  C   UNL     1      -1.033  25.511  13.813  1.00  0.00     0.000 C 
BRANCH   7   8
ATOM      8  C   UNL     1      -1.125  24.102  14.439  1.00  0.00     0.000 C 
BRANCH   8   9
ATOM      9  C   UNL     1      -0.839  24.083  15.949  1.00  0.00     0.000 C 
BRANCH   9  10
ATOM     10  C   UNL     1       0.430  24.868  16.322  1.00  0.00     0.000 C 
BRANCH  10  11
ATOM     11  C   UNL     1       1.706  24.019  16.205  1.00  0.00     0.000 C 
BRANCH  11  12
ATOM     12  C   UNL     1       2.519  24.352  14.943  1.00  0.00     0.000 C 
BRANCH  12  13
ATOM     13  C   UNL     1       2.275  25.786  14.432  1.00  0.00     0.006 C 
BRANCH  13  14
ATOM     14  C   UNL     1       3.101  26.155  13.187  1.00  0.00     0.053 C 
BRANCH  14  15
ATOM     15  C   UNL     1       4.460  25.524  13.186  1.00  0.00     0.041 C 
ATOM     16  O   UNL     1       5.394  26.026  13.866  1.00  0.00    -0.550 OA
ATOM     17  O   UNL     1       4.689  24.371  12.447  1.00  0.00    -0.550 OA
ENDBRANCH  14  15
ENDBRANCH  13  14
ENDBRANCH  12  13
ENDBRANCH  11  12
ENDBRANCH  10  11
ENDBRANCH   9  10
ENDBRANCH   8   9
ENDBRANCH   7   8
ENDBRANCH   6   7
ENDBRANCH   5   6
ENDBRANCH   4   5
ENDBRANCH   3   4
ENDBRANCH   2   3
ENDBRANCH   1   2
BRANCH   1  18
ATOM     18  C   UNL     1       0.412  27.495   7.491  1.00  0.00     0.000 C 
BRANCH  18  19
ATOM     19  C   UNL     1      -0.854  27.828   6.679  1.00  0.00     0.000 C 
BRANCH  19  20
ATOM     20  C   UNL     1      -1.124  26.806   5.559  1.00  0.00     0.000 C 
BRANCH  20  21
ATOM     21  C   UNL     1      -0.923  27.399   4.156  1.00  0.00     0.000 C 
BRANCH  21  22
ATOM     22  C   UNL     1      -0.523  26.344   3.114  1.00  0.00     0.000 C 
BRANCH  22  23
ATOM     23  C   UNL     1      -0.707  24.928   3.677  1.00  0.00     0.000 C 
BRANCH  23  24
ATOM     24  C   UNL     1       0.409  23.960   3.244  1.00  0.00    -0.000 C 
BRANCH  24  25
ATOM     25  C   UNL     1       1.845  24.455   3.511  1.00  0.00    -0.000 C 
BRANCH  25  26
ATOM     26  C   UNL     1       2.501  23.906   4.790  1.00  0.00    -0.000 C 
BRANCH  26  27
ATOM     27  C   UNL     1       2.603  24.953   5.909  1.00  0.00    -0.000 C 
BRANCH  27  28
ATOM     28  C   UNL     1       3.294  24.368   7.145  1.00  0.00    -0.000 C 
BRANCH  28  29
ATOM     29  C   UNL     1       3.154  25.304   8.351  1.00  0.00    -0.000 C 
BRANCH  29  30
ATOM     30  C   UNL     1       4.159  24.939   9.450  1.00  0.00    -0.000 C 
BRANCH  30  31
ATOM     31  C   UNL     1       5.595  24.982   8.918  1.00  0.00    -0.003 C 
ATOM     32  C   UNL     1       5.636  25.486   7.479  1.00  0.00     0.004 C 
ENDBRANCH  30  31
ENDBRANCH  29  30
ENDBRANCH  28  29
ENDBRANCH  27  28
ENDBRANCH  26  27
ENDBRANCH  25  26
ENDBRANCH  24  25
ENDBRANCH  23  24
ENDBRANCH  22  23
ENDBRANCH  21  22
ENDBRANCH  20  21
ENDBRANCH  19  20
ENDBRANCH  18  19
ENDBRANCH   1  18
TORSDOF 28
ENDMDL
MODEL 2
REMARK VINA RESULT:     1.060      1.247      3.187
REMARK INTER + INTRA:           1.666
REMARK INTER:                  -0.733
REMARK INTRA:                   2.399
REMARK UNBOUND:                -1.129
REMARK SMILES CCCCCCCCCCCCCCCCCCCCCCCCCCCCCC(=O)[O-]
REMARK SMILES IDX 16 1 17 2 18 3 19 4 20 5 21 6 22 7 23 8 24 9 25 10 26 11
REMARK SMILES IDX 27 12 28 13 29 14 30 15 31 16 32 17 15 18 14 19 13 20 12 21
REMARK SMILES IDX 11 22 10 23 9 24 8 25 7 26 6 27 5 28 4 29 3 30 2 31 1 32
REMARK H PARENT
REMARK Flexibility Score: inf
ROOT
ATOM      1  C   UNL     1       2.470  23.905  10.471  1.00  0.00     0.000 C 
ENDROOT
BRANCH   1   2
ATOM      2  C   UNL     1       1.813  23.898  11.860  1.00  0.00     0.000 C 
BRANCH   2   3
ATOM      3  C   UNL     1       0.285  23.945  11.736  1.00  0.00     0.000 C 
BRANCH   3   4
ATOM      4  C   UNL     1      -0.209  25.374  11.475  1.00  0.00     0.000 C 
BRANCH   4   5
ATOM      5  C   UNL     1      -1.015  25.951  12.652  1.00  0.00     0.000 C 
BRANCH   5   6
ATOM      6  C   UNL     1      -0.395  25.652  14.035  1.00  0.00     0.000 C 
BRANCH   6   7
ATOM      7  C   UNL     1      -1.121  24.508  14.767  1.00  0.00     0.000 C 
BRANCH   7   8
ATOM      8  C   UNL     1      -0.578  24.295  16.197  1.00  0.00     0.000 C 
BRANCH   8   9
ATOM      9  C   UNL     1       0.932  24.011  16.243  1.00  0.00     0.000 C 
BRANCH   9  10
ATOM     10  C   UNL     1       1.552  23.876  14.841  1.00  0.00     0.000 C 
BRANCH  10  11
ATOM     11  C   UNL     1       2.975  24.452  14.767  1.00  0.00     0.000 C 
BRANCH  11  12
ATOM     12  C   UNL     1       2.983  25.987  14.673  1.00  0.00     0.000 C 
BRANCH  12  13
ATOM     13  C   UNL     1       4.307  26.548  14.117  1.00  0.00     0.006 C 
BRANCH  13  14
ATOM     14  C   UNL     1       4.675  26.018  12.721  1.00  0.00     0.053 C 
BRANCH  14  15
ATOM     15  C   UNL     1       5.122  24.588  12.745  1.00  0.00     0.041 C 
ATOM     16  O   UNL     1       5.512  24.026  11.687  1.00  0.00    -0.550 OA
ATOM     17  O   UNL     1       5.123  23.881  13.940  1.00  0.00    -0.550 OA
ENDBRANCH  14  15
ENDBRANCH  13  14
ENDBRANCH  12  13
ENDBRANCH  11  12
ENDBRANCH  10  11
ENDBRANCH   9  10
ENDBRANCH   8   9
ENDBRANCH   7   8
ENDBRANCH   6   7
ENDBRANCH   5   6
ENDBRANCH   4   5
ENDBRANCH   3   4
ENDBRANCH   2   3
ENDBRANCH   1   2
BRANCH   1  18
ATOM     18  C   UNL     1       3.255  25.198  10.188  1.00  0.00     0.000 C 
BRANCH  18  19
ATOM     19  C   UNL     1       2.982  25.818   8.805  1.00  0.00     0.000 C 
BRANCH  19  20
ATOM     20  C   UNL     1       1.478  25.918   8.489  1.00  0.00     0.000 C 
BRANCH  20  21
ATOM     21  C   UNL     1       0.888  24.586   7.999  1.00  0.00     0.000 C 
BRANCH  21  22
ATOM     22  C   UNL     1      -0.632  24.650   7.782  1.00  0.00     0.000 C 
BRANCH  22  23
ATOM     23  C   UNL     1      -1.038  26.007   7.188  1.00  0.00     0.000 C 
BRANCH  23  24
ATOM     24  C   UNL     1      -0.284  26.344   5.889  1.00  0.00    -0.000 C 
BRANCH  24  25
ATOM     25  C   UNL     1      -1.072  26.089   4.588  1.00  0.00    -0.000 C 
BRANCH  25  26
ATOM     26  C   UNL     1      -0.324  25.276   3.517  1.00  0.00    -0.000 C 
BRANCH  26  27
ATOM     27  C   UNL     1       0.378  24.035   4.085  1.00  0.00    -0.000 C 
BRANCH  27  28
ATOM     28  C   UNL     1       1.850  23.995   3.662  1.00  0.00    -0.000 C 
BRANCH  28  29
ATOM     29  C   UNL     1       2.776  23.998   4.882  1.00  0.00    -0.000 C 
BRANCH  29  30
ATOM     30  C   UNL     1       3.299  25.410   5.173  1.00  0.00    -0.000 C 
BRANCH  30  31
ATOM     31  C   UNL     1       4.251  25.408   6.373  1.00  0.00    -0.003 C 
ATOM     32  C   UNL     1       4.439  23.998   6.926  1.00  0.00     0.004 C 
ENDBRANCH  30  31
ENDBRANCH  29  30
ENDBRANCH  28  29
ENDBRANCH  27  28
ENDBRANCH  26  27
ENDBRANCH  25  26
ENDBRANCH  24  25
ENDBRANCH  23  24
ENDBRANCH  22  23
ENDBRANCH  21  22
ENDBRANCH  20  21
ENDBRANCH  19  20
ENDBRANCH  18  19
ENDBRANCH   1  18
TORSDOF 28
ENDMDL
MODEL 3
REMARK VINA RESULT:     1.311      1.935      8.118
REMARK INTER + INTRA:           2.327
REMARK INTER:                   2.171
REMARK INTRA:                   0.156
REMARK UNBOUND:                -1.129
REMARK SMILES CCCCCCCCCCCCCCCCCCCCCCCCCCCCCC(=O)[O-]
REMARK SMILES IDX 16 1 17 2 18 3 19 4 20 5 21 6 22 7 23 8 24 9 25 10 26 11
REMARK SMILES IDX 27 12 28 13 29 14 30 15 31 16 32 17 15 18 14 19 13 20 12 21
REMARK SMILES IDX 11 22 10 23 9 24 8 25 7 26 6 27 5 28 4 29 3 30 2 31 1 32
REMARK H PARENT
REMARK Flexibility Score: inf
ROOT
ATOM      1  C   UNL     1       0.399  24.031  10.435  1.00  0.00     0.000 C 
ENDROOT
BRANCH   1   2
ATOM      2  C   UNL     1      -0.668  24.729   9.578  1.00  0.00     0.000 C 
BRANCH   2   3
ATOM      3  C   UNL     1      -0.627  24.212   8.135  1.00  0.00     0.000 C 
BRANCH   3   4
ATOM      4  C   UNL     1      -1.110  25.280   7.146  1.00  0.00     0.000 C 
BRANCH   4   5
ATOM      5  C   UNL     1      -0.539  26.676   7.449  1.00  0.00     0.000 C 
BRANCH   5   6
ATOM      6  C   UNL     1      -1.122  27.794   6.557  1.00  0.00     0.000 C 
BRANCH   6   7
ATOM      7  C   UNL     1      -0.972  27.483   5.056  1.00  0.00     0.000 C 
BRANCH   7   8
ATOM      8  C   UNL     1      -0.601  26.006   4.801  1.00  0.00     0.000 C 
BRANCH   8   9
ATOM      9  C   UNL     1      -0.666  25.607   3.318  1.00  0.00     0.000 C 
BRANCH   9  10
ATOM     10  C   UNL     1       0.423  24.592   2.929  1.00  0.00     0.000 C 
BRANCH  10  11
ATOM     11  C   UNL     1       1.325  24.210   4.114  1.00  0.00     0.000 C 
BRANCH  11  12
ATOM     12  C   UNL     1       2.786  23.981   3.689  1.00  0.00     0.000 C 
BRANCH  12  13
ATOM     13  C   UNL     1       3.750  23.875   4.888  1.00  0.00     0.006 C 
BRANCH  13  14
ATOM     14  C   UNL     1       3.067  24.038   6.257  1.00  0.00     0.053 C 
BRANCH  14  15
ATOM     15  C   UNL     1       2.771  25.468   6.590  1.00  0.00     0.041 C 
ATOM     16  O   UNL     1       2.672  25.834   7.791  1.00  0.00    -0.550 OA
ATOM     17  O   UNL     1       2.622  26.401   5.572  1.00  0.00    -0.550 OA
ENDBRANCH  14  15
ENDBRANCH  13  14
ENDBRANCH  12  13
ENDBRANCH  11  12
ENDBRANCH  10  11
ENDBRANCH   9  10
ENDBRANCH   8   9
ENDBRANCH   7   8
ENDBRANCH   6   7
ENDBRANCH   5   6
ENDBRANCH   4   5
ENDBRANCH   3   4
ENDBRANCH   2   3
ENDBRANCH   1   2
BRANCH   1  18
ATOM     18  C   UNL     1       0.012  23.950  11.923  1.00  0.00     0.000 C 
BRANCH  18  19
ATOM     19  C   UNL     1       0.176  25.272  12.696  1.00  0.00     0.000 C 
BRANCH  19  20
ATOM     20  C   UNL     1      -1.018  25.565  13.624  1.00  0.00     0.000 C 
BRANCH  20  21
ATOM     21  C   UNL     1      -0.609  25.654  15.103  1.00  0.00     0.000 C 
BRANCH  21  22
ATOM     22  C   UNL     1       0.914  25.686  15.300  1.00  0.00     0.000 C 
BRANCH  22  23
ATOM     23  C   UNL     1       1.530  24.313  14.996  1.00  0.00     0.000 C 
BRANCH  23  24
ATOM     24  C   UNL     1       3.069  24.342  14.951  1.00  0.00    -0.000 C 
BRANCH  24  25
ATOM     25  C   UNL     1       3.682  24.421  13.539  1.00  0.00    -0.000 C 
BRANCH  25  26
ATOM     26  C   UNL     1       4.074  25.834  13.072  1.00  0.00    -0.000 C 
BRANCH  26  27
ATOM     27  C   UNL     1       4.353  25.913  11.565  1.00  0.00    -0.000 C 
BRANCH  27  28
ATOM     28  C   UNL     1       3.210  25.284  10.761  1.00  0.00    -0.000 C 
BRANCH  28  29
ATOM     29  C   UNL     1       3.674  24.013  10.042  1.00  0.00    -0.000 C 
BRANCH  29  30
ATOM     30  C   UNL     1       5.204  23.964   9.944  1.00  0.00    -0.000 C 
BRANCH  30  31
ATOM     31  C   UNL     1       5.673  24.254   8.515  1.00  0.00    -0.003 C 
ATOM     32  C   UNL     1       5.838  25.753   8.282  1.00  0.00     0.004 C 
ENDBRANCH  30  31
ENDBRANCH  29  30
ENDBRANCH  28  29
ENDBRANCH  27  28
ENDBRANCH  26  27
ENDBRANCH  25  26
ENDBRANCH  24  25
ENDBRANCH  23  24
ENDBRANCH  22  23
ENDBRANCH  21  22
ENDBRANCH  20  21
ENDBRANCH  19  20
ENDBRANCH  18  19
ENDBRANCH   1  18
TORSDOF 28
ENDMDL
MODEL 4
REMARK VINA RESULT:     1.673      1.410      2.402
REMARK INTER + INTRA:           3.283
REMARK INTER:                   1.996
REMARK INTRA:                   1.287
REMARK UNBOUND:                -1.129
REMARK SMILES CCCCCCCCCCCCCCCCCCCCCCCCCCCCCC(=O)[O-]
REMARK SMILES IDX 16 1 17 2 18 3 19 4 20 5 21 6 22 7 23 8 24 9 25 10 26 11
REMARK SMILES IDX 27 12 28 13 29 14 30 15 31 16 32 17 15 18 14 19 13 20 12 21
REMARK SMILES IDX 11 22 10 23 9 24 8 25 7 26 6 27 5 28 4 29 3 30 2 31 1 32
REMARK H PARENT
REMARK Flexibility Score: inf
ROOT
ATOM      1  C   UNL     1       2.069  25.993   9.996  1.00  0.00     0.000 C 
ENDROOT
BRANCH   1   2
ATOM      2  C   UNL     1       1.150  25.977  11.228  1.00  0.00     0.000 C 
BRANCH   2   3
ATOM      3  C   UNL     1       1.430  24.746  12.097  1.00  0.00     0.000 C 
BRANCH   3   4
ATOM      4  C   UNL     1       0.148  23.944  12.358  1.00  0.00     0.000 C 
BRANCH   4   5
ATOM      5  C   UNL     1      -0.297  23.993  13.830  1.00  0.00     0.000 C 
BRANCH   5   6
ATOM      6  C   UNL     1      -1.071  25.276  14.203  1.00  0.00     0.000 C 
BRANCH   6   7
ATOM      7  C   UNL     1      -1.114  25.513  15.723  1.00  0.00     0.000 C 
BRANCH   7   8
ATOM      8  C   UNL     1       0.056  24.821  16.455  1.00  0.00     0.000 C 
BRANCH   8   9
ATOM      9  C   UNL     1       0.867  23.875  15.554  1.00  0.00     0.000 C 
BRANCH   9  10
ATOM     10  C   UNL     1       2.358  24.249  15.491  1.00  0.00     0.000 C 
BRANCH  10  11
ATOM     11  C   UNL     1       2.613  25.525  14.674  1.00  0.00     0.000 C 
BRANCH  11  12
ATOM     12  C   UNL     1       4.024  25.557  14.061  1.00  0.00     0.000 C 
BRANCH  12  13
ATOM     13  C   UNL     1       4.481  24.184  13.531  1.00  0.00     0.006 C 
BRANCH  13  14
ATOM     14  C   UNL     1       5.606  24.260  12.484  1.00  0.00     0.053 C 
BRANCH  14  15
ATOM     15  C   UNL     1       5.100  24.135  11.080  1.00  0.00     0.041 C 
ATOM     16  O   UNL     1       3.886  23.877  10.863  1.00  0.00    -0.550 OA
ATOM     17  O   UNL     1       5.965  24.322  10.010  1.00  0.00    -0.550 OA
ENDBRANCH  14  15
ENDBRANCH  13  14
ENDBRANCH  12  13
ENDBRANCH  11  12
ENDBRANCH  10  11
ENDBRANCH   9  10
ENDBRANCH   8   9
ENDBRANCH   7   8
ENDBRANCH   6   7
ENDBRANCH   5   6
ENDBRANCH   4   5
ENDBRANCH   3   4
ENDBRANCH   2   3
ENDBRANCH   1   2
BRANCH   1  18
ATOM     18  C   UNL     1       1.342  26.436   8.714  1.00  0.00     0.000 C 
BRANCH  18  19
ATOM     19  C   UNL     1       0.302  25.428   8.190  1.00  0.00     0.000 C 
BRANCH  19  20
ATOM     20  C   UNL     1      -0.848  26.109   7.425  1.00  0.00     0.000 C 
BRANCH  20  21
ATOM     21  C   UNL     1      -0.348  26.992   6.270  1.00  0.00     0.000 C 
BRANCH  21  22
ATOM     22  C   UNL     1      -1.011  26.649   4.927  1.00  0.00     0.000 C 
BRANCH  22  23
ATOM     23  C   UNL     1      -1.123  25.128   4.749  1.00  0.00     0.000 C 
BRANCH  23  24
ATOM     24  C   UNL     1      -0.923  24.678   3.291  1.00  0.00    -0.000 C 
BRANCH  24  25
ATOM     25  C   UNL     1       0.392  23.923   3.012  1.00  0.00    -0.000 C 
BRANCH  25  26
ATOM     26  C   UNL     1       1.678  24.735   3.249  1.00  0.00    -0.000 C 
BRANCH  26  27
ATOM     27  C   UNL     1       2.621  24.082   4.269  1.00  0.00    -0.000 C 
BRANCH  27  28
ATOM     28  C   UNL     1       2.241  24.479   5.700  1.00  0.00    -0.000 C 
BRANCH  28  29
ATOM     29  C   UNL     1       3.351  24.107   6.689  1.00  0.00    -0.000 C 
BRANCH  29  30
ATOM     30  C   UNL     1       4.721  24.094   6.000  1.00  0.00    -0.000 C 
BRANCH  30  31
ATOM     31  C   UNL     1       5.695  25.051   6.696  1.00  0.00    -0.003 C 
ATOM     32  C   UNL     1       4.994  25.855   7.787  1.00  0.00     0.004 C 
ENDBRANCH  30  31
ENDBRANCH  29  30
ENDBRANCH  28  29
ENDBRANCH  27  28
ENDBRANCH  26  27
ENDBRANCH  25  26
ENDBRANCH  24  25
ENDBRANCH  23  24
ENDBRANCH  22  23
ENDBRANCH  21  22
ENDBRANCH  20  21
ENDBRANCH  19  20
ENDBRANCH  18  19
ENDBRANCH   1  18
TORSDOF 28
ENDMDL
MODEL 5
REMARK VINA RESULT:     1.823      1.290      2.075
REMARK INTER + INTRA:           3.678
REMARK INTER:                   3.398
REMARK INTRA:                   0.280
REMARK UNBOUND:                -1.129
REMARK SMILES CCCCCCCCCCCCCCCCCCCCCCCCCCCCCC(=O)[O-]
REMARK SMILES IDX 16 1 17 2 18 3 19 4 20 5 21 6 22 7 23 8 24 9 25 10 26 11
REMARK SMILES IDX 27 12 28 13 29 14 30 15 31 16 32 17 15 18 14 19 13 20 12 21
REMARK SMILES IDX 11 22 10 23 9 24 8 25 7 26 6 27 5 28 4 29 3 30 2 31 1 32
REMARK H PARENT
REMARK Flexibility Score: inf
ROOT
ATOM      1  C   UNL     1       1.823  24.497   9.449  1.00  0.00     0.000 C 
ENDROOT
BRANCH   1   2
ATOM      2  C   UNL     1       0.592  23.883  10.133  1.00  0.00     0.000 C 
BRANCH   2   3
ATOM      3  C   UNL     1      -0.253  24.971  10.805  1.00  0.00     0.000 C 
BRANCH   3   4
ATOM      4  C   UNL     1       0.300  25.331  12.190  1.00  0.00     0.000 C 
BRANCH   4   5
ATOM      5  C   UNL     1      -0.807  25.580  13.229  1.00  0.00     0.000 C 
BRANCH   5   6
ATOM      6  C   UNL     1      -1.125  24.348  14.106  1.00  0.00     0.000 C 
BRANCH   6   7
ATOM      7  C   UNL     1       0.040  23.979  15.042  1.00  0.00     0.000 C 
BRANCH   7   8
ATOM      8  C   UNL     1      -0.097  24.639  16.431  1.00  0.00     0.000 C 
BRANCH   8   9
ATOM      9  C   UNL     1       1.198  25.309  16.920  1.00  0.00     0.000 C 
BRANCH   9  10
ATOM     10  C   UNL     1       2.130  25.712  15.764  1.00  0.00     0.000 C 
BRANCH  10  11
ATOM     11  C   UNL     1       3.037  24.559  15.306  1.00  0.00     0.000 C 
BRANCH  11  12
ATOM     12  C   UNL     1       2.584  23.951  13.967  1.00  0.00     0.000 C 
BRANCH  12  13
ATOM     13  C   UNL     1       3.711  23.904  12.917  1.00  0.00     0.006 C 
BRANCH  13  14
ATOM     14  C   UNL     1       4.643  25.129  12.944  1.00  0.00     0.053 C 
BRANCH  14  15
ATOM     15  C   UNL     1       3.899  26.424  12.825  1.00  0.00     0.041 C 
ATOM     16  O   UNL     1       4.121  27.361  13.637  1.00  0.00    -0.550 OA
ATOM     17  O   UNL     1       2.973  26.602  11.805  1.00  0.00    -0.550 OA
ENDBRANCH  14  15
ENDBRANCH  13  14
ENDBRANCH  12  13
ENDBRANCH  11  12
ENDBRANCH  10  11
ENDBRANCH   9  10
ENDBRANCH   8   9
ENDBRANCH   7   8
ENDBRANCH   6   7
ENDBRANCH   5   6
ENDBRANCH   4   5
ENDBRANCH   3   4
ENDBRANCH   2   3
ENDBRANCH   1   2
BRANCH   1  18
ATOM     18  C   UNL     1       1.809  26.037   9.465  1.00  0.00     0.000 C 
BRANCH  18  19
ATOM     19  C   UNL     1       1.679  26.686   8.074  1.00  0.00     0.000 C 
BRANCH  19  20
ATOM     20  C   UNL     1       0.379  26.284   7.354  1.00  0.00     0.000 C 
BRANCH  20  21
ATOM     21  C   UNL     1       0.426  26.572   5.844  1.00  0.00     0.000 C 
BRANCH  21  22
ATOM     22  C   UNL     1      -0.971  26.667   5.211  1.00  0.00     0.000 C 
BRANCH  22  23
ATOM     23  C   UNL     1      -1.124  25.644   4.077  1.00  0.00     0.000 C 
BRANCH  23  24
ATOM     24  C   UNL     1      -0.019  24.571   4.084  1.00  0.00    -0.000 C 
BRANCH  24  25
ATOM     25  C   UNL     1       1.317  25.003   3.448  1.00  0.00    -0.000 C 
BRANCH  25  26
ATOM     26  C   UNL     1       2.366  23.886   3.301  1.00  0.00    -0.000 C 
BRANCH  26  27
ATOM     27  C   UNL     1       3.423  23.905   4.414  1.00  0.00    -0.000 C 
BRANCH  27  28
ATOM     28  C   UNL     1       2.786  24.224   5.771  1.00  0.00    -0.000 C 
BRANCH  28  29
ATOM     29  C   UNL     1       3.760  24.992   6.671  1.00  0.00    -0.000 C 
BRANCH  29  30
ATOM     30  C   UNL     1       4.878  24.075   7.181  1.00  0.00    -0.000 C 
BRANCH  30  31
ATOM     31  C   UNL     1       5.380  24.532   8.554  1.00  0.00    -0.003 C 
ATOM     32  C   UNL     1       5.939  25.950   8.494  1.00  0.00     0.004 C 
ENDBRANCH  30  31
ENDBRANCH  29  30
ENDBRANCH  28  29
ENDBRANCH  27  28
ENDBRANCH  26  27
ENDBRANCH  25  26
ENDBRANCH  24  25
ENDBRANCH  23  24
ENDBRANCH  22  23
ENDBRANCH  21  22
ENDBRANCH  20  21
ENDBRANCH  19  20
ENDBRANCH  18  19
ENDBRANCH   1  18
TORSDOF 28
ENDMDL
MODEL 6
REMARK VINA RESULT:     3.450      2.026      3.275
REMARK INTER + INTRA:           7.968
REMARK INTER:                   4.124
REMARK INTRA:                   3.844
REMARK UNBOUND:                -1.129
REMARK SMILES CCCCCCCCCCCCCCCCCCCCCCCCCCCCCC(=O)[O-]
REMARK SMILES IDX 16 1 17 2 18 3 19 4 20 5 21 6 22 7 23 8 24 9 25 10 26 11
REMARK SMILES IDX 27 12 28 13 29 14 30 15 31 16 32 17 15 18 14 19 13 20 12 21
REMARK SMILES IDX 11 22 10 23 9 24 8 25 7 26 6 27 5 28 4 29 3 30 2 31 1 32
REMARK H PARENT
REMARK Flexibility Score: inf
ROOT
ATOM      1  C   UNL     1       0.207  24.563   8.227  1.00  0.00     0.000 C 
ENDROOT
BRANCH   1   2
ATOM      2  C   UNL     1      -1.113  24.624   9.011  1.00  0.00     0.000 C 
BRANCH   2   3
ATOM      3  C   UNL     1      -0.846  24.851  10.504  1.00  0.00     0.000 C 
BRANCH   3   4
ATOM      4  C   UNL     1       0.386  24.067  10.975  1.00  0.00     0.000 C 
BRANCH   4   5
ATOM      5  C   UNL     1       1.609  24.277  10.066  1.00  0.00     0.000 C 
BRANCH   5   6
ATOM      6  C   UNL     1       1.988  25.760   9.865  1.00  0.00     0.000 C 
BRANCH   6   7
ATOM      7  C   UNL     1       2.286  26.474  11.196  1.00  0.00     0.000 C 
BRANCH   7   8
ATOM      8  C   UNL     1       3.643  26.047  11.796  1.00  0.00     0.000 C 
BRANCH   8   9
ATOM      9  C   UNL     1       4.182  27.027  12.850  1.00  0.00     0.000 C 
BRANCH   9  10
ATOM     10  C   UNL     1       4.210  26.421  14.264  1.00  0.00     0.000 C 
BRANCH  10  11
ATOM     11  C   UNL     1       4.959  25.080  14.317  1.00  0.00     0.000 C 
BRANCH  11  12
ATOM     12  C   UNL     1       4.037  23.881  14.037  1.00  0.00     0.000 C 
BRANCH  12  13
ATOM     13  C   UNL     1       2.700  23.960  14.799  1.00  0.00     0.006 C 
BRANCH  13  14
ATOM     14  C   UNL     1       1.527  24.487  13.953  1.00  0.00     0.053 C 
BRANCH  14  15
ATOM     15  C   UNL     1       0.233  24.508  14.708  1.00  0.00     0.041 C 
ATOM     16  O   UNL     1       0.225  24.373  15.960  1.00  0.00    -0.550 OA
ATOM     17  O   UNL     1      -0.964  24.693  14.029  1.00  0.00    -0.550 OA
ENDBRANCH  14  15
ENDBRANCH  13  14
ENDBRANCH  12  13
ENDBRANCH  11  12
ENDBRANCH  10  11
ENDBRANCH   9  10
ENDBRANCH   8   9
ENDBRANCH   7   8
ENDBRANCH   6   7
ENDBRANCH   5   6
ENDBRANCH   4   5
ENDBRANCH   3   4
ENDBRANCH   2   3
ENDBRANCH   1   2
BRANCH   1  18
ATOM     18  C   UNL     1       0.228  25.513   7.016  1.00  0.00     0.000 C 
BRANCH  18  19
ATOM     19  C   UNL     1      -1.056  25.489   6.166  1.00  0.00     0.000 C 
BRANCH  19  20
ATOM     20  C   UNL     1      -1.046  24.367   5.112  1.00  0.00     0.000 C 
BRANCH  20  21
ATOM     21  C   UNL     1      -0.955  24.906   3.675  1.00  0.00     0.000 C 
BRANCH  21  22
ATOM     22  C   UNL     1       0.403  25.551   3.364  1.00  0.00     0.000 C 
BRANCH  22  23
ATOM     23  C   UNL     1       1.011  26.174   4.629  1.00  0.00     0.000 C 
BRANCH  23  24
ATOM     24  C   UNL     1       2.550  26.133   4.638  1.00  0.00    -0.000 C 
BRANCH  24  25
ATOM     25  C   UNL     1       3.169  24.731   4.466  1.00  0.00    -0.000 C 
BRANCH  25  26
ATOM     26  C   UNL     1       3.236  23.881   5.747  1.00  0.00    -0.000 C 
BRANCH  26  27
ATOM     27  C   UNL     1       3.998  24.571   6.887  1.00  0.00    -0.000 C 
BRANCH  27  28
ATOM     28  C   UNL     1       4.785  25.780   6.368  1.00  0.00    -0.000 C 
BRANCH  28  29
ATOM     29  C   UNL     1       6.006  26.064   7.249  1.00  0.00    -0.000 C 
BRANCH  29  30
ATOM     30  C   UNL     1       5.691  25.802   8.727  1.00  0.00    -0.000 C 
BRANCH  30  31
ATOM     31  C   UNL     1       5.556  24.301   9.002  1.00  0.00    -0.003 C 
ATOM     32  C   UNL     1       5.209  24.037  10.464  1.00  0.00     0.004 C 
ENDBRANCH  30  31
ENDBRANCH  29  30
ENDBRANCH  28  29
ENDBRANCH  27  28
ENDBRANCH  26  27
ENDBRANCH  25  26
ENDBRANCH  24  25
ENDBRANCH  23  24
ENDBRANCH  22  23
ENDBRANCH  21  22
ENDBRANCH  20  21
ENDBRANCH  19  20
ENDBRANCH  18  19
ENDBRANCH   1  18
TORSDOF 28
ENDMDL
