MODEL 1
REMARK VINA RESULT:    -5.115      0.000      0.000
REMARK INTER + INTRA:          -5.777
REMARK INTER:                  -5.564
REMARK INTRA:                  -0.213
REMARK UNBOUND:                -0.213
REMARK SMILES CC1=C2C[C@H](C(C)(C)O)CC[C@]2(C)CCC1
REMARK SMILES IDX 6 1 7 2 8 3 5 4 1 5 2 6 3 7 16 8 4 9 12 10 15 11 11 12 14 13
REMARK SMILES IDX 13 14 10 15 9 16
REMARK H PARENT 9 17
REMARK Flexibility Score: inf
ROOT
ATOM      1  C   UNL     1     149.729 135.289 149.092  1.00  0.00     0.062 C 
ATOM      2  C   UNL     1     148.830 134.412 149.996  1.00  0.00     0.042 C 
ATOM      3  C   UNL     1     150.028 136.599 149.853  1.00  0.00     0.042 C 
ENDROOT
BRANCH   1   4
ATOM      4  C   UNL     1     149.093 135.604 147.681  1.00  0.00     0.024 C 
ATOM      5  C   UNL     1     145.385 135.044 149.576  1.00  0.00     0.039 C 
ATOM      6  C   UNL     1     145.774 136.378 148.986  1.00  0.00    -0.074 C 
ATOM      7  C   UNL     1     146.712 136.492 147.994  1.00  0.00    -0.065 C 
ATOM      8  C   UNL     1     145.035 137.588 149.513  1.00  0.00     0.031 C 
ATOM      9  C   UNL     1     147.571 135.310 147.562  1.00  0.00     0.038 C 
ATOM     10  C   UNL     1     147.008 137.830 147.290  1.00  0.00    -0.011 C 
ATOM     11  C   UNL     1     145.852 138.861 149.332  1.00  0.00     0.005 C 
ATOM     12  C   UNL     1     148.515 138.146 147.469  1.00  0.00     0.011 C 
ATOM     13  C   UNL     1     146.175 139.025 147.854  1.00  0.00     0.011 C 
ATOM     14  C   UNL     1     146.667 137.715 145.783  1.00  0.00     0.016 C 
ATOM     15  C   UNL     1     149.454 136.989 147.068  1.00  0.00     0.008 C 
ENDBRANCH   1   4
BRANCH   1  16
ATOM     16  O   UNL     1     150.983 134.668 148.901  1.00  0.00    -0.390 OA
ATOM     17  H   UNL     1     151.321 134.335 149.771  1.00  0.00     0.211 HD
ENDBRANCH   1  16
TORSDOF 2
ENDMDL
MODEL 2
REMARK VINA RESULT:    -5.049      2.017      3.888
REMARK INTER + INTRA:          -5.704
REMARK INTER:                  -5.402
REMARK INTRA:                  -0.302
REMARK UNBOUND:                -0.213
REMARK SMILES CC1=C2C[C@H](C(C)(C)O)CC[C@]2(C)CCC1
REMARK SMILES IDX 6 1 7 2 8 3 5 4 1 5 2 6 3 7 16 8 4 9 12 10 15 11 11 12 14 13
REMARK SMILES IDX 13 14 10 15 9 16
REMARK H PARENT 9 17
REMARK Flexibility Score: inf
ROOT
ATOM      1  C   UNL     1     148.110 138.466 145.867  1.00  0.00     0.062 C 
ATOM      2  C   UNL     1     146.749 137.982 145.312  1.00  0.00     0.042 C 
ATOM      3  C   UNL     1     149.071 138.643 144.672  1.00  0.00     0.042 C 
ENDROOT
BRANCH   1   4
ATOM      4  C   UNL     1     148.737 137.493 146.940  1.00  0.00     0.024 C 
ATOM      5  C   UNL     1     145.732 138.900 149.516  1.00  0.00     0.039 C 
ATOM      6  C   UNL     1     145.797 137.449 149.100  1.00  0.00    -0.074 C 
ATOM      7  C   UNL     1     146.959 136.865 148.670  1.00  0.00    -0.065 C 
ATOM      8  C   UNL     1     144.516 136.654 149.227  1.00  0.00     0.031 C 
ATOM      9  C   UNL     1     148.213 137.682 148.391  1.00  0.00     0.038 C 
ATOM     10  C   UNL     1     147.064 135.354 148.382  1.00  0.00    -0.011 C 
ATOM     11  C   UNL     1     144.505 135.463 148.280  1.00  0.00     0.005 C 
ATOM     12  C   UNL     1     147.526 135.176 146.914  1.00  0.00     0.011 C 
ATOM     13  C   UNL     1     145.715 134.591 148.580  1.00  0.00     0.011 C 
ATOM     14  C   UNL     1     148.093 134.708 149.343  1.00  0.00     0.016 C 
ATOM     15  C   UNL     1     148.785 135.987 146.545  1.00  0.00     0.008 C 
ENDBRANCH   1   4
BRANCH   1  16
ATOM     16  O   UNL     1     147.975 139.751 146.437  1.00  0.00    -0.390 OA
ATOM     17  H   UNL     1     147.265 139.731 147.129  1.00  0.00     0.211 HD
ENDBRANCH   1  16
TORSDOF 2
ENDMDL
MODEL 3
REMARK VINA RESULT:    -4.925      1.332      1.871
REMARK INTER + INTRA:          -5.570
REMARK INTER:                  -5.292
REMARK INTRA:                  -0.277
REMARK UNBOUND:                -0.213
REMARK SMILES CC1=C2C[C@H](C(C)(C)O)CC[C@]2(C)CCC1
REMARK SMILES IDX 6 1 7 2 8 3 5 4 1 5 2 6 3 7 16 8 4 9 12 10 15 11 11 12 14 13
REMARK SMILES IDX 13 14 10 15 9 16
REMARK H PARENT 9 17
REMARK Flexibility Score: inf
ROOT
ATOM      1  C   UNL     1     150.340 136.031 149.209  1.00  0.00     0.062 C 
ATOM      2  C   UNL     1     148.984 135.790 149.914  1.00  0.00     0.042 C 
ATOM      3  C   UNL     1     151.343 136.529 150.271  1.00  0.00     0.042 C 
ENDROOT
BRANCH   1   4
ATOM      4  C   UNL     1     150.256 137.052 148.008  1.00  0.00     0.024 C 
ATOM      5  C   UNL     1     147.176 134.598 146.544  1.00  0.00     0.039 C 
ATOM      6  C   UNL     1     146.918 136.031 146.944  1.00  0.00    -0.074 C 
ATOM      7  C   UNL     1     147.914 136.971 146.976  1.00  0.00    -0.065 C 
ATOM      8  C   UNL     1     145.484 136.392 147.264  1.00  0.00     0.031 C 
ATOM      9  C   UNL     1     149.380 136.592 146.809  1.00  0.00     0.038 C 
ATOM     10  C   UNL     1     147.632 138.462 147.244  1.00  0.00    -0.011 C 
ATOM     11  C   UNL     1     145.408 137.602 148.184  1.00  0.00     0.005 C 
ATOM     12  C   UNL     1     148.461 138.895 148.480  1.00  0.00     0.011 C 
ATOM     13  C   UNL     1     146.124 138.767 147.518  1.00  0.00     0.011 C 
ATOM     14  C   UNL     1     148.044 139.302 146.009  1.00  0.00     0.016 C 
ATOM     15  C   UNL     1     149.958 138.531 148.394  1.00  0.00     0.008 C 
ENDBRANCH   1   4
BRANCH   1  16
ATOM     16  O   UNL     1     150.867 134.809 148.735  1.00  0.00    -0.390 OA
ATOM     17  H   UNL     1     151.107 134.233 149.506  1.00  0.00     0.211 HD
ENDBRANCH   1  16
TORSDOF 2
ENDMDL
MODEL 4
REMARK VINA RESULT:    -4.920      7.430     10.202
REMARK INTER + INTRA:          -5.565
REMARK INTER:                  -5.353
REMARK INTRA:                  -0.212
REMARK UNBOUND:                -0.213
REMARK SMILES CC1=C2C[C@H](C(C)(C)O)CC[C@]2(C)CCC1
REMARK SMILES IDX 6 1 7 2 8 3 5 4 1 5 2 6 3 7 16 8 4 9 12 10 15 11 11 12 14 13
REMARK SMILES IDX 13 14 10 15 9 16
REMARK H PARENT 9 17
REMARK Flexibility Score: inf
ROOT
ATOM      1  C   UNL     1     137.206 132.366 149.854  1.00  0.00     0.062 C 
ATOM      2  C   UNL     1     136.372 131.139 149.414  1.00  0.00     0.042 C 
ATOM      3  C   UNL     1     137.836 132.987 148.589  1.00  0.00     0.042 C 
ENDROOT
BRANCH   1   4
ATOM      4  C   UNL     1     138.324 132.023 150.915  1.00  0.00     0.024 C 
ATOM      5  C   UNL     1     140.190 129.905 147.803  1.00  0.00     0.039 C 
ATOM      6  C   UNL     1     140.847 131.104 148.444  1.00  0.00    -0.074 C 
ATOM      7  C   UNL     1     140.526 131.523 149.708  1.00  0.00    -0.065 C 
ATOM      8  C   UNL     1     141.923 131.795 147.636  1.00  0.00     0.031 C 
ATOM      9  C   UNL     1     139.345 130.937 150.472  1.00  0.00     0.038 C 
ATOM     10  C   UNL     1     141.293 132.653 150.422  1.00  0.00    -0.011 C 
ATOM     11  C   UNL     1     142.089 133.248 148.059  1.00  0.00     0.005 C 
ATOM     12  C   UNL     1     140.276 133.759 150.803  1.00  0.00     0.011 C 
ATOM     13  C   UNL     1     142.419 133.288 149.544  1.00  0.00     0.011 C 
ATOM     14  C   UNL     1     141.975 132.099 151.697  1.00  0.00     0.016 C 
ATOM     15  C   UNL     1     139.039 133.243 151.567  1.00  0.00     0.008 C 
ENDBRANCH   1   4
BRANCH   1  16
ATOM     16  O   UNL     1     136.361 133.365 150.386  1.00  0.00    -0.390 OA
ATOM     17  H   UNL     1     135.416 133.129 150.200  1.00  0.00     0.211 HD
ENDBRANCH   1  16
TORSDOF 2
ENDMDL
MODEL 5
REMARK VINA RESULT:    -4.898      2.428      4.323
REMARK INTER + INTRA:          -5.540
REMARK INTER:                  -5.251
REMARK INTRA:                  -0.290
REMARK UNBOUND:                -0.213
REMARK SMILES CC1=C2C[C@H](C(C)(C)O)CC[C@]2(C)CCC1
REMARK SMILES IDX 6 1 7 2 8 3 5 4 1 5 2 6 3 7 16 8 4 9 12 10 15 11 11 12 14 13
REMARK SMILES IDX 13 14 10 15 9 16
REMARK H PARENT 9 17
REMARK Flexibility Score: inf
ROOT
ATOM      1  C   UNL     1     144.356 135.806 148.443  1.00  0.00     0.062 C 
ATOM      2  C   UNL     1     144.622 136.894 149.512  1.00  0.00     0.042 C 
ATOM      3  C   UNL     1     143.379 134.777 149.051  1.00  0.00     0.042 C 
ENDROOT
BRANCH   1   4
ATOM      4  C   UNL     1     145.666 135.089 147.932  1.00  0.00     0.024 C 
ATOM      5  C   UNL     1     146.011 138.308 145.255  1.00  0.00     0.039 C 
ATOM      6  C   UNL     1     147.053 138.053 146.318  1.00  0.00    -0.074 C 
ATOM      7  C   UNL     1     147.235 136.816 146.880  1.00  0.00    -0.065 C 
ATOM      8  C   UNL     1     147.927 139.227 146.699  1.00  0.00     0.031 C 
ATOM      9  C   UNL     1     146.269 135.668 146.621  1.00  0.00     0.038 C 
ATOM     10  C   UNL     1     148.388 136.517 147.857  1.00  0.00    -0.011 C 
ATOM     11  C   UNL     1     148.492 139.066 148.104  1.00  0.00     0.005 C 
ATOM     12  C   UNL     1     147.774 136.001 149.183  1.00  0.00     0.011 C 
ATOM     13  C   UNL     1     149.276 137.764 148.167  1.00  0.00     0.011 C 
ATOM     14  C   UNL     1     149.321 135.439 147.251  1.00  0.00     0.016 C 
ATOM     15  C   UNL     1     146.769 134.844 149.004  1.00  0.00     0.008 C 
ENDBRANCH   1   4
BRANCH   1  16
ATOM     16  O   UNL     1     143.678 136.364 147.337  1.00  0.00    -0.390 OA
ATOM     17  H   UNL     1     144.248 136.289 146.530  1.00  0.00     0.211 HD
ENDBRANCH   1  16
TORSDOF 2
ENDMDL
MODEL 6
REMARK VINA RESULT:    -4.801      8.724     10.192
REMARK INTER + INTRA:          -5.434
REMARK INTER:                  -5.128
REMARK INTRA:                  -0.306
REMARK UNBOUND:                -0.213
REMARK SMILES CC1=C2C[C@H](C(C)(C)O)CC[C@]2(C)CCC1
REMARK SMILES IDX 6 1 7 2 8 3 5 4 1 5 2 6 3 7 16 8 4 9 12 10 15 11 11 12 14 13
REMARK SMILES IDX 13 14 10 15 9 16
REMARK H PARENT 9 17
REMARK Flexibility Score: inf
ROOT
ATOM      1  C   UNL     1     141.831 144.368 144.836  1.00  0.00     0.062 C 
ATOM      2  C   UNL     1     141.262 143.617 146.064  1.00  0.00     0.042 C 
ATOM      3  C   UNL     1     140.790 144.271 143.700  1.00  0.00     0.042 C 
ENDROOT
BRANCH   1   4
ATOM      4  C   UNL     1     143.229 143.818 144.351  1.00  0.00     0.024 C 
ATOM      5  C   UNL     1     141.370 140.051 144.268  1.00  0.00     0.039 C 
ATOM      6  C   UNL     1     141.905 140.693 143.010  1.00  0.00    -0.074 C 
ATOM      7  C   UNL     1     142.888 141.647 143.039  1.00  0.00    -0.065 C 
ATOM      8  C   UNL     1     141.332 140.193 141.703  1.00  0.00     0.031 C 
ATOM      9  C   UNL     1     143.365 142.270 144.345  1.00  0.00     0.038 C 
ATOM     10  C   UNL     1     143.538 142.200 141.755  1.00  0.00    -0.011 C 
ATOM     11  C   UNL     1     141.459 141.238 140.603  1.00  0.00     0.005 C 
ATOM     12  C   UNL     1     143.341 143.737 141.740  1.00  0.00     0.011 C 
ATOM     13  C   UNL     1     142.928 141.603 140.446  1.00  0.00     0.011 C 
ATOM     14  C   UNL     1     145.049 141.859 141.744  1.00  0.00     0.016 C 
ATOM     15  C   UNL     1     143.786 144.443 143.038  1.00  0.00     0.008 C 
ENDBRANCH   1   4
BRANCH   1  16
ATOM     16  O   UNL     1     141.953 145.746 145.121  1.00  0.00    -0.390 OA
ATOM     17  H   UNL     1     141.849 146.265 144.283  1.00  0.00     0.211 HD
ENDBRANCH   1  16
TORSDOF 2
ENDMDL
MODEL 7
REMARK VINA RESULT:    -4.741      8.009     10.796
REMARK INTER + INTRA:          -5.370
REMARK INTER:                  -5.071
REMARK INTRA:                  -0.299
REMARK UNBOUND:                -0.213
REMARK SMILES CC1=C2C[C@H](C(C)(C)O)CC[C@]2(C)CCC1
REMARK SMILES IDX 6 1 7 2 8 3 5 4 1 5 2 6 3 7 16 8 4 9 12 10 15 11 11 12 14 13
REMARK SMILES IDX 13 14 10 15 9 16
REMARK H PARENT 9 17
REMARK Flexibility Score: inf
ROOT
ATOM      1  C   UNL     1     137.294 130.199 148.618  1.00  0.00     0.062 C 
ATOM      2  C   UNL     1     137.494 131.240 147.490  1.00  0.00     0.042 C 
ATOM      3  C   UNL     1     135.843 129.680 148.529  1.00  0.00     0.042 C 
ENDROOT
BRANCH   1   4
ATOM      4  C   UNL     1     137.590 130.766 150.061  1.00  0.00     0.024 C 
ATOM      5  C   UNL     1     141.647 130.348 149.056  1.00  0.00     0.039 C 
ATOM      6  C   UNL     1     141.043 131.702 149.343  1.00  0.00    -0.074 C 
ATOM      7  C   UNL     1     139.909 131.849 150.098  1.00  0.00    -0.065 C 
ATOM      8  C   UNL     1     141.785 132.900 148.794  1.00  0.00     0.031 C 
ATOM      9  C   UNL     1     139.069 130.653 150.526  1.00  0.00     0.038 C 
ATOM     10  C   UNL     1     139.371 133.232 150.514  1.00  0.00    -0.011 C 
ATOM     11  C   UNL     1     140.856 134.092 148.610  1.00  0.00     0.005 C 
ATOM     12  C   UNL     1     137.918 133.360 149.991  1.00  0.00     0.011 C 
ATOM     13  C   UNL     1     140.214 134.420 149.950  1.00  0.00     0.011 C 
ATOM     14  C   UNL     1     139.391 133.358 152.058  1.00  0.00     0.016 C 
ATOM     15  C   UNL     1     137.004 132.176 150.370  1.00  0.00     0.008 C 
ENDBRANCH   1   4
BRANCH   1  16
ATOM     16  O   UNL     1     138.114 129.071 148.392  1.00  0.00    -0.390 OA
ATOM     17  H   UNL     1     138.411 129.064 147.446  1.00  0.00     0.211 HD
ENDBRANCH   1  16
TORSDOF 2
ENDMDL
MODEL 8
REMARK VINA RESULT:    -4.729      7.509      9.490
REMARK INTER + INTRA:          -5.357
REMARK INTER:                  -5.062
REMARK INTRA:                  -0.295
REMARK UNBOUND:                -0.213
REMARK SMILES CC1=C2C[C@H](C(C)(C)O)CC[C@]2(C)CCC1
REMARK SMILES IDX 6 1 7 2 8 3 5 4 1 5 2 6 3 7 16 8 4 9 12 10 15 11 11 12 14 13
REMARK SMILES IDX 13 14 10 15 9 16
REMARK H PARENT 9 17
REMARK Flexibility Score: inf
ROOT
ATOM      1  C   UNL     1     141.873 131.630 151.339  1.00  0.00     0.062 C 
ATOM      2  C   UNL     1     141.053 132.623 152.198  1.00  0.00     0.042 C 
ATOM      3  C   UNL     1     143.369 131.880 151.627  1.00  0.00     0.042 C 
ENDROOT
BRANCH   1   4
ATOM      4  C   UNL     1     141.582 131.745 149.791  1.00  0.00     0.024 C 
ATOM      5  C   UNL     1     138.248 129.305 150.552  1.00  0.00     0.039 C 
ATOM      6  C   UNL     1     138.090 130.716 150.037  1.00  0.00    -0.074 C 
ATOM      7  C   UNL     1     139.089 131.361 149.356  1.00  0.00    -0.065 C 
ATOM      8  C   UNL     1     136.746 131.371 150.268  1.00  0.00     0.031 C 
ATOM      9  C   UNL     1     140.493 130.778 149.249  1.00  0.00     0.038 C 
ATOM     10  C   UNL     1     138.884 132.742 148.705  1.00  0.00    -0.011 C 
ATOM     11  C   UNL     1     136.860 132.889 150.271  1.00  0.00     0.005 C 
ATOM     12  C   UNL     1     139.934 133.715 149.299  1.00  0.00     0.011 C 
ATOM     13  C   UNL     1     137.459 133.335 148.945  1.00  0.00     0.011 C 
ATOM     14  C   UNL     1     139.073 132.631 147.171  1.00  0.00     0.016 C 
ATOM     15  C   UNL     1     141.384 133.189 149.243  1.00  0.00     0.008 C 
ENDBRANCH   1   4
BRANCH   1  16
ATOM     16  O   UNL     1     141.624 130.304 151.755  1.00  0.00    -0.390 OA
ATOM     17  H   UNL     1     140.677 130.073 151.569  1.00  0.00     0.211 HD
ENDBRANCH   1  16
TORSDOF 2
ENDMDL
MODEL 9
REMARK VINA RESULT:    -4.724      8.459     10.943
REMARK INTER + INTRA:          -5.351
REMARK INTER:                  -5.219
REMARK INTRA:                  -0.132
REMARK UNBOUND:                -0.213
REMARK SMILES CC1=C2C[C@H](C(C)(C)O)CC[C@]2(C)CCC1
REMARK SMILES IDX 6 1 7 2 8 3 5 4 1 5 2 6 3 7 16 8 4 9 12 10 15 11 11 12 14 13
REMARK SMILES IDX 13 14 10 15 9 16
REMARK H PARENT 9 17
REMARK Flexibility Score: inf
ROOT
ATOM      1  C   UNL     1     137.573 129.888 150.338  1.00  0.00     0.062 C 
ATOM      2  C   UNL     1     138.528 128.946 149.566  1.00  0.00     0.042 C 
ATOM      3  C   UNL     1     136.509 129.013 151.034  1.00  0.00     0.042 C 
ENDROOT
BRANCH   1   4
ATOM      4  C   UNL     1     136.883 130.975 149.425  1.00  0.00     0.024 C 
ATOM      5  C   UNL     1     139.373 133.741 151.374  1.00  0.00     0.039 C 
ATOM      6  C   UNL     1     139.486 133.490 149.889  1.00  0.00    -0.074 C 
ATOM      7  C   UNL     1     138.447 132.984 149.154  1.00  0.00    -0.065 C 
ATOM      8  C   UNL     1     140.797 133.875 149.239  1.00  0.00     0.031 C 
ATOM      9  C   UNL     1     137.182 132.451 149.813  1.00  0.00     0.038 C 
ATOM     10  C   UNL     1     138.507 132.861 147.619  1.00  0.00    -0.011 C 
ATOM     11  C   UNL     1     141.038 133.082 147.962  1.00  0.00     0.005 C 
ATOM     12  C   UNL     1     138.272 131.376 147.245  1.00  0.00     0.011 C 
ATOM     13  C   UNL     1     139.872 133.320 147.014  1.00  0.00     0.011 C 
ATOM     14  C   UNL     1     137.410 133.748 146.980  1.00  0.00     0.016 C 
ATOM     15  C   UNL     1     137.014 130.755 147.889  1.00  0.00     0.008 C 
ENDBRANCH   1   4
BRANCH   1  16
ATOM     16  O   UNL     1     138.269 130.539 151.381  1.00  0.00    -0.390 OA
ATOM     17  H   UNL     1     139.115 130.916 151.027  1.00  0.00     0.211 HD
ENDBRANCH   1  16
TORSDOF 2
ENDMDL
