MODEL 1
REMARK VINA RESULT:    -3.390      0.000      0.000
REMARK INTER + INTRA:          -5.313
REMARK INTER:                  -5.173
REMARK INTRA:                  -0.140
REMARK UNBOUND:                -0.140
REMARK SMILES CC1=CCC[C@@H](C)C(=O)C[C@@H](C(C)C)C(=O)C1
REMARK SMILES IDX 8 1 9 2 6 3 7 4 5 5 4 6 3 7 2 8 1 9 10 11 11 12 15 13 16 14
REMARK SMILES IDX 17 15 12 17 13 18 14 19
REMARK H PARENT
REMARK Flexibility Score: 70.00
ROOT
ATOM      1  C   UNL     1      20.930  27.103  43.338  1.00  0.00     0.136 C 
ATOM      2  O   UNL     1      20.999  25.999  43.853  1.00  0.00    -0.299 OA
ENDROOT
BRANCH   1   3
ATOM      3  C   UNL     1      22.064  27.552  42.432  1.00  0.00     0.053 C 
ATOM      4  C   UNL     1      23.408  27.209  43.093  1.00  0.00     0.016 C 
BRANCH   3   5
ATOM      5  C   UNL     1      21.965  29.077  42.134  1.00  0.00     0.015 C 
BRANCH   5   6
ATOM      6  C   UNL     1      21.410  29.479  40.743  1.00  0.00     0.028 C 
BRANCH   6   7
ATOM      7  C   UNL     1      21.337  28.389  39.699  1.00  0.00    -0.028 C 
ATOM      8  C   UNL     1      20.232  27.679  39.381  1.00  0.00    -0.070 CG0
ATOM      9  C   UNL     1      20.323  26.745  38.197  1.00  0.00     0.039 C 
ATOM     10  G   UNL     1      18.901  27.891  40.079  1.00  0.00     0.000 G0
ENDBRANCH   6   7
ENDBRANCH   5   6
ENDBRANCH   3   5
ENDBRANCH   1   3
BRANCH   1  11
ATOM     11  C   UNL     1      19.658  27.913  43.471  1.00  0.00     0.087 C 
BRANCH  11  12
ATOM     12  C   UNL     1      18.398  27.449  42.671  1.00  0.00     0.066 C 
BRANCH  12  13
ATOM     13  C   UNL     1      18.651  26.972  41.247  1.00  0.00     0.140 C 
ATOM     14  O   UNL     1      18.652  25.768  41.035  1.00  0.00    -0.299 OA
BRANCH  13  15
ATOM     15  C   UNL     1      18.876  27.897  40.077  1.00  0.00     0.106 CG0
ATOM     16  G   UNL     1      20.217  27.657  39.407  1.00  0.00     0.000 G0
ENDBRANCH  13  15
ENDBRANCH  12  13
BRANCH  12  17
ATOM     17  C   UNL     1      17.099  28.319  42.762  1.00  0.00    -0.006 C 
ATOM     18  C   UNL     1      15.845  27.512  43.129  1.00  0.00     0.008 C 
ATOM     19  C   UNL     1      17.231  29.587  43.628  1.00  0.00     0.008 C 
ENDBRANCH  12  17
ENDBRANCH  11  12
ENDBRANCH   1  11
TORSDOF 1
ENDMDL
MODEL 2
REMARK VINA RESULT:    -3.260      2.173      4.195
REMARK INTER + INTRA:          -5.116
REMARK INTER:                  -5.180
REMARK INTRA:                   0.065
REMARK UNBOUND:                -0.140
REMARK SMILES CC1=CCC[C@@H](C)C(=O)C[C@@H](C(C)C)C(=O)C1
REMARK SMILES IDX 8 1 9 2 6 3 7 4 5 5 4 6 3 7 2 8 1 9 10 11 11 12 15 13 16 14
REMARK SMILES IDX 17 15 12 17 13 18 14 19
REMARK H PARENT
REMARK Flexibility Score: 70.00
ROOT
ATOM      1  C   UNL     1      20.490  26.437  39.721  1.00  0.00     0.136 C 
ATOM      2  O   UNL     1      19.501  27.013  39.296  1.00  0.00    -0.299 OA
ENDROOT
BRANCH   1   3
ATOM      3  C   UNL     1      21.794  26.576  38.955  1.00  0.00     0.053 C 
ATOM      4  C   UNL     1      21.590  26.088  37.512  1.00  0.00     0.016 C 
BRANCH   3   5
ATOM      5  C   UNL     1      22.935  25.779  39.654  1.00  0.00     0.015 C 
BRANCH   5   6
ATOM      6  C   UNL     1      24.077  26.613  40.290  1.00  0.00     0.028 C 
BRANCH   6   7
ATOM      7  C   UNL     1      23.676  27.886  40.999  1.00  0.00    -0.028 C 
ATOM      8  C   UNL     1      23.257  27.972  42.281  1.00  0.00    -0.070 CG0
ATOM      9  C   UNL     1      23.058  29.355  42.855  1.00  0.00     0.039 C 
ATOM     10  G   UNL     1      23.117  26.752  43.173  1.00  0.00     0.000 G0
ENDBRANCH   6   7
ENDBRANCH   5   6
ENDBRANCH   3   5
ENDBRANCH   1   3
BRANCH   1  11
ATOM     11  C   UNL     1      20.436  25.755  41.071  1.00  0.00     0.087 C 
BRANCH  11  12
ATOM     12  C   UNL     1      20.571  26.640  42.353  1.00  0.00     0.066 C 
BRANCH  12  13
ATOM     13  C   UNL     1      21.691  26.259  43.311  1.00  0.00     0.140 C 
ATOM     14  O   UNL     1      21.427  25.499  44.232  1.00  0.00    -0.299 OA
BRANCH  13  15
ATOM     15  C   UNL     1      23.113  26.745  43.180  1.00  0.00     0.106 CG0
ATOM     16  G   UNL     1      23.223  27.958  42.275  1.00  0.00     0.000 G0
ENDBRANCH  13  15
ENDBRANCH  12  13
BRANCH  12  17
ATOM     17  C   UNL     1      19.266  27.034  43.124  1.00  0.00    -0.006 C 
ATOM     18  C   UNL     1      19.278  28.475  43.653  1.00  0.00     0.008 C 
ATOM     19  C   UNL     1      17.954  26.714  42.380  1.00  0.00     0.008 C 
ENDBRANCH  12  17
ENDBRANCH  11  12
ENDBRANCH   1  11
TORSDOF 1
ENDMDL
MODEL 3
REMARK VINA RESULT:    -3.193      1.738      2.113
REMARK INTER + INTRA:          -5.014
REMARK INTER:                  -4.706
REMARK INTRA:                  -0.307
REMARK UNBOUND:                -0.140
REMARK SMILES CC1=CCC[C@@H](C)C(=O)C[C@@H](C(C)C)C(=O)C1
REMARK SMILES IDX 8 1 9 2 6 3 7 4 5 5 4 6 3 7 2 8 1 9 10 11 11 12 15 13 16 14
REMARK SMILES IDX 17 15 12 17 13 18 14 19
REMARK H PARENT
REMARK Flexibility Score: 70.00
ROOT
ATOM      1  C   UNL     1      21.426  27.956  42.662  1.00  0.00     0.136 C 
ATOM      2  O   UNL     1      22.381  28.401  43.277  1.00  0.00    -0.299 OA
ENDROOT
BRANCH   1   3
ATOM      3  C   UNL     1      21.315  26.451  42.487  1.00  0.00     0.053 C 
ATOM      4  C   UNL     1      21.958  25.751  43.695  1.00  0.00     0.016 C 
BRANCH   3   5
ATOM      5  C   UNL     1      21.988  25.996  41.159  1.00  0.00     0.015 C 
BRANCH   5   6
ATOM      6  C   UNL     1      21.054  25.807  39.936  1.00  0.00     0.028 C 
BRANCH   6   7
ATOM      7  C   UNL     1      21.240  26.766  38.783  1.00  0.00    -0.028 C 
ATOM      8  C   UNL     1      20.312  27.636  38.328  1.00  0.00    -0.070 CG0
ATOM      9  C   UNL     1      20.746  28.624  37.270  1.00  0.00     0.039 C 
ATOM     10  G   UNL     1      18.924  27.732  38.932  1.00  0.00     0.000 G0
ENDBRANCH   6   7
ENDBRANCH   5   6
ENDBRANCH   3   5
ENDBRANCH   1   3
BRANCH   1  11
ATOM     11  C   UNL     1      20.305  28.884  42.245  1.00  0.00     0.087 C 
BRANCH  11  12
ATOM     12  C   UNL     1      19.053  28.264  41.545  1.00  0.00     0.066 C 
BRANCH  12  13
ATOM     13  C   UNL     1      18.826  28.677  40.097  1.00  0.00     0.140 C 
ATOM     14  O   UNL     1      18.593  29.854  39.864  1.00  0.00    -0.299 OA
BRANCH  13  15
ATOM     15  C   UNL     1      18.896  27.725  38.929  1.00  0.00     0.106 CG0
ATOM     16  G   UNL     1      20.291  27.644  38.338  1.00  0.00     0.000 G0
ENDBRANCH  13  15
ENDBRANCH  12  13
BRANCH  12  17
ATOM     17  C   UNL     1      17.707  28.211  42.343  1.00  0.00    -0.006 C 
ATOM     18  C   UNL     1      17.421  26.839  42.971  1.00  0.00     0.008 C 
ATOM     19  C   UNL     1      17.514  29.352  43.362  1.00  0.00     0.008 C 
ENDBRANCH  12  17
ENDBRANCH  11  12
ENDBRANCH   1  11
TORSDOF 1
ENDMDL
MODEL 4
REMARK VINA RESULT:    -3.016      1.973      4.899
REMARK INTER + INTRA:          -4.744
REMARK INTER:                  -4.894
REMARK INTRA:                   0.151
REMARK UNBOUND:                -0.140
REMARK SMILES CC1=CCC[C@@H](C)C(=O)C[C@@H](C(C)C)C(=O)C1
REMARK SMILES IDX 8 1 9 2 6 3 7 4 5 5 4 6 3 7 2 8 1 9 10 11 11 12 15 13 16 14
REMARK SMILES IDX 17 15 12 17 13 18 14 19
REMARK H PARENT
REMARK Flexibility Score: 70.00
ROOT
ATOM      1  C   UNL     1      17.904  27.131  40.747  1.00  0.00     0.136 C 
ATOM      2  O   UNL     1      17.147  27.997  40.340  1.00  0.00    -0.299 OA
ENDROOT
BRANCH   1   3
ATOM      3  C   UNL     1      17.657  26.541  42.125  1.00  0.00     0.053 C 
ATOM      4  C   UNL     1      16.390  25.673  42.086  1.00  0.00     0.016 C 
BRANCH   3   5
ATOM      5  C   UNL     1      17.525  27.667  43.193  1.00  0.00     0.015 C 
BRANCH   5   6
ATOM      6  C   UNL     1      18.839  28.360  43.637  1.00  0.00     0.028 C 
BRANCH   6   7
ATOM      7  C   UNL     1      20.099  27.529  43.582  1.00  0.00    -0.028 C 
ATOM      8  C   UNL     1      21.151  27.751  42.764  1.00  0.00    -0.070 CG0
ATOM      9  C   UNL     1      22.385  26.905  42.973  1.00  0.00     0.039 C 
ATOM     10  G   UNL     1      21.173  28.888  41.759  1.00  0.00     0.000 G0
ENDBRANCH   6   7
ENDBRANCH   5   6
ENDBRANCH   3   5
ENDBRANCH   1   3
BRANCH   1  11
ATOM     11  C   UNL     1      18.948  26.552  39.815  1.00  0.00     0.087 C 
BRANCH  11  12
ATOM     12  C   UNL     1      20.423  27.051  39.956  1.00  0.00     0.066 C 
BRANCH  12  13
ATOM     13  C   UNL     1      20.598  28.495  40.406  1.00  0.00     0.140 C 
ATOM     14  O   UNL     1      20.247  29.383  39.643  1.00  0.00    -0.299 OA
BRANCH  13  15
ATOM     15  C   UNL     1      21.159  28.896  41.748  1.00  0.00     0.106 CG0
ATOM     16  G   UNL     1      21.142  27.749  42.741  1.00  0.00     0.000 G0
ENDBRANCH  13  15
ENDBRANCH  12  13
BRANCH  12  17
ATOM     17  C   UNL     1      21.444  26.673  38.830  1.00  0.00    -0.006 C 
ATOM     18  C   UNL     1      22.168  25.342  39.081  1.00  0.00     0.008 C 
ATOM     19  C   UNL     1      20.884  26.752  37.396  1.00  0.00     0.008 C 
ENDBRANCH  12  17
ENDBRANCH  11  12
ENDBRANCH   1  11
TORSDOF 1
ENDMDL
MODEL 5
REMARK VINA RESULT:    -3.012      1.933      3.991
REMARK INTER + INTRA:          -4.737
REMARK INTER:                  -4.478
REMARK INTRA:                  -0.259
REMARK UNBOUND:                -0.140
REMARK SMILES CC1=CCC[C@@H](C)C(=O)C[C@@H](C(C)C)C(=O)C1
REMARK SMILES IDX 8 1 9 2 6 3 7 4 5 5 4 6 3 7 2 8 1 9 10 11 11 12 15 13 16 14
REMARK SMILES IDX 17 15 12 17 13 18 14 19
REMARK H PARENT
REMARK Flexibility Score: 70.00
ROOT
ATOM      1  C   UNL     1      20.861  26.636  41.255  1.00  0.00     0.136 C 
ATOM      2  O   UNL     1      21.554  25.752  41.731  1.00  0.00    -0.299 OA
ENDROOT
BRANCH   1   3
ATOM      3  C   UNL     1      21.275  28.080  41.481  1.00  0.00     0.053 C 
ATOM      4  C   UNL     1      22.716  28.279  40.984  1.00  0.00     0.016 C 
BRANCH   3   5
ATOM      5  C   UNL     1      21.150  28.464  42.984  1.00  0.00     0.015 C 
BRANCH   5   6
ATOM      6  C   UNL     1      20.006  27.785  43.782  1.00  0.00     0.028 C 
BRANCH   6   7
ATOM      7  C   UNL     1      18.701  28.539  43.874  1.00  0.00    -0.028 C 
ATOM      8  C   UNL     1      17.537  28.167  43.297  1.00  0.00    -0.070 CG0
ATOM      9  C   UNL     1      16.303  28.969  43.641  1.00  0.00     0.039 C 
ATOM     10  G   UNL     1      17.416  26.919  42.442  1.00  0.00     0.000 G0
ENDBRANCH   6   7
ENDBRANCH   5   6
ENDBRANCH   3   5
ENDBRANCH   1   3
BRANCH   1  11
ATOM     11  C   UNL     1      19.725  26.277  40.323  1.00  0.00     0.087 C 
BRANCH  11  12
ATOM     12  C   UNL     1      18.608  27.342  40.073  1.00  0.00     0.066 C 
BRANCH  12  13
ATOM     13  C   UNL     1      17.373  27.232  40.956  1.00  0.00     0.140 C 
ATOM     14  O   UNL     1      16.278  27.405  40.440  1.00  0.00    -0.299 OA
BRANCH  13  15
ATOM     15  C   UNL     1      17.416  26.901  42.427  1.00  0.00     0.106 CG0
ATOM     16  G   UNL     1      17.543  28.143  43.290  1.00  0.00     0.000 G0
ENDBRANCH  13  15
ENDBRANCH  12  13
BRANCH  12  17
ATOM     17  C   UNL     1      18.226  27.682  38.593  1.00  0.00    -0.006 C 
ATOM     18  C   UNL     1      18.657  29.090  38.157  1.00  0.00     0.008 C 
ATOM     19  C   UNL     1      18.638  26.617  37.557  1.00  0.00     0.008 C 
ENDBRANCH  12  17
ENDBRANCH  11  12
ENDBRANCH   1  11
TORSDOF 1
ENDMDL
MODEL 6
REMARK VINA RESULT:    -2.997      1.762      3.852
REMARK INTER + INTRA:          -4.715
REMARK INTER:                  -4.440
REMARK INTRA:                  -0.275
REMARK UNBOUND:                -0.140
REMARK SMILES CC1=CCC[C@@H](C)C(=O)C[C@@H](C(C)C)C(=O)C1
REMARK SMILES IDX 8 1 9 2 6 3 7 4 5 5 4 6 3 7 2 8 1 9 10 11 11 12 15 13 16 14
REMARK SMILES IDX 17 15 12 17 13 18 14 19
REMARK H PARENT
REMARK Flexibility Score: 70.00
ROOT
ATOM      1  C   UNL     1      18.660  26.771  39.337  1.00  0.00     0.136 C 
ATOM      2  O   UNL     1      18.077  26.256  38.397  1.00  0.00    -0.299 OA
ENDROOT
BRANCH   1   3
ATOM      3  C   UNL     1      19.244  28.161  39.155  1.00  0.00     0.053 C 
ATOM      4  C   UNL     1      18.285  29.007  38.303  1.00  0.00     0.016 C 
BRANCH   3   5
ATOM      5  C   UNL     1      20.653  28.087  38.495  1.00  0.00     0.015 C 
BRANCH   5   6
ATOM      6  C   UNL     1      21.639  27.042  39.078  1.00  0.00     0.028 C 
BRANCH   6   7
ATOM      7  C   UNL     1      22.528  27.502  40.210  1.00  0.00    -0.028 C 
ATOM      8  C   UNL     1      22.490  27.036  41.478  1.00  0.00    -0.070 CG0
ATOM      9  C   UNL     1      23.570  27.507  42.423  1.00  0.00     0.039 C 
ATOM     10  G   UNL     1      21.499  25.977  41.924  1.00  0.00     0.000 G0
ENDBRANCH   6   7
ENDBRANCH   5   6
ENDBRANCH   3   5
ENDBRANCH   1   3
BRANCH   1  11
ATOM     11  C   UNL     1      18.634  26.096  40.692  1.00  0.00     0.087 C 
BRANCH  11  12
ATOM     12  C   UNL     1      19.010  26.947  41.949  1.00  0.00     0.066 C 
BRANCH  12  13
ATOM     13  C   UNL     1      20.309  26.567  42.647  1.00  0.00     0.140 C 
ATOM     14  O   UNL     1      20.385  26.740  43.855  1.00  0.00    -0.299 OA
BRANCH  13  15
ATOM     15  C   UNL     1      21.500  25.969  41.941  1.00  0.00     0.106 CG0
ATOM     16  G   UNL     1      22.484  27.028  41.479  1.00  0.00     0.000 G0
ENDBRANCH  13  15
ENDBRANCH  12  13
BRANCH  12  17
ATOM     17  C   UNL     1      17.881  27.283  42.981  1.00  0.00    -0.006 C 
ATOM     18  C   UNL     1      17.770  28.781  43.302  1.00  0.00     0.008 C 
ATOM     19  C   UNL     1      16.505  26.669  42.657  1.00  0.00     0.008 C 
ENDBRANCH  12  17
ENDBRANCH  11  12
ENDBRANCH   1  11
TORSDOF 1
ENDMDL
MODEL 7
REMARK VINA RESULT:    -2.880      1.658      4.331
REMARK INTER + INTRA:          -4.535
REMARK INTER:                  -5.033
REMARK INTRA:                   0.498
REMARK UNBOUND:                -0.140
REMARK SMILES CC1=CCC[C@@H](C)C(=O)C[C@@H](C(C)C)C(=O)C1
REMARK SMILES IDX 8 1 9 2 6 3 7 4 5 5 4 6 3 7 2 8 1 9 10 11 11 12 15 13 16 14
REMARK SMILES IDX 17 15 12 17 13 18 14 19
REMARK H PARENT
REMARK Flexibility Score: 70.00
ROOT
ATOM      1  C   UNL     1      19.776  28.393  43.568  1.00  0.00     0.136 C 
ATOM      2  O   UNL     1      19.459  28.434  44.746  1.00  0.00    -0.299 OA
ENDROOT
BRANCH   1   3
ATOM      3  C   UNL     1      18.676  28.301  42.525  1.00  0.00     0.053 C 
ATOM      4  C   UNL     1      17.715  29.488  42.694  1.00  0.00     0.016 C 
BRANCH   3   5
ATOM      5  C   UNL     1      17.913  26.948  42.641  1.00  0.00     0.015 C 
BRANCH   5   6
ATOM      6  C   UNL     1      18.012  25.989  41.428  1.00  0.00     0.028 C 
BRANCH   6   7
ATOM      7  C   UNL     1      18.859  26.447  40.264  1.00  0.00    -0.028 C 
ATOM      8  C   UNL     1      20.170  26.167  40.089  1.00  0.00    -0.070 CG0
ATOM      9  C   UNL     1      20.799  26.581  38.779  1.00  0.00     0.039 C 
ATOM     10  G   UNL     1      20.966  25.350  41.089  1.00  0.00     0.000 G0
ENDBRANCH   6   7
ENDBRANCH   5   6
ENDBRANCH   3   5
ENDBRANCH   1   3
BRANCH   1  11
ATOM     11  C   UNL     1      21.222  28.606  43.175  1.00  0.00     0.087 C 
BRANCH  11  12
ATOM     12  C   UNL     1      21.838  27.670  42.085  1.00  0.00     0.066 C 
BRANCH  12  13
ATOM     13  C   UNL     1      21.500  26.191  42.208  1.00  0.00     0.140 C 
ATOM     14  O   UNL     1      21.639  25.657  43.299  1.00  0.00    -0.299 OA
BRANCH  13  15
ATOM     15  C   UNL     1      20.980  25.349  41.070  1.00  0.00     0.106 CG0
ATOM     16  G   UNL     1      20.173  26.164  40.077  1.00  0.00     0.000 G0
ENDBRANCH  13  15
ENDBRANCH  12  13
BRANCH  12  17
ATOM     17  C   UNL     1      23.338  27.884  41.686  1.00  0.00    -0.006 C 
ATOM     18  C   UNL     1      24.332  27.298  42.700  1.00  0.00     0.008 C 
ATOM     19  C   UNL     1      23.688  27.468  40.243  1.00  0.00     0.008 C 
ENDBRANCH  12  17
ENDBRANCH  11  12
ENDBRANCH   1  11
TORSDOF 1
ENDMDL
MODEL 8
REMARK VINA RESULT:    -2.879      2.039      4.149
REMARK INTER + INTRA:          -4.534
REMARK INTER:                  -4.336
REMARK INTRA:                  -0.198
REMARK UNBOUND:                -0.140
REMARK SMILES CC1=CCC[C@@H](C)C(=O)C[C@@H](C(C)C)C(=O)C1
REMARK SMILES IDX 8 1 9 2 6 3 7 4 5 5 4 6 3 7 2 8 1 9 10 11 11 12 15 13 16 14
REMARK SMILES IDX 17 15 12 17 13 18 14 19
REMARK H PARENT
REMARK Flexibility Score: 70.00
ROOT
ATOM      1  C   UNL     1      20.085  26.558  42.548  1.00  0.00     0.136 C 
ATOM      2  O   UNL     1      21.109  26.686  43.199  1.00  0.00    -0.299 OA
ENDROOT
BRANCH   1   3
ATOM      3  C   UNL     1      18.871  27.383  42.940  1.00  0.00     0.053 C 
ATOM      4  C   UNL     1      17.596  26.667  42.467  1.00  0.00     0.016 C 
BRANCH   3   5
ATOM      5  C   UNL     1      18.958  28.816  42.339  1.00  0.00     0.015 C 
BRANCH   5   6
ATOM      6  C   UNL     1      17.818  29.236  41.375  1.00  0.00     0.028 C 
BRANCH   6   7
ATOM      7  C   UNL     1      18.227  29.676  39.989  1.00  0.00    -0.028 C 
ATOM      8  C   UNL     1      18.494  28.853  38.950  1.00  0.00    -0.070 CG0
ATOM      9  C   UNL     1      18.728  29.491  37.601  1.00  0.00     0.039 C 
ATOM     10  G   UNL     1      18.430  27.342  39.074  1.00  0.00     0.000 G0
ENDBRANCH   6   7
ENDBRANCH   5   6
ENDBRANCH   3   5
ENDBRANCH   1   3
BRANCH   1  11
ATOM     11  C   UNL     1      20.101  25.727  41.283  1.00  0.00     0.087 C 
BRANCH  11  12
ATOM     12  C   UNL     1      20.740  26.347  39.999  1.00  0.00     0.066 C 
BRANCH  12  13
ATOM     13  C   UNL     1      19.777  26.677  38.867  1.00  0.00     0.140 C 
ATOM     14  O   UNL     1      20.106  26.384  37.727  1.00  0.00    -0.299 OA
BRANCH  13  15
ATOM     15  C   UNL     1      18.429  27.324  39.070  1.00  0.00     0.106 CG0
ATOM     16  G   UNL     1      18.497  28.836  38.960  1.00  0.00     0.000 G0
ENDBRANCH  13  15
ENDBRANCH  12  13
BRANCH  12  17
ATOM     17  C   UNL     1      22.069  25.721  39.456  1.00  0.00    -0.006 C 
ATOM     18  C   UNL     1      23.304  26.602  39.697  1.00  0.00     0.008 C 
ATOM     19  C   UNL     1      22.321  24.263  39.887  1.00  0.00     0.008 C 
ENDBRANCH  12  17
ENDBRANCH  11  12
ENDBRANCH   1  11
TORSDOF 1
ENDMDL
MODEL 9
REMARK VINA RESULT:    -2.849      1.754      4.000
REMARK INTER + INTRA:          -4.488
REMARK INTER:                  -4.230
REMARK INTRA:                  -0.258
REMARK UNBOUND:                -0.140
REMARK SMILES CC1=CCC[C@@H](C)C(=O)C[C@@H](C(C)C)C(=O)C1
REMARK SMILES IDX 8 1 9 2 6 3 7 4 5 5 4 6 3 7 2 8 1 9 10 11 11 12 15 13 16 14
REMARK SMILES IDX 17 15 12 17 13 18 14 19
REMARK H PARENT
REMARK Flexibility Score: 70.00
ROOT
ATOM      1  C   UNL     1      18.010  27.643  43.148  1.00  0.00     0.136 C 
ATOM      2  O   UNL     1      18.502  28.334  44.025  1.00  0.00    -0.299 OA
ENDROOT
BRANCH   1   3
ATOM      3  C   UNL     1      16.601  27.962  42.678  1.00  0.00     0.053 C 
ATOM      4  C   UNL     1      15.833  26.651  42.451  1.00  0.00     0.016 C 
BRANCH   3   5
ATOM      5  C   UNL     1      16.632  28.820  41.379  1.00  0.00     0.015 C 
BRANCH   5   6
ATOM      6  C   UNL     1      16.540  28.050  40.036  1.00  0.00     0.028 C 
BRANCH   6   7
ATOM      7  C   UNL     1      17.526  28.440  38.959  1.00  0.00    -0.028 C 
ATOM      8  C   UNL     1      18.598  27.712  38.575  1.00  0.00    -0.070 CG0
ATOM      9  C   UNL     1      19.370  28.196  37.370  1.00  0.00     0.039 C 
ATOM     10  G   UNL     1      18.954  26.387  39.223  1.00  0.00     0.000 G0
ENDBRANCH   6   7
ENDBRANCH   5   6
ENDBRANCH   3   5
ENDBRANCH   1   3
BRANCH   1  11
ATOM     11  C   UNL     1      18.865  26.614  42.439  1.00  0.00     0.087 C 
BRANCH  11  12
ATOM     12  C   UNL     1      20.045  27.120  41.547  1.00  0.00     0.066 C 
BRANCH  12  13
ATOM     13  C   UNL     1      20.136  26.513  40.154  1.00  0.00     0.140 C 
ATOM     14  O   UNL     1      21.222  26.093  39.779  1.00  0.00    -0.299 OA
BRANCH  13  15
ATOM     15  C   UNL     1      18.962  26.375  39.217  1.00  0.00     0.106 CG0
ATOM     16  G   UNL     1      18.589  27.695  38.569  1.00  0.00     0.000 G0
ENDBRANCH  13  15
ENDBRANCH  12  13
BRANCH  12  17
ATOM     17  C   UNL     1      21.460  27.267  42.202  1.00  0.00    -0.006 C 
ATOM     18  C   UNL     1      21.806  28.711  42.595  1.00  0.00     0.008 C 
ATOM     19  C   UNL     1      21.745  26.283  43.354  1.00  0.00     0.008 C 
ENDBRANCH  12  17
ENDBRANCH  11  12
ENDBRANCH   1  11
TORSDOF 1
ENDMDL
