MODEL 1
REMARK VINA RESULT:    -7.847      0.000      0.000
REMARK INTER + INTRA:          -9.772
REMARK INTER:                  -9.453
REMARK INTRA:                  -0.319
REMARK UNBOUND:                -0.319
REMARK SMILES O=c1c(O)c(-c2ccc(O)c(O)c2)oc2cc(O)cc(O)c12
REMARK SMILES IDX 5 1 3 2 2 3 1 4 22 5 20 6 19 7 17 8 16 9 15 10 14 11 6 12
REMARK SMILES IDX 7 13 8 14 9 15 13 16 11 17 10 18 12 20 4 22 21 24 18 26
REMARK H PARENT 10 19 12 21 4 23 21 25 18 27
REMARK Flexibility Score: inf
ROOT
ATOM      1  C   UNL     1     -19.571   6.130 -15.303  1.00  0.00     0.180 A 
ATOM      2  C   UNL     1     -19.881   6.435 -16.639  1.00  0.00     0.208 A 
ATOM      3  C   UNL     1     -19.219   5.745 -17.667  1.00  0.00     0.238 A 
ATOM      4  O   UNL     1     -19.462   6.061 -18.861  1.00  0.00    -0.285 OA
ATOM      5  C   UNL     1     -18.269   4.746 -17.347  1.00  0.00     0.111 A 
ATOM      6  C   UNL     1     -17.568   3.956 -18.308  1.00  0.00     0.134 A 
ATOM      7  C   UNL     1     -16.554   3.089 -17.881  1.00  0.00     0.093 A 
ATOM      8  C   UNL     1     -16.261   2.935 -16.525  1.00  0.00     0.123 A 
ATOM      9  C   UNL     1     -16.980   3.658 -15.576  1.00  0.00     0.094 A 
ATOM     10  C   UNL     1     -17.972   4.558 -15.972  1.00  0.00     0.146 A 
ATOM     11  O   UNL     1     -18.626   5.235 -15.035  1.00  0.00    -0.452 OA
ENDROOT
BRANCH   1  12
ATOM     12  C   UNL     1     -20.243   6.797 -14.165  1.00  0.00     0.025 A 
ATOM     13  C   UNL     1     -21.354   6.216 -13.530  1.00  0.00     0.016 A 
ATOM     14  C   UNL     1     -21.958   6.853 -12.442  1.00  0.00     0.051 A 
ATOM     15  C   UNL     1     -21.453   8.068 -11.963  1.00  0.00     0.157 A 
ATOM     16  C   UNL     1     -19.727   8.006 -13.669  1.00  0.00     0.062 A 
ATOM     17  C   UNL     1     -20.329   8.645 -12.579  1.00  0.00     0.158 A 
BRANCH  15  18
ATOM     18  O   UNL     1     -22.058   8.702 -10.879  1.00  0.00    -0.504 OA
ATOM     19  H   UNL     1     -22.703   9.474 -11.008  1.00  0.00     0.293 HD
ENDBRANCH  15  18
BRANCH  17  20
ATOM     20  O   UNL     1     -19.797   9.851 -12.124  1.00  0.00    -0.504 OA
ATOM     21  H   UNL     1     -19.172   9.897 -11.328  1.00  0.00     0.293 HD
ENDBRANCH  17  20
ENDBRANCH   1  12
BRANCH   2  22
ATOM     22  O   UNL     1     -20.807   7.440 -16.933  1.00  0.00    -0.502 OA
ATOM     23  H   UNL     1     -21.239   7.531 -17.844  1.00  0.00     0.293 HD
ENDBRANCH   2  22
BRANCH   6  24
ATOM     24  O   UNL     1     -17.847   3.966 -19.678  1.00  0.00    -0.507 OA
ATOM     25  H   UNL     1     -17.922   3.142 -20.255  1.00  0.00     0.293 HD
ENDBRANCH   6  24
BRANCH   8  26
ATOM     26  O   UNL     1     -15.262   2.059 -16.108  1.00  0.00    -0.508 OA
ATOM     27  H   UNL     1     -14.768   1.467 -16.766  1.00  0.00     0.293 HD
ENDBRANCH   8  26
TORSDOF 6
ENDMDL
MODEL 2
REMARK VINA RESULT:    -6.603      2.467      2.596
REMARK INTER + INTRA:          -8.274
REMARK INTER:                  -8.630
REMARK INTRA:                   0.356
REMARK UNBOUND:                -0.319
REMARK SMILES O=c1c(O)c(-c2ccc(O)c(O)c2)oc2cc(O)cc(O)c12
REMARK SMILES IDX 5 1 3 2 2 3 1 4 22 5 20 6 19 7 17 8 16 9 15 10 14 11 6 12
REMARK SMILES IDX 7 13 8 14 9 15 13 16 11 17 10 18 12 20 4 22 21 24 18 26
REMARK H PARENT 10 19 12 21 4 23 21 25 18 27
REMARK Flexibility Score: inf
ROOT
ATOM      1  C   UNL     1     -20.456   6.492 -14.637  1.00  0.00     0.180 A 
ATOM      2  C   UNL     1     -19.827   7.187 -15.683  1.00  0.00     0.208 A 
ATOM      3  C   UNL     1     -19.671   6.552 -16.925  1.00  0.00     0.238 A 
ATOM      4  O   UNL     1     -19.058   7.159 -17.842  1.00  0.00    -0.285 OA
ATOM      5  C   UNL     1     -20.161   5.237 -17.111  1.00  0.00     0.111 A 
ATOM      6  C   UNL     1     -20.093   4.512 -18.339  1.00  0.00     0.134 A 
ATOM      7  C   UNL     1     -20.492   3.170 -18.371  1.00  0.00     0.093 A 
ATOM      8  C   UNL     1     -21.016   2.546 -17.237  1.00  0.00     0.123 A 
ATOM      9  C   UNL     1     -21.141   3.263 -16.050  1.00  0.00     0.094 A 
ATOM     10  C   UNL     1     -20.719   4.593 -15.976  1.00  0.00     0.146 A 
ATOM     11  O   UNL     1     -20.846   5.236 -14.821  1.00  0.00    -0.452 OA
ENDROOT
BRANCH   1  12
ATOM     12  C   UNL     1     -20.679   7.104 -13.307  1.00  0.00     0.025 A 
ATOM     13  C   UNL     1     -21.732   6.683 -12.476  1.00  0.00     0.016 A 
ATOM     14  C   UNL     1     -21.909   7.257 -11.214  1.00  0.00     0.051 A 
ATOM     15  C   UNL     1     -21.029   8.248 -10.758  1.00  0.00     0.157 A 
ATOM     16  C   UNL     1     -19.788   8.082 -12.837  1.00  0.00     0.062 A 
ATOM     17  C   UNL     1     -19.961   8.659 -11.574  1.00  0.00     0.158 A 
BRANCH  15  18
ATOM     18  O   UNL     1     -21.209   8.820  -9.500  1.00  0.00    -0.504 OA
ATOM     19  H   UNL     1     -22.131   8.918  -9.088  1.00  0.00     0.293 HD
ENDBRANCH  15  18
BRANCH  17  20
ATOM     20  O   UNL     1     -19.065   9.638 -11.147  1.00  0.00    -0.504 OA
ATOM     21  H   UNL     1     -18.212   9.845 -11.654  1.00  0.00     0.293 HD
ENDBRANCH  17  20
ENDBRANCH   1  12
BRANCH   2  22
ATOM     22  O   UNL     1     -19.331   8.477 -15.473  1.00  0.00    -0.502 OA
ATOM     23  H   UNL     1     -18.923   9.030 -16.216  1.00  0.00     0.293 HD
ENDBRANCH   2  22
BRANCH   6  24
ATOM     24  O   UNL     1     -19.672   5.068 -19.551  1.00  0.00    -0.507 OA
ATOM     25  H   UNL     1     -18.749   5.435 -19.726  1.00  0.00     0.293 HD
ENDBRANCH   6  24
BRANCH   8  26
ATOM     26  O   UNL     1     -21.424   1.216 -17.282  1.00  0.00    -0.508 OA
ATOM     27  H   UNL     1     -20.833   0.468 -16.937  1.00  0.00     0.293 HD
ENDBRANCH   8  26
TORSDOF 6
ENDMDL
MODEL 3
REMARK VINA RESULT:    -6.415      1.931      7.028
REMARK INTER + INTRA:          -8.047
REMARK INTER:                  -7.716
REMARK INTRA:                  -0.331
REMARK UNBOUND:                -0.319
REMARK SMILES O=c1c(O)c(-c2ccc(O)c(O)c2)oc2cc(O)cc(O)c12
REMARK SMILES IDX 5 1 3 2 2 3 1 4 22 5 20 6 19 7 17 8 16 9 15 10 14 11 6 12
REMARK SMILES IDX 7 13 8 14 9 15 13 16 11 17 10 18 12 20 4 22 21 24 18 26
REMARK H PARENT 10 19 12 21 4 23 21 25 18 27
REMARK Flexibility Score: inf
ROOT
ATOM      1  C   UNL     1     -18.209   4.280 -16.235  1.00  0.00     0.180 A 
ATOM      2  C   UNL     1     -19.594   4.155 -16.436  1.00  0.00     0.208 A 
ATOM      3  C   UNL     1     -20.469   4.895 -15.625  1.00  0.00     0.238 A 
ATOM      4  O   UNL     1     -21.710   4.737 -15.774  1.00  0.00    -0.285 OA
ATOM      5  C   UNL     1     -19.950   5.763 -14.636  1.00  0.00     0.111 A 
ATOM      6  C   UNL     1     -20.743   6.591 -13.785  1.00  0.00     0.134 A 
ATOM      7  C   UNL     1     -20.128   7.312 -12.754  1.00  0.00     0.093 A 
ATOM      8  C   UNL     1     -18.742   7.287 -12.584  1.00  0.00     0.123 A 
ATOM      9  C   UNL     1     -17.954   6.529 -13.447  1.00  0.00     0.094 A 
ATOM     10  C   UNL     1     -18.541   5.770 -14.462  1.00  0.00     0.146 A 
ATOM     11  O   UNL     1     -17.753   5.052 -15.255  1.00  0.00    -0.452 OA
ENDROOT
BRANCH   1  12
ATOM     12  C   UNL     1     -17.223   3.552 -17.065  1.00  0.00     0.025 A 
ATOM     13  C   UNL     1     -16.702   4.114 -18.244  1.00  0.00     0.016 A 
ATOM     14  C   UNL     1     -15.754   3.417 -18.999  1.00  0.00     0.051 A 
ATOM     15  C   UNL     1     -15.301   2.159 -18.581  1.00  0.00     0.157 A 
ATOM     16  C   UNL     1     -16.751   2.299 -16.639  1.00  0.00     0.062 A 
ATOM     17  C   UNL     1     -15.801   1.600 -17.393  1.00  0.00     0.158 A 
BRANCH  15  18
ATOM     18  O   UNL     1     -14.357   1.467 -19.337  1.00  0.00    -0.504 OA
ATOM     19  H   UNL     1     -14.022   1.825 -20.225  1.00  0.00     0.293 HD
ENDBRANCH  15  18
BRANCH  17  20
ATOM     20  O   UNL     1     -15.367   0.353 -16.945  1.00  0.00    -0.504 OA
ATOM     21  H   UNL     1     -16.011  -0.354 -16.612  1.00  0.00     0.293 HD
ENDBRANCH  17  20
ENDBRANCH   1  12
BRANCH   2  22
ATOM     22  O   UNL     1     -20.087   3.275 -17.404  1.00  0.00    -0.502 OA
ATOM     23  H   UNL     1     -20.771   3.556 -18.095  1.00  0.00     0.293 HD
ENDBRANCH   2  22
BRANCH   6  24
ATOM     24  O   UNL     1     -22.123   6.760 -13.928  1.00  0.00    -0.507 OA
ATOM     25  H   UNL     1     -22.568   7.599 -14.268  1.00  0.00     0.293 HD
ENDBRANCH   6  24
BRANCH   8  26
ATOM     26  O   UNL     1     -18.137   8.019 -11.566  1.00  0.00    -0.508 OA
ATOM     27  H   UNL     1     -18.258   9.023 -11.492  1.00  0.00     0.293 HD
ENDBRANCH   8  26
TORSDOF 6
ENDMDL
MODEL 4
REMARK VINA RESULT:    -6.246      3.148      8.289
REMARK INTER + INTRA:          -7.843
REMARK INTER:                  -7.594
REMARK INTRA:                  -0.249
REMARK UNBOUND:                -0.319
REMARK SMILES O=c1c(O)c(-c2ccc(O)c(O)c2)oc2cc(O)cc(O)c12
REMARK SMILES IDX 5 1 3 2 2 3 1 4 22 5 20 6 19 7 17 8 16 9 15 10 14 11 6 12
REMARK SMILES IDX 7 13 8 14 9 15 13 16 11 17 10 18 12 20 4 22 21 24 18 26
REMARK H PARENT 10 19 12 21 4 23 21 25 18 27
REMARK Flexibility Score: inf
ROOT
ATOM      1  C   UNL     1     -15.756   2.614 -17.148  1.00  0.00     0.180 A 
ATOM      2  C   UNL     1     -15.873   3.124 -15.844  1.00  0.00     0.208 A 
ATOM      3  C   UNL     1     -16.966   3.948 -15.530  1.00  0.00     0.238 A 
ATOM      4  O   UNL     1     -17.036   4.446 -14.375  1.00  0.00    -0.285 OA
ATOM      5  C   UNL     1     -17.936   4.238 -16.518  1.00  0.00     0.111 A 
ATOM      6  C   UNL     1     -19.105   5.029 -16.301  1.00  0.00     0.134 A 
ATOM      7  C   UNL     1     -19.927   5.359 -17.385  1.00  0.00     0.093 A 
ATOM      8  C   UNL     1     -19.660   4.873 -18.666  1.00  0.00     0.123 A 
ATOM      9  C   UNL     1     -18.555   4.052 -18.878  1.00  0.00     0.094 A 
ATOM     10  C   UNL     1     -17.695   3.734 -17.824  1.00  0.00     0.146 A 
ATOM     11  O   UNL     1     -16.647   2.958 -18.071  1.00  0.00    -0.452 OA
ENDROOT
BRANCH   1  12
ATOM     12  C   UNL     1     -14.646   1.719 -17.547  1.00  0.00     0.025 A 
ATOM     13  C   UNL     1     -14.571   0.394 -17.083  1.00  0.00     0.016 A 
ATOM     14  C   UNL     1     -13.527  -0.439 -17.492  1.00  0.00     0.051 A 
ATOM     15  C   UNL     1     -12.553   0.031 -18.382  1.00  0.00     0.157 A 
ATOM     16  C   UNL     1     -13.679   2.180 -18.456  1.00  0.00     0.062 A 
ATOM     17  C   UNL     1     -12.633   1.347 -18.868  1.00  0.00     0.158 A 
BRANCH  15  18
ATOM     18  O   UNL     1     -11.512  -0.802 -18.788  1.00  0.00    -0.504 OA
ATOM     19  H   UNL     1     -11.688  -1.663 -19.295  1.00  0.00     0.293 HD
ENDBRANCH  15  18
BRANCH  17  20
ATOM     20  O   UNL     1     -11.683   1.844 -19.760  1.00  0.00    -0.504 OA
ATOM     21  H   UNL     1     -10.825   2.280 -19.445  1.00  0.00     0.293 HD
ENDBRANCH  17  20
ENDBRANCH   1  12
BRANCH   2  22
ATOM     22  O   UNL     1     -14.892   2.843 -14.888  1.00  0.00    -0.502 OA
ATOM     23  H   UNL     1     -14.647   1.897 -14.623  1.00  0.00     0.293 HD
ENDBRANCH   2  22
BRANCH   6  24
ATOM     24  O   UNL     1     -19.513   5.487 -15.044  1.00  0.00    -0.507 OA
ATOM     25  H   UNL     1     -19.823   6.426 -14.847  1.00  0.00     0.293 HD
ENDBRANCH   6  24
BRANCH   8  26
ATOM     26  O   UNL     1     -20.492   5.193 -19.736  1.00  0.00    -0.508 OA
ATOM     27  H   UNL     1     -20.768   6.150 -19.925  1.00  0.00     0.293 HD
ENDBRANCH   8  26
TORSDOF 6
ENDMDL
MODEL 5
REMARK VINA RESULT:    -6.039      1.764      7.020
REMARK INTER + INTRA:          -7.594
REMARK INTER:                  -7.360
REMARK INTRA:                  -0.234
REMARK UNBOUND:                -0.319
REMARK SMILES O=c1c(O)c(-c2ccc(O)c(O)c2)oc2cc(O)cc(O)c12
REMARK SMILES IDX 5 1 3 2 2 3 1 4 22 5 20 6 19 7 17 8 16 9 15 10 14 11 6 12
REMARK SMILES IDX 7 13 8 14 9 15 13 16 11 17 10 18 12 20 4 22 21 24 18 26
REMARK H PARENT 10 19 12 21 4 23 21 25 18 27
REMARK Flexibility Score: inf
ROOT
ATOM      1  C   UNL     1     -17.443   3.952 -17.070  1.00  0.00     0.180 A 
ATOM      2  C   UNL     1     -18.175   4.454 -18.159  1.00  0.00     0.208 A 
ATOM      3  C   UNL     1     -19.075   5.511 -17.945  1.00  0.00     0.238 A 
ATOM      4  O   UNL     1     -19.768   5.920 -18.914  1.00  0.00    -0.285 OA
ATOM      5  C   UNL     1     -19.220   6.062 -16.650  1.00  0.00     0.111 A 
ATOM      6  C   UNL     1     -20.073   7.161 -16.326  1.00  0.00     0.134 A 
ATOM      7  C   UNL     1     -20.234   7.538 -14.987  1.00  0.00     0.093 A 
ATOM      8  C   UNL     1     -19.526   6.899 -13.968  1.00  0.00     0.123 A 
ATOM      9  C   UNL     1     -18.646   5.865 -14.280  1.00  0.00     0.094 A 
ATOM     10  C   UNL     1     -18.490   5.442 -15.602  1.00  0.00     0.146 A 
ATOM     11  O   UNL     1     -17.650   4.445 -15.855  1.00  0.00    -0.452 OA
ENDROOT
BRANCH   1  12
ATOM     12  C   UNL     1     -16.459   2.856 -17.221  1.00  0.00     0.025 A 
ATOM     13  C   UNL     1     -16.734   1.557 -16.758  1.00  0.00     0.016 A 
ATOM     14  C   UNL     1     -15.799   0.533 -16.932  1.00  0.00     0.051 A 
ATOM     15  C   UNL     1     -14.585   0.786 -17.583  1.00  0.00     0.157 A 
ATOM     16  C   UNL     1     -15.249   3.100 -17.892  1.00  0.00     0.062 A 
ATOM     17  C   UNL     1     -14.312   2.077 -18.069  1.00  0.00     0.158 A 
BRANCH  15  18
ATOM     18  O   UNL     1     -13.654  -0.237 -17.754  1.00  0.00    -0.504 OA
ATOM     19  H   UNL     1     -13.618  -1.032 -17.127  1.00  0.00     0.293 HD
ENDBRANCH  15  18
BRANCH  17  20
ATOM     20  O   UNL     1     -13.116   2.360 -18.727  1.00  0.00    -0.504 OA
ATOM     21  H   UNL     1     -12.739   1.753 -19.445  1.00  0.00     0.293 HD
ENDBRANCH  17  20
ENDBRANCH   1  12
BRANCH   2  22
ATOM     22  O   UNL     1     -18.034   3.881 -19.426  1.00  0.00    -0.502 OA
ATOM     23  H   UNL     1     -17.354   3.158 -19.623  1.00  0.00     0.293 HD
ENDBRANCH   2  22
BRANCH   6  24
ATOM     24  O   UNL     1     -20.754   7.925 -17.278  1.00  0.00    -0.507 OA
ATOM     25  H   UNL     1     -20.846   7.683 -18.252  1.00  0.00     0.293 HD
ENDBRANCH   6  24
BRANCH   8  26
ATOM     26  O   UNL     1     -19.681   7.291 -12.641  1.00  0.00    -0.508 OA
ATOM     27  H   UNL     1     -19.063   7.971 -12.213  1.00  0.00     0.293 HD
ENDBRANCH   8  26
TORSDOF 6
ENDMDL
MODEL 6
REMARK VINA RESULT:    -6.008      2.031      7.133
REMARK INTER + INTRA:          -7.557
REMARK INTER:                  -7.234
REMARK INTRA:                  -0.322
REMARK UNBOUND:                -0.319
REMARK SMILES O=c1c(O)c(-c2ccc(O)c(O)c2)oc2cc(O)cc(O)c12
REMARK SMILES IDX 5 1 3 2 2 3 1 4 22 5 20 6 19 7 17 8 16 9 15 10 14 11 6 12
REMARK SMILES IDX 7 13 8 14 9 15 13 16 11 17 10 18 12 20 4 22 21 24 18 26
REMARK H PARENT 10 19 12 21 4 23 21 25 18 27
REMARK Flexibility Score: inf
ROOT
ATOM      1  C   UNL     1     -20.591   6.606 -14.674  1.00  0.00     0.180 A 
ATOM      2  C   UNL     1     -21.302   5.741 -13.825  1.00  0.00     0.208 A 
ATOM      3  C   UNL     1     -21.530   6.127 -12.495  1.00  0.00     0.238 A 
ATOM      4  O   UNL     1     -22.120   5.324 -11.725  1.00  0.00    -0.285 OA
ATOM      5  C   UNL     1     -21.059   7.379 -12.033  1.00  0.00     0.111 A 
ATOM      6  C   UNL     1     -21.267   7.890 -10.716  1.00  0.00     0.134 A 
ATOM      7  C   UNL     1     -20.643   9.083 -10.332  1.00  0.00     0.093 A 
ATOM      8  C   UNL     1     -19.872   9.817 -11.235  1.00  0.00     0.123 A 
ATOM      9  C   UNL     1     -19.712   9.357 -12.540  1.00  0.00     0.094 A 
ATOM     10  C   UNL     1     -20.291   8.152 -12.944  1.00  0.00     0.146 A 
ATOM     11  O   UNL     1     -20.104   7.745 -14.194  1.00  0.00    -0.452 OA
ENDROOT
BRANCH   1  12
ATOM     12  C   UNL     1     -20.333   6.280 -16.094  1.00  0.00     0.025 A 
ATOM     13  C   UNL     1     -21.184   6.737 -17.116  1.00  0.00     0.016 A 
ATOM     14  C   UNL     1     -20.907   6.437 -18.452  1.00  0.00     0.051 A 
ATOM     15  C   UNL     1     -19.771   5.691 -18.790  1.00  0.00     0.157 A 
ATOM     16  C   UNL     1     -19.183   5.550 -16.439  1.00  0.00     0.062 A 
ATOM     17  C   UNL     1     -18.903   5.249 -17.777  1.00  0.00     0.158 A 
BRANCH  15  18
ATOM     18  O   UNL     1     -19.498   5.392 -20.124  1.00  0.00    -0.504 OA
ATOM     19  H   UNL     1     -19.921   5.916 -20.882  1.00  0.00     0.293 HD
ENDBRANCH  15  18
BRANCH  17  20
ATOM     20  O   UNL     1     -17.759   4.511 -18.079  1.00  0.00    -0.504 OA
ATOM     21  H   UNL     1     -17.807   3.611 -18.542  1.00  0.00     0.293 HD
ENDBRANCH  17  20
ENDBRANCH   1  12
BRANCH   2  22
ATOM     22  O   UNL     1     -21.740   4.499 -14.294  1.00  0.00    -0.502 OA
ATOM     23  H   UNL     1     -22.523   4.403 -14.929  1.00  0.00     0.293 HD
ENDBRANCH   2  22
BRANCH   6  24
ATOM     24  O   UNL     1     -22.094   7.282  -9.767  1.00  0.00    -0.507 OA
ATOM     25  H   UNL     1     -21.766   6.794  -8.947  1.00  0.00     0.293 HD
ENDBRANCH   6  24
BRANCH   8  26
ATOM     26  O   UNL     1     -19.268  11.011 -10.849  1.00  0.00    -0.508 OA
ATOM     27  H   UNL     1     -19.130  11.243  -9.872  1.00  0.00     0.293 HD
ENDBRANCH   8  26
TORSDOF 6
ENDMDL
MODEL 7
REMARK VINA RESULT:    -5.999      2.102      6.803
REMARK INTER + INTRA:          -7.546
REMARK INTER:                  -7.315
REMARK INTRA:                  -0.231
REMARK UNBOUND:                -0.319
REMARK SMILES O=c1c(O)c(-c2ccc(O)c(O)c2)oc2cc(O)cc(O)c12
REMARK SMILES IDX 5 1 3 2 2 3 1 4 22 5 20 6 19 7 17 8 16 9 15 10 14 11 6 12
REMARK SMILES IDX 7 13 8 14 9 15 13 16 11 17 10 18 12 20 4 22 21 24 18 26
REMARK H PARENT 10 19 12 21 4 23 21 25 18 27
REMARK Flexibility Score: inf
ROOT
ATOM      1  C   UNL     1     -20.539   6.111 -15.171  1.00  0.00     0.180 A 
ATOM      2  C   UNL     1     -19.854   7.297 -15.482  1.00  0.00     0.208 A 
ATOM      3  C   UNL     1     -19.698   8.275 -14.486  1.00  0.00     0.238 A 
ATOM      4  O   UNL     1     -19.131   9.358 -14.787  1.00  0.00    -0.285 OA
ATOM      5  C   UNL     1     -20.214   8.047 -13.188  1.00  0.00     0.111 A 
ATOM      6  C   UNL     1     -20.078   8.951 -12.091  1.00  0.00     0.134 A 
ATOM      7  C   UNL     1     -20.742   8.681 -10.888  1.00  0.00     0.093 A 
ATOM      8  C   UNL     1     -21.481   7.509 -10.721  1.00  0.00     0.123 A 
ATOM      9  C   UNL     1     -21.570   6.592 -11.765  1.00  0.00     0.094 A 
ATOM     10  C   UNL     1     -20.950   6.850 -12.990  1.00  0.00     0.146 A 
ATOM     11  O   UNL     1     -21.069   5.955 -13.964  1.00  0.00    -0.452 OA
ENDROOT
BRANCH   1  12
ATOM     12  C   UNL     1     -20.723   5.024 -16.160  1.00  0.00     0.025 A 
ATOM     13  C   UNL     1     -21.973   4.780 -16.754  1.00  0.00     0.016 A 
ATOM     14  C   UNL     1     -22.118   3.764 -17.703  1.00  0.00     0.051 A 
ATOM     15  C   UNL     1     -21.015   2.988 -18.083  1.00  0.00     0.157 A 
ATOM     16  C   UNL     1     -19.616   4.257 -16.559  1.00  0.00     0.062 A 
ATOM     17  C   UNL     1     -19.757   3.240 -17.509  1.00  0.00     0.158 A 
BRANCH  15  18
ATOM     18  O   UNL     1     -21.163   1.975 -19.028  1.00  0.00    -0.504 OA
ATOM     19  H   UNL     1     -20.393   1.687 -19.622  1.00  0.00     0.293 HD
ENDBRANCH  15  18
BRANCH  17  20
ATOM     20  O   UNL     1     -18.638   2.490 -17.870  1.00  0.00    -0.504 OA
ATOM     21  H   UNL     1     -18.575   2.011 -18.760  1.00  0.00     0.293 HD
ENDBRANCH  17  20
ENDBRANCH   1  12
BRANCH   2  22
ATOM     22  O   UNL     1     -19.371   7.512 -16.777  1.00  0.00    -0.502 OA
ATOM     23  H   UNL     1     -18.499   7.116 -17.104  1.00  0.00     0.293 HD
ENDBRANCH   2  22
BRANCH   6  24
ATOM     24  O   UNL     1     -19.288  10.104 -12.124  1.00  0.00    -0.507 OA
ATOM     25  H   UNL     1     -19.144  10.680 -12.939  1.00  0.00     0.293 HD
ENDBRANCH   6  24
BRANCH   8  26
ATOM     26  O   UNL     1     -22.125   7.240  -9.515  1.00  0.00    -0.508 OA
ATOM     27  H   UNL     1     -22.739   7.919  -9.079  1.00  0.00     0.293 HD
ENDBRANCH   8  26
TORSDOF 6
ENDMDL
MODEL 8
REMARK VINA RESULT:    -5.873      2.860      7.578
REMARK INTER + INTRA:          -7.394
REMARK INTER:                  -7.144
REMARK INTRA:                  -0.250
REMARK UNBOUND:                -0.319
REMARK SMILES O=c1c(O)c(-c2ccc(O)c(O)c2)oc2cc(O)cc(O)c12
REMARK SMILES IDX 5 1 3 2 2 3 1 4 22 5 20 6 19 7 17 8 16 9 15 10 14 11 6 12
REMARK SMILES IDX 7 13 8 14 9 15 13 16 11 17 10 18 12 20 4 22 21 24 18 26
REMARK H PARENT 10 19 12 21 4 23 21 25 18 27
REMARK Flexibility Score: inf
ROOT
ATOM      1  C   UNL     1     -17.085   3.479 -17.061  1.00  0.00     0.180 A 
ATOM      2  C   UNL     1     -17.271   4.099 -15.814  1.00  0.00     0.208 A 
ATOM      3  C   UNL     1     -18.372   4.952 -15.635  1.00  0.00     0.238 A 
ATOM      4  O   UNL     1     -18.503   5.547 -14.532  1.00  0.00    -0.285 OA
ATOM      5  C   UNL     1     -19.283   5.161 -16.698  1.00  0.00     0.111 A 
ATOM      6  C   UNL     1     -20.455   5.972 -16.615  1.00  0.00     0.134 A 
ATOM      7  C   UNL     1     -21.212   6.211 -17.768  1.00  0.00     0.093 A 
ATOM      8  C   UNL     1     -20.877   5.616 -18.986  1.00  0.00     0.123 A 
ATOM      9  C   UNL     1     -19.769   4.776 -19.064  1.00  0.00     0.094 A 
ATOM     10  C   UNL     1     -18.973   4.546 -17.939  1.00  0.00     0.146 A 
ATOM     11  O   UNL     1     -17.919   3.747 -18.059  1.00  0.00    -0.452 OA
ENDROOT
BRANCH   1  12
ATOM     12  C   UNL     1     -15.963   2.549 -17.320  1.00  0.00     0.025 A 
ATOM     13  C   UNL     1     -14.847   2.944 -18.079  1.00  0.00     0.016 A 
ATOM     14  C   UNL     1     -13.788   2.056 -18.291  1.00  0.00     0.051 A 
ATOM     15  C   UNL     1     -13.819   0.771 -17.735  1.00  0.00     0.157 A 
ATOM     16  C   UNL     1     -15.981   1.267 -16.748  1.00  0.00     0.062 A 
ATOM     17  C   UNL     1     -14.921   0.377 -16.957  1.00  0.00     0.158 A 
BRANCH  15  18
ATOM     18  O   UNL     1     -12.763  -0.112 -17.949  1.00  0.00    -0.504 OA
ATOM     19  H   UNL     1     -12.362  -0.654 -17.191  1.00  0.00     0.293 HD
ENDBRANCH  15  18
BRANCH  17  20
ATOM     20  O   UNL     1     -14.981  -0.893 -16.384  1.00  0.00    -0.504 OA
ATOM     21  H   UNL     1     -14.433  -1.669 -16.736  1.00  0.00     0.293 HD
ENDBRANCH  17  20
ENDBRANCH   1  12
BRANCH   2  22
ATOM     22  O   UNL     1     -16.348   3.897 -14.784  1.00  0.00    -0.502 OA
ATOM     23  H   UNL     1     -15.658   4.592 -14.528  1.00  0.00     0.293 HD
ENDBRANCH   2  22
BRANCH   6  24
ATOM     24  O   UNL     1     -20.929   6.537 -15.427  1.00  0.00    -0.507 OA
ATOM     25  H   UNL     1     -20.507   6.410 -14.521  1.00  0.00     0.293 HD
ENDBRANCH   6  24
BRANCH   8  26
ATOM     26  O   UNL     1     -21.644   5.847 -20.125  1.00  0.00    -0.508 OA
ATOM     27  H   UNL     1     -21.550   5.271 -20.954  1.00  0.00     0.293 HD
ENDBRANCH   8  26
TORSDOF 6
ENDMDL
