MODEL 1
REMARK VINA RESULT:    -3.710      0.000      0.000
REMARK INTER + INTRA:         -10.916
REMARK INTER:                  -8.047
REMARK INTRA:                  -2.869
REMARK UNBOUND:                -2.869
REMARK SMILES CCCCCCCCCCCCCCCCCCCCCC(=O)[O-]
REMARK SMILES IDX 12 1 11 2 10 3 9 4 8 5 7 6 6 7 5 8 4 9 3 10 2 11 1 12 13 13
REMARK SMILES IDX 14 14 15 15 16 16 17 17 18 18 19 19 20 20 21 21 22 22 23 23
REMARK SMILES IDX 24 24
REMARK H PARENT
REMARK Flexibility Score: inf
ROOT
ATOM      1  C   UNL     1      -3.900  -2.654   5.314  1.00  0.00     0.000 C 
ENDROOT
BRANCH   1   2
ATOM      2  C   UNL     1      -4.943  -1.760   6.004  1.00  0.00     0.000 C 
BRANCH   2   3
ATOM      3  C   UNL     1      -6.381  -2.106   5.587  1.00  0.00     0.000 C 
BRANCH   3   4
ATOM      4  C   UNL     1      -7.158  -2.725   6.756  1.00  0.00    -0.000 C 
BRANCH   4   5
ATOM      5  C   UNL     1      -8.440  -3.412   6.262  1.00  0.00    -0.000 C 
BRANCH   5   6
ATOM      6  C   UNL     1      -8.696  -4.760   6.955  1.00  0.00    -0.000 C 
BRANCH   6   7
ATOM      7  C   UNL     1      -9.369  -5.785   6.024  1.00  0.00    -0.000 C 
BRANCH   7   8
ATOM      8  C   UNL     1      -8.670  -5.890   4.658  1.00  0.00    -0.000 C 
BRANCH   8   9
ATOM      9  C   UNL     1      -9.529  -6.615   3.608  1.00  0.00    -0.000 C 
BRANCH   9  10
ATOM     10  C   UNL     1      -8.941  -7.977   3.203  1.00  0.00    -0.000 C 
BRANCH  10  11
ATOM     11  C   UNL     1      -9.907  -9.142   3.465  1.00  0.00    -0.003 C 
ATOM     12  C   UNL     1      -9.585  -9.836   4.785  1.00  0.00     0.004 C 
ENDBRANCH  10  11
ENDBRANCH   9  10
ENDBRANCH   8   9
ENDBRANCH   7   8
ENDBRANCH   6   7
ENDBRANCH   5   6
ENDBRANCH   4   5
ENDBRANCH   3   4
ENDBRANCH   2   3
ENDBRANCH   1   2
BRANCH   1  13
ATOM     13  C   UNL     1      -2.850  -3.200   6.292  1.00  0.00     0.000 C 
BRANCH  13  14
ATOM     14  C   UNL     1      -3.335  -4.507   6.937  1.00  0.00     0.000 C 
BRANCH  14  15
ATOM     15  C   UNL     1      -3.946  -5.484   5.918  1.00  0.00     0.000 C 
BRANCH  15  16
ATOM     16  C   UNL     1      -5.346  -5.967   6.333  1.00  0.00     0.000 C 
BRANCH  16  17
ATOM     17  C   UNL     1      -5.373  -7.453   6.740  1.00  0.00     0.000 C 
BRANCH  17  18
ATOM     18  C   UNL     1      -6.397  -8.319   5.982  1.00  0.00     0.000 C 
BRANCH  18  19
ATOM     19  C   UNL     1      -5.829  -9.681   5.554  1.00  0.00     0.000 C 
BRANCH  19  20
ATOM     20  C   UNL     1      -4.294  -9.687   5.476  1.00  0.00     0.006 C 
BRANCH  20  21
ATOM     21  C   UNL     1      -3.774 -10.103   4.095  1.00  0.00     0.053 C 
BRANCH  21  22
ATOM     22  C   UNL     1      -2.604  -9.257   3.700  1.00  0.00     0.041 C 
ATOM     23  O   UNL     1      -2.041  -9.434   2.588  1.00  0.00    -0.550 OA
ATOM     24  O   UNL     1      -2.165  -8.241   4.540  1.00  0.00    -0.550 OA
ENDBRANCH  21  22
ENDBRANCH  20  21
ENDBRANCH  19  20
ENDBRANCH  18  19
ENDBRANCH  17  18
ENDBRANCH  16  17
ENDBRANCH  15  16
ENDBRANCH  14  15
ENDBRANCH  13  14
ENDBRANCH   1  13
TORSDOF 20
ENDMDL
MODEL 2
REMARK VINA RESULT:    -3.694      3.210      6.721
REMARK INTER + INTRA:         -10.883
REMARK INTER:                  -8.487
REMARK INTRA:                  -2.396
REMARK UNBOUND:                -2.869
REMARK SMILES CCCCCCCCCCCCCCCCCCCCCC(=O)[O-]
REMARK SMILES IDX 12 1 11 2 10 3 9 4 8 5 7 6 6 7 5 8 4 9 3 10 2 11 1 12 13 13
REMARK SMILES IDX 14 14 15 15 16 16 17 17 18 18 19 19 20 20 21 21 22 22 23 23
REMARK SMILES IDX 24 24
REMARK H PARENT
REMARK Flexibility Score: inf
ROOT
ATOM      1  C   UNL     1      -7.849  -5.532   5.086  1.00  0.00     0.000 C 
ENDROOT
BRANCH   1   2
ATOM      2  C   UNL     1      -9.376  -5.618   5.239  1.00  0.00     0.000 C 
BRANCH   2   3
ATOM      3  C   UNL     1     -10.001  -6.677   4.317  1.00  0.00     0.000 C 
BRANCH   3   4
ATOM      4  C   UNL     1      -8.933  -7.332   3.430  1.00  0.00    -0.000 C 
BRANCH   4   5
ATOM      5  C   UNL     1      -8.987  -8.863   3.544  1.00  0.00    -0.000 C 
BRANCH   5   6
ATOM      6  C   UNL     1      -9.267  -9.342   4.977  1.00  0.00    -0.000 C 
BRANCH   6   7
ATOM      7  C   UNL     1      -8.190 -10.310   5.498  1.00  0.00    -0.000 C 
BRANCH   7   8
ATOM      8  C   UNL     1      -6.851  -9.606   5.779  1.00  0.00    -0.000 C 
BRANCH   8   9
ATOM      9  C   UNL     1      -5.711 -10.126   4.887  1.00  0.00    -0.000 C 
BRANCH   9  10
ATOM     10  C   UNL     1      -4.449  -9.251   4.974  1.00  0.00    -0.000 C 
BRANCH  10  11
ATOM     11  C   UNL     1      -3.246  -9.870   4.246  1.00  0.00    -0.003 C 
ATOM     12  C   UNL     1      -2.200  -8.809   3.917  1.00  0.00     0.004 C 
ENDBRANCH  10  11
ENDBRANCH   9  10
ENDBRANCH   8   9
ENDBRANCH   7   8
ENDBRANCH   6   7
ENDBRANCH   5   6
ENDBRANCH   4   5
ENDBRANCH   3   4
ENDBRANCH   2   3
ENDBRANCH   1   2
BRANCH   1  13
ATOM     13  C   UNL     1      -7.151  -5.066   6.372  1.00  0.00     0.000 C 
BRANCH  13  14
ATOM     14  C   UNL     1      -6.400  -6.230   7.037  1.00  0.00     0.000 C 
BRANCH  14  15
ATOM     15  C   UNL     1      -4.883  -5.992   7.115  1.00  0.00     0.000 C 
BRANCH  15  16
ATOM     16  C   UNL     1      -4.331  -5.299   5.857  1.00  0.00     0.000 C 
BRANCH  16  17
ATOM     17  C   UNL     1      -3.082  -4.444   6.140  1.00  0.00     0.000 C 
BRANCH  17  18
ATOM     18  C   UNL     1      -3.290  -2.923   6.014  1.00  0.00     0.000 C 
BRANCH  18  19
ATOM     19  C   UNL     1      -4.561  -2.430   6.725  1.00  0.00     0.000 C 
BRANCH  19  20
ATOM     20  C   UNL     1      -5.463  -1.586   5.810  1.00  0.00     0.006 C 
BRANCH  20  21
ATOM     21  C   UNL     1      -5.515  -0.112   6.232  1.00  0.00     0.053 C 
BRANCH  21  22
ATOM     22  C   UNL     1      -6.767   0.167   7.004  1.00  0.00     0.041 C 
ATOM     23  O   UNL     1      -6.972   1.311   7.486  1.00  0.00    -0.550 OA
ATOM     24  O   UNL     1      -7.729  -0.825   7.151  1.00  0.00    -0.550 OA
ENDBRANCH  21  22
ENDBRANCH  20  21
ENDBRANCH  19  20
ENDBRANCH  18  19
ENDBRANCH  17  18
ENDBRANCH  16  17
ENDBRANCH  15  16
ENDBRANCH  14  15
ENDBRANCH  13  14
ENDBRANCH   1  13
TORSDOF 20
ENDMDL
MODEL 3
REMARK VINA RESULT:    -3.668      1.626      5.817
REMARK INTER + INTRA:         -10.825
REMARK INTER:                  -8.282
REMARK INTRA:                  -2.543
REMARK UNBOUND:                -2.869
REMARK SMILES CCCCCCCCCCCCCCCCCCCCCC(=O)[O-]
REMARK SMILES IDX 12 1 11 2 10 3 9 4 8 5 7 6 6 7 5 8 4 9 3 10 2 11 1 12 13 13
REMARK SMILES IDX 14 14 15 15 16 16 17 17 18 18 19 19 20 20 21 21 22 22 23 23
REMARK SMILES IDX 24 24
REMARK H PARENT
REMARK Flexibility Score: inf
ROOT
ATOM      1  C   UNL     1      -7.342  -5.014   5.972  1.00  0.00     0.000 C 
ENDROOT
BRANCH   1   2
ATOM      2  C   UNL     1      -7.973  -6.345   5.531  1.00  0.00     0.000 C 
BRANCH   2   3
ATOM      3  C   UNL     1      -8.701  -6.232   4.182  1.00  0.00     0.000 C 
BRANCH   3   4
ATOM      4  C   UNL     1      -8.844  -7.608   3.518  1.00  0.00    -0.000 C 
BRANCH   4   5
ATOM      5  C   UNL     1      -8.562  -8.735   4.524  1.00  0.00    -0.000 C 
BRANCH   5   6
ATOM      6  C   UNL     1      -7.922  -9.969   3.868  1.00  0.00    -0.000 C 
BRANCH   6   7
ATOM      7  C   UNL     1      -6.770 -10.552   4.707  1.00  0.00    -0.000 C 
BRANCH   7   8
ATOM      8  C   UNL     1      -6.021  -9.475   5.510  1.00  0.00    -0.000 C 
BRANCH   8   9
ATOM      9  C   UNL     1      -4.522  -9.420   5.168  1.00  0.00    -0.000 C 
BRANCH   9  10
ATOM     10  C   UNL     1      -4.057 -10.639   4.354  1.00  0.00    -0.000 C 
BRANCH  10  11
ATOM     11  C   UNL     1      -2.893 -10.312   3.408  1.00  0.00    -0.003 C 
ATOM     12  C   UNL     1      -2.302  -8.940   3.718  1.00  0.00     0.004 C 
ENDBRANCH  10  11
ENDBRANCH   9  10
ENDBRANCH   8   9
ENDBRANCH   7   8
ENDBRANCH   6   7
ENDBRANCH   5   6
ENDBRANCH   4   5
ENDBRANCH   3   4
ENDBRANCH   2   3
ENDBRANCH   1   2
BRANCH   1  13
ATOM     13  C   UNL     1      -7.624  -4.686   7.446  1.00  0.00     0.000 C 
BRANCH  13  14
ATOM     14  C   UNL     1      -8.402  -3.367   7.571  1.00  0.00     0.000 C 
BRANCH  14  15
ATOM     15  C   UNL     1      -8.356  -2.524   6.286  1.00  0.00     0.000 C 
BRANCH  15  16
ATOM     16  C   UNL     1      -7.402  -1.323   6.405  1.00  0.00     0.000 C 
BRANCH  16  17
ATOM     17  C   UNL     1      -6.119  -1.488   5.569  1.00  0.00     0.000 C 
BRANCH  17  18
ATOM     18  C   UNL     1      -4.808  -1.479   6.377  1.00  0.00     0.000 C 
BRANCH  18  19
ATOM     19  C   UNL     1      -4.869  -2.369   7.629  1.00  0.00     0.000 C 
BRANCH  19  20
ATOM     20  C   UNL     1      -3.658  -3.308   7.749  1.00  0.00     0.006 C 
BRANCH  20  21
ATOM     21  C   UNL     1      -3.805  -4.573   6.893  1.00  0.00     0.053 C 
BRANCH  21  22
ATOM     22  C   UNL     1      -2.673  -4.679   5.920  1.00  0.00     0.041 C 
ATOM     23  O   UNL     1      -2.374  -5.793   5.415  1.00  0.00    -0.550 OA
ATOM     24  O   UNL     1      -1.978  -3.539   5.533  1.00  0.00    -0.550 OA
ENDBRANCH  21  22
ENDBRANCH  20  21
ENDBRANCH  19  20
ENDBRANCH  18  19
ENDBRANCH  17  18
ENDBRANCH  16  17
ENDBRANCH  15  16
ENDBRANCH  14  15
ENDBRANCH  13  14
ENDBRANCH   1  13
TORSDOF 20
ENDMDL
MODEL 4
REMARK VINA RESULT:    -3.426      2.702      6.742
REMARK INTER + INTRA:         -10.302
REMARK INTER:                  -7.672
REMARK INTRA:                  -2.630
REMARK UNBOUND:                -2.869
REMARK SMILES CCCCCCCCCCCCCCCCCCCCCC(=O)[O-]
REMARK SMILES IDX 12 1 11 2 10 3 9 4 8 5 7 6 6 7 5 8 4 9 3 10 2 11 1 12 13 13
REMARK SMILES IDX 14 14 15 15 16 16 17 17 18 18 19 19 20 20 21 21 22 22 23 23
REMARK SMILES IDX 24 24
REMARK H PARENT
REMARK Flexibility Score: inf
ROOT
ATOM      1  C   UNL     1      -8.645  -7.715   3.358  1.00  0.00     0.000 C 
ENDROOT
BRANCH   1   2
ATOM      2  C   UNL     1      -9.411  -8.958   3.839  1.00  0.00     0.000 C 
BRANCH   2   3
ATOM      3  C   UNL     1      -8.856 -10.260   3.238  1.00  0.00     0.000 C 
BRANCH   3   4
ATOM      4  C   UNL     1      -7.844 -10.915   4.187  1.00  0.00    -0.000 C 
BRANCH   4   5
ATOM      5  C   UNL     1      -7.990 -10.363   5.613  1.00  0.00    -0.000 C 
BRANCH   5   6
ATOM      6  C   UNL     1      -6.694  -9.724   6.137  1.00  0.00    -0.000 C 
BRANCH   6   7
ATOM      7  C   UNL     1      -5.620  -9.583   5.043  1.00  0.00    -0.000 C 
BRANCH   7   8
ATOM      8  C   UNL     1      -4.305 -10.290   5.413  1.00  0.00    -0.000 C 
BRANCH   8   9
ATOM      9  C   UNL     1      -3.411 -10.554   4.188  1.00  0.00    -0.000 C 
BRANCH   9  10
ATOM     10  C   UNL     1      -2.618  -9.309   3.758  1.00  0.00    -0.000 C 
BRANCH  10  11
ATOM     11  C   UNL     1      -2.014  -9.446   2.353  1.00  0.00    -0.003 C 
ATOM     12  C   UNL     1      -2.412 -10.772   1.712  1.00  0.00     0.004 C 
ENDBRANCH  10  11
ENDBRANCH   9  10
ENDBRANCH   8   9
ENDBRANCH   7   8
ENDBRANCH   6   7
ENDBRANCH   5   6
ENDBRANCH   4   5
ENDBRANCH   3   4
ENDBRANCH   2   3
ENDBRANCH   1   2
BRANCH   1  13
ATOM     13  C   UNL     1      -9.063  -6.439   4.102  1.00  0.00     0.000 C 
BRANCH  13  14
ATOM     14  C   UNL     1      -9.552  -6.770   5.520  1.00  0.00     0.000 C 
BRANCH  14  15
ATOM     15  C   UNL     1      -8.479  -6.519   6.594  1.00  0.00     0.000 C 
BRANCH  15  16
ATOM     16  C   UNL     1      -7.229  -5.826   6.024  1.00  0.00     0.000 C 
BRANCH  16  17
ATOM     17  C   UNL     1      -6.032  -5.853   6.993  1.00  0.00     0.000 C 
BRANCH  17  18
ATOM     18  C   UNL     1      -4.762  -6.529   6.442  1.00  0.00     0.000 C 
BRANCH  18  19
ATOM     19  C   UNL     1      -3.780  -5.531   5.806  1.00  0.00     0.000 C 
BRANCH  19  20
ATOM     20  C   UNL     1      -4.082  -4.074   6.193  1.00  0.00     0.006 C 
BRANCH  20  21
ATOM     21  C   UNL     1      -4.469  -3.211   4.985  1.00  0.00     0.053 C 
BRANCH  21  22
ATOM     22  C   UNL     1      -5.234  -2.004   5.430  1.00  0.00     0.041 C 
ATOM     23  O   UNL     1      -6.420  -1.828   5.045  1.00  0.00    -0.550 OA
ATOM     24  O   UNL     1      -4.654  -1.096   6.308  1.00  0.00    -0.550 OA
ENDBRANCH  21  22
ENDBRANCH  20  21
ENDBRANCH  19  20
ENDBRANCH  18  19
ENDBRANCH  17  18
ENDBRANCH  16  17
ENDBRANCH  15  16
ENDBRANCH  14  15
ENDBRANCH  13  14
ENDBRANCH   1  13
TORSDOF 20
ENDMDL
MODEL 5
REMARK VINA RESULT:    -3.406      2.731      6.523
REMARK INTER + INTRA:         -10.258
REMARK INTER:                  -8.261
REMARK INTRA:                  -1.997
REMARK UNBOUND:                -2.869
REMARK SMILES CCCCCCCCCCCCCCCCCCCCCC(=O)[O-]
REMARK SMILES IDX 12 1 11 2 10 3 9 4 8 5 7 6 6 7 5 8 4 9 3 10 2 11 1 12 13 13
REMARK SMILES IDX 14 14 15 15 16 16 17 17 18 18 19 19 20 20 21 21 22 22 23 23
REMARK SMILES IDX 24 24
REMARK H PARENT
REMARK Flexibility Score: inf
ROOT
ATOM      1  C   UNL     1      -5.456  -4.595   5.550  1.00  0.00     0.000 C 
ENDROOT
BRANCH   1   2
ATOM      2  C   UNL     1      -4.496  -5.607   6.195  1.00  0.00     0.000 C 
BRANCH   2   3
ATOM      3  C   UNL     1      -5.190  -6.488   7.247  1.00  0.00     0.000 C 
BRANCH   3   4
ATOM      4  C   UNL     1      -6.118  -7.511   6.581  1.00  0.00    -0.000 C 
BRANCH   4   5
ATOM      5  C   UNL     1      -5.474  -8.906   6.560  1.00  0.00    -0.000 C 
BRANCH   5   6
ATOM      6  C   UNL     1      -4.956  -9.300   5.168  1.00  0.00    -0.000 C 
BRANCH   6   7
ATOM      7  C   UNL     1      -4.118 -10.591   5.193  1.00  0.00    -0.000 C 
BRANCH   7   8
ATOM      8  C   UNL     1      -3.206 -10.726   3.962  1.00  0.00    -0.000 C 
BRANCH   8   9
ATOM      9  C   UNL     1      -2.552  -9.393   3.561  1.00  0.00    -0.000 C 
BRANCH   9  10
ATOM     10  C   UNL     1      -1.818  -9.479   2.212  1.00  0.00    -0.000 C 
BRANCH  10  11
ATOM     11  C   UNL     1      -2.584 -10.310   1.172  1.00  0.00    -0.003 C 
ATOM     12  C   UNL     1      -1.795 -10.419  -0.130  1.00  0.00     0.004 C 
ENDBRANCH  10  11
ENDBRANCH   9  10
ENDBRANCH   8   9
ENDBRANCH   7   8
ENDBRANCH   6   7
ENDBRANCH   5   6
ENDBRANCH   4   5
ENDBRANCH   3   4
ENDBRANCH   2   3
ENDBRANCH   1   2
BRANCH   1  13
ATOM     13  C   UNL     1      -4.724  -3.537   4.712  1.00  0.00     0.000 C 
BRANCH  13  14
ATOM     14  C   UNL     1      -3.753  -2.727   5.585  1.00  0.00     0.000 C 
BRANCH  14  15
ATOM     15  C   UNL     1      -4.477  -1.807   6.583  1.00  0.00     0.000 C 
BRANCH  15  16
ATOM     16  C   UNL     1      -5.415  -0.806   5.886  1.00  0.00     0.000 C 
BRANCH  16  17
ATOM     17  C   UNL     1      -6.797  -0.709   6.559  1.00  0.00     0.000 C 
BRANCH  17  18
ATOM     18  C   UNL     1      -7.895  -1.583   5.925  1.00  0.00     0.000 C 
BRANCH  18  19
ATOM     19  C   UNL     1      -8.213  -2.840   6.752  1.00  0.00     0.000 C 
BRANCH  19  20
ATOM     20  C   UNL     1      -9.467  -3.576   6.255  1.00  0.00     0.006 C 
BRANCH  20  21
ATOM     21  C   UNL     1      -9.564  -5.008   6.795  1.00  0.00     0.053 C 
BRANCH  21  22
ATOM     22  C   UNL     1      -9.312  -5.997   5.701  1.00  0.00     0.041 C 
ATOM     23  O   UNL     1      -8.803  -5.621   4.612  1.00  0.00    -0.550 OA
ATOM     24  O   UNL     1      -9.596  -7.343   5.898  1.00  0.00    -0.550 OA
ENDBRANCH  21  22
ENDBRANCH  20  21
ENDBRANCH  19  20
ENDBRANCH  18  19
ENDBRANCH  17  18
ENDBRANCH  16  17
ENDBRANCH  15  16
ENDBRANCH  14  15
ENDBRANCH  13  14
ENDBRANCH   1  13
TORSDOF 20
ENDMDL
MODEL 6
REMARK VINA RESULT:    -3.402      1.042      5.101
REMARK INTER + INTRA:         -10.248
REMARK INTER:                  -7.841
REMARK INTRA:                  -2.407
REMARK UNBOUND:                -2.869
REMARK SMILES CCCCCCCCCCCCCCCCCCCCCC(=O)[O-]
REMARK SMILES IDX 12 1 11 2 10 3 9 4 8 5 7 6 6 7 5 8 4 9 3 10 2 11 1 12 13 13
REMARK SMILES IDX 14 14 15 15 16 16 17 17 18 18 19 19 20 20 21 21 22 22 23 23
REMARK SMILES IDX 24 24
REMARK H PARENT
REMARK Flexibility Score: inf
ROOT
ATOM      1  C   UNL     1      -9.397  -6.623   4.929  1.00  0.00     0.000 C 
ENDROOT
BRANCH   1   2
ATOM      2  C   UNL     1      -8.884  -5.192   5.160  1.00  0.00     0.000 C 
BRANCH   2   3
ATOM      3  C   UNL     1      -7.474  -5.164   5.770  1.00  0.00     0.000 C 
BRANCH   3   4
ATOM      4  C   UNL     1      -7.490  -4.516   7.161  1.00  0.00    -0.000 C 
BRANCH   4   5
ATOM      5  C   UNL     1      -8.371  -3.258   7.171  1.00  0.00    -0.000 C 
BRANCH   5   6
ATOM      6  C   UNL     1      -7.550  -1.959   7.192  1.00  0.00    -0.000 C 
BRANCH   6   7
ATOM      7  C   UNL     1      -7.206  -1.455   5.779  1.00  0.00    -0.000 C 
BRANCH   7   8
ATOM      8  C   UNL     1      -5.691  -1.426   5.517  1.00  0.00    -0.000 C 
BRANCH   8   9
ATOM      9  C   UNL     1      -4.864  -1.592   6.804  1.00  0.00    -0.000 C 
BRANCH   9  10
ATOM     10  C   UNL     1      -4.119  -2.937   6.856  1.00  0.00    -0.000 C 
BRANCH  10  11
ATOM     11  C   UNL     1      -4.103  -3.659   5.501  1.00  0.00    -0.003 C 
ATOM     12  C   UNL     1      -3.687  -5.118   5.662  1.00  0.00     0.004 C 
ENDBRANCH  10  11
ENDBRANCH   9  10
ENDBRANCH   8   9
ENDBRANCH   7   8
ENDBRANCH   6   7
ENDBRANCH   5   6
ENDBRANCH   4   5
ENDBRANCH   3   4
ENDBRANCH   2   3
ENDBRANCH   1   2
BRANCH   1  13
ATOM     13  C   UNL     1      -8.899  -7.222   3.605  1.00  0.00     0.000 C 
BRANCH  13  14
ATOM     14  C   UNL     1      -9.562  -8.582   3.339  1.00  0.00     0.000 C 
BRANCH  14  15
ATOM     15  C   UNL     1      -8.573  -9.755   3.434  1.00  0.00     0.000 C 
BRANCH  15  16
ATOM     16  C   UNL     1      -8.343 -10.215   4.884  1.00  0.00     0.000 C 
BRANCH  16  17
ATOM     17  C   UNL     1      -6.856 -10.224   5.283  1.00  0.00     0.000 C 
BRANCH  17  18
ATOM     18  C   UNL     1      -6.278  -8.853   5.683  1.00  0.00     0.000 C 
BRANCH  18  19
ATOM     19  C   UNL     1      -4.756  -8.765   5.491  1.00  0.00     0.000 C 
BRANCH  19  20
ATOM     20  C   UNL     1      -4.099 -10.143   5.317  1.00  0.00     0.006 C 
BRANCH  20  21
ATOM     21  C   UNL     1      -3.563 -10.367   3.897  1.00  0.00     0.053 C 
BRANCH  21  22
ATOM     22  C   UNL     1      -2.493  -9.370   3.579  1.00  0.00     0.041 C 
ATOM     23  O   UNL     1      -1.902  -8.757   4.507  1.00  0.00    -0.550 OA
ATOM     24  O   UNL     1      -2.115  -9.150   2.260  1.00  0.00    -0.550 OA
ENDBRANCH  21  22
ENDBRANCH  20  21
ENDBRANCH  19  20
ENDBRANCH  18  19
ENDBRANCH  17  18
ENDBRANCH  16  17
ENDBRANCH  15  16
ENDBRANCH  14  15
ENDBRANCH  13  14
ENDBRANCH   1  13
TORSDOF 20
ENDMDL
MODEL 7
REMARK VINA RESULT:    -3.394      3.169      6.167
REMARK INTER + INTRA:         -10.232
REMARK INTER:                  -6.867
REMARK INTRA:                  -3.365
REMARK UNBOUND:                -2.869
REMARK SMILES CCCCCCCCCCCCCCCCCCCCCC(=O)[O-]
REMARK SMILES IDX 12 1 11 2 10 3 9 4 8 5 7 6 6 7 5 8 4 9 3 10 2 11 1 12 13 13
REMARK SMILES IDX 14 14 15 15 16 16 17 17 18 18 19 19 20 20 21 21 22 22 23 23
REMARK SMILES IDX 24 24
REMARK H PARENT
REMARK Flexibility Score: inf
ROOT
ATOM      1  C   UNL     1      -6.455  -5.432   6.226  1.00  0.00     0.000 C 
ENDROOT
BRANCH   1   2
ATOM      2  C   UNL     1      -7.548  -6.185   7.000  1.00  0.00     0.000 C 
BRANCH   2   3
ATOM      3  C   UNL     1      -8.784  -6.480   6.136  1.00  0.00     0.000 C 
BRANCH   3   4
ATOM      4  C   UNL     1      -8.700  -5.748   4.790  1.00  0.00    -0.000 C 
BRANCH   4   5
ATOM      5  C   UNL     1      -9.185  -6.649   3.643  1.00  0.00    -0.000 C 
BRANCH   5   6
ATOM      6  C   UNL     1      -9.518  -8.075   4.109  1.00  0.00    -0.000 C 
BRANCH   6   7
ATOM      7  C   UNL     1      -8.529  -9.121   3.564  1.00  0.00    -0.000 C 
BRANCH   7   8
ATOM      8  C   UNL     1      -8.355 -10.319   4.513  1.00  0.00    -0.000 C 
BRANCH   8   9
ATOM      9  C   UNL     1      -6.915 -10.454   5.036  1.00  0.00    -0.000 C 
BRANCH   9  10
ATOM     10  C   UNL     1      -6.219  -9.093   5.205  1.00  0.00    -0.000 C 
BRANCH  10  11
ATOM     11  C   UNL     1      -4.804  -9.218   5.790  1.00  0.00    -0.003 C 
ATOM     12  C   UNL     1      -3.791  -9.567   4.704  1.00  0.00     0.004 C 
ENDBRANCH  10  11
ENDBRANCH   9  10
ENDBRANCH   8   9
ENDBRANCH   7   8
ENDBRANCH   6   7
ENDBRANCH   5   6
ENDBRANCH   4   5
ENDBRANCH   3   4
ENDBRANCH   2   3
ENDBRANCH   1   2
BRANCH   1  13
ATOM     13  C   UNL     1      -5.076  -5.541   6.893  1.00  0.00     0.000 C 
BRANCH  13  14
ATOM     14  C   UNL     1      -3.957  -5.506   5.841  1.00  0.00     0.000 C 
BRANCH  14  15
ATOM     15  C   UNL     1      -2.909  -4.417   6.122  1.00  0.00     0.000 C 
BRANCH  15  16
ATOM     16  C   UNL     1      -3.373  -3.023   5.666  1.00  0.00     0.000 C 
BRANCH  16  17
ATOM     17  C   UNL     1      -3.743  -2.098   6.841  1.00  0.00     0.000 C 
BRANCH  17  18
ATOM     18  C   UNL     1      -5.089  -1.365   6.696  1.00  0.00     0.000 C 
BRANCH  18  19
ATOM     19  C   UNL     1      -5.917  -1.863   5.500  1.00  0.00     0.000 C 
BRANCH  19  20
ATOM     20  C   UNL     1      -7.431  -1.722   5.727  1.00  0.00     0.006 C 
BRANCH  20  21
ATOM     21  C   UNL     1      -7.869  -2.218   7.110  1.00  0.00     0.053 C 
BRANCH  21  22
ATOM     22  C   UNL     1      -9.263  -2.760   7.053  1.00  0.00     0.041 C 
ATOM     23  O   UNL     1      -9.725  -3.424   8.019  1.00  0.00    -0.550 OA
ATOM     24  O   UNL     1     -10.070  -2.493   5.954  1.00  0.00    -0.550 OA
ENDBRANCH  21  22
ENDBRANCH  20  21
ENDBRANCH  19  20
ENDBRANCH  18  19
ENDBRANCH  17  18
ENDBRANCH  16  17
ENDBRANCH  15  16
ENDBRANCH  14  15
ENDBRANCH  13  14
ENDBRANCH   1  13
TORSDOF 20
ENDMDL
MODEL 8
REMARK VINA RESULT:    -3.240      1.794      5.140
REMARK INTER + INTRA:          -9.897
REMARK INTER:                  -7.978
REMARK INTRA:                  -1.919
REMARK UNBOUND:                -2.869
REMARK SMILES CCCCCCCCCCCCCCCCCCCCCC(=O)[O-]
REMARK SMILES IDX 12 1 11 2 10 3 9 4 8 5 7 6 6 7 5 8 4 9 3 10 2 11 1 12 13 13
REMARK SMILES IDX 14 14 15 15 16 16 17 17 18 18 19 19 20 20 21 21 22 22 23 23
REMARK SMILES IDX 24 24
REMARK H PARENT
REMARK Flexibility Score: inf
ROOT
ATOM      1  C   UNL     1      -9.082  -6.749   6.089  1.00  0.00     0.000 C 
ENDROOT
BRANCH   1   2
ATOM      2  C   UNL     1      -8.505  -5.325   6.050  1.00  0.00     0.000 C 
BRANCH   2   3
ATOM      3  C   UNL     1      -7.723  -4.971   7.325  1.00  0.00     0.000 C 
BRANCH   3   4
ATOM      4  C   UNL     1      -7.600  -3.451   7.490  1.00  0.00    -0.000 C 
BRANCH   4   5
ATOM      5  C   UNL     1      -8.553  -2.715   6.535  1.00  0.00    -0.000 C 
BRANCH   5   6
ATOM      6  C   UNL     1      -7.871  -1.556   5.791  1.00  0.00    -0.000 C 
BRANCH   6   7
ATOM      7  C   UNL     1      -6.787  -0.866   6.640  1.00  0.00    -0.000 C 
BRANCH   7   8
ATOM      8  C   UNL     1      -5.413  -0.859   5.949  1.00  0.00    -0.000 C 
BRANCH   8   9
ATOM      9  C   UNL     1      -4.419  -1.836   6.599  1.00  0.00    -0.000 C 
BRANCH   9  10
ATOM     10  C   UNL     1      -3.802  -2.812   5.583  1.00  0.00    -0.000 C 
BRANCH  10  11
ATOM     11  C   UNL     1      -4.657  -4.071   5.374  1.00  0.00    -0.003 C 
ATOM     12  C   UNL     1      -3.852  -5.334   5.661  1.00  0.00     0.004 C 
ENDBRANCH  10  11
ENDBRANCH   9  10
ENDBRANCH   8   9
ENDBRANCH   7   8
ENDBRANCH   6   7
ENDBRANCH   5   6
ENDBRANCH   4   5
ENDBRANCH   3   4
ENDBRANCH   2   3
ENDBRANCH   1   2
BRANCH   1  13
ATOM     13  C   UNL     1      -8.631  -7.603   4.895  1.00  0.00     0.000 C 
BRANCH  13  14
ATOM     14  C   UNL     1      -8.158  -8.988   5.364  1.00  0.00     0.000 C 
BRANCH  14  15
ATOM     15  C   UNL     1      -6.797  -9.385   4.768  1.00  0.00     0.000 C 
BRANCH  15  16
ATOM     16  C   UNL     1      -5.648  -9.246   5.782  1.00  0.00     0.000 C 
BRANCH  16  17
ATOM     17  C   UNL     1      -4.256  -9.320   5.127  1.00  0.00     0.000 C 
BRANCH  17  18
ATOM     18  C   UNL     1      -3.740 -10.745   4.849  1.00  0.00     0.000 C 
BRANCH  18  19
ATOM     19  C   UNL     1      -3.358 -10.967   3.377  1.00  0.00     0.000 C 
BRANCH  19  20
ATOM     20  C   UNL     1      -2.515  -9.818   2.802  1.00  0.00     0.006 C 
BRANCH  20  21
ATOM     21  C   UNL     1      -1.449 -10.305   1.813  1.00  0.00     0.053 C 
BRANCH  21  22
ATOM     22  C   UNL     1      -1.918 -10.117   0.405  1.00  0.00     0.041 C 
ATOM     23  O   UNL     1      -1.231  -9.443  -0.407  1.00  0.00    -0.550 OA
ATOM     24  O   UNL     1      -3.092 -10.724  -0.025  1.00  0.00    -0.550 OA
ENDBRANCH  21  22
ENDBRANCH  20  21
ENDBRANCH  19  20
ENDBRANCH  18  19
ENDBRANCH  17  18
ENDBRANCH  16  17
ENDBRANCH  15  16
ENDBRANCH  14  15
ENDBRANCH  13  14
ENDBRANCH   1  13
TORSDOF 20
ENDMDL
MODEL 9
REMARK VINA RESULT:    -3.214      2.315      5.699
REMARK INTER + INTRA:          -9.840
REMARK INTER:                  -7.399
REMARK INTRA:                  -2.442
REMARK UNBOUND:                -2.869
REMARK SMILES CCCCCCCCCCCCCCCCCCCCCC(=O)[O-]
REMARK SMILES IDX 12 1 11 2 10 3 9 4 8 5 7 6 6 7 5 8 4 9 3 10 2 11 1 12 13 13
REMARK SMILES IDX 14 14 15 15 16 16 17 17 18 18 19 19 20 20 21 21 22 22 23 23
REMARK SMILES IDX 24 24
REMARK H PARENT
REMARK Flexibility Score: inf
ROOT
ATOM      1  C   UNL     1      -4.724  -3.698   5.195  1.00  0.00     0.000 C 
ENDROOT
BRANCH   1   2
ATOM      2  C   UNL     1      -3.722  -4.448   6.088  1.00  0.00     0.000 C 
BRANCH   2   3
ATOM      3  C   UNL     1      -4.412  -5.434   7.045  1.00  0.00     0.000 C 
BRANCH   3   4
ATOM      4  C   UNL     1      -5.449  -6.286   6.303  1.00  0.00    -0.000 C 
BRANCH   4   5
ATOM      5  C   UNL     1      -5.326  -7.767   6.693  1.00  0.00    -0.000 C 
BRANCH   5   6
ATOM      6  C   UNL     1      -6.221  -8.681   5.842  1.00  0.00    -0.000 C 
BRANCH   6   7
ATOM      7  C   UNL     1      -5.825 -10.165   5.953  1.00  0.00    -0.000 C 
BRANCH   7   8
ATOM      8  C   UNL     1      -5.193 -10.705   4.660  1.00  0.00    -0.000 C 
BRANCH   8   9
ATOM      9  C   UNL     1      -3.656 -10.732   4.719  1.00  0.00    -0.000 C 
BRANCH   9  10
ATOM     10  C   UNL     1      -3.013 -10.756   3.322  1.00  0.00    -0.000 C 
BRANCH  10  11
ATOM     11  C   UNL     1      -2.341  -9.424   2.956  1.00  0.00    -0.003 C 
ATOM     12  C   UNL     1      -2.361  -8.457   4.136  1.00  0.00     0.004 C 
ENDBRANCH  10  11
ENDBRANCH   9  10
ENDBRANCH   8   9
ENDBRANCH   7   8
ENDBRANCH   6   7
ENDBRANCH   5   6
ENDBRANCH   4   5
ENDBRANCH   3   4
ENDBRANCH   2   3
ENDBRANCH   1   2
BRANCH   1  13
ATOM     13  C   UNL     1      -4.699  -2.180   5.426  1.00  0.00     0.000 C 
BRANCH  13  14
ATOM     14  C   UNL     1      -4.715  -1.857   6.928  1.00  0.00     0.000 C 
BRANCH  14  15
ATOM     15  C   UNL     1      -6.101  -2.053   7.565  1.00  0.00     0.000 C 
BRANCH  15  16
ATOM     16  C   UNL     1      -7.220  -1.376   6.755  1.00  0.00     0.000 C 
BRANCH  16  17
ATOM     17  C   UNL     1      -8.478  -2.255   6.617  1.00  0.00     0.000 C 
BRANCH  17  18
ATOM     18  C   UNL     1      -8.206  -3.743   6.327  1.00  0.00     0.000 C 
BRANCH  18  19
ATOM     19  C   UNL     1      -9.472  -4.611   6.410  1.00  0.00     0.000 C 
BRANCH  19  20
ATOM     20  C   UNL     1      -9.832  -5.265   5.066  1.00  0.00     0.006 C 
BRANCH  20  21
ATOM     21  C   UNL     1      -8.670  -6.071   4.472  1.00  0.00     0.053 C 
BRANCH  21  22
ATOM     22  C   UNL     1      -9.111  -7.466   4.156  1.00  0.00     0.041 C 
ATOM     23  O   UNL     1      -9.665  -8.171   5.041  1.00  0.00    -0.550 OA
ATOM     24  O   UNL     1      -8.952  -7.973   2.872  1.00  0.00    -0.550 OA
ENDBRANCH  21  22
ENDBRANCH  20  21
ENDBRANCH  19  20
ENDBRANCH  18  19
ENDBRANCH  17  18
ENDBRANCH  16  17
ENDBRANCH  15  16
ENDBRANCH  14  15
ENDBRANCH  13  14
ENDBRANCH   1  13
TORSDOF 20
ENDMDL
