MODEL 1
REMARK VINA RESULT:    -6.937      0.000      0.000
REMARK INTER + INTRA:          -8.424
REMARK INTER:                  -8.153
REMARK INTRA:                  -0.270
REMARK UNBOUND:                -0.270
REMARK SMILES Oc1ccc(-c2[o+]c3cc(O)cc(O)c3cc2O)cc1
REMARK SMILES IDX 6 1 7 2 8 3 9 4 10 5 12 6 13 7 15 8 16 9 17 10 5 11 4 12
REMARK SMILES IDX 3 13 2 14 19 15 20 16 1 17 18 19 11 21 14 23
REMARK H PARENT 1 18 18 20 11 22 14 24
REMARK Flexibility Score: inf
ROOT
ATOM      1  C   UNL     1      -6.986 -21.905 -20.015  1.00  0.00     0.401 A 
ATOM      2  O   UNL     1      -7.648 -22.763 -19.244  1.00  0.00    -0.202 OA
ATOM      3  C   UNL     1      -7.401 -22.919 -17.947  1.00  0.00     0.368 A 
ATOM      4  C   UNL     1      -8.148 -23.850 -17.221  1.00  0.00     0.162 A 
ATOM      5  C   UNL     1      -7.909 -24.038 -15.858  1.00  0.00     0.128 A 
ATOM      6  C   UNL     1      -6.914 -23.291 -15.216  1.00  0.00     0.093 A 
ATOM      7  C   UNL     1      -6.152 -22.352 -15.922  1.00  0.00     0.136 A 
ATOM      8  C   UNL     1      -6.395 -22.157 -17.308  1.00  0.00     0.125 A 
ATOM      9  C   UNL     1      -5.688 -21.229 -18.091  1.00  0.00     0.078 A 
ATOM     10  C   UNL     1      -5.987 -21.089 -19.450  1.00  0.00     0.223 A 
ENDROOT
BRANCH   1  11
ATOM     11  C   UNL     1      -7.346 -21.830 -21.449  1.00  0.00     0.084 A 
ATOM     12  C   UNL     1      -6.511 -22.367 -22.445  1.00  0.00     0.022 A 
ATOM     13  C   UNL     1      -6.884 -22.304 -23.791  1.00  0.00     0.047 A 
ATOM     14  C   UNL     1      -8.102 -21.717 -24.157  1.00  0.00     0.115 A 
ATOM     15  C   UNL     1      -8.575 -21.261 -21.824  1.00  0.00     0.022 A 
ATOM     16  C   UNL     1      -8.946 -21.199 -23.170  1.00  0.00     0.047 A 
BRANCH  14  17
ATOM     17  O   UNL     1      -8.484 -21.648 -25.495  1.00  0.00    -0.508 OA
ATOM     18  H   UNL     1      -7.843 -21.891 -26.242  1.00  0.00     0.293 HD
ENDBRANCH  14  17
ENDBRANCH   1  11
BRANCH  10  19
ATOM     19  O   UNL     1      -5.321 -20.133 -20.218  1.00  0.00    -0.500 OA
ATOM     20  H   UNL     1      -5.262 -20.208 -21.226  1.00  0.00     0.294 HD
ENDBRANCH  10  19
BRANCH   5  21
ATOM     21  O   UNL     1      -8.664 -24.970 -15.151  1.00  0.00    -0.507 OA
ATOM     22  H   UNL     1      -9.008 -25.816 -15.588  1.00  0.00     0.293 HD
ENDBRANCH   5  21
BRANCH   7  23
ATOM     23  O   UNL     1      -5.176 -21.649 -15.210  1.00  0.00    -0.507 OA
ATOM     24  H   UNL     1      -5.232 -21.436 -14.226  1.00  0.00     0.293 HD
ENDBRANCH   7  23
TORSDOF 5
ENDMDL
MODEL 2
REMARK VINA RESULT:    -6.911      1.042      2.696
REMARK INTER + INTRA:          -8.394
REMARK INTER:                  -8.079
REMARK INTRA:                  -0.315
REMARK UNBOUND:                -0.270
REMARK SMILES Oc1ccc(-c2[o+]c3cc(O)cc(O)c3cc2O)cc1
REMARK SMILES IDX 6 1 7 2 8 3 9 4 10 5 12 6 13 7 15 8 16 9 17 10 5 11 4 12
REMARK SMILES IDX 3 13 2 14 19 15 20 16 1 17 18 19 11 21 14 23
REMARK H PARENT 1 18 18 20 11 22 14 24
REMARK Flexibility Score: inf
ROOT
ATOM      1  C   UNL     1      -7.919 -22.739 -20.149  1.00  0.00     0.401 A 
ATOM      2  O   UNL     1      -7.074 -22.151 -19.307  1.00  0.00    -0.202 OA
ATOM      3  C   UNL     1      -6.962 -22.491 -18.028  1.00  0.00     0.368 A 
ATOM      4  C   UNL     1      -6.046 -21.811 -17.221  1.00  0.00     0.162 A 
ATOM      5  C   UNL     1      -5.910 -22.144 -15.872  1.00  0.00     0.128 A 
ATOM      6  C   UNL     1      -6.697 -23.164 -15.324  1.00  0.00     0.093 A 
ATOM      7  C   UNL     1      -7.622 -23.861 -16.111  1.00  0.00     0.136 A 
ATOM      8  C   UNL     1      -7.761 -23.526 -17.484  1.00  0.00     0.125 A 
ATOM      9  C   UNL     1      -8.653 -24.178 -18.351  1.00  0.00     0.078 A 
ATOM     10  C   UNL     1      -8.731 -23.796 -19.694  1.00  0.00     0.223 A 
ENDROOT
BRANCH   1  11
ATOM     11  C   UNL     1      -7.958 -22.263 -21.550  1.00  0.00     0.084 A 
ATOM     12  C   UNL     1      -7.093 -22.787 -22.527  1.00  0.00     0.022 A 
ATOM     13  C   UNL     1      -7.164 -22.337 -23.850  1.00  0.00     0.047 A 
ATOM     14  C   UNL     1      -8.108 -21.368 -24.214  1.00  0.00     0.115 A 
ATOM     15  C   UNL     1      -8.915 -21.307 -21.929  1.00  0.00     0.022 A 
ATOM     16  C   UNL     1      -8.984 -20.858 -23.251  1.00  0.00     0.047 A 
BRANCH  14  17
ATOM     17  O   UNL     1      -8.188 -20.912 -25.527  1.00  0.00    -0.508 OA
ATOM     18  H   UNL     1      -8.377 -19.939 -25.739  1.00  0.00     0.293 HD
ENDBRANCH  14  17
ENDBRANCH   1  11
BRANCH  10  19
ATOM     19  O   UNL     1      -9.580 -24.477 -20.567  1.00  0.00    -0.500 OA
ATOM     20  H   UNL     1      -9.219 -25.051 -21.319  1.00  0.00     0.294 HD
ENDBRANCH  10  19
BRANCH   5  21
ATOM     21  O   UNL     1      -4.992 -21.456 -15.084  1.00  0.00    -0.507 OA
ATOM     22  H   UNL     1      -5.109 -21.374 -14.081  1.00  0.00     0.293 HD
ENDBRANCH   5  21
BRANCH   7  23
ATOM     23  O   UNL     1      -8.371 -24.863 -15.489  1.00  0.00    -0.507 OA
ATOM     24  H   UNL     1      -8.097 -25.833 -15.440  1.00  0.00     0.293 HD
ENDBRANCH   7  23
TORSDOF 5
ENDMDL
MODEL 3
REMARK VINA RESULT:    -6.359      1.680      3.241
REMARK INTER + INTRA:          -7.744
REMARK INTER:                  -7.425
REMARK INTRA:                  -0.320
REMARK UNBOUND:                -0.270
REMARK SMILES Oc1ccc(-c2[o+]c3cc(O)cc(O)c3cc2O)cc1
REMARK SMILES IDX 6 1 7 2 8 3 9 4 10 5 12 6 13 7 15 8 16 9 17 10 5 11 4 12
REMARK SMILES IDX 3 13 2 14 19 15 20 16 1 17 18 19 11 21 14 23
REMARK H PARENT 1 18 18 20 11 22 14 24
REMARK Flexibility Score: inf
ROOT
ATOM      1  C   UNL     1      -6.777 -23.296 -20.718  1.00  0.00     0.401 A 
ATOM      2  O   UNL     1      -6.145 -22.647 -19.743  1.00  0.00    -0.202 OA
ATOM      3  C   UNL     1      -6.458 -22.777 -18.458  1.00  0.00     0.368 A 
ATOM      4  C   UNL     1      -5.737 -22.051 -17.507  1.00  0.00     0.162 A 
ATOM      5  C   UNL     1      -6.046 -22.164 -16.150  1.00  0.00     0.128 A 
ATOM      6  C   UNL     1      -7.084 -23.009 -15.740  1.00  0.00     0.093 A 
ATOM      7  C   UNL     1      -7.821 -23.748 -16.674  1.00  0.00     0.136 A 
ATOM      8  C   UNL     1      -7.507 -23.637 -18.055  1.00  0.00     0.125 A 
ATOM      9  C   UNL     1      -8.184 -24.348 -19.059  1.00  0.00     0.078 A 
ATOM     10  C   UNL     1      -7.816 -24.190 -20.399  1.00  0.00     0.223 A 
ENDROOT
BRANCH   1  11
ATOM     11  C   UNL     1      -6.341 -23.059 -22.113  1.00  0.00     0.084 A 
ATOM     12  C   UNL     1      -6.891 -22.021 -22.887  1.00  0.00     0.022 A 
ATOM     13  C   UNL     1      -6.447 -21.803 -24.195  1.00  0.00     0.047 A 
ATOM     14  C   UNL     1      -5.440 -22.610 -24.741  1.00  0.00     0.115 A 
ATOM     15  C   UNL     1      -5.318 -23.850 -22.662  1.00  0.00     0.022 A 
ATOM     16  C   UNL     1      -4.876 -23.631 -23.970  1.00  0.00     0.047 A 
BRANCH  14  17
ATOM     17  O   UNL     1      -4.990 -22.403 -26.043  1.00  0.00    -0.508 OA
ATOM     18  H   UNL     1      -4.669 -21.493 -26.354  1.00  0.00     0.293 HD
ENDBRANCH  14  17
ENDBRANCH   1  11
BRANCH  10  19
ATOM     19  O   UNL     1      -8.453 -24.934 -21.392  1.00  0.00    -0.500 OA
ATOM     20  H   UNL     1      -8.756 -24.512 -22.261  1.00  0.00     0.294 HD
ENDBRANCH  10  19
BRANCH   5  21
ATOM     21  O   UNL     1      -5.317 -21.432 -15.216  1.00  0.00    -0.507 OA
ATOM     22  H   UNL     1      -5.767 -20.788 -14.578  1.00  0.00     0.293 HD
ENDBRANCH   5  21
BRANCH   7  23
ATOM     23  O   UNL     1      -8.843 -24.566 -16.186  1.00  0.00    -0.507 OA
ATOM     24  H   UNL     1      -9.685 -24.792 -16.695  1.00  0.00     0.293 HD
ENDBRANCH   7  23
TORSDOF 5
ENDMDL
MODEL 4
REMARK VINA RESULT:    -5.966      1.520      6.893
REMARK INTER + INTRA:          -7.282
REMARK INTER:                  -6.982
REMARK INTRA:                  -0.300
REMARK UNBOUND:                -0.270
REMARK SMILES Oc1ccc(-c2[o+]c3cc(O)cc(O)c3cc2O)cc1
REMARK SMILES IDX 6 1 7 2 8 3 9 4 10 5 12 6 13 7 15 8 16 9 17 10 5 11 4 12
REMARK SMILES IDX 3 13 2 14 19 15 20 16 1 17 18 19 11 21 14 23
REMARK H PARENT 1 18 18 20 11 22 14 24
REMARK Flexibility Score: inf
ROOT
ATOM      1  C   UNL     1      -7.081 -22.580 -20.186  1.00  0.00     0.401 A 
ATOM      2  O   UNL     1      -8.007 -21.866 -20.822  1.00  0.00    -0.202 OA
ATOM      3  C   UNL     1      -7.996 -21.662 -22.135  1.00  0.00     0.368 A 
ATOM      4  C   UNL     1      -9.012 -20.895 -22.711  1.00  0.00     0.162 A 
ATOM      5  C   UNL     1      -9.025 -20.660 -24.087  1.00  0.00     0.128 A 
ATOM      6  C   UNL     1      -8.014 -21.195 -24.894  1.00  0.00     0.093 A 
ATOM      7  C   UNL     1      -6.985 -21.967 -24.341  1.00  0.00     0.136 A 
ATOM      8  C   UNL     1      -6.971 -22.210 -22.942  1.00  0.00     0.125 A 
ATOM      9  C   UNL     1      -5.987 -22.982 -22.303  1.00  0.00     0.078 A 
ATOM     10  C   UNL     1      -6.041 -23.181 -20.920  1.00  0.00     0.223 A 
ENDROOT
BRANCH   1  11
ATOM     11  C   UNL     1      -7.196 -22.727 -18.717  1.00  0.00     0.084 A 
ATOM     12  C   UNL     1      -6.403 -21.968 -17.839  1.00  0.00     0.022 A 
ATOM     13  C   UNL     1      -6.547 -22.108 -16.455  1.00  0.00     0.047 A 
ATOM     14  C   UNL     1      -7.494 -22.999 -15.933  1.00  0.00     0.115 A 
ATOM     15  C   UNL     1      -8.157 -23.602 -18.184  1.00  0.00     0.022 A 
ATOM     16  C   UNL     1      -8.299 -23.742 -16.801  1.00  0.00     0.047 A 
BRANCH  14  17
ATOM     17  O   UNL     1      -7.645 -23.148 -14.556  1.00  0.00    -0.508 OA
ATOM     18  H   UNL     1      -6.844 -23.192 -13.937  1.00  0.00     0.293 HD
ENDBRANCH  14  17
ENDBRANCH   1  11
BRANCH  10  19
ATOM     19  O   UNL     1      -5.093 -23.989 -20.291  1.00  0.00    -0.500 OA
ATOM     20  H   UNL     1      -5.155 -25.000 -20.316  1.00  0.00     0.294 HD
ENDBRANCH  10  19
BRANCH   5  21
ATOM     21  O   UNL     1     -10.046 -19.894 -24.644  1.00  0.00    -0.507 OA
ATOM     22  H   UNL     1     -11.008 -19.995 -24.346  1.00  0.00     0.293 HD
ENDBRANCH   5  21
BRANCH   7  23
ATOM     23  O   UNL     1      -6.012 -22.463 -25.213  1.00  0.00    -0.507 OA
ATOM     24  H   UNL     1      -6.196 -23.114 -25.962  1.00  0.00     0.293 HD
ENDBRANCH   7  23
TORSDOF 5
ENDMDL
MODEL 5
REMARK VINA RESULT:    -4.900      2.717      6.601
REMARK INTER + INTRA:          -6.029
REMARK INTER:                  -6.018
REMARK INTRA:                  -0.011
REMARK UNBOUND:                -0.270
REMARK SMILES Oc1ccc(-c2[o+]c3cc(O)cc(O)c3cc2O)cc1
REMARK SMILES IDX 6 1 7 2 8 3 9 4 10 5 12 6 13 7 15 8 16 9 17 10 5 11 4 12
REMARK SMILES IDX 3 13 2 14 19 15 20 16 1 17 18 19 11 21 14 23
REMARK H PARENT 1 18 18 20 11 22 14 24
REMARK Flexibility Score: inf
ROOT
ATOM      1  C   UNL     1      -6.320 -23.177 -19.458  1.00  0.00     0.401 A 
ATOM      2  O   UNL     1      -6.093 -24.415 -19.891  1.00  0.00    -0.202 OA
ATOM      3  C   UNL     1      -5.703 -24.695 -21.130  1.00  0.00     0.368 A 
ATOM      4  C   UNL     1      -5.493 -26.028 -21.491  1.00  0.00     0.162 A 
ATOM      5  C   UNL     1      -5.087 -26.353 -22.787  1.00  0.00     0.128 A 
ATOM      6  C   UNL     1      -4.889 -25.337 -23.730  1.00  0.00     0.093 A 
ATOM      7  C   UNL     1      -5.093 -23.993 -23.392  1.00  0.00     0.136 A 
ATOM      8  C   UNL     1      -5.503 -23.660 -22.075  1.00  0.00     0.125 A 
ATOM      9  C   UNL     1      -5.719 -22.340 -21.644  1.00  0.00     0.078 A 
ATOM     10  C   UNL     1      -6.119 -22.089 -20.329  1.00  0.00     0.223 A 
ENDROOT
BRANCH   1  11
ATOM     11  C   UNL     1      -6.761 -22.995 -18.057  1.00  0.00     0.084 A 
ATOM     12  C   UNL     1      -7.861 -23.700 -17.536  1.00  0.00     0.022 A 
ATOM     13  C   UNL     1      -8.245 -23.528 -16.203  1.00  0.00     0.047 A 
ATOM     14  C   UNL     1      -7.527 -22.659 -15.370  1.00  0.00     0.115 A 
ATOM     15  C   UNL     1      -6.035 -22.142 -17.209  1.00  0.00     0.022 A 
ATOM     16  C   UNL     1      -6.421 -21.970 -15.876  1.00  0.00     0.047 A 
BRANCH  14  17
ATOM     17  O   UNL     1      -7.900 -22.479 -14.041  1.00  0.00    -0.508 OA
ATOM     18  H   UNL     1      -7.765 -21.592 -13.568  1.00  0.00     0.293 HD
ENDBRANCH  14  17
ENDBRANCH   1  11
BRANCH  10  19
ATOM     19  O   UNL     1      -6.285 -20.776 -19.886  1.00  0.00    -0.500 OA
ATOM     20  H   UNL     1      -5.544 -20.090 -19.967  1.00  0.00     0.294 HD
ENDBRANCH  10  19
BRANCH   5  21
ATOM     21  O   UNL     1      -4.882 -27.687 -23.128  1.00  0.00    -0.507 OA
ATOM     22  H   UNL     1      -4.831 -27.985 -24.095  1.00  0.00     0.293 HD
ENDBRANCH   5  21
BRANCH   7  23
ATOM     23  O   UNL     1      -4.878 -23.039 -24.391  1.00  0.00    -0.507 OA
ATOM     24  H   UNL     1      -4.779 -22.049 -24.222  1.00  0.00     0.293 HD
ENDBRANCH   7  23
TORSDOF 5
ENDMDL
