MODEL 1
REMARK VINA RESULT:    -7.404      0.000      0.000
REMARK INTER + INTRA:         -11.595
REMARK INTER:                 -10.218
REMARK INTRA:                  -1.377
REMARK UNBOUND:                -1.377
REMARK SMILES O=C([O-])[C@@H]1O[C@@H](Oc2cc3oc(-c4ccccc4)cc(=O)c3c(O)c2O)[C@H](O)[C@@H](O)[C@H]1O
REMARK SMILES IDX 7 1 6 2 4 3 31 4 5 5 29 6 27 7 2 8 1 9 3 10 32 11 30 13
REMARK SMILES IDX 28 15 8 17 25 18 9 19 23 20 10 21 22 22 11 23 20 24 12 25
REMARK SMILES IDX 19 26 21 27 26 28 24 30 13 32 14 33 18 34 15 35 17 36 16 37
REMARK H PARENT 32 12 30 14 28 16 26 29 24 31
REMARK Flexibility Score: inf
ROOT
ATOM      1  O   UNL     1      -3.059 -42.676 -33.723  1.00  0.00    -0.458 OA
ENDROOT
BRANCH   1   2
ATOM      2  C   UNL     1      -3.730 -41.412 -33.623  1.00  0.00     0.339 C 
ATOM      3  C   UNL     1      -3.963 -41.597 -31.291  1.00  0.00     0.199 C 
ATOM      4  C   UNL     1      -5.505 -41.672 -31.330  1.00  0.00     0.180 C 
ATOM      5  O   UNL     1      -3.466 -40.815 -32.364  1.00  0.00    -0.328 OA
ATOM      6  C   UNL     1      -5.998 -42.201 -32.694  1.00  0.00     0.181 C 
ATOM      7  C   UNL     1      -5.257 -41.535 -33.876  1.00  0.00     0.214 C 
BRANCH   3   8
ATOM      8  C   UNL     1      -3.516 -40.966 -30.005  1.00  0.00     0.073 C 
ATOM      9  O   UNL     1      -2.336 -41.131 -29.595  1.00  0.00    -0.547 OA
ATOM     10  O   UNL     1      -4.414 -40.237 -29.234  1.00  0.00    -0.547 OA
ENDBRANCH   3   8
BRANCH   4  11
ATOM     11  O   UNL     1      -5.984 -42.512 -30.308  1.00  0.00    -0.387 OA
ATOM     12  H   UNL     1      -5.199 -42.981 -29.923  1.00  0.00     0.211 HD
ENDBRANCH   4  11
BRANCH   6  13
ATOM     13  O   UNL     1      -5.919 -43.605 -32.774  1.00  0.00    -0.387 OA
ATOM     14  H   UNL     1      -5.310 -43.924 -32.061  1.00  0.00     0.211 HD
ENDBRANCH   6  13
BRANCH   7  15
ATOM     15  O   UNL     1      -5.809 -40.271 -34.154  1.00  0.00    -0.384 OA
ATOM     16  H   UNL     1      -6.798 -40.356 -34.124  1.00  0.00     0.211 HD
ENDBRANCH   7  15
ENDBRANCH   1   2
BRANCH   1  17
ATOM     17  C   UNL     1      -1.701 -42.914 -34.010  1.00  0.00     0.172 A 
ATOM     18  C   UNL     1      -0.677 -42.988 -33.037  1.00  0.00     0.201 A 
ATOM     19  C   UNL     1      -1.377 -43.106 -35.353  1.00  0.00     0.098 A 
ATOM     20  C   UNL     1       0.660 -43.218 -33.427  1.00  0.00     0.176 A 
ATOM     21  C   UNL     1      -0.059 -43.295 -35.759  1.00  0.00     0.146 A 
ATOM     22  C   UNL     1       0.990 -43.319 -34.808  1.00  0.00     0.111 A 
ATOM     23  O   UNL     1       0.192 -43.438 -37.057  1.00  0.00    -0.456 OA
ATOM     24  C   UNL     1       2.308 -43.419 -35.315  1.00  0.00     0.197 A 
ATOM     25  C   UNL     1       1.415 -43.583 -37.555  1.00  0.00     0.138 A 
ATOM     26  C   UNL     1       2.514 -43.574 -36.686  1.00  0.00     0.100 A 
ATOM     27  O   UNL     1       3.318 -43.342 -34.568  1.00  0.00    -0.289 OA
BRANCH  18  28
ATOM     28  O   UNL     1      -0.986 -42.869 -31.681  1.00  0.00    -0.502 OA
ATOM     29  H   UNL     1      -0.305 -42.595 -30.983  1.00  0.00     0.293 HD
ENDBRANCH  18  28
BRANCH  20  30
ATOM     30  O   UNL     1       1.607 -43.371 -32.407  1.00  0.00    -0.504 OA
ATOM     31  H   UNL     1       1.719 -42.737 -31.629  1.00  0.00     0.293 HD
ENDBRANCH  20  30
BRANCH  25  32
ATOM     32  C   UNL     1       1.573 -43.756 -39.021  1.00  0.00     0.017 A 
ATOM     33  C   UNL     1       2.179 -42.735 -39.776  1.00  0.00     0.012 A 
ATOM     34  C   UNL     1       1.150 -44.928 -39.681  1.00  0.00     0.012 A 
ATOM     35  C   UNL     1       2.336 -42.872 -41.159  1.00  0.00     0.001 A 
ATOM     36  C   UNL     1       1.312 -45.060 -41.064  1.00  0.00     0.001 A 
ATOM     37  C   UNL     1       1.900 -44.032 -41.804  1.00  0.00     0.000 A 
ENDBRANCH  25  32
ENDBRANCH   1  17
TORSDOF 9
ENDMDL
MODEL 2
REMARK VINA RESULT:    -7.379      1.262      2.145
REMARK INTER + INTRA:         -11.561
REMARK INTER:                 -10.642
REMARK INTRA:                  -0.919
REMARK UNBOUND:                -1.377
REMARK SMILES O=C([O-])[C@@H]1O[C@@H](Oc2cc3oc(-c4ccccc4)cc(=O)c3c(O)c2O)[C@H](O)[C@@H](O)[C@H]1O
REMARK SMILES IDX 7 1 6 2 4 3 31 4 5 5 29 6 27 7 2 8 1 9 3 10 32 11 30 13
REMARK SMILES IDX 28 15 8 17 25 18 9 19 23 20 10 21 22 22 11 23 20 24 12 25
REMARK SMILES IDX 19 26 21 27 26 28 24 30 13 32 14 33 18 34 15 35 17 36 16 37
REMARK H PARENT 32 12 30 14 28 16 26 29 24 31
REMARK Flexibility Score: inf
ROOT
ATOM      1  O   UNL     1      -2.985 -43.360 -33.660  1.00  0.00    -0.458 OA
ENDROOT
BRANCH   1   2
ATOM      2  C   UNL     1      -4.098 -42.775 -34.348  1.00  0.00     0.339 C 
ATOM      3  C   UNL     1      -3.429 -40.590 -33.795  1.00  0.00     0.199 C 
ATOM      4  C   UNL     1      -4.665 -40.306 -32.914  1.00  0.00     0.180 C 
ATOM      5  O   UNL     1      -3.749 -41.492 -34.842  1.00  0.00    -0.328 OA
ATOM      6  C   UNL     1      -5.268 -41.618 -32.368  1.00  0.00     0.181 C 
ATOM      7  C   UNL     1      -5.370 -42.707 -33.461  1.00  0.00     0.214 C 
BRANCH   3   8
ATOM      8  C   UNL     1      -2.938 -39.313 -34.411  1.00  0.00     0.073 C 
ATOM      9  O   UNL     1      -2.542 -38.367 -33.680  1.00  0.00    -0.547 OA
ATOM     10  O   UNL     1      -2.963 -39.147 -35.792  1.00  0.00    -0.547 OA
ENDBRANCH   3   8
BRANCH   4  11
ATOM     11  O   UNL     1      -4.320 -39.471 -31.836  1.00  0.00    -0.387 OA
ATOM     12  H   UNL     1      -4.722 -39.867 -31.019  1.00  0.00     0.211 HD
ENDBRANCH   4  11
BRANCH   6  13
ATOM     13  O   UNL     1      -4.565 -42.092 -31.244  1.00  0.00    -0.387 OA
ATOM     14  H   UNL     1      -3.595 -42.003 -31.422  1.00  0.00     0.211 HD
ENDBRANCH   6  13
BRANCH   7  15
ATOM     15  O   UNL     1      -6.511 -42.500 -34.257  1.00  0.00    -0.384 OA
ATOM     16  H   UNL     1      -6.735 -43.361 -34.699  1.00  0.00     0.211 HD
ENDBRANCH   7  15
ENDBRANCH   1   2
BRANCH   1  17
ATOM     17  C   UNL     1      -1.626 -43.331 -34.030  1.00  0.00     0.172 A 
ATOM     18  C   UNL     1      -0.557 -43.084 -33.137  1.00  0.00     0.201 A 
ATOM     19  C   UNL     1      -1.344 -43.587 -35.372  1.00  0.00     0.098 A 
ATOM     20  C   UNL     1       0.773 -43.062 -33.607  1.00  0.00     0.176 A 
ATOM     21  C   UNL     1      -0.042 -43.530 -35.861  1.00  0.00     0.146 A 
ATOM     22  C   UNL     1       1.039 -43.231 -34.996  1.00  0.00     0.111 A 
ATOM     23  O   UNL     1       0.160 -43.749 -37.156  1.00  0.00    -0.456 OA
ATOM     24  C   UNL     1       2.316 -43.099 -35.593  1.00  0.00     0.197 A 
ATOM     25  C   UNL     1       1.355 -43.679 -37.734  1.00  0.00     0.138 A 
ATOM     26  C   UNL     1       2.473 -43.346 -36.957  1.00  0.00     0.100 A 
ATOM     27  O   UNL     1       3.325 -42.731 -34.937  1.00  0.00    -0.289 OA
BRANCH  18  28
ATOM     28  O   UNL     1      -0.807 -42.895 -31.776  1.00  0.00    -0.502 OA
ATOM     29  H   UNL     1      -0.141 -43.142 -31.055  1.00  0.00     0.293 HD
ENDBRANCH  18  28
BRANCH  20  30
ATOM     30  O   UNL     1       1.787 -42.903 -32.655  1.00  0.00    -0.504 OA
ATOM     31  H   UNL     1       2.678 -42.465 -32.834  1.00  0.00     0.293 HD
ENDBRANCH  20  30
BRANCH  25  32
ATOM     32  C   UNL     1       1.463 -43.964 -39.187  1.00  0.00     0.017 A 
ATOM     33  C   UNL     1       2.130 -43.049 -40.023  1.00  0.00     0.012 A 
ATOM     34  C   UNL     1       0.935 -45.141 -39.755  1.00  0.00     0.012 A 
ATOM     35  C   UNL     1       2.243 -43.292 -41.395  1.00  0.00     0.001 A 
ATOM     36  C   UNL     1       1.053 -45.380 -41.128  1.00  0.00     0.001 A 
ATOM     37  C   UNL     1       1.701 -44.455 -41.949  1.00  0.00     0.000 A 
ENDBRANCH  25  32
ENDBRANCH   1  17
TORSDOF 9
ENDMDL
MODEL 3
REMARK VINA RESULT:    -6.744      1.544      2.059
REMARK INTER + INTRA:         -10.684
REMARK INTER:                  -9.317
REMARK INTRA:                  -1.367
REMARK UNBOUND:                -1.377
REMARK SMILES O=C([O-])[C@@H]1O[C@@H](Oc2cc3oc(-c4ccccc4)cc(=O)c3c(O)c2O)[C@H](O)[C@@H](O)[C@H]1O
REMARK SMILES IDX 7 1 6 2 4 3 31 4 5 5 29 6 27 7 2 8 1 9 3 10 32 11 30 13
REMARK SMILES IDX 28 15 8 17 25 18 9 19 23 20 10 21 22 22 11 23 20 24 12 25
REMARK SMILES IDX 19 26 21 27 26 28 24 30 13 32 14 33 18 34 15 35 17 36 16 37
REMARK H PARENT 32 12 30 14 28 16 26 29 24 31
REMARK Flexibility Score: inf
ROOT
ATOM      1  O   UNL     1      -2.129 -40.607 -33.737  1.00  0.00    -0.458 OA
ENDROOT
BRANCH   1   2
ATOM      2  C   UNL     1      -3.473 -40.786 -34.206  1.00  0.00     0.339 C 
ATOM      3  C   UNL     1      -4.382 -39.634 -32.369  1.00  0.00     0.199 C 
ATOM      4  C   UNL     1      -5.112 -40.871 -31.802  1.00  0.00     0.180 C 
ATOM      5  O   UNL     1      -4.288 -39.705 -33.782  1.00  0.00    -0.328 OA
ATOM      6  C   UNL     1      -4.426 -42.176 -32.260  1.00  0.00     0.181 C 
ATOM      7  C   UNL     1      -4.074 -42.148 -33.765  1.00  0.00     0.214 C 
BRANCH   3   8
ATOM      8  C   UNL     1      -5.139 -38.388 -32.012  1.00  0.00     0.073 C 
ATOM      9  O   UNL     1      -6.396 -38.409 -31.939  1.00  0.00    -0.547 OA
ATOM     10  O   UNL     1      -4.460 -37.192 -31.810  1.00  0.00    -0.547 OA
ENDBRANCH   3   8
BRANCH   4  11
ATOM     11  O   UNL     1      -5.134 -40.829 -30.396  1.00  0.00    -0.387 OA
ATOM     12  H   UNL     1      -4.468 -41.491 -30.073  1.00  0.00     0.211 HD
ENDBRANCH   4  11
BRANCH   6  13
ATOM     13  O   UNL     1      -3.292 -42.477 -31.480  1.00  0.00    -0.387 OA
ATOM     14  H   UNL     1      -3.334 -41.939 -30.650  1.00  0.00     0.211 HD
ENDBRANCH   6  13
BRANCH   7  15
ATOM     15  O   UNL     1      -5.205 -42.456 -34.542  1.00  0.00    -0.384 OA
ATOM     16  H   UNL     1      -5.797 -43.042 -34.001  1.00  0.00     0.211 HD
ENDBRANCH   7  15
ENDBRANCH   1   2
BRANCH   1  17
ATOM     17  C   UNL     1      -0.998 -41.392 -34.032  1.00  0.00     0.172 A 
ATOM     18  C   UNL     1      -0.169 -41.999 -33.060  1.00  0.00     0.201 A 
ATOM     19  C   UNL     1      -0.712 -41.584 -35.383  1.00  0.00     0.098 A 
ATOM     20  C   UNL     1       0.953 -42.759 -33.455  1.00  0.00     0.176 A 
ATOM     21  C   UNL     1       0.412 -42.297 -35.791  1.00  0.00     0.146 A 
ATOM     22  C   UNL     1       1.286 -42.869 -34.836  1.00  0.00     0.111 A 
ATOM     23  O   UNL     1       0.650 -42.417 -37.093  1.00  0.00    -0.456 OA
ATOM     24  C   UNL     1       2.455 -43.493 -35.333  1.00  0.00     0.197 A 
ATOM     25  C   UNL     1       1.713 -43.040 -37.590  1.00  0.00     0.138 A 
ATOM     26  C   UNL     1       2.653 -43.597 -36.711  1.00  0.00     0.100 A 
ATOM     27  O   UNL     1       3.351 -43.939 -34.570  1.00  0.00    -0.289 OA
BRANCH  18  28
ATOM     28  O   UNL     1      -0.474 -41.881 -31.703  1.00  0.00    -0.502 OA
ATOM     29  H   UNL     1      -0.121 -41.129 -31.123  1.00  0.00     0.293 HD
ENDBRANCH  18  28
BRANCH  20  30
ATOM     30  O   UNL     1       1.676 -43.407 -32.446  1.00  0.00    -0.504 OA
ATOM     31  H   UNL     1       1.921 -42.991 -31.560  1.00  0.00     0.293 HD
ENDBRANCH  20  30
BRANCH  25  32
ATOM     32  C   UNL     1       1.865 -43.130 -39.063  1.00  0.00     0.017 A 
ATOM     33  C   UNL     1       1.753 -44.383 -39.695  1.00  0.00     0.012 A 
ATOM     34  C   UNL     1       2.099 -41.988 -39.857  1.00  0.00     0.012 A 
ATOM     35  C   UNL     1       1.896 -44.494 -41.082  1.00  0.00     0.001 A 
ATOM     36  C   UNL     1       2.238 -42.106 -41.244  1.00  0.00     0.001 A 
ATOM     37  C   UNL     1       2.142 -43.357 -41.856  1.00  0.00     0.000 A 
ENDBRANCH  25  32
ENDBRANCH   1  17
TORSDOF 9
ENDMDL
MODEL 4
REMARK VINA RESULT:    -6.708      2.045      3.085
REMARK INTER + INTRA:         -10.633
REMARK INTER:                  -9.441
REMARK INTRA:                  -1.193
REMARK UNBOUND:                -1.377
REMARK SMILES O=C([O-])[C@@H]1O[C@@H](Oc2cc3oc(-c4ccccc4)cc(=O)c3c(O)c2O)[C@H](O)[C@@H](O)[C@H]1O
REMARK SMILES IDX 7 1 6 2 4 3 31 4 5 5 29 6 27 7 2 8 1 9 3 10 32 11 30 13
REMARK SMILES IDX 28 15 8 17 25 18 9 19 23 20 10 21 22 22 11 23 20 24 12 25
REMARK SMILES IDX 19 26 21 27 26 28 24 30 13 32 14 33 18 34 15 35 17 36 16 37
REMARK H PARENT 32 12 30 14 28 16 26 29 24 31
REMARK Flexibility Score: inf
ROOT
ATOM      1  O   UNL     1      -2.173 -41.543 -33.693  1.00  0.00    -0.458 OA
ENDROOT
BRANCH   1   2
ATOM      2  C   UNL     1      -2.429 -42.578 -32.735  1.00  0.00     0.339 C 
ATOM      3  C   UNL     1      -4.746 -42.178 -32.761  1.00  0.00     0.199 C 
ATOM      4  C   UNL     1      -4.802 -41.708 -31.290  1.00  0.00     0.180 C 
ATOM      5  O   UNL     1      -3.716 -43.135 -32.948  1.00  0.00    -0.328 OA
ATOM      6  C   UNL     1      -3.431 -41.165 -30.831  1.00  0.00     0.181 C 
ATOM      7  C   UNL     1      -2.268 -42.081 -31.273  1.00  0.00     0.214 C 
BRANCH   3   8
ATOM      8  C   UNL     1      -6.050 -42.813 -33.143  1.00  0.00     0.073 C 
ATOM      9  O   UNL     1      -6.351 -42.963 -34.357  1.00  0.00    -0.547 OA
ATOM     10  O   UNL     1      -6.957 -43.195 -32.160  1.00  0.00    -0.547 OA
ENDBRANCH   3   8
BRANCH   4  11
ATOM     11  O   UNL     1      -5.774 -40.705 -31.131  1.00  0.00    -0.387 OA
ATOM     12  H   UNL     1      -5.382 -40.007 -30.544  1.00  0.00     0.211 HD
ENDBRANCH   4  11
BRANCH   6  13
ATOM     13  O   UNL     1      -3.222 -39.839 -31.256  1.00  0.00    -0.387 OA
ATOM     14  H   UNL     1      -3.262 -39.818 -32.245  1.00  0.00     0.211 HD
ENDBRANCH   6  13
BRANCH   7  15
ATOM     15  O   UNL     1      -2.141 -43.174 -30.397  1.00  0.00    -0.384 OA
ATOM     16  H   UNL     1      -1.459 -42.941 -29.714  1.00  0.00     0.211 HD
ENDBRANCH   7  15
ENDBRANCH   1   2
BRANCH   1  17
ATOM     17  C   UNL     1      -0.953 -41.230 -34.325  1.00  0.00     0.172 A 
ATOM     18  C   UNL     1       0.005 -40.323 -33.814  1.00  0.00     0.201 A 
ATOM     19  C   UNL     1      -0.690 -41.891 -35.524  1.00  0.00     0.098 A 
ATOM     20  C   UNL     1       1.194 -40.066 -34.529  1.00  0.00     0.176 A 
ATOM     21  C   UNL     1       0.459 -41.620 -36.262  1.00  0.00     0.146 A 
ATOM     22  C   UNL     1       1.407 -40.677 -35.798  1.00  0.00     0.111 A 
ATOM     23  O   UNL     1       0.638 -42.257 -37.415  1.00  0.00    -0.456 OA
ATOM     24  C   UNL     1       2.496 -40.391 -36.655  1.00  0.00     0.197 A 
ATOM     25  C   UNL     1       1.677 -42.045 -38.216  1.00  0.00     0.138 A 
ATOM     26  C   UNL     1       2.640 -41.094 -37.852  1.00  0.00     0.100 A 
ATOM     27  O   UNL     1       3.338 -39.493 -36.390  1.00  0.00    -0.289 OA
BRANCH  18  28
ATOM     28  O   UNL     1      -0.203 -39.702 -32.581  1.00  0.00    -0.502 OA
ATOM     29  H   UNL     1      -0.281 -38.698 -32.477  1.00  0.00     0.293 HD
ENDBRANCH  18  28
BRANCH  20  30
ATOM     30  O   UNL     1       2.138 -39.229 -33.922  1.00  0.00    -0.504 OA
ATOM     31  H   UNL     1       1.911 -38.409 -33.379  1.00  0.00     0.293 HD
ENDBRANCH  20  30
BRANCH  25  32
ATOM     32  C   UNL     1       1.783 -42.830 -39.471  1.00  0.00     0.017 A 
ATOM     33  C   UNL     1       2.128 -42.176 -40.669  1.00  0.00     0.012 A 
ATOM     34  C   UNL     1       1.569 -44.224 -39.497  1.00  0.00     0.012 A 
ATOM     35  C   UNL     1       2.231 -42.893 -41.865  1.00  0.00     0.001 A 
ATOM     36  C   UNL     1       1.676 -44.935 -40.696  1.00  0.00     0.001 A 
ATOM     37  C   UNL     1       2.002 -44.271 -41.880  1.00  0.00     0.000 A 
ENDBRANCH  25  32
ENDBRANCH   1  17
TORSDOF 9
ENDMDL
MODEL 5
REMARK VINA RESULT:    -6.503      1.279      1.756
REMARK INTER + INTRA:         -10.351
REMARK INTER:                  -8.996
REMARK INTRA:                  -1.355
REMARK UNBOUND:                -1.377
REMARK SMILES O=C([O-])[C@@H]1O[C@@H](Oc2cc3oc(-c4ccccc4)cc(=O)c3c(O)c2O)[C@H](O)[C@@H](O)[C@H]1O
REMARK SMILES IDX 7 1 6 2 4 3 31 4 5 5 29 6 27 7 2 8 1 9 3 10 32 11 30 13
REMARK SMILES IDX 28 15 8 17 25 18 9 19 23 20 10 21 22 22 11 23 20 24 12 25
REMARK SMILES IDX 19 26 21 27 26 28 24 30 13 32 14 33 18 34 15 35 17 36 16 37
REMARK H PARENT 32 12 30 14 28 16 26 29 24 31
REMARK Flexibility Score: inf
ROOT
ATOM      1  O   UNL     1      -1.786 -41.805 -33.465  1.00  0.00    -0.458 OA
ENDROOT
BRANCH   1   2
ATOM      2  C   UNL     1      -2.025 -40.531 -32.853  1.00  0.00     0.339 C 
ATOM      3  C   UNL     1      -2.792 -41.512 -30.859  1.00  0.00     0.199 C 
ATOM      4  C   UNL     1      -4.233 -40.976 -31.008  1.00  0.00     0.180 C 
ATOM      5  O   UNL     1      -1.857 -40.623 -31.447  1.00  0.00    -0.328 OA
ATOM      6  C   UNL     1      -4.569 -40.699 -32.490  1.00  0.00     0.181 C 
ATOM      7  C   UNL     1      -3.422 -39.957 -33.213  1.00  0.00     0.214 C 
BRANCH   3   8
ATOM      8  C   UNL     1      -2.450 -41.656 -29.405  1.00  0.00     0.073 C 
ATOM      9  O   UNL     1      -3.362 -41.653 -28.536  1.00  0.00    -0.547 OA
ATOM     10  O   UNL     1      -1.122 -41.744 -29.004  1.00  0.00    -0.547 OA
ENDBRANCH   3   8
BRANCH   4  11
ATOM     11  O   UNL     1      -5.158 -41.900 -30.490  1.00  0.00    -0.387 OA
ATOM     12  H   UNL     1      -4.937 -42.786 -30.879  1.00  0.00     0.211 HD
ENDBRANCH   4  11
BRANCH   6  13
ATOM     13  O   UNL     1      -4.925 -41.875 -33.178  1.00  0.00    -0.387 OA
ATOM     14  H   UNL     1      -4.095 -42.343 -33.446  1.00  0.00     0.211 HD
ENDBRANCH   6  13
BRANCH   7  15
ATOM     15  O   UNL     1      -3.472 -38.580 -32.932  1.00  0.00    -0.384 OA
ATOM     16  H   UNL     1      -4.280 -38.409 -32.382  1.00  0.00     0.211 HD
ENDBRANCH   7  15
ENDBRANCH   1   2
BRANCH   1  17
ATOM     17  C   UNL     1      -0.559 -42.333 -33.913  1.00  0.00     0.172 A 
ATOM     18  C   UNL     1       0.465 -42.813 -33.063  1.00  0.00     0.201 A 
ATOM     19  C   UNL     1      -0.378 -42.392 -35.295  1.00  0.00     0.098 A 
ATOM     20  C   UNL     1       1.667 -43.312 -33.609  1.00  0.00     0.176 A 
ATOM     21  C   UNL     1       0.816 -42.845 -35.849  1.00  0.00     0.146 A 
ATOM     22  C   UNL     1       1.876 -43.280 -35.017  1.00  0.00     0.111 A 
ATOM     23  O   UNL     1       0.942 -42.845 -37.173  1.00  0.00    -0.456 OA
ATOM     24  C   UNL     1       3.087 -43.632 -35.659  1.00  0.00     0.197 A 
ATOM     25  C   UNL     1       2.051 -43.218 -37.803  1.00  0.00     0.138 A 
ATOM     26  C   UNL     1       3.163 -43.621 -37.052  1.00  0.00     0.100 A 
ATOM     27  O   UNL     1       4.125 -43.930 -35.011  1.00  0.00    -0.289 OA
BRANCH  18  28
ATOM     28  O   UNL     1       0.280 -42.829 -31.680  1.00  0.00    -0.502 OA
ATOM     29  H   UNL     1      -0.006 -42.013 -31.153  1.00  0.00     0.293 HD
ENDBRANCH  18  28
BRANCH  20  30
ATOM     30  O   UNL     1       2.599 -43.855 -32.716  1.00  0.00    -0.504 OA
ATOM     31  H   UNL     1       2.479 -43.891 -31.714  1.00  0.00     0.293 HD
ENDBRANCH  20  30
BRANCH  25  32
ATOM     32  C   UNL     1       2.069 -43.197 -39.287  1.00  0.00     0.017 A 
ATOM     33  C   UNL     1       1.876 -44.397 -39.998  1.00  0.00     0.012 A 
ATOM     34  C   UNL     1       2.254 -42.002 -40.012  1.00  0.00     0.012 A 
ATOM     35  C   UNL     1       1.892 -44.404 -41.396  1.00  0.00     0.001 A 
ATOM     36  C   UNL     1       2.267 -42.016 -41.410  1.00  0.00     0.001 A 
ATOM     37  C   UNL     1       2.092 -43.216 -42.102  1.00  0.00     0.000 A 
ENDBRANCH  25  32
ENDBRANCH   1  17
TORSDOF 9
ENDMDL
MODEL 6
REMARK VINA RESULT:    -6.121      2.839      8.952
REMARK INTER + INTRA:          -9.824
REMARK INTER:                  -8.578
REMARK INTRA:                  -1.245
REMARK UNBOUND:                -1.377
REMARK SMILES O=C([O-])[C@@H]1O[C@@H](Oc2cc3oc(-c4ccccc4)cc(=O)c3c(O)c2O)[C@H](O)[C@@H](O)[C@H]1O
REMARK SMILES IDX 7 1 6 2 4 3 31 4 5 5 29 6 27 7 2 8 1 9 3 10 32 11 30 13
REMARK SMILES IDX 28 15 8 17 25 18 9 19 23 20 10 21 22 22 11 23 20 24 12 25
REMARK SMILES IDX 19 26 21 27 26 28 24 30 13 32 14 33 18 34 15 35 17 36 16 37
REMARK H PARENT 32 12 30 14 28 16 26 29 24 31
REMARK Flexibility Score: inf
ROOT
ATOM      1  O   UNL     1      -1.480 -42.292 -35.322  1.00  0.00    -0.458 OA
ENDROOT
BRANCH   1   2
ATOM      2  C   UNL     1      -0.666 -41.445 -36.144  1.00  0.00     0.339 C 
ATOM      3  C   UNL     1       0.616 -43.254 -36.926  1.00  0.00     0.199 C 
ATOM      4  C   UNL     1       1.925 -42.766 -36.267  1.00  0.00     0.180 C 
ATOM      5  O   UNL     1      -0.211 -42.157 -37.282  1.00  0.00    -0.328 OA
ATOM      6  C   UNL     1       1.628 -41.861 -35.052  1.00  0.00     0.181 C 
ATOM      7  C   UNL     1       0.521 -40.826 -35.358  1.00  0.00     0.214 C 
BRANCH   3   8
ATOM      8  C   UNL     1       0.930 -44.027 -38.173  1.00  0.00     0.073 C 
ATOM      9  O   UNL     1       0.040 -44.725 -38.727  1.00  0.00    -0.547 OA
ATOM     10  O   UNL     1       2.218 -44.018 -38.696  1.00  0.00    -0.547 OA
ENDBRANCH   3   8
BRANCH   4  11
ATOM     11  O   UNL     1       2.703 -43.861 -35.849  1.00  0.00    -0.387 OA
ATOM     12  H   UNL     1       2.588 -43.943 -34.867  1.00  0.00     0.211 HD
ENDBRANCH   4  11
BRANCH   6  13
ATOM     13  O   UNL     1       1.317 -42.610 -33.901  1.00  0.00    -0.387 OA
ATOM     14  H   UNL     1       2.156 -42.782 -33.404  1.00  0.00     0.211 HD
ENDBRANCH   6  13
BRANCH   7  15
ATOM     15  O   UNL     1       1.053 -39.729 -36.060  1.00  0.00    -0.384 OA
ATOM     16  H   UNL     1       1.934 -39.508 -35.661  1.00  0.00     0.211 HD
ENDBRANCH   7  15
ENDBRANCH   1   2
BRANCH   1  17
ATOM     17  C   UNL     1      -1.997 -42.017 -34.040  1.00  0.00     0.172 A 
ATOM     18  C   UNL     1      -1.810 -42.843 -32.907  1.00  0.00     0.201 A 
ATOM     19  C   UNL     1      -2.720 -40.832 -33.905  1.00  0.00     0.098 A 
ATOM     20  C   UNL     1      -2.380 -42.487 -31.666  1.00  0.00     0.176 A 
ATOM     21  C   UNL     1      -3.322 -40.486 -32.699  1.00  0.00     0.146 A 
ATOM     22  C   UNL     1      -3.194 -41.323 -31.565  1.00  0.00     0.111 A 
ATOM     23  O   UNL     1      -4.027 -39.360 -32.641  1.00  0.00    -0.456 OA
ATOM     24  C   UNL     1      -3.917 -40.946 -30.408  1.00  0.00     0.197 A 
ATOM     25  C   UNL     1      -4.675 -38.956 -31.554  1.00  0.00     0.138 A 
ATOM     26  C   UNL     1      -4.637 -39.751 -30.399  1.00  0.00     0.100 A 
ATOM     27  O   UNL     1      -3.961 -41.672 -29.381  1.00  0.00    -0.289 OA
BRANCH  18  28
ATOM     28  O   UNL     1      -1.032 -43.998 -32.999  1.00  0.00    -0.502 OA
ATOM     29  H   UNL     1      -1.317 -44.887 -32.606  1.00  0.00     0.293 HD
ENDBRANCH  18  28
BRANCH  20  30
ATOM     30  O   UNL     1      -2.080 -43.301 -30.567  1.00  0.00    -0.504 OA
ATOM     31  H   UNL     1      -2.768 -43.753 -29.983  1.00  0.00     0.293 HD
ENDBRANCH  20  30
BRANCH  25  32
ATOM     32  C   UNL     1      -5.415 -37.670 -31.600  1.00  0.00     0.017 A 
ATOM     33  C   UNL     1      -6.816 -37.683 -31.732  1.00  0.00     0.012 A 
ATOM     34  C   UNL     1      -4.755 -36.429 -31.492  1.00  0.00     0.012 A 
ATOM     35  C   UNL     1      -7.535 -36.485 -31.782  1.00  0.00     0.001 A 
ATOM     36  C   UNL     1      -5.481 -35.235 -31.539  1.00  0.00     0.001 A 
ATOM     37  C   UNL     1      -6.868 -35.261 -31.689  1.00  0.00     0.000 A 
ENDBRANCH  25  32
ENDBRANCH   1  17
TORSDOF 9
ENDMDL
MODEL 7
REMARK VINA RESULT:    -6.120      3.393      9.394
REMARK INTER + INTRA:          -9.822
REMARK INTER:                  -8.457
REMARK INTRA:                  -1.365
REMARK UNBOUND:                -1.377
REMARK SMILES O=C([O-])[C@@H]1O[C@@H](Oc2cc3oc(-c4ccccc4)cc(=O)c3c(O)c2O)[C@H](O)[C@@H](O)[C@H]1O
REMARK SMILES IDX 7 1 6 2 4 3 31 4 5 5 29 6 27 7 2 8 1 9 3 10 32 11 30 13
REMARK SMILES IDX 28 15 8 17 25 18 9 19 23 20 10 21 22 22 11 23 20 24 12 25
REMARK SMILES IDX 19 26 21 27 26 28 24 30 13 32 14 33 18 34 15 35 17 36 16 37
REMARK H PARENT 32 12 30 14 28 16 26 29 24 31
REMARK Flexibility Score: inf
ROOT
ATOM      1  O   UNL     1      -2.339 -41.662 -33.789  1.00  0.00    -0.458 OA
ENDROOT
BRANCH   1   2
ATOM      2  C   UNL     1      -1.296 -40.964 -34.483  1.00  0.00     0.339 C 
ATOM      3  C   UNL     1      -0.478 -42.938 -35.463  1.00  0.00     0.199 C 
ATOM      4  C   UNL     1       0.877 -42.885 -34.724  1.00  0.00     0.180 C 
ATOM      5  O   UNL     1      -0.980 -41.632 -35.693  1.00  0.00    -0.328 OA
ATOM      6  C   UNL     1       0.760 -42.082 -33.411  1.00  0.00     0.181 C 
ATOM      7  C   UNL     1      -0.031 -40.769 -33.604  1.00  0.00     0.214 C 
BRANCH   3   8
ATOM      8  C   UNL     1      -0.308 -43.616 -36.791  1.00  0.00     0.073 C 
ATOM      9  O   UNL     1      -0.330 -44.873 -36.869  1.00  0.00    -0.547 OA
ATOM     10  O   UNL     1      -0.077 -42.862 -37.936  1.00  0.00    -0.547 OA
ENDBRANCH   3   8
BRANCH   4  11
ATOM     11  O   UNL     1       1.330 -44.185 -34.433  1.00  0.00    -0.387 OA
ATOM     12  H   UNL     1       1.803 -44.518 -35.239  1.00  0.00     0.211 HD
ENDBRANCH   4  11
BRANCH   6  13
ATOM     13  O   UNL     1       0.211 -42.855 -32.368  1.00  0.00    -0.387 OA
ATOM     14  H   UNL     1      -0.675 -42.481 -32.135  1.00  0.00     0.211 HD
ENDBRANCH   6  13
BRANCH   7  15
ATOM     15  O   UNL     1       0.796 -39.772 -34.153  1.00  0.00    -0.384 OA
ATOM     16  H   UNL     1       1.118 -39.198 -33.409  1.00  0.00     0.211 HD
ENDBRANCH   7  15
ENDBRANCH   1   2
BRANCH   1  17
ATOM     17  C   UNL     1      -3.064 -41.234 -32.660  1.00  0.00     0.172 A 
ATOM     18  C   UNL     1      -3.036 -41.876 -31.399  1.00  0.00     0.201 A 
ATOM     19  C   UNL     1      -3.837 -40.084 -32.820  1.00  0.00     0.098 A 
ATOM     20  C   UNL     1      -3.810 -41.377 -30.330  1.00  0.00     0.176 A 
ATOM     21  C   UNL     1      -4.637 -39.602 -31.788  1.00  0.00     0.146 A 
ATOM     22  C   UNL     1      -4.667 -40.258 -30.534  1.00  0.00     0.111 A 
ATOM     23  O   UNL     1      -5.378 -38.521 -32.012  1.00  0.00    -0.456 OA
ATOM     24  C   UNL     1      -5.579 -39.758 -29.574  1.00  0.00     0.197 A 
ATOM     25  C   UNL     1      -6.206 -38.001 -31.111  1.00  0.00     0.138 A 
ATOM     26  C   UNL     1      -6.329 -38.616 -29.858  1.00  0.00     0.100 A 
ATOM     27  O   UNL     1      -5.765 -40.329 -28.467  1.00  0.00    -0.289 OA
BRANCH  18  28
ATOM     28  O   UNL     1      -2.216 -42.987 -31.193  1.00  0.00    -0.502 OA
ATOM     29  H   UNL     1      -1.261 -42.912 -30.868  1.00  0.00     0.293 HD
ENDBRANCH  18  28
BRANCH  20  30
ATOM     30  O   UNL     1      -3.665 -42.005 -29.087  1.00  0.00    -0.504 OA
ATOM     31  H   UNL     1      -3.607 -41.521 -28.203  1.00  0.00     0.293 HD
ENDBRANCH  20  30
BRANCH  25  32
ATOM     32  C   UNL     1      -6.970 -36.779 -31.466  1.00  0.00     0.017 A 
ATOM     33  C   UNL     1      -8.370 -36.849 -31.589  1.00  0.00     0.012 A 
ATOM     34  C   UNL     1      -6.334 -35.536 -31.664  1.00  0.00     0.012 A 
ATOM     35  C   UNL     1      -9.112 -35.713 -31.925  1.00  0.00     0.001 A 
ATOM     36  C   UNL     1      -7.082 -34.402 -31.997  1.00  0.00     0.001 A 
ATOM     37  C   UNL     1      -8.468 -34.490 -32.133  1.00  0.00     0.000 A 
ENDBRANCH  25  32
ENDBRANCH   1  17
TORSDOF 9
ENDMDL
MODEL 8
REMARK VINA RESULT:    -6.108      2.624      8.926
REMARK INTER + INTRA:          -9.806
REMARK INTER:                  -8.720
REMARK INTRA:                  -1.086
REMARK UNBOUND:                -1.377
REMARK SMILES O=C([O-])[C@@H]1O[C@@H](Oc2cc3oc(-c4ccccc4)cc(=O)c3c(O)c2O)[C@H](O)[C@@H](O)[C@H]1O
REMARK SMILES IDX 7 1 6 2 4 3 31 4 5 5 29 6 27 7 2 8 1 9 3 10 32 11 30 13
REMARK SMILES IDX 28 15 8 17 25 18 9 19 23 20 10 21 22 22 11 23 20 24 12 25
REMARK SMILES IDX 19 26 21 27 26 28 24 30 13 32 14 33 18 34 15 35 17 36 16 37
REMARK H PARENT 32 12 30 14 28 16 26 29 24 31
REMARK Flexibility Score: inf
ROOT
ATOM      1  O   UNL     1       0.089 -41.269 -36.792  1.00  0.00    -0.458 OA
ENDROOT
BRANCH   1   2
ATOM      2  C   UNL     1       1.320 -41.915 -36.444  1.00  0.00     0.339 C 
ATOM      3  C   UNL     1       1.953 -42.161 -38.695  1.00  0.00     0.199 C 
ATOM      4  C   UNL     1       1.895 -43.704 -38.667  1.00  0.00     0.180 C 
ATOM      5  O   UNL     1       2.310 -41.645 -37.423  1.00  0.00    -0.328 OA
ATOM      6  C   UNL     1       0.937 -44.202 -37.563  1.00  0.00     0.181 C 
ATOM      7  C   UNL     1       1.144 -43.443 -36.233  1.00  0.00     0.214 C 
BRANCH   3   8
ATOM      8  C   UNL     1       2.981 -41.707 -39.690  1.00  0.00     0.073 C 
ATOM      9  O   UNL     1       3.715 -42.549 -40.272  1.00  0.00    -0.547 OA
ATOM     10  O   UNL     1       3.163 -40.351 -39.937  1.00  0.00    -0.547 OA
ENDBRANCH   3   8
BRANCH   4  11
ATOM     11  O   UNL     1       1.467 -44.203 -39.911  1.00  0.00    -0.387 OA
ATOM     12  H   UNL     1       2.159 -44.841 -40.225  1.00  0.00     0.211 HD
ENDBRANCH   4  11
BRANCH   6  13
ATOM     13  O   UNL     1      -0.410 -44.150 -37.973  1.00  0.00    -0.387 OA
ATOM     14  H   UNL     1      -0.929 -44.782 -37.416  1.00  0.00     0.211 HD
ENDBRANCH   6  13
BRANCH   7  15
ATOM     15  O   UNL     1       2.244 -43.970 -35.531  1.00  0.00    -0.384 OA
ATOM     16  H   UNL     1       2.395 -43.403 -34.730  1.00  0.00     0.211 HD
ENDBRANCH   7  15
ENDBRANCH   1   2
BRANCH   1  17
ATOM     17  C   UNL     1      -0.808 -40.597 -35.938  1.00  0.00     0.172 A 
ATOM     18  C   UNL     1      -0.693 -39.237 -35.565  1.00  0.00     0.201 A 
ATOM     19  C   UNL     1      -1.884 -41.344 -35.459  1.00  0.00     0.098 A 
ATOM     20  C   UNL     1      -1.638 -38.657 -34.691  1.00  0.00     0.176 A 
ATOM     21  C   UNL     1      -2.802 -40.799 -34.565  1.00  0.00     0.146 A 
ATOM     22  C   UNL     1      -2.677 -39.456 -34.136  1.00  0.00     0.111 A 
ATOM     23  O   UNL     1      -3.787 -41.572 -34.117  1.00  0.00    -0.456 OA
ATOM     24  C   UNL     1      -3.595 -39.013 -33.154  1.00  0.00     0.197 A 
ATOM     25  C   UNL     1      -4.692 -41.166 -33.232  1.00  0.00     0.138 A 
ATOM     26  C   UNL     1      -4.614 -39.863 -32.722  1.00  0.00     0.100 A 
ATOM     27  O   UNL     1      -3.509 -37.874 -32.624  1.00  0.00    -0.289 OA
BRANCH  18  28
ATOM     28  O   UNL     1       0.334 -38.449 -36.086  1.00  0.00    -0.502 OA
ATOM     29  H   UNL     1       1.280 -38.470 -35.726  1.00  0.00     0.293 HD
ENDBRANCH  18  28
BRANCH  20  30
ATOM     30  O   UNL     1      -1.516 -37.286 -34.437  1.00  0.00    -0.504 OA
ATOM     31  H   UNL     1      -0.764 -36.864 -33.913  1.00  0.00     0.293 HD
ENDBRANCH  20  30
BRANCH  25  32
ATOM     32  C   UNL     1      -5.760 -42.110 -32.819  1.00  0.00     0.017 A 
ATOM     33  C   UNL     1      -6.466 -42.828 -33.802  1.00  0.00     0.012 A 
ATOM     34  C   UNL     1      -6.075 -42.328 -31.462  1.00  0.00     0.012 A 
ATOM     35  C   UNL     1      -7.479 -43.721 -33.439  1.00  0.00     0.001 A 
ATOM     36  C   UNL     1      -7.088 -43.224 -31.106  1.00  0.00     0.001 A 
ATOM     37  C   UNL     1      -7.793 -43.916 -32.092  1.00  0.00     0.000 A 
ENDBRANCH  25  32
ENDBRANCH   1  17
TORSDOF 9
ENDMDL
MODEL 9
REMARK VINA RESULT:    -5.950      5.500      8.362
REMARK INTER + INTRA:          -9.588
REMARK INTER:                  -8.200
REMARK INTRA:                  -1.388
REMARK UNBOUND:                -1.377
REMARK SMILES O=C([O-])[C@@H]1O[C@@H](Oc2cc3oc(-c4ccccc4)cc(=O)c3c(O)c2O)[C@H](O)[C@@H](O)[C@H]1O
REMARK SMILES IDX 7 1 6 2 4 3 31 4 5 5 29 6 27 7 2 8 1 9 3 10 32 11 30 13
REMARK SMILES IDX 28 15 8 17 25 18 9 19 23 20 10 21 22 22 11 23 20 24 12 25
REMARK SMILES IDX 19 26 21 27 26 28 24 30 13 32 14 33 18 34 15 35 17 36 16 37
REMARK H PARENT 32 12 30 14 28 16 26 29 24 31
REMARK Flexibility Score: inf
ROOT
ATOM      1  O   UNL     1      -6.802 -35.748 -30.551  1.00  0.00    -0.458 OA
ENDROOT
BRANCH   1   2
ATOM      2  C   UNL     1      -7.555 -35.097 -31.584  1.00  0.00     0.339 C 
ATOM      3  C   UNL     1      -8.707 -33.747 -30.042  1.00  0.00     0.199 C 
ATOM      4  C   UNL     1     -10.086 -34.375 -30.339  1.00  0.00     0.180 C 
ATOM      5  O   UNL     1      -7.880 -33.773 -31.193  1.00  0.00    -0.328 OA
ATOM      6  C   UNL     1      -9.932 -35.807 -30.896  1.00  0.00     0.181 C 
ATOM      7  C   UNL     1      -8.829 -35.893 -31.975  1.00  0.00     0.214 C 
BRANCH   3   8
ATOM      8  C   UNL     1      -8.879 -32.316 -29.621  1.00  0.00     0.073 C 
ATOM      9  O   UNL     1      -9.067 -32.031 -28.409  1.00  0.00    -0.547 OA
ATOM     10  O   UNL     1      -8.881 -31.303 -30.573  1.00  0.00    -0.547 OA
ENDBRANCH   3   8
BRANCH   4  11
ATOM     11  O   UNL     1     -10.871 -34.414 -29.173  1.00  0.00    -0.387 OA
ATOM     12  H   UNL     1     -10.528 -33.709 -28.565  1.00  0.00     0.211 HD
ENDBRANCH   4  11
BRANCH   6  13
ATOM     13  O   UNL     1      -9.714 -36.749 -29.871  1.00  0.00    -0.387 OA
ATOM     14  H   UNL     1      -8.767 -37.036 -29.908  1.00  0.00     0.211 HD
ENDBRANCH   6  13
BRANCH   7  15
ATOM     15  O   UNL     1      -9.320 -35.451 -33.217  1.00  0.00    -0.384 OA
ATOM     16  H   UNL     1      -8.624 -35.631 -33.902  1.00  0.00     0.211 HD
ENDBRANCH   7  15
ENDBRANCH   1   2
BRANCH   1  17
ATOM     17  C   UNL     1      -6.309 -37.067 -30.541  1.00  0.00     0.172 A 
ATOM     18  C   UNL     1      -6.531 -37.997 -29.499  1.00  0.00     0.201 A 
ATOM     19  C   UNL     1      -5.571 -37.461 -31.657  1.00  0.00     0.098 A 
ATOM     20  C   UNL     1      -5.983 -39.296 -29.575  1.00  0.00     0.176 A 
ATOM     21  C   UNL     1      -4.990 -38.724 -31.730  1.00  0.00     0.146 A 
ATOM     22  C   UNL     1      -5.153 -39.653 -30.676  1.00  0.00     0.111 A 
ATOM     23  O   UNL     1      -4.269 -39.029 -32.805  1.00  0.00    -0.456 OA
ATOM     24  C   UNL     1      -4.450 -40.876 -30.788  1.00  0.00     0.197 A 
ATOM     25  C   UNL     1      -3.638 -40.189 -32.959  1.00  0.00     0.138 A 
ATOM     26  C   UNL     1      -3.712 -41.149 -31.941  1.00  0.00     0.100 A 
ATOM     27  O   UNL     1      -4.438 -41.729 -29.862  1.00  0.00    -0.289 OA
BRANCH  18  28
ATOM     28  O   UNL     1      -7.325 -37.650 -28.404  1.00  0.00    -0.502 OA
ATOM     29  H   UNL     1      -7.660 -38.328 -27.730  1.00  0.00     0.293 HD
ENDBRANCH  18  28
BRANCH  20  30
ATOM     30  O   UNL     1      -6.318 -40.193 -28.554  1.00  0.00    -0.504 OA
ATOM     31  H   UNL     1      -6.125 -41.183 -28.575  1.00  0.00     0.293 HD
ENDBRANCH  20  30
BRANCH  25  32
ATOM     32  C   UNL     1      -2.878 -40.427 -34.211  1.00  0.00     0.017 A 
ATOM     33  C   UNL     1      -1.965 -41.497 -34.273  1.00  0.00     0.012 A 
ATOM     34  C   UNL     1      -3.060 -39.624 -35.355  1.00  0.00     0.012 A 
ATOM     35  C   UNL     1      -1.235 -41.741 -35.440  1.00  0.00     0.001 A 
ATOM     36  C   UNL     1      -2.328 -39.875 -36.521  1.00  0.00     0.001 A 
ATOM     37  C   UNL     1      -1.413 -40.928 -36.563  1.00  0.00     0.000 A 
ENDBRANCH  25  32
ENDBRANCH   1  17
TORSDOF 9
ENDMDL
