MODEL 1
REMARK VINA RESULT:    -3.766      0.000      0.000
REMARK INTER + INTRA:          -4.569
REMARK INTER:                  -4.316
REMARK INTRA:                  -0.252
REMARK UNBOUND:                -0.252
REMARK SMILES COc1ccc(C=O)c(O)c1
REMARK SMILES IDX 3 1 11 2 9 3 6 4 5 5 4 6 2 7 1 8 10 9 7 11 8 12
REMARK H PARENT 10 10
REMARK Flexibility Score: inf
ROOT
ATOM      1  C   UNL     1      24.091  17.188   1.291  1.00  0.00     0.122 A 
ATOM      2  C   UNL     1      24.471  16.332   0.253  1.00  0.00     0.093 A 
ATOM      3  C   UNL     1      23.809  16.362  -0.984  1.00  0.00     0.129 A 
ATOM      4  C   UNL     1      22.745  17.268  -1.190  1.00  0.00     0.056 A 
ATOM      5  C   UNL     1      22.367  18.125  -0.144  1.00  0.00     0.019 A 
ATOM      6  C   UNL     1      23.031  18.088   1.085  1.00  0.00     0.047 A 
ENDROOT
BRANCH   1   7
ATOM      7  O   UNL     1      24.788  17.112   2.506  1.00  0.00    -0.497 OA
ATOM      8  C   UNL     1      26.014  17.787   2.774  1.00  0.00     0.278 C 
ENDBRANCH   1   7
BRANCH   3   9
ATOM      9  O   UNL     1      24.213  15.495  -2.000  1.00  0.00    -0.507 OA
ATOM     10  H   UNL     1      24.693  14.625  -1.798  1.00  0.00     0.293 HD
ENDBRANCH   3   9
BRANCH   4  11
ATOM     11  C   UNL     1      22.009  17.348  -2.470  1.00  0.00     0.263 C 
ATOM     12  O   UNL     1      21.456  16.338  -2.980  1.00  0.00    -0.298 OA
ENDBRANCH   4  11
TORSDOF 3
ENDMDL
MODEL 2
REMARK VINA RESULT:    -3.348     16.827     17.820
REMARK INTER + INTRA:          -4.089
REMARK INTER:                  -3.825
REMARK INTRA:                  -0.265
REMARK UNBOUND:                -0.252
REMARK SMILES COc1ccc(C=O)c(O)c1
REMARK SMILES IDX 3 1 11 2 9 3 6 4 5 5 4 6 2 7 1 8 10 9 7 11 8 12
REMARK H PARENT 10 10
REMARK Flexibility Score: inf
ROOT
ATOM      1  C   UNL     1      13.674   2.851  -2.627  1.00  0.00     0.122 A 
ATOM      2  C   UNL     1      12.367   2.690  -3.097  1.00  0.00     0.093 A 
ATOM      3  C   UNL     1      11.329   3.513  -2.634  1.00  0.00     0.129 A 
ATOM      4  C   UNL     1      11.601   4.518  -1.681  1.00  0.00     0.056 A 
ATOM      5  C   UNL     1      12.915   4.676  -1.211  1.00  0.00     0.019 A 
ATOM      6  C   UNL     1      13.943   3.853  -1.678  1.00  0.00     0.047 A 
ENDROOT
BRANCH   1   7
ATOM      7  O   UNL     1      14.671   2.000  -3.125  1.00  0.00    -0.497 OA
ATOM      8  C   UNL     1      15.547   1.224  -2.312  1.00  0.00     0.278 C 
ENDBRANCH   1   7
BRANCH   3   9
ATOM      9  O   UNL     1      10.036   3.327  -3.124  1.00  0.00    -0.507 OA
ATOM     10  H   UNL     1       9.831   2.638  -3.840  1.00  0.00     0.293 HD
ENDBRANCH   3   9
BRANCH   4  11
ATOM     11  C   UNL     1      10.550   5.416  -1.155  1.00  0.00     0.263 C 
ATOM     12  O   UNL     1       9.703   5.959  -1.912  1.00  0.00    -0.298 OA
ENDBRANCH   4  11
TORSDOF 3
ENDMDL
MODEL 3
REMARK VINA RESULT:    -3.208     16.155     17.219
REMARK INTER + INTRA:          -3.929
REMARK INTER:                  -3.679
REMARK INTRA:                  -0.250
REMARK UNBOUND:                -0.252
REMARK SMILES COc1ccc(C=O)c(O)c1
REMARK SMILES IDX 3 1 11 2 9 3 6 4 5 5 4 6 2 7 1 8 10 9 7 11 8 12
REMARK H PARENT 10 10
REMARK Flexibility Score: inf
ROOT
ATOM      1  C   UNL     1      12.910   3.830  -2.051  1.00  0.00     0.122 A 
ATOM      2  C   UNL     1      14.029   4.016  -1.235  1.00  0.00     0.093 A 
ATOM      3  C   UNL     1      15.154   3.184  -1.354  1.00  0.00     0.129 A 
ATOM      4  C   UNL     1      15.160   2.143  -2.308  1.00  0.00     0.056 A 
ATOM      5  C   UNL     1      14.032   1.960  -3.125  1.00  0.00     0.019 A 
ATOM      6  C   UNL     1      12.918   2.793  -3.001  1.00  0.00     0.047 A 
ENDROOT
BRANCH   1   7
ATOM      7  O   UNL     1      11.815   4.692  -1.888  1.00  0.00    -0.497 OA
ATOM      8  C   UNL     1      11.514   5.392  -0.685  1.00  0.00     0.278 C 
ENDBRANCH   1   7
BRANCH   3   9
ATOM      9  O   UNL     1      16.255   3.397  -0.524  1.00  0.00    -0.507 OA
ATOM     10  H   UNL     1      16.377   2.884   0.342  1.00  0.00     0.293 HD
ENDBRANCH   3   9
BRANCH   4  11
ATOM     11  C   UNL     1      16.313   1.234  -2.480  1.00  0.00     0.263 C 
ATOM     12  O   UNL     1      17.491   1.604  -2.232  1.00  0.00    -0.298 OA
ENDBRANCH   4  11
TORSDOF 3
ENDMDL
MODEL 4
REMARK VINA RESULT:    -3.120     16.522     17.500
REMARK INTER + INTRA:          -3.828
REMARK INTER:                  -3.576
REMARK INTRA:                  -0.252
REMARK UNBOUND:                -0.252
REMARK SMILES COc1ccc(C=O)c(O)c1
REMARK SMILES IDX 3 1 11 2 9 3 6 4 5 5 4 6 2 7 1 8 10 9 7 11 8 12
REMARK H PARENT 10 10
REMARK Flexibility Score: inf
ROOT
ATOM      1  C   UNL     1      13.256   3.878  -1.641  1.00  0.00     0.122 A 
ATOM      2  C   UNL     1      12.603   4.828  -0.850  1.00  0.00     0.093 A 
ATOM      3  C   UNL     1      11.286   5.221  -1.136  1.00  0.00     0.129 A 
ATOM      4  C   UNL     1      10.606   4.652  -2.235  1.00  0.00     0.056 A 
ATOM      5  C   UNL     1      11.266   3.698  -3.026  1.00  0.00     0.019 A 
ATOM      6  C   UNL     1      12.577   3.313  -2.735  1.00  0.00     0.047 A 
ENDROOT
BRANCH   1   7
ATOM      7  O   UNL     1      14.571   3.524  -1.308  1.00  0.00    -0.497 OA
ATOM      8  C   UNL     1      15.416   2.713  -2.119  1.00  0.00     0.278 C 
ENDBRANCH   1   7
BRANCH   3   9
ATOM      9  O   UNL     1      10.663   6.172  -0.327  1.00  0.00    -0.507 OA
ATOM     10  H   UNL     1       9.748   6.546  -0.553  1.00  0.00     0.293 HD
ENDBRANCH   3   9
BRANCH   4  11
ATOM     11  C   UNL     1       9.219   5.024  -2.587  1.00  0.00     0.263 C 
ATOM     12  O   UNL     1       8.764   6.176  -2.358  1.00  0.00    -0.298 OA
ENDBRANCH   4  11
TORSDOF 3
ENDMDL
MODEL 5
REMARK VINA RESULT:    -3.101     15.481     16.654
REMARK INTER + INTRA:          -3.807
REMARK INTER:                  -3.547
REMARK INTRA:                  -0.260
REMARK UNBOUND:                -0.252
REMARK SMILES COc1ccc(C=O)c(O)c1
REMARK SMILES IDX 3 1 11 2 9 3 6 4 5 5 4 6 2 7 1 8 10 9 7 11 8 12
REMARK H PARENT 10 10
REMARK Flexibility Score: inf
ROOT
ATOM      1  C   UNL     1      10.400   7.266  -1.496  1.00  0.00     0.122 A 
ATOM      2  C   UNL     1      11.514   7.332  -2.338  1.00  0.00     0.093 A 
ATOM      3  C   UNL     1      12.526   6.362  -2.270  1.00  0.00     0.129 A 
ATOM      4  C   UNL     1      12.423   5.303  -1.342  1.00  0.00     0.056 A 
ATOM      5  C   UNL     1      11.302   5.241  -0.499  1.00  0.00     0.019 A 
ATOM      6  C   UNL     1      10.299   6.211  -0.573  1.00  0.00     0.047 A 
ENDROOT
BRANCH   1   7
ATOM      7  O   UNL     1       9.420   8.264  -1.608  1.00  0.00    -0.497 OA
ATOM      8  C   UNL     1       8.043   8.078  -1.295  1.00  0.00     0.278 C 
ENDBRANCH   1   7
BRANCH   3   9
ATOM      9  O   UNL     1      13.625   6.456  -3.125  1.00  0.00    -0.507 OA
ATOM     10  H   UNL     1      13.840   7.312  -3.623  1.00  0.00     0.293 HD
ENDBRANCH   3   9
BRANCH   4  11
ATOM     11  C   UNL     1      13.455   4.251  -1.224  1.00  0.00     0.263 C 
ATOM     12  O   UNL     1      13.824   3.570  -2.217  1.00  0.00    -0.298 OA
ENDBRANCH   4  11
TORSDOF 3
ENDMDL
MODEL 6
REMARK VINA RESULT:    -3.051     16.243     17.302
REMARK INTER + INTRA:          -3.750
REMARK INTER:                  -3.492
REMARK INTRA:                  -0.258
REMARK UNBOUND:                -0.252
REMARK SMILES COc1ccc(C=O)c(O)c1
REMARK SMILES IDX 3 1 11 2 9 3 6 4 5 5 4 6 2 7 1 8 10 9 7 11 8 12
REMARK H PARENT 10 10
REMARK Flexibility Score: inf
ROOT
ATOM      1  C   UNL     1      15.012   2.772  -1.788  1.00  0.00     0.122 A 
ATOM      2  C   UNL     1      14.392   3.894  -1.230  1.00  0.00     0.093 A 
ATOM      3  C   UNL     1      13.092   4.262  -1.609  1.00  0.00     0.129 A 
ATOM      4  C   UNL     1      12.396   3.493  -2.567  1.00  0.00     0.056 A 
ATOM      5  C   UNL     1      13.022   2.367  -3.125  1.00  0.00     0.019 A 
ATOM      6  C   UNL     1      14.316   2.007  -2.741  1.00  0.00     0.047 A 
ENDROOT
BRANCH   1   7
ATOM      7  O   UNL     1      16.312   2.452  -1.371  1.00  0.00    -0.497 OA
ATOM      8  C   UNL     1      17.209   1.619  -2.100  1.00  0.00     0.278 C 
ENDBRANCH   1   7
BRANCH   3   9
ATOM      9  O   UNL     1      12.502   5.387  -1.032  1.00  0.00    -0.507 OA
ATOM     10  H   UNL     1      13.053   6.094  -0.560  1.00  0.00     0.293 HD
ENDBRANCH   3   9
BRANCH   4  11
ATOM     11  C   UNL     1      11.025   3.830  -3.007  1.00  0.00     0.263 C 
ATOM     12  O   UNL     1      10.178   4.327  -2.218  1.00  0.00    -0.298 OA
ENDBRANCH   4  11
TORSDOF 3
ENDMDL
MODEL 7
REMARK VINA RESULT:    -2.993     16.632     18.075
REMARK INTER + INTRA:          -3.683
REMARK INTER:                  -3.418
REMARK INTRA:                  -0.265
REMARK UNBOUND:                -0.252
REMARK SMILES COc1ccc(C=O)c(O)c1
REMARK SMILES IDX 3 1 11 2 9 3 6 4 5 5 4 6 2 7 1 8 10 9 7 11 8 12
REMARK H PARENT 10 10
REMARK Flexibility Score: inf
ROOT
ATOM      1  C   UNL     1       8.844   6.539  -1.987  1.00  0.00     0.122 A 
ATOM      2  C   UNL     1       9.124   5.265  -2.488  1.00  0.00     0.093 A 
ATOM      3  C   UNL     1      10.322   4.609  -2.162  1.00  0.00     0.129 A 
ATOM      4  C   UNL     1      11.260   5.241  -1.316  1.00  0.00     0.056 A 
ATOM      5  C   UNL     1      10.974   6.521  -0.815  1.00  0.00     0.019 A 
ATOM      6  C   UNL     1       9.779   7.166  -1.144  1.00  0.00     0.047 A 
ENDROOT
BRANCH   1   7
ATOM      7  O   UNL     1       7.632   7.146  -2.347  1.00  0.00    -0.497 OA
ATOM      8  C   UNL     1       6.877   8.004  -1.496  1.00  0.00     0.278 C 
ENDBRANCH   1   7
BRANCH   3   9
ATOM      9  O   UNL     1      10.571   3.338  -2.679  1.00  0.00    -0.507 OA
ATOM     10  H   UNL     1       9.862   2.612  -2.673  1.00  0.00     0.293 HD
ENDBRANCH   3   9
BRANCH   4  11
ATOM     11  C   UNL     1      12.538   4.602  -0.936  1.00  0.00     0.263 C 
ATOM     12  O   UNL     1      13.228   3.954  -1.766  1.00  0.00    -0.298 OA
ENDBRANCH   4  11
TORSDOF 3
ENDMDL
MODEL 8
REMARK VINA RESULT:    -2.886      1.493      4.754
REMARK INTER + INTRA:          -3.560
REMARK INTER:                  -3.326
REMARK INTRA:                  -0.234
REMARK UNBOUND:                -0.252
REMARK SMILES COc1ccc(C=O)c(O)c1
REMARK SMILES IDX 3 1 11 2 9 3 6 4 5 5 4 6 2 7 1 8 10 9 7 11 8 12
REMARK H PARENT 10 10
REMARK Flexibility Score: inf
ROOT
ATOM      1  C   UNL     1      23.154  17.966  -1.192  1.00  0.00     0.122 A 
ATOM      2  C   UNL     1      22.653  17.807   0.103  1.00  0.00     0.093 A 
ATOM      3  C   UNL     1      23.512  17.804   1.213  1.00  0.00     0.129 A 
ATOM      4  C   UNL     1      24.902  17.963   1.025  1.00  0.00     0.056 A 
ATOM      5  C   UNL     1      25.401  18.122  -0.278  1.00  0.00     0.019 A 
ATOM      6  C   UNL     1      24.539  18.125  -1.377  1.00  0.00     0.047 A 
ENDROOT
BRANCH   1   7
ATOM      7  O   UNL     1      22.248  17.961  -2.263  1.00  0.00    -0.497 OA
ATOM      8  C   UNL     1      21.550  16.807  -2.721  1.00  0.00     0.278 C 
ENDBRANCH   1   7
BRANCH   3   9
ATOM      9  O   UNL     1      22.980  17.643   2.492  1.00  0.00    -0.507 OA
ATOM     10  H   UNL     1      21.979  17.610   2.653  1.00  0.00     0.293 HD
ENDBRANCH   3   9
BRANCH   4  11
ATOM     11  C   UNL     1      25.858  17.969   2.153  1.00  0.00     0.263 C 
ATOM     12  O   UNL     1      25.601  17.391   3.242  1.00  0.00    -0.298 OA
ENDBRANCH   4  11
TORSDOF 3
ENDMDL
