MODEL 1
REMARK VINA RESULT:    -4.035      0.000      0.000
REMARK INTER + INTRA:          -4.670
REMARK INTER:                  -4.625
REMARK INTRA:                  -0.045
REMARK UNBOUND:                -0.045
REMARK SMILES O=C([O-])c1cc(O)c(O)c(O)c1
REMARK SMILES IDX 4 1 5 2 12 3 6 4 10 5 8 6 2 7 1 8 3 9 7 10 11 12 9 14
REMARK H PARENT 7 11 11 13 9 15
REMARK Flexibility Score: inf
ROOT
ATOM      1  C   UNL     1     159.508 147.898 170.974  1.00  0.00     0.005 A 
ATOM      2  C   UNL     1     160.537 147.545 171.864  1.00  0.00     0.060 A 
ATOM      3  C   UNL     1     158.919 146.898 170.185  1.00  0.00     0.060 A 
ATOM      4  C   UNL     1     160.975 146.220 171.969  1.00  0.00     0.162 A 
ATOM      5  C   UNL     1     159.348 145.569 170.281  1.00  0.00     0.162 A 
ATOM      6  C   UNL     1     160.375 145.219 171.169  1.00  0.00     0.200 A 
ENDROOT
BRANCH   1   7
ATOM      7  C   UNL     1     159.050 149.301 170.869  1.00  0.00     0.072 C 
ATOM      8  O   UNL     1     158.094 149.718 171.575  1.00  0.00    -0.545 OA
ATOM      9  O   UNL     1     159.668 150.180 169.987  1.00  0.00    -0.545 OA
ENDBRANCH   1   7
BRANCH   4  10
ATOM     10  O   UNL     1     162.003 145.946 172.875  1.00  0.00    -0.504 OA
ATOM     11  H   UNL     1     162.226 146.528 173.670  1.00  0.00     0.293 HD
ENDBRANCH   4  10
BRANCH   5  12
ATOM     12  O   UNL     1     158.756 144.583 169.493  1.00  0.00    -0.504 OA
ATOM     13  H   UNL     1     158.681 143.624 169.810  1.00  0.00     0.293 HD
ENDBRANCH   5  12
BRANCH   6  14
ATOM     14  O   UNL     1     160.766 143.878 171.225  1.00  0.00    -0.502 OA
ATOM     15  H   UNL     1     160.454 143.170 170.577  1.00  0.00     0.293 HD
ENDBRANCH   6  14
TORSDOF 4
ENDMDL
MODEL 2
REMARK VINA RESULT:    -3.873      0.070      2.437
REMARK INTER + INTRA:          -4.484
REMARK INTER:                  -4.439
REMARK INTRA:                  -0.045
REMARK UNBOUND:                -0.045
REMARK SMILES O=C([O-])c1cc(O)c(O)c(O)c1
REMARK SMILES IDX 4 1 5 2 12 3 6 4 10 5 8 6 2 7 1 8 3 9 7 10 11 12 9 14
REMARK H PARENT 7 11 11 13 9 15
REMARK Flexibility Score: inf
ROOT
ATOM      1  C   UNL     1     159.535 147.868 170.942  1.00  0.00     0.005 A 
ATOM      2  C   UNL     1     158.944 146.870 170.148  1.00  0.00     0.060 A 
ATOM      3  C   UNL     1     160.558 147.511 171.833  1.00  0.00     0.060 A 
ATOM      4  C   UNL     1     159.361 145.537 170.238  1.00  0.00     0.162 A 
ATOM      5  C   UNL     1     160.985 146.181 171.932  1.00  0.00     0.162 A 
ATOM      6  C   UNL     1     160.394 145.187 171.140  1.00  0.00     0.200 A 
ENDROOT
BRANCH   1   7
ATOM      7  C   UNL     1     159.088 149.275 170.841  1.00  0.00     0.072 C 
ATOM      8  O   UNL     1     158.131 149.697 171.543  1.00  0.00    -0.545 OA
ATOM      9  O   UNL     1     159.719 150.154 169.967  1.00  0.00    -0.545 OA
ENDBRANCH   1   7
BRANCH   4  10
ATOM     10  O   UNL     1     158.726 144.601 169.418  1.00  0.00    -0.504 OA
ATOM     11  H   UNL     1     158.452 143.677 169.721  1.00  0.00     0.293 HD
ENDBRANCH   4  10
BRANCH   5  12
ATOM     12  O   UNL     1     162.002 145.837 172.821  1.00  0.00    -0.504 OA
ATOM     13  H   UNL     1     162.291 146.461 173.565  1.00  0.00     0.293 HD
ENDBRANCH   5  12
BRANCH   6  14
ATOM     14  O   UNL     1     160.857 143.876 171.278  1.00  0.00    -0.502 OA
ATOM     15  H   UNL     1     161.781 143.570 171.012  1.00  0.00     0.293 HD
ENDBRANCH   6  14
TORSDOF 4
ENDMDL
MODEL 3
REMARK VINA RESULT:    -3.707     19.486     20.953
REMARK INTER + INTRA:          -4.294
REMARK INTER:                  -4.249
REMARK INTRA:                  -0.045
REMARK UNBOUND:                -0.045
REMARK SMILES O=C([O-])c1cc(O)c(O)c(O)c1
REMARK SMILES IDX 4 1 5 2 12 3 6 4 10 5 8 6 2 7 1 8 3 9 7 10 11 12 9 14
REMARK H PARENT 7 11 11 13 9 15
REMARK Flexibility Score: inf
ROOT
ATOM      1  C   UNL     1     147.151 159.508 161.274  1.00  0.00     0.005 A 
ATOM      2  C   UNL     1     148.511 159.253 161.031  1.00  0.00     0.060 A 
ATOM      3  C   UNL     1     146.683 160.829 161.196  1.00  0.00     0.060 A 
ATOM      4  C   UNL     1     149.394 160.291 160.715  1.00  0.00     0.162 A 
ATOM      5  C   UNL     1     147.556 161.877 160.880  1.00  0.00     0.162 A 
ATOM      6  C   UNL     1     148.912 161.620 160.638  1.00  0.00     0.200 A 
ENDROOT
BRANCH   1   7
ATOM      7  C   UNL     1     146.224 158.405 161.608  1.00  0.00     0.072 C 
ATOM      8  O   UNL     1     145.601 157.793 160.699  1.00  0.00    -0.545 OA
ATOM      9  O   UNL     1     146.026 158.025 162.931  1.00  0.00    -0.545 OA
ENDBRANCH   1   7
BRANCH   4  10
ATOM     10  O   UNL     1     150.732 159.960 160.486  1.00  0.00    -0.504 OA
ATOM     11  H   UNL     1     151.167 159.958 159.574  1.00  0.00     0.293 HD
ENDBRANCH   4  10
BRANCH   5  12
ATOM     12  O   UNL     1     147.081 163.185 160.805  1.00  0.00    -0.504 OA
ATOM     13  H   UNL     1     146.092 163.387 160.716  1.00  0.00     0.293 HD
ENDBRANCH   5  12
BRANCH   6  14
ATOM     14  O   UNL     1     149.741 162.702 160.328  1.00  0.00    -0.502 OA
ATOM     15  H   UNL     1     149.593 163.322 159.545  1.00  0.00     0.293 HD
ENDBRANCH   6  14
TORSDOF 4
ENDMDL
MODEL 4
REMARK VINA RESULT:    -3.687     19.508     20.970
REMARK INTER + INTRA:          -4.270
REMARK INTER:                  -4.226
REMARK INTRA:                  -0.045
REMARK UNBOUND:                -0.045
REMARK SMILES O=C([O-])c1cc(O)c(O)c(O)c1
REMARK SMILES IDX 4 1 5 2 12 3 6 4 10 5 8 6 2 7 1 8 3 9 7 10 11 12 9 14
REMARK H PARENT 7 11 11 13 9 15
REMARK Flexibility Score: inf
ROOT
ATOM      1  C   UNL     1     147.118 159.438 161.296  1.00  0.00     0.005 A 
ATOM      2  C   UNL     1     146.626 160.754 161.256  1.00  0.00     0.060 A 
ATOM      3  C   UNL     1     148.478 159.213 161.032  1.00  0.00     0.060 A 
ATOM      4  C   UNL     1     147.470 161.831 160.960  1.00  0.00     0.162 A 
ATOM      5  C   UNL     1     149.333 160.281 160.735  1.00  0.00     0.162 A 
ATOM      6  C   UNL     1     148.840 161.593 160.695  1.00  0.00     0.200 A 
ENDROOT
BRANCH   1   7
ATOM      7  C   UNL     1     146.220 158.306 161.610  1.00  0.00     0.072 C 
ATOM      8  O   UNL     1     145.577 157.723 160.697  1.00  0.00    -0.545 OA
ATOM      9  O   UNL     1     146.070 157.868 162.922  1.00  0.00    -0.545 OA
ENDBRANCH   1   7
BRANCH   4  10
ATOM     10  O   UNL     1     146.908 163.110 160.938  1.00  0.00    -0.504 OA
ATOM     11  H   UNL     1     147.412 163.944 160.674  1.00  0.00     0.293 HD
ENDBRANCH   4  10
BRANCH   5  12
ATOM     12  O   UNL     1     150.682 160.047 160.475  1.00  0.00    -0.504 OA
ATOM     13  H   UNL     1     150.985 159.561 159.638  1.00  0.00     0.293 HD
ENDBRANCH   5  12
BRANCH   6  14
ATOM     14  O   UNL     1     149.735 162.622 160.393  1.00  0.00    -0.502 OA
ATOM     15  H   UNL     1     149.860 163.011 159.470  1.00  0.00     0.293 HD
ENDBRANCH   6  14
TORSDOF 4
ENDMDL
MODEL 5
REMARK VINA RESULT:    -3.079     14.270     16.019
REMARK INTER + INTRA:          -3.574
REMARK INTER:                  -3.522
REMARK INTRA:                  -0.052
REMARK UNBOUND:                -0.045
REMARK SMILES O=C([O-])c1cc(O)c(O)c(O)c1
REMARK SMILES IDX 4 1 5 2 12 3 6 4 10 5 8 6 2 7 1 8 3 9 7 10 11 12 9 14
REMARK H PARENT 7 11 11 13 9 15
REMARK Flexibility Score: inf
ROOT
ATOM      1  C   UNL     1     149.491 144.418 160.321  1.00  0.00     0.005 A 
ATOM      2  C   UNL     1     149.147 144.896 161.597  1.00  0.00     0.060 A 
ATOM      3  C   UNL     1     148.484 144.274 159.355  1.00  0.00     0.060 A 
ATOM      4  C   UNL     1     147.823 145.226 161.910  1.00  0.00     0.162 A 
ATOM      5  C   UNL     1     147.156 144.601 159.655  1.00  0.00     0.162 A 
ATOM      6  C   UNL     1     146.814 145.077 160.928  1.00  0.00     0.200 A 
ENDROOT
BRANCH   1   7
ATOM      7  C   UNL     1     150.892 144.072 159.997  1.00  0.00     0.072 C 
ATOM      8  O   UNL     1     151.733 143.875 160.915  1.00  0.00    -0.545 OA
ATOM      9  O   UNL     1     151.303 143.960 158.673  1.00  0.00    -0.545 OA
ENDBRANCH   1   7
BRANCH   4  10
ATOM     10  O   UNL     1     147.558 145.693 163.200  1.00  0.00    -0.504 OA
ATOM     11  H   UNL     1     147.062 145.164 163.902  1.00  0.00     0.293 HD
ENDBRANCH   4  10
BRANCH   5  12
ATOM     12  O   UNL     1     146.162 144.454 158.688  1.00  0.00    -0.504 OA
ATOM     13  H   UNL     1     145.659 145.253 158.318  1.00  0.00     0.293 HD
ENDBRANCH   5  12
BRANCH   6  14
ATOM     14  O   UNL     1     145.475 145.387 161.177  1.00  0.00    -0.502 OA
ATOM     15  H   UNL     1     144.711 144.738 161.059  1.00  0.00     0.293 HD
ENDBRANCH   6  14
TORSDOF 4
ENDMDL
MODEL 6
REMARK VINA RESULT:    -2.872     19.625     21.366
REMARK INTER + INTRA:          -3.337
REMARK INTER:                  -3.284
REMARK INTRA:                  -0.053
REMARK UNBOUND:                -0.045
REMARK SMILES O=C([O-])c1cc(O)c(O)c(O)c1
REMARK SMILES IDX 4 1 5 2 12 3 6 4 10 5 8 6 2 7 1 8 3 9 7 10 11 12 9 14
REMARK H PARENT 7 11 11 13 9 15
REMARK Flexibility Score: inf
ROOT
ATOM      1  C   UNL     1     147.452 162.057 160.624  1.00  0.00     0.005 A 
ATOM      2  C   UNL     1     148.632 161.334 160.379  1.00  0.00     0.060 A 
ATOM      3  C   UNL     1     146.376 161.410 161.249  1.00  0.00     0.060 A 
ATOM      4  C   UNL     1     148.742 159.988 160.747  1.00  0.00     0.162 A 
ATOM      5  C   UNL     1     146.473 160.064 161.623  1.00  0.00     0.162 A 
ATOM      6  C   UNL     1     147.650 159.344 161.377  1.00  0.00     0.200 A 
ENDROOT
BRANCH   1   7
ATOM      7  C   UNL     1     147.344 163.479 160.231  1.00  0.00     0.072 C 
ATOM      8  O   UNL     1     146.284 164.125 160.444  1.00  0.00    -0.545 OA
ATOM      9  O   UNL     1     148.413 164.125 159.619  1.00  0.00    -0.545 OA
ENDBRANCH   1   7
BRANCH   4  10
ATOM     10  O   UNL     1     149.945 159.335 160.470  1.00  0.00    -0.504 OA
ATOM     11  H   UNL     1     150.117 158.797 159.632  1.00  0.00     0.293 HD
ENDBRANCH   4  10
BRANCH   5  12
ATOM     12  O   UNL     1     145.398 159.430 162.243  1.00  0.00    -0.504 OA
ATOM     13  H   UNL     1     144.439 159.696 162.047  1.00  0.00     0.293 HD
ENDBRANCH   5  12
BRANCH   6  14
ATOM     14  O   UNL     1     147.695 158.004 161.770  1.00  0.00    -0.502 OA
ATOM     15  H   UNL     1     146.942 157.347 161.629  1.00  0.00     0.293 HD
ENDBRANCH   6  14
TORSDOF 4
ENDMDL
MODEL 7
REMARK VINA RESULT:    -2.772     15.528     17.509
REMARK INTER + INTRA:          -3.222
REMARK INTER:                  -3.174
REMARK INTRA:                  -0.048
REMARK UNBOUND:                -0.045
REMARK SMILES O=C([O-])c1cc(O)c(O)c(O)c1
REMARK SMILES IDX 4 1 5 2 12 3 6 4 10 5 8 6 2 7 1 8 3 9 7 10 11 12 9 14
REMARK H PARENT 7 11 11 13 9 15
REMARK Flexibility Score: inf
ROOT
ATOM      1  C   UNL     1     161.066 163.389 164.085  1.00  0.00     0.005 A 
ATOM      2  C   UNL     1     161.629 162.316 164.796  1.00  0.00     0.060 A 
ATOM      3  C   UNL     1     159.895 163.987 164.572  1.00  0.00     0.060 A 
ATOM      4  C   UNL     1     161.037 161.841 165.973  1.00  0.00     0.162 A 
ATOM      5  C   UNL     1     159.293 163.523 165.748  1.00  0.00     0.162 A 
ATOM      6  C   UNL     1     159.855 162.452 166.456  1.00  0.00     0.200 A 
ENDROOT
BRANCH   1   7
ATOM      7  C   UNL     1     161.698 163.885 162.842  1.00  0.00     0.072 C 
ATOM      8  O   UNL     1     162.939 164.096 162.793  1.00  0.00    -0.545 OA
ATOM      9  O   UNL     1     160.929 164.125 161.708  1.00  0.00    -0.545 OA
ENDBRANCH   1   7
BRANCH   4  10
ATOM     10  O   UNL     1     161.654 160.770 166.623  1.00  0.00    -0.504 OA
ATOM     11  H   UNL     1     161.678 160.656 167.627  1.00  0.00     0.293 HD
ENDBRANCH   4  10
BRANCH   5  12
ATOM     12  O   UNL     1     158.129 164.124 166.224  1.00  0.00    -0.504 OA
ATOM     13  H   UNL     1     158.149 164.791 166.988  1.00  0.00     0.293 HD
ENDBRANCH   5  12
BRANCH   6  14
ATOM     14  O   UNL     1     159.215 162.027 167.623  1.00  0.00    -0.502 OA
ATOM     15  H   UNL     1     158.396 162.470 168.013  1.00  0.00     0.293 HD
ENDBRANCH   6  14
TORSDOF 4
ENDMDL
MODEL 8
REMARK VINA RESULT:    -2.737     15.625     17.620
REMARK INTER + INTRA:          -3.182
REMARK INTER:                  -3.133
REMARK INTRA:                  -0.048
REMARK UNBOUND:                -0.045
REMARK SMILES O=C([O-])c1cc(O)c(O)c(O)c1
REMARK SMILES IDX 4 1 5 2 12 3 6 4 10 5 8 6 2 7 1 8 3 9 7 10 11 12 9 14
REMARK H PARENT 7 11 11 13 9 15
REMARK Flexibility Score: inf
ROOT
ATOM      1  C   UNL     1     161.023 163.403 163.930  1.00  0.00     0.005 A 
ATOM      2  C   UNL     1     159.847 163.969 164.448  1.00  0.00     0.060 A 
ATOM      3  C   UNL     1     161.641 162.357 164.632  1.00  0.00     0.060 A 
ATOM      4  C   UNL     1     159.291 163.506 165.646  1.00  0.00     0.162 A 
ATOM      5  C   UNL     1     161.095 161.884 165.831  1.00  0.00     0.162 A 
ATOM      6  C   UNL     1     159.921 162.451 166.347  1.00  0.00     0.200 A 
ENDROOT
BRANCH   1   7
ATOM      7  C   UNL     1     161.604 163.898 162.662  1.00  0.00     0.072 C 
ATOM      8  O   UNL     1     162.840 164.123 162.568  1.00  0.00    -0.545 OA
ATOM      9  O   UNL     1     160.793 164.124 161.555  1.00  0.00    -0.545 OA
ENDBRANCH   1   7
BRANCH   4  10
ATOM     10  O   UNL     1     158.120 164.120 166.099  1.00  0.00    -0.504 OA
ATOM     11  H   UNL     1     157.989 164.463 167.040  1.00  0.00     0.293 HD
ENDBRANCH   4  10
BRANCH   5  12
ATOM     12  O   UNL     1     161.716 160.845 166.522  1.00  0.00    -0.504 OA
ATOM     13  H   UNL     1     162.426 161.023 167.223  1.00  0.00     0.293 HD
ENDBRANCH   5  12
BRANCH   6  14
ATOM     14  O   UNL     1     159.419 161.942 167.548  1.00  0.00    -0.502 OA
ATOM     15  H   UNL     1     159.795 161.135 168.022  1.00  0.00     0.293 HD
ENDBRANCH   6  14
TORSDOF 4
ENDMDL
