MODEL 1
REMARK VINA RESULT:    -4.357      0.000      0.000
REMARK INTER + INTRA:          -4.612
REMARK INTER:                  -5.376
REMARK INTRA:                   0.764
REMARK UNBOUND:                 0.764
REMARK SMILES CC1=CC=CC(C)(C)CC1=O
REMARK SMILES IDX 1 1 2 2 3 3 10 4 11 5 9 6 4 8 5 9 6 10 7 11 8 12
REMARK H PARENT
REMARK Flexibility Score: 80.00
ROOT
ATOM      1  C   UNL     1     -14.098 -14.012  29.777  1.00  0.00     0.048 C 
ATOM      2  C   UNL     1     -12.917 -14.952  29.731  1.00  0.00    -0.008 C 
ATOM      3  C   UNL     1     -12.167 -14.959  28.608  1.00  0.00     0.007 C 
ENDROOT
BRANCH   2   4
ATOM      4  C   UNL     1     -12.722 -15.849  30.897  1.00  0.00     0.159 C 
ATOM      5  O   UNL     1     -13.636 -15.931  31.762  1.00  0.00    -0.295 OA
BRANCH   4   6
ATOM      6  C   UNL     1     -11.484 -16.663  31.115  1.00  0.00     0.091 CG0
ATOM      7  G   UNL     1     -11.199 -17.659  29.968  1.00  0.00     0.000 G0
ENDBRANCH   4   6
ENDBRANCH   2   4
BRANCH   3   8
ATOM      8  C   UNL     1     -10.981 -15.777  28.262  1.00  0.00    -0.003 C 
ATOM      9  C   UNL     1     -10.555 -16.922  28.811  1.00  0.00    -0.020 C 
BRANCH   9  10
ATOM     10  C   UNL     1     -11.194 -17.655  29.967  1.00  0.00    -0.010 CG0
ATOM     11  C   UNL     1     -10.191 -18.710  30.485  1.00  0.00     0.016 C 
ATOM     12  C   UNL     1     -12.462 -18.397  29.486  1.00  0.00     0.016 C 
ATOM     13  G   UNL     1     -11.484 -16.662  31.115  1.00  0.00     0.000 G0
ENDBRANCH   9  10
ENDBRANCH   3   8
TORSDOF 0
ENDMDL
MODEL 2
REMARK VINA RESULT:    -4.305      1.257      1.855
REMARK INTER + INTRA:          -4.548
REMARK INTER:                  -5.307
REMARK INTRA:                   0.759
REMARK UNBOUND:                 0.764
REMARK SMILES CC1=CC=CC(C)(C)CC1=O
REMARK SMILES IDX 1 1 2 2 3 3 10 4 11 5 9 6 4 8 5 9 6 10 7 11 8 12
REMARK H PARENT
REMARK Flexibility Score: 80.00
ROOT
ATOM      1  C   UNL     1     -14.323 -15.294  32.430  1.00  0.00     0.048 C 
ATOM      2  C   UNL     1     -13.349 -15.374  31.279  1.00  0.00    -0.008 C 
ATOM      3  C   UNL     1     -13.620 -14.641  30.177  1.00  0.00     0.007 C 
ENDROOT
BRANCH   2   4
ATOM      4  C   UNL     1     -12.209 -16.313  31.423  1.00  0.00     0.159 C 
ATOM      5  O   UNL     1     -12.209 -17.127  32.386  1.00  0.00    -0.295 OA
BRANCH   4   6
ATOM      6  C   UNL     1     -11.039 -16.342  30.488  1.00  0.00     0.091 CG0
ATOM      7  G   UNL     1     -11.436 -16.635  29.023  1.00  0.00     0.000 G0
ENDBRANCH   4   6
ENDBRANCH   2   4
BRANCH   3   8
ATOM      8  C   UNL     1     -12.878 -14.535  28.899  1.00  0.00    -0.003 C 
ATOM      9  C   UNL     1     -11.961 -15.363  28.383  1.00  0.00    -0.020 C 
BRANCH   9  10
ATOM     10  C   UNL     1     -11.435 -16.628  29.021  1.00  0.00    -0.010 CG0
ATOM     11  C   UNL     1     -10.162 -17.060  28.259  1.00  0.00     0.016 C 
ATOM     12  C   UNL     1     -12.479 -17.760  28.888  1.00  0.00     0.016 C 
ATOM     13  G   UNL     1     -11.044 -16.346  30.489  1.00  0.00     0.000 G0
ENDBRANCH   9  10
ENDBRANCH   3   8
TORSDOF 0
ENDMDL
MODEL 3
REMARK VINA RESULT:    -4.212      1.618      2.541
REMARK INTER + INTRA:          -4.433
REMARK INTER:                  -5.193
REMARK INTRA:                   0.759
REMARK UNBOUND:                 0.764
REMARK SMILES CC1=CC=CC(C)(C)CC1=O
REMARK SMILES IDX 1 1 2 2 3 3 10 4 11 5 9 6 4 8 5 9 6 10 7 11 8 12
REMARK H PARENT
REMARK Flexibility Score: 80.00
ROOT
ATOM      1  C   UNL     1     -13.322 -13.894  28.596  1.00  0.00     0.048 C 
ATOM      2  C   UNL     1     -12.935 -15.087  29.440  1.00  0.00    -0.008 C 
ATOM      3  C   UNL     1     -13.322 -15.088  30.734  1.00  0.00     0.007 C 
ENDROOT
BRANCH   2   4
ATOM      4  C   UNL     1     -12.095 -16.126  28.795  1.00  0.00     0.159 C 
ATOM      5  O   UNL     1     -11.568 -15.876  27.677  1.00  0.00    -0.295 OA
BRANCH   4   6
ATOM      6  C   UNL     1     -11.845 -17.475  29.396  1.00  0.00     0.091 CG0
ATOM      7  G   UNL     1     -11.149 -17.409  30.774  1.00  0.00     0.000 G0
ENDBRANCH   4   6
ENDBRANCH   2   4
BRANCH   3   8
ATOM      8  C   UNL     1     -13.074 -16.089  31.798  1.00  0.00    -0.003 C 
ATOM      9  C   UNL     1     -12.159 -17.066  31.843  1.00  0.00    -0.020 C 
BRANCH   9  10
ATOM     10  C   UNL     1     -11.150 -17.400  30.770  1.00  0.00    -0.010 CG0
ATOM     11  C   UNL     1     -10.564 -18.797  31.076  1.00  0.00     0.016 C 
ATOM     12  C   UNL     1      -9.991 -16.379  30.798  1.00  0.00     0.016 C 
ATOM     13  G   UNL     1     -11.855 -17.465  29.396  1.00  0.00     0.000 G0
ENDBRANCH   9  10
ENDBRANCH   3   8
TORSDOF 0
ENDMDL
MODEL 4
REMARK VINA RESULT:    -4.134      1.542      2.474
REMARK INTER + INTRA:          -4.336
REMARK INTER:                  -5.093
REMARK INTRA:                   0.757
REMARK UNBOUND:                 0.764
REMARK SMILES CC1=CC=CC(C)(C)CC1=O
REMARK SMILES IDX 1 1 2 2 3 3 10 4 11 5 9 6 4 8 5 9 6 10 7 11 8 12
REMARK H PARENT
REMARK Flexibility Score: 80.00
ROOT
ATOM      1  C   UNL     1     -12.983 -16.505  32.369  1.00  0.00     0.048 C 
ATOM      2  C   UNL     1     -12.408 -16.375  30.978  1.00  0.00    -0.008 C 
ATOM      3  C   UNL     1     -12.870 -15.370  30.202  1.00  0.00     0.007 C 
ENDROOT
BRANCH   2   4
ATOM      4  C   UNL     1     -11.436 -17.411  30.550  1.00  0.00     0.159 C 
ATOM      5  O   UNL     1     -11.273 -18.429  31.275  1.00  0.00    -0.295 OA
BRANCH   4   6
ATOM      6  C   UNL     1     -10.619 -17.309  29.298  1.00  0.00     0.091 CG0
ATOM      7  G   UNL     1     -11.476 -17.192  28.018  1.00  0.00     0.000 G0
ENDBRANCH   4   6
ENDBRANCH   2   4
BRANCH   3   8
ATOM      8  C   UNL     1     -12.523 -15.010  28.807  1.00  0.00    -0.003 C 
ATOM      9  C   UNL     1     -11.945 -15.760  27.860  1.00  0.00    -0.020 C 
BRANCH   9  10
ATOM     10  C   UNL     1     -11.474 -17.187  28.009  1.00  0.00    -0.010 CG0
ATOM     11  C   UNL     1     -10.569 -17.526  26.803  1.00  0.00     0.016 C 
ATOM     12  C   UNL     1     -12.684 -18.148  27.983  1.00  0.00     0.016 C 
ATOM     13  G   UNL     1     -10.630 -17.324  29.296  1.00  0.00     0.000 G0
ENDBRANCH   9  10
ENDBRANCH   3   8
TORSDOF 0
ENDMDL
MODEL 5
REMARK VINA RESULT:    -3.887      1.532      3.388
REMARK INTER + INTRA:          -4.032
REMARK INTER:                  -4.769
REMARK INTRA:                   0.738
REMARK UNBOUND:                 0.764
REMARK SMILES CC1=CC=CC(C)(C)CC1=O
REMARK SMILES IDX 1 1 2 2 3 3 10 4 11 5 9 6 4 8 5 9 6 10 7 11 8 12
REMARK H PARENT
REMARK Flexibility Score: 80.00
ROOT
ATOM      1  C   UNL     1     -11.756 -20.152  31.687  1.00  0.00     0.048 C 
ATOM      2  C   UNL     1     -12.008 -19.061  30.673  1.00  0.00    -0.008 C 
ATOM      3  C   UNL     1     -12.066 -19.418  29.371  1.00  0.00     0.007 C 
ENDROOT
BRANCH   2   4
ATOM      4  C   UNL     1     -12.095 -17.671  31.184  1.00  0.00     0.159 C 
ATOM      5  O   UNL     1     -11.760 -17.439  32.378  1.00  0.00    -0.295 OA
BRANCH   4   6
ATOM      6  C   UNL     1     -12.574 -16.516  30.360  1.00  0.00     0.091 CG0
ATOM      7  G   UNL     1     -11.726 -16.279  29.090  1.00  0.00     0.000 G0
ENDBRANCH   4   6
ENDBRANCH   2   4
BRANCH   3   8
ATOM      8  C   UNL     1     -12.270 -18.582  28.165  1.00  0.00    -0.003 C 
ATOM      9  C   UNL     1     -12.124 -17.259  28.019  1.00  0.00    -0.020 C 
BRANCH   9  10
ATOM     10  C   UNL     1     -11.730 -16.276  29.096  1.00  0.00    -0.010 CG0
ATOM     11  C   UNL     1     -12.061 -14.852  28.595  1.00  0.00     0.016 C 
ATOM     12  C   UNL     1     -10.207 -16.351  29.348  1.00  0.00     0.016 C 
ATOM     13  G   UNL     1     -12.560 -16.542  30.372  1.00  0.00     0.000 G0
ENDBRANCH   9  10
ENDBRANCH   3   8
TORSDOF 0
ENDMDL
MODEL 6
REMARK VINA RESULT:    -3.847      2.104      3.396
REMARK INTER + INTRA:          -3.982
REMARK INTER:                  -5.033
REMARK INTRA:                   1.051
REMARK UNBOUND:                 0.764
REMARK SMILES CC1=CC=CC(C)(C)CC1=O
REMARK SMILES IDX 1 1 2 2 3 3 10 4 11 5 9 6 4 8 5 9 6 10 7 11 8 12
REMARK H PARENT
REMARK Flexibility Score: 80.00
ROOT
ATOM      1  C   UNL     1     -13.209 -20.255  28.573  1.00  0.00     0.048 C 
ATOM      2  C   UNL     1     -12.428 -19.123  29.198  1.00  0.00    -0.008 C 
ATOM      3  C   UNL     1     -12.398 -17.945  28.539  1.00  0.00     0.007 C 
ENDROOT
BRANCH   2   4
ATOM      4  C   UNL     1     -11.692 -19.422  30.452  1.00  0.00     0.159 C 
ATOM      5  O   UNL     1     -11.974 -20.474  31.087  1.00  0.00    -0.295 OA
BRANCH   4   6
ATOM      6  C   UNL     1     -10.630 -18.530  31.019  1.00  0.00     0.091 CG0
ATOM      7  G   UNL     1     -11.138 -17.106  31.341  1.00  0.00     0.000 G0
ENDBRANCH   4   6
ENDBRANCH   2   4
BRANCH   3   8
ATOM      8  C   UNL     1     -11.705 -16.680  28.883  1.00  0.00    -0.003 C 
ATOM      9  C   UNL     1     -11.156 -16.307  30.045  1.00  0.00    -0.020 C 
BRANCH   9  10
ATOM     10  C   UNL     1     -11.137 -17.107  31.326  1.00  0.00    -0.010 CG0
ATOM     11  C   UNL     1     -12.585 -17.199  31.860  1.00  0.00     0.016 C 
ATOM     12  C   UNL     1     -10.282 -16.382  32.389  1.00  0.00     0.016 C 
ATOM     13  G   UNL     1     -10.640 -18.541  31.037  1.00  0.00     0.000 G0
ENDBRANCH   9  10
ENDBRANCH   3   8
TORSDOF 0
ENDMDL
MODEL 7
REMARK VINA RESULT:    -3.621      2.097      2.809
REMARK INTER + INTRA:          -3.704
REMARK INTER:                  -4.745
REMARK INTRA:                   1.041
REMARK UNBOUND:                 0.764
REMARK SMILES CC1=CC=CC(C)(C)CC1=O
REMARK SMILES IDX 1 1 2 2 3 3 10 4 11 5 9 6 4 8 5 9 6 10 7 11 8 12
REMARK H PARENT
REMARK Flexibility Score: 80.00
ROOT
ATOM      1  C   UNL     1     -12.716 -16.779  26.607  1.00  0.00     0.048 C 
ATOM      2  C   UNL     1     -11.830 -16.897  27.825  1.00  0.00    -0.008 C 
ATOM      3  C   UNL     1     -11.041 -15.844  28.128  1.00  0.00     0.007 C 
ENDROOT
BRANCH   2   4
ATOM      4  C   UNL     1     -11.845 -18.194  28.546  1.00  0.00     0.159 C 
ATOM      5  O   UNL     1     -12.782 -19.006  28.321  1.00  0.00    -0.295 OA
BRANCH   4   6
ATOM      6  C   UNL     1     -10.805 -18.592  29.548  1.00  0.00     0.091 CG0
ATOM      7  G   UNL     1     -10.697 -17.613  30.739  1.00  0.00     0.000 G0
ENDBRANCH   4   6
ENDBRANCH   2   4
BRANCH   3   8
ATOM      8  C   UNL     1     -10.062 -15.676  29.228  1.00  0.00    -0.003 C 
ATOM      9  C   UNL     1      -9.893 -16.418  30.329  1.00  0.00    -0.020 C 
BRANCH   9  10
ATOM     10  C   UNL     1     -10.708 -17.625  30.732  1.00  0.00    -0.010 CG0
ATOM     11  C   UNL     1     -12.132 -17.147  31.095  1.00  0.00     0.016 C 
ATOM     12  C   UNL     1     -10.091 -18.284  31.986  1.00  0.00     0.016 C 
ATOM     13  G   UNL     1     -10.818 -18.600  29.538  1.00  0.00     0.000 G0
ENDBRANCH   9  10
ENDBRANCH   3   8
TORSDOF 0
ENDMDL
MODEL 8
REMARK VINA RESULT:    -3.502      1.499      2.614
REMARK INTER + INTRA:          -3.557
REMARK INTER:                  -4.598
REMARK INTRA:                   1.041
REMARK UNBOUND:                 0.764
REMARK SMILES CC1=CC=CC(C)(C)CC1=O
REMARK SMILES IDX 1 1 2 2 3 3 10 4 11 5 9 6 4 8 5 9 6 10 7 11 8 12
REMARK H PARENT
REMARK Flexibility Score: 80.00
ROOT
ATOM      1  C   UNL     1     -13.497 -15.543  32.085  1.00  0.00     0.048 C 
ATOM      2  C   UNL     1     -12.568 -16.123  31.045  1.00  0.00    -0.008 C 
ATOM      3  C   UNL     1     -11.822 -17.192  31.399  1.00  0.00     0.007 C 
ENDROOT
BRANCH   2   4
ATOM      4  C   UNL     1     -12.496 -15.423  29.739  1.00  0.00     0.159 C 
ATOM      5  O   UNL     1     -13.399 -14.595  29.441  1.00  0.00    -0.295 OA
BRANCH   4   6
ATOM      6  C   UNL     1     -11.406 -15.655  28.737  1.00  0.00     0.091 CG0
ATOM      7  G   UNL     1     -11.326 -17.120  28.251  1.00  0.00     0.000 G0
ENDBRANCH   4   6
ENDBRANCH   2   4
BRANCH   3   8
ATOM      8  C   UNL     1     -10.818 -17.952  30.618  1.00  0.00    -0.003 C 
ATOM      9  C   UNL     1     -10.580 -17.929  29.300  1.00  0.00    -0.020 C 
BRANCH   9  10
ATOM     10  C   UNL     1     -11.325 -17.117  28.267  1.00  0.00    -0.010 CG0
ATOM     11  C   UNL     1     -12.758 -17.682  28.148  1.00  0.00     0.016 C 
ATOM     12  C   UNL     1     -10.639 -17.258  26.890  1.00  0.00     0.016 C 
ATOM     13  G   UNL     1     -11.424 -15.647  28.736  1.00  0.00     0.000 G0
ENDBRANCH   9  10
ENDBRANCH   3   8
TORSDOF 0
ENDMDL
MODEL 9
REMARK VINA RESULT:    -3.429      1.961      3.839
REMARK INTER + INTRA:          -3.466
REMARK INTER:                  -4.484
REMARK INTRA:                   1.018
REMARK UNBOUND:                 0.764
REMARK SMILES CC1=CC=CC(C)(C)CC1=O
REMARK SMILES IDX 1 1 2 2 3 3 10 4 11 5 9 6 4 8 5 9 6 10 7 11 8 12
REMARK H PARENT
REMARK Flexibility Score: 80.00
ROOT
ATOM      1  C   UNL     1     -11.681 -20.267  31.038  1.00  0.00     0.048 C 
ATOM      2  C   UNL     1     -12.043 -18.817  30.813  1.00  0.00    -0.008 C 
ATOM      3  C   UNL     1     -12.441 -18.099  31.886  1.00  0.00     0.007 C 
ENDROOT
BRANCH   2   4
ATOM      4  C   UNL     1     -12.005 -18.321  29.415  1.00  0.00     0.159 C 
ATOM      5  O   UNL     1     -11.379 -18.989  28.549  1.00  0.00    -0.295 OA
BRANCH   4   6
ATOM      6  C   UNL     1     -12.663 -17.050  28.972  1.00  0.00     0.091 CG0
ATOM      7  G   UNL     1     -12.136 -15.800  29.711  1.00  0.00     0.000 G0
ENDBRANCH   4   6
ENDBRANCH   2   4
BRANCH   3   8
ATOM      8  C   UNL     1     -12.877 -16.685  31.974  1.00  0.00    -0.003 C 
ATOM      9  C   UNL     1     -12.767 -15.709  31.064  1.00  0.00    -0.020 C 
BRANCH   9  10
ATOM     10  C   UNL     1     -12.126 -15.821  29.701  1.00  0.00    -0.010 CG0
ATOM     11  C   UNL     1     -10.601 -15.978  29.895  1.00  0.00     0.016 C 
ATOM     12  C   UNL     1     -12.373 -14.526  28.893  1.00  0.00     0.016 C 
ATOM     13  G   UNL     1     -12.652 -17.083  28.981  1.00  0.00     0.000 G0
ENDBRANCH   9  10
ENDBRANCH   3   8
TORSDOF 0
ENDMDL
