MODEL 1
REMARK VINA RESULT:    -4.437      0.000      0.000
REMARK INTER + INTRA:          -8.571
REMARK INTER:                  -7.810
REMARK INTRA:                  -0.761
REMARK UNBOUND:                -0.761
REMARK SMILES CCCCCCCCCCCCCCC(=O)[O-]
REMARK SMILES IDX 9 1 10 2 11 3 12 4 13 5 14 6 15 7 16 8 17 9 8 10 7 11 6 12
REMARK SMILES IDX 5 13 4 14 3 15 2 16 1 17
REMARK H PARENT
REMARK Flexibility Score: inf
ROOT
ATOM      1  C   UNL     1      45.452  65.290  51.069  1.00  0.00     0.000 C 
ENDROOT
BRANCH   1   2
ATOM      2  C   UNL     1      45.032  66.554  50.294  1.00  0.00     0.000 C 
BRANCH   2   3
ATOM      3  C   UNL     1      44.427  66.299  48.901  1.00  0.00     0.000 C 
BRANCH   3   4
ATOM      4  C   UNL     1      43.408  67.369  48.483  1.00  0.00     0.000 C 
BRANCH   4   5
ATOM      5  C   UNL     1      42.752  67.009  47.144  1.00  0.00     0.006 C 
BRANCH   5   6
ATOM      6  C   UNL     1      41.513  66.134  47.359  1.00  0.00     0.053 C 
BRANCH   6   7
ATOM      7  C   UNL     1      41.668  64.825  46.652  1.00  0.00     0.041 C 
ATOM      8  O   UNL     1      40.732  63.983  46.664  1.00  0.00    -0.550 OA
ATOM      9  O   UNL     1      42.867  64.513  46.022  1.00  0.00    -0.550 OA
ENDBRANCH   6   7
ENDBRANCH   5   6
ENDBRANCH   4   5
ENDBRANCH   3   4
ENDBRANCH   2   3
ENDBRANCH   1   2
BRANCH   1  10
ATOM     10  C   UNL     1      44.720  65.140  52.414  1.00  0.00     0.000 C 
BRANCH  10  11
ATOM     11  C   UNL     1      43.694  66.261  52.668  1.00  0.00    -0.000 C 
BRANCH  11  12
ATOM     12  C   UNL     1      42.621  65.946  53.726  1.00  0.00    -0.000 C 
BRANCH  12  13
ATOM     13  C   UNL     1      42.976  64.726  54.595  1.00  0.00    -0.000 C 
BRANCH  13  14
ATOM     14  C   UNL     1      43.146  65.090  56.080  1.00  0.00    -0.000 C 
BRANCH  14  15
ATOM     15  C   UNL     1      43.097  63.857  56.998  1.00  0.00    -0.000 C 
BRANCH  15  16
ATOM     16  C   UNL     1      44.298  62.921  56.791  1.00  0.00    -0.003 C 
ATOM     17  C   UNL     1      45.475  63.256  57.707  1.00  0.00     0.004 C 
ENDBRANCH  15  16
ENDBRANCH  14  15
ENDBRANCH  13  14
ENDBRANCH  12  13
ENDBRANCH  11  12
ENDBRANCH  10  11
ENDBRANCH   1  10
TORSDOF 13
ENDMDL
MODEL 2
REMARK VINA RESULT:    -4.404      1.384      2.545
REMARK INTER + INTRA:          -8.512
REMARK INTER:                  -7.633
REMARK INTRA:                  -0.880
REMARK UNBOUND:                -0.761
REMARK SMILES CCCCCCCCCCCCCCC(=O)[O-]
REMARK SMILES IDX 9 1 10 2 11 3 12 4 13 5 14 6 15 7 16 8 17 9 8 10 7 11 6 12
REMARK SMILES IDX 5 13 4 14 3 15 2 16 1 17
REMARK H PARENT
REMARK Flexibility Score: inf
ROOT
ATOM      1  C   UNL     1      43.977  67.433  49.106  1.00  0.00     0.000 C 
ENDROOT
BRANCH   1   2
ATOM      2  C   UNL     1      44.311  66.239  48.191  1.00  0.00     0.000 C 
BRANCH   2   3
ATOM      3  C   UNL     1      43.990  66.444  46.699  1.00  0.00     0.000 C 
BRANCH   3   4
ATOM      4  C   UNL     1      43.651  65.134  45.972  1.00  0.00     0.000 C 
BRANCH   4   5
ATOM      5  C   UNL     1      42.200  64.716  46.242  1.00  0.00     0.006 C 
BRANCH   5   6
ATOM      6  C   UNL     1      41.245  65.900  46.062  1.00  0.00     0.053 C 
BRANCH   6   7
ATOM      7  C   UNL     1      40.535  66.200  47.344  1.00  0.00     0.041 C 
ATOM      8  O   UNL     1      39.782  65.338  47.869  1.00  0.00    -0.550 OA
ATOM      9  O   UNL     1      40.666  67.451  47.934  1.00  0.00    -0.550 OA
ENDBRANCH   6   7
ENDBRANCH   5   6
ENDBRANCH   4   5
ENDBRANCH   3   4
ENDBRANCH   2   3
ENDBRANCH   1   2
BRANCH   1  10
ATOM     10  C   UNL     1      44.624  67.322  50.497  1.00  0.00     0.000 C 
BRANCH  10  11
ATOM     11  C   UNL     1      45.230  65.932  50.769  1.00  0.00    -0.000 C 
BRANCH  11  12
ATOM     12  C   UNL     1      44.774  65.258  52.076  1.00  0.00    -0.000 C 
BRANCH  12  13
ATOM     13  C   UNL     1      43.814  66.134  52.899  1.00  0.00    -0.000 C 
BRANCH  13  14
ATOM     14  C   UNL     1      42.894  65.303  53.811  1.00  0.00    -0.000 C 
BRANCH  14  15
ATOM     15  C   UNL     1      43.636  64.138  54.489  1.00  0.00    -0.000 C 
BRANCH  15  16
ATOM     16  C   UNL     1      43.556  64.204  56.023  1.00  0.00    -0.003 C 
ATOM     17  C   UNL     1      44.357  63.096  56.706  1.00  0.00     0.004 C 
ENDBRANCH  15  16
ENDBRANCH  14  15
ENDBRANCH  13  14
ENDBRANCH  12  13
ENDBRANCH  11  12
ENDBRANCH  10  11
ENDBRANCH   1  10
TORSDOF 13
ENDMDL
MODEL 3
REMARK VINA RESULT:    -4.363      3.782      7.825
REMARK INTER + INTRA:          -8.440
REMARK INTER:                  -7.247
REMARK INTRA:                  -1.194
REMARK UNBOUND:                -0.761
REMARK SMILES CCCCCCCCCCCCCCC(=O)[O-]
REMARK SMILES IDX 9 1 10 2 11 3 12 4 13 5 14 6 15 7 16 8 17 9 8 10 7 11 6 12
REMARK SMILES IDX 5 13 4 14 3 15 2 16 1 17
REMARK H PARENT
REMARK Flexibility Score: inf
ROOT
ATOM      1  C   UNL     1      44.382  66.397  49.252  1.00  0.00     0.000 C 
ENDROOT
BRANCH   1   2
ATOM      2  C   UNL     1      45.100  66.517  50.610  1.00  0.00     0.000 C 
BRANCH   2   3
ATOM      3  C   UNL     1      44.833  65.365  51.597  1.00  0.00     0.000 C 
BRANCH   3   4
ATOM      4  C   UNL     1      43.927  65.776  52.767  1.00  0.00     0.000 C 
BRANCH   4   5
ATOM      5  C   UNL     1      43.659  64.586  53.697  1.00  0.00     0.006 C 
BRANCH   5   6
ATOM      6  C   UNL     1      42.898  65.029  54.950  1.00  0.00     0.053 C 
BRANCH   6   7
ATOM      7  C   UNL     1      43.469  64.375  56.168  1.00  0.00     0.041 C 
ATOM      8  O   UNL     1      43.302  64.892  57.304  1.00  0.00    -0.550 OA
ATOM      9  O   UNL     1      44.230  63.219  56.044  1.00  0.00    -0.550 OA
ENDBRANCH   6   7
ENDBRANCH   5   6
ENDBRANCH   4   5
ENDBRANCH   3   4
ENDBRANCH   2   3
ENDBRANCH   1   2
BRANCH   1  10
ATOM     10  C   UNL     1      43.554  67.644  48.900  1.00  0.00     0.000 C 
BRANCH  10  11
ATOM     11  C   UNL     1      42.377  67.877  49.867  1.00  0.00    -0.000 C 
BRANCH  11  12
ATOM     12  C   UNL     1      40.976  67.660  49.266  1.00  0.00    -0.000 C 
BRANCH  12  13
ATOM     13  C   UNL     1      41.018  67.144  47.817  1.00  0.00    -0.000 C 
BRANCH  13  14
ATOM     14  C   UNL     1      40.273  65.809  47.645  1.00  0.00    -0.000 C 
BRANCH  14  15
ATOM     15  C   UNL     1      41.049  64.810  46.770  1.00  0.00    -0.000 C 
BRANCH  15  16
ATOM     16  C   UNL     1      42.141  65.489  45.928  1.00  0.00    -0.003 C 
ATOM     17  C   UNL     1      43.466  64.729  45.950  1.00  0.00     0.004 C 
ENDBRANCH  15  16
ENDBRANCH  14  15
ENDBRANCH  13  14
ENDBRANCH  12  13
ENDBRANCH  11  12
ENDBRANCH  10  11
ENDBRANCH   1  10
TORSDOF 13
ENDMDL
MODEL 4
REMARK VINA RESULT:    -4.322      3.907      7.831
REMARK INTER + INTRA:          -8.369
REMARK INTER:                  -7.285
REMARK INTRA:                  -1.084
REMARK UNBOUND:                -0.761
REMARK SMILES CCCCCCCCCCCCCCC(=O)[O-]
REMARK SMILES IDX 9 1 10 2 11 3 12 4 13 5 14 6 15 7 16 8 17 9 8 10 7 11 6 12
REMARK SMILES IDX 5 13 4 14 3 15 2 16 1 17
REMARK H PARENT
REMARK Flexibility Score: inf
ROOT
ATOM      1  C   UNL     1      45.316  65.207  51.290  1.00  0.00     0.000 C 
ENDROOT
BRANCH   1   2
ATOM      2  C   UNL     1      44.495  65.108  52.590  1.00  0.00     0.000 C 
BRANCH   2   3
ATOM      3  C   UNL     1      43.563  66.302  52.870  1.00  0.00     0.000 C 
BRANCH   3   4
ATOM      4  C   UNL     1      42.565  66.030  54.006  1.00  0.00     0.000 C 
BRANCH   4   5
ATOM      5  C   UNL     1      42.855  64.685  54.682  1.00  0.00     0.006 C 
BRANCH   5   6
ATOM      6  C   UNL     1      42.922  64.839  56.205  1.00  0.00     0.053 C 
BRANCH   6   7
ATOM      7  C   UNL     1      43.964  63.932  56.778  1.00  0.00     0.041 C 
ATOM      8  O   UNL     1      44.487  64.191  57.894  1.00  0.00    -0.550 OA
ATOM      9  O   UNL     1      44.394  62.825  56.057  1.00  0.00    -0.550 OA
ENDBRANCH   6   7
ENDBRANCH   5   6
ENDBRANCH   4   5
ENDBRANCH   3   4
ENDBRANCH   2   3
ENDBRANCH   1   2
BRANCH   1  10
ATOM     10  C   UNL     1      45.102  66.535  50.544  1.00  0.00     0.000 C 
BRANCH  10  11
ATOM     11  C   UNL     1      44.597  66.339  49.102  1.00  0.00    -0.000 C 
BRANCH  11  12
ATOM     12  C   UNL     1      43.481  67.302  48.657  1.00  0.00    -0.000 C 
BRANCH  12  13
ATOM     13  C   UNL     1      42.584  67.760  49.820  1.00  0.00    -0.000 C 
BRANCH  13  14
ATOM     14  C   UNL     1      41.104  67.867  49.416  1.00  0.00    -0.000 C 
BRANCH  14  15
ATOM     15  C   UNL     1      40.877  67.548  47.928  1.00  0.00    -0.000 C 
BRANCH  15  16
ATOM     16  C   UNL     1      40.074  66.254  47.719  1.00  0.00    -0.003 C 
ATOM     17  C   UNL     1      40.888  65.154  47.040  1.00  0.00     0.004 C 
ENDBRANCH  15  16
ENDBRANCH  14  15
ENDBRANCH  13  14
ENDBRANCH  12  13
ENDBRANCH  11  12
ENDBRANCH  10  11
ENDBRANCH   1  10
TORSDOF 13
ENDMDL
MODEL 5
REMARK VINA RESULT:    -4.242      1.348      2.349
REMARK INTER + INTRA:          -8.227
REMARK INTER:                  -7.340
REMARK INTRA:                  -0.888
REMARK UNBOUND:                -0.761
REMARK SMILES CCCCCCCCCCCCCCC(=O)[O-]
REMARK SMILES IDX 9 1 10 2 11 3 12 4 13 5 14 6 15 7 16 8 17 9 8 10 7 11 6 12
REMARK SMILES IDX 5 13 4 14 3 15 2 16 1 17
REMARK H PARENT
REMARK Flexibility Score: inf
ROOT
ATOM      1  C   UNL     1      44.899  65.412  51.979  1.00  0.00     0.000 C 
ENDROOT
BRANCH   1   2
ATOM      2  C   UNL     1      45.401  65.807  50.577  1.00  0.00     0.000 C 
BRANCH   2   3
ATOM      3  C   UNL     1      44.527  66.832  49.831  1.00  0.00     0.000 C 
BRANCH   3   4
ATOM      4  C   UNL     1      44.200  66.409  48.391  1.00  0.00     0.000 C 
BRANCH   4   5
ATOM      5  C   UNL     1      42.777  66.828  48.005  1.00  0.00     0.006 C 
BRANCH   5   6
ATOM      6  C   UNL     1      42.484  66.492  46.540  1.00  0.00     0.053 C 
BRANCH   6   7
ATOM      7  C   UNL     1      42.282  65.019  46.371  1.00  0.00     0.041 C 
ATOM      8  O   UNL     1      43.161  64.319  45.803  1.00  0.00    -0.550 OA
ATOM      9  O   UNL     1      41.099  64.427  46.798  1.00  0.00    -0.550 OA
ENDBRANCH   6   7
ENDBRANCH   5   6
ENDBRANCH   4   5
ENDBRANCH   3   4
ENDBRANCH   2   3
ENDBRANCH   1   2
BRANCH   1  10
ATOM     10  C   UNL     1      43.826  66.369  52.524  1.00  0.00     0.000 C 
BRANCH  10  11
ATOM     11  C   UNL     1      43.068  65.796  53.737  1.00  0.00    -0.000 C 
BRANCH  11  12
ATOM     12  C   UNL     1      43.541  64.410  54.214  1.00  0.00    -0.000 C 
BRANCH  12  13
ATOM     13  C   UNL     1      43.484  64.250  55.744  1.00  0.00    -0.000 C 
BRANCH  13  14
ATOM     14  C   UNL     1      42.418  65.151  56.391  1.00  0.00    -0.000 C 
BRANCH  14  15
ATOM     15  C   UNL     1      41.398  64.353  57.221  1.00  0.00    -0.000 C 
BRANCH  15  16
ATOM     16  C   UNL     1      39.947  64.636  56.801  1.00  0.00    -0.003 C 
ATOM     17  C   UNL     1      39.812  64.953  55.313  1.00  0.00     0.004 C 
ENDBRANCH  15  16
ENDBRANCH  14  15
ENDBRANCH  13  14
ENDBRANCH  12  13
ENDBRANCH  11  12
ENDBRANCH  10  11
ENDBRANCH   1  10
TORSDOF 13
ENDMDL
MODEL 6
REMARK VINA RESULT:    -4.241      3.397      7.708
REMARK INTER + INTRA:          -8.225
REMARK INTER:                  -6.772
REMARK INTRA:                  -1.453
REMARK UNBOUND:                -0.761
REMARK SMILES CCCCCCCCCCCCCCC(=O)[O-]
REMARK SMILES IDX 9 1 10 2 11 3 12 4 13 5 14 6 15 7 16 8 17 9 8 10 7 11 6 12
REMARK SMILES IDX 5 13 4 14 3 15 2 16 1 17
REMARK H PARENT
REMARK Flexibility Score: inf
ROOT
ATOM      1  C   UNL     1      44.359  66.519  48.137  1.00  0.00     0.000 C 
ENDROOT
BRANCH   1   2
ATOM      2  C   UNL     1      43.785  67.536  49.142  1.00  0.00     0.000 C 
BRANCH   2   3
ATOM      3  C   UNL     1      44.112  67.253  50.620  1.00  0.00     0.000 C 
BRANCH   3   4
ATOM      4  C   UNL     1      45.021  66.030  50.812  1.00  0.00     0.000 C 
BRANCH   4   5
ATOM      5  C   UNL     1      44.760  65.359  52.166  1.00  0.00     0.006 C 
BRANCH   5   6
ATOM      6  C   UNL     1      43.561  65.999  52.873  1.00  0.00     0.053 C 
BRANCH   6   7
ATOM      7  C   UNL     1      43.250  65.268  54.141  1.00  0.00     0.041 C 
ATOM      8  O   UNL     1      43.686  64.101  54.324  1.00  0.00    -0.550 OA
ATOM      9  O   UNL     1      42.437  65.858  55.101  1.00  0.00    -0.550 OA
ENDBRANCH   6   7
ENDBRANCH   5   6
ENDBRANCH   4   5
ENDBRANCH   3   4
ENDBRANCH   2   3
ENDBRANCH   1   2
BRANCH   1  10
ATOM     10  C   UNL     1      44.509  67.097  46.719  1.00  0.00     0.000 C 
BRANCH  10  11
ATOM     11  C   UNL     1      44.016  66.134  45.623  1.00  0.00    -0.000 C 
BRANCH  11  12
ATOM     12  C   UNL     1      43.321  64.858  46.130  1.00  0.00    -0.000 C 
BRANCH  12  13
ATOM     13  C   UNL     1      41.786  64.931  46.035  1.00  0.00    -0.000 C 
BRANCH  13  14
ATOM     14  C   UNL     1      41.299  66.232  45.373  1.00  0.00    -0.000 C 
BRANCH  14  15
ATOM     15  C   UNL     1      40.683  67.212  46.386  1.00  0.00    -0.000 C 
BRANCH  15  16
ATOM     16  C   UNL     1      40.407  66.555  47.748  1.00  0.00    -0.003 C 
ATOM     17  C   UNL     1      40.203  67.575  48.868  1.00  0.00     0.004 C 
ENDBRANCH  15  16
ENDBRANCH  14  15
ENDBRANCH  13  14
ENDBRANCH  12  13
ENDBRANCH  11  12
ENDBRANCH  10  11
ENDBRANCH   1  10
TORSDOF 13
ENDMDL
MODEL 7
REMARK VINA RESULT:    -4.209      9.038     11.640
REMARK INTER + INTRA:          -8.169
REMARK INTER:                  -7.080
REMARK INTRA:                  -1.088
REMARK UNBOUND:                -0.761
REMARK SMILES CCCCCCCCCCCCCCC(=O)[O-]
REMARK SMILES IDX 9 1 10 2 11 3 12 4 13 5 14 6 15 7 16 8 17 9 8 10 7 11 6 12
REMARK SMILES IDX 5 13 4 14 3 15 2 16 1 17
REMARK H PARENT
REMARK Flexibility Score: inf
ROOT
ATOM      1  C   UNL     1      36.364  65.278  55.045  1.00  0.00     0.000 C 
ENDROOT
BRANCH   1   2
ATOM      2  C   UNL     1      35.790  63.851  55.140  1.00  0.00     0.000 C 
BRANCH   2   3
ATOM      3  C   UNL     1      36.419  62.962  56.228  1.00  0.00     0.000 C 
BRANCH   3   4
ATOM      4  C   UNL     1      37.900  62.647  55.966  1.00  0.00     0.000 C 
BRANCH   4   5
ATOM      5  C   UNL     1      38.147  61.134  55.967  1.00  0.00     0.006 C 
BRANCH   5   6
ATOM      6  C   UNL     1      36.829  60.362  55.862  1.00  0.00     0.053 C 
BRANCH   6   7
ATOM      7  C   UNL     1      36.822  59.205  56.810  1.00  0.00     0.041 C 
ATOM      8  O   UNL     1      37.652  58.268  56.673  1.00  0.00    -0.550 OA
ATOM      9  O   UNL     1      35.867  59.137  57.818  1.00  0.00    -0.550 OA
ENDBRANCH   6   7
ENDBRANCH   5   6
ENDBRANCH   4   5
ENDBRANCH   3   4
ENDBRANCH   2   3
ENDBRANCH   1   2
BRANCH   1  10
ATOM     10  C   UNL     1      35.273  66.357  54.933  1.00  0.00     0.000 C 
BRANCH  10  11
ATOM     11  C   UNL     1      34.470  66.538  56.235  1.00  0.00    -0.000 C 
BRANCH  11  12
ATOM     12  C   UNL     1      32.998  66.949  56.051  1.00  0.00    -0.000 C 
BRANCH  12  13
ATOM     13  C   UNL     1      32.311  66.214  54.886  1.00  0.00    -0.000 C 
BRANCH  13  14
ATOM     14  C   UNL     1      31.326  67.115  54.121  1.00  0.00    -0.000 C 
BRANCH  14  15
ATOM     15  C   UNL     1      31.750  67.343  52.660  1.00  0.00    -0.000 C 
BRANCH  15  16
ATOM     16  C   UNL     1      33.069  68.124  52.546  1.00  0.00    -0.003 C 
ATOM     17  C   UNL     1      34.093  67.430  51.647  1.00  0.00     0.004 C 
ENDBRANCH  15  16
ENDBRANCH  14  15
ENDBRANCH  13  14
ENDBRANCH  12  13
ENDBRANCH  11  12
ENDBRANCH  10  11
ENDBRANCH   1  10
TORSDOF 13
ENDMDL
MODEL 8
REMARK VINA RESULT:    -4.164      3.340      5.593
REMARK INTER + INTRA:          -8.091
REMARK INTER:                  -6.449
REMARK INTRA:                  -1.641
REMARK UNBOUND:                -0.761
REMARK SMILES CCCCCCCCCCCCCCC(=O)[O-]
REMARK SMILES IDX 9 1 10 2 11 3 12 4 13 5 14 6 15 7 16 8 17 9 8 10 7 11 6 12
REMARK SMILES IDX 5 13 4 14 3 15 2 16 1 17
REMARK H PARENT
REMARK Flexibility Score: inf
ROOT
ATOM      1  C   UNL     1      41.186  65.919  46.294  1.00  0.00     0.000 C 
ENDROOT
BRANCH   1   2
ATOM      2  C   UNL     1      42.050  64.646  46.206  1.00  0.00     0.000 C 
BRANCH   2   3
ATOM      3  C   UNL     1      43.572  64.882  46.232  1.00  0.00     0.000 C 
BRANCH   3   4
ATOM      4  C   UNL     1      43.978  66.246  45.655  1.00  0.00     0.000 C 
BRANCH   4   5
ATOM      5  C   UNL     1      44.482  66.103  44.214  1.00  0.00     0.006 C 
BRANCH   5   6
ATOM      6  C   UNL     1      43.566  66.845  43.236  1.00  0.00     0.053 C 
BRANCH   6   7
ATOM      7  C   UNL     1      42.651  65.884  42.545  1.00  0.00     0.041 C 
ATOM      8  O   UNL     1      41.407  65.946  42.733  1.00  0.00    -0.550 OA
ATOM      9  O   UNL     1      43.175  64.887  41.732  1.00  0.00    -0.550 OA
ENDBRANCH   6   7
ENDBRANCH   5   6
ENDBRANCH   4   5
ENDBRANCH   3   4
ENDBRANCH   2   3
ENDBRANCH   1   2
BRANCH   1  10
ATOM     10  C   UNL     1      40.325  65.972  47.567  1.00  0.00     0.000 C 
BRANCH  10  11
ATOM     11  C   UNL     1      40.311  67.365  48.226  1.00  0.00    -0.000 C 
BRANCH  11  12
ATOM     12  C   UNL     1      41.677  68.071  48.301  1.00  0.00    -0.000 C 
BRANCH  12  13
ATOM     13  C   UNL     1      42.480  67.693  49.559  1.00  0.00    -0.000 C 
BRANCH  13  14
ATOM     14  C   UNL     1      43.995  67.639  49.295  1.00  0.00    -0.000 C 
BRANCH  14  15
ATOM     15  C   UNL     1      44.574  66.226  49.485  1.00  0.00    -0.000 C 
BRANCH  15  16
ATOM     16  C   UNL     1      45.503  66.131  50.706  1.00  0.00    -0.003 C 
ATOM     17  C   UNL     1      44.906  65.300  51.842  1.00  0.00     0.004 C 
ENDBRANCH  15  16
ENDBRANCH  14  15
ENDBRANCH  13  14
ENDBRANCH  12  13
ENDBRANCH  11  12
ENDBRANCH  10  11
ENDBRANCH   1  10
TORSDOF 13
ENDMDL
MODEL 9
REMARK VINA RESULT:    -4.078      9.260     11.962
REMARK INTER + INTRA:          -7.939
REMARK INTER:                  -7.294
REMARK INTRA:                  -0.645
REMARK UNBOUND:                -0.761
REMARK SMILES CCCCCCCCCCCCCCC(=O)[O-]
REMARK SMILES IDX 9 1 10 2 11 3 12 4 13 5 14 6 15 7 16 8 17 9 8 10 7 11 6 12
REMARK SMILES IDX 5 13 4 14 3 15 2 16 1 17
REMARK H PARENT
REMARK Flexibility Score: inf
ROOT
ATOM      1  C   UNL     1      36.141  63.298  56.016  1.00  0.00     0.000 C 
ENDROOT
BRANCH   1   2
ATOM      2  C   UNL     1      36.179  61.860  55.463  1.00  0.00     0.000 C 
BRANCH   2   3
ATOM      3  C   UNL     1      36.978  60.852  56.309  1.00  0.00     0.000 C 
BRANCH   3   4
ATOM      4  C   UNL     1      36.215  60.375  57.555  1.00  0.00     0.000 C 
BRANCH   4   5
ATOM      5  C   UNL     1      36.294  58.850  57.696  1.00  0.00     0.006 C 
BRANCH   5   6
ATOM      6  C   UNL     1      37.607  58.313  57.120  1.00  0.00     0.053 C 
BRANCH   6   7
ATOM      7  C   UNL     1      37.349  57.126  56.247  1.00  0.00     0.041 C 
ATOM      8  O   UNL     1      37.485  55.960  56.704  1.00  0.00    -0.550 OA
ATOM      9  O   UNL     1      37.007  57.306  54.912  1.00  0.00    -0.550 OA
ENDBRANCH   6   7
ENDBRANCH   5   6
ENDBRANCH   4   5
ENDBRANCH   3   4
ENDBRANCH   2   3
ENDBRANCH   1   2
BRANCH   1  10
ATOM     10  C   UNL     1      36.303  64.366  54.922  1.00  0.00     0.000 C 
BRANCH  10  11
ATOM     11  C   UNL     1      36.191  65.804  55.465  1.00  0.00    -0.000 C 
BRANCH  11  12
ATOM     12  C   UNL     1      35.038  66.641  54.882  1.00  0.00    -0.000 C 
BRANCH  12  13
ATOM     13  C   UNL     1      33.649  66.102  55.271  1.00  0.00    -0.000 C 
BRANCH  13  14
ATOM     14  C   UNL     1      32.546  67.164  55.130  1.00  0.00    -0.000 C 
BRANCH  14  15
ATOM     15  C   UNL     1      31.557  66.839  53.997  1.00  0.00    -0.000 C 
BRANCH  15  16
ATOM     16  C   UNL     1      31.710  67.785  52.794  1.00  0.00    -0.003 C 
ATOM     17  C   UNL     1      32.956  67.487  51.961  1.00  0.00     0.004 C 
ENDBRANCH  15  16
ENDBRANCH  14  15
ENDBRANCH  13  14
ENDBRANCH  12  13
ENDBRANCH  11  12
ENDBRANCH  10  11
ENDBRANCH   1  10
TORSDOF 13
ENDMDL
