MODEL 1
REMARK VINA RESULT:    -5.374      0.000      0.000
REMARK INTER + INTRA:          -6.301
REMARK INTER:                  -6.160
REMARK INTRA:                  -0.142
REMARK UNBOUND:                -0.142
REMARK SMILES O=C([O-])C=Cc1ccc(O)cc1
REMARK SMILES IDX 6 1 7 2 12 3 8 4 11 5 9 6 5 7 4 8 2 9 1 10 3 11 10 12
REMARK H PARENT 10 13
REMARK Flexibility Score: inf
ROOT
ATOM      1  C   UNL     1     -32.799  -3.346 -18.777  1.00  0.00    -0.025 A 
ATOM      2  C   UNL     1     -31.476  -2.878 -18.635  1.00  0.00     0.012 A 
ATOM      3  C   UNL     1     -33.376  -3.369 -20.058  1.00  0.00     0.012 A 
ATOM      4  C   UNL     1     -30.765  -2.422 -19.748  1.00  0.00     0.047 A 
ATOM      5  C   UNL     1     -32.660  -2.911 -21.168  1.00  0.00     0.047 A 
ATOM      6  C   UNL     1     -31.355  -2.435 -21.018  1.00  0.00     0.115 A 
ENDROOT
BRANCH   1   7
ATOM      7  C   UNL     1     -33.595  -3.852 -17.631  1.00  0.00     0.010 C 
ATOM      8  C   UNL     1     -34.843  -3.447 -17.353  1.00  0.00     0.025 C 
BRANCH   8   9
ATOM      9  C   UNL     1     -35.606  -3.981 -16.213  1.00  0.00     0.064 C 
ATOM     10  O   UNL     1     -35.847  -5.214 -16.108  1.00  0.00    -0.545 OA
ATOM     11  O   UNL     1     -36.068  -3.111 -15.234  1.00  0.00    -0.545 OA
ENDBRANCH   8   9
ENDBRANCH   1   7
BRANCH   6  12
ATOM     12  O   UNL     1     -30.655  -1.981 -22.133  1.00  0.00    -0.508 OA
ATOM     13  H   UNL     1     -29.648  -2.066 -22.196  1.00  0.00     0.293 HD
ENDBRANCH   6  12
TORSDOF 3
ENDMDL
MODEL 2
REMARK VINA RESULT:    -5.347      0.101      1.401
REMARK INTER + INTRA:          -6.271
REMARK INTER:                  -6.132
REMARK INTRA:                  -0.139
REMARK UNBOUND:                -0.142
REMARK SMILES O=C([O-])C=Cc1ccc(O)cc1
REMARK SMILES IDX 6 1 7 2 12 3 8 4 11 5 9 6 5 7 4 8 2 9 1 10 3 11 10 12
REMARK H PARENT 10 13
REMARK Flexibility Score: inf
ROOT
ATOM      1  C   UNL     1     -32.841  -3.354 -18.833  1.00  0.00    -0.025 A 
ATOM      2  C   UNL     1     -33.394  -3.351 -20.131  1.00  0.00     0.012 A 
ATOM      3  C   UNL     1     -31.534  -2.873 -18.652  1.00  0.00     0.012 A 
ATOM      4  C   UNL     1     -32.641  -2.900 -21.219  1.00  0.00     0.047 A 
ATOM      5  C   UNL     1     -30.784  -2.423 -19.744  1.00  0.00     0.047 A 
ATOM      6  C   UNL     1     -31.333  -2.436 -21.028  1.00  0.00     0.115 A 
ENDROOT
BRANCH   1   7
ATOM      7  C   UNL     1     -33.600  -3.812 -17.643  1.00  0.00     0.010 C 
ATOM      8  C   UNL     1     -34.909  -3.584 -17.459  1.00  0.00     0.025 C 
BRANCH   8   9
ATOM      9  C   UNL     1     -35.631  -4.064 -16.270  1.00  0.00     0.064 C 
ATOM     10  O   UNL     1     -35.984  -5.270 -16.163  1.00  0.00    -0.545 OA
ATOM     11  O   UNL     1     -35.926  -3.174 -15.245  1.00  0.00    -0.545 OA
ENDBRANCH   8   9
ENDBRANCH   1   7
BRANCH   6  12
ATOM     12  O   UNL     1     -30.574  -1.986 -22.107  1.00  0.00    -0.508 OA
ATOM     13  H   UNL     1     -30.435  -0.998 -22.280  1.00  0.00     0.293 HD
ENDBRANCH   6  12
TORSDOF 3
ENDMDL
MODEL 3
REMARK VINA RESULT:    -5.197      3.685      4.688
REMARK INTER + INTRA:          -6.098
REMARK INTER:                  -5.949
REMARK INTRA:                  -0.149
REMARK UNBOUND:                -0.142
REMARK SMILES O=C([O-])C=Cc1ccc(O)cc1
REMARK SMILES IDX 6 1 7 2 12 3 8 4 11 5 9 6 5 7 4 8 2 9 1 10 3 11 10 12
REMARK H PARENT 10 13
REMARK Flexibility Score: inf
ROOT
ATOM      1  C   UNL     1     -35.885  -5.249 -16.610  1.00  0.00    -0.025 A 
ATOM      2  C   UNL     1     -35.419  -3.921 -16.534  1.00  0.00     0.012 A 
ATOM      3  C   UNL     1     -36.143  -5.806 -17.874  1.00  0.00     0.012 A 
ATOM      4  C   UNL     1     -35.242  -3.166 -17.697  1.00  0.00     0.047 A 
ATOM      5  C   UNL     1     -35.964  -5.047 -19.035  1.00  0.00     0.047 A 
ATOM      6  C   UNL     1     -35.516  -3.726 -18.950  1.00  0.00     0.115 A 
ENDROOT
BRANCH   1   7
ATOM      7  C   UNL     1     -36.080  -6.098 -15.408  1.00  0.00     0.010 C 
ATOM      8  C   UNL     1     -36.097  -7.439 -15.436  1.00  0.00     0.025 C 
BRANCH   8   9
ATOM      9  C   UNL     1     -36.281  -8.248 -14.220  1.00  0.00     0.064 C 
ATOM     10  O   UNL     1     -37.324  -8.934 -14.044  1.00  0.00    -0.545 OA
ATOM     11  O   UNL     1     -35.287  -8.259 -13.251  1.00  0.00    -0.545 OA
ENDBRANCH   8   9
ENDBRANCH   1   7
BRANCH   6  12
ATOM     12  O   UNL     1     -35.344  -2.981 -20.116  1.00  0.00    -0.508 OA
ATOM     13  H   UNL     1     -34.422  -2.750 -20.464  1.00  0.00     0.293 HD
ENDBRANCH   6  12
TORSDOF 3
ENDMDL
MODEL 4
REMARK VINA RESULT:    -5.133      3.582      4.878
REMARK INTER + INTRA:          -6.025
REMARK INTER:                  -5.890
REMARK INTRA:                  -0.135
REMARK UNBOUND:                -0.142
REMARK SMILES O=C([O-])C=Cc1ccc(O)cc1
REMARK SMILES IDX 6 1 7 2 12 3 8 4 11 5 9 6 5 7 4 8 2 9 1 10 3 11 10 12
REMARK H PARENT 10 13
REMARK Flexibility Score: inf
ROOT
ATOM      1  C   UNL     1     -35.930  -5.405 -16.750  1.00  0.00    -0.025 A 
ATOM      2  C   UNL     1     -36.485  -5.733 -18.004  1.00  0.00     0.012 A 
ATOM      3  C   UNL     1     -35.166  -4.231 -16.633  1.00  0.00     0.012 A 
ATOM      4  C   UNL     1     -36.255  -4.916 -19.115  1.00  0.00     0.047 A 
ATOM      5  C   UNL     1     -34.939  -3.417 -17.747  1.00  0.00     0.047 A 
ATOM      6  C   UNL     1     -35.480  -3.757 -18.989  1.00  0.00     0.115 A 
ENDROOT
BRANCH   1   7
ATOM      7  C   UNL     1     -36.152  -6.231 -15.537  1.00  0.00     0.010 C 
ATOM      8  C   UNL     1     -36.286  -7.565 -15.557  1.00  0.00     0.025 C 
BRANCH   8   9
ATOM      9  C   UNL     1     -36.493  -8.353 -14.332  1.00  0.00     0.064 C 
ATOM     10  O   UNL     1     -37.563  -8.992 -14.140  1.00  0.00    -0.545 OA
ATOM     11  O   UNL     1     -35.491  -8.396 -13.371  1.00  0.00    -0.545 OA
ENDBRANCH   8   9
ENDBRANCH   1   7
BRANCH   6  12
ATOM     12  O   UNL     1     -35.244  -2.936 -20.091  1.00  0.00    -0.508 OA
ATOM     13  H   UNL     1     -34.880  -1.998 -19.983  1.00  0.00     0.293 HD
ENDBRANCH   6  12
TORSDOF 3
ENDMDL
MODEL 5
REMARK VINA RESULT:    -5.058      3.806      5.072
REMARK INTER + INTRA:          -5.939
REMARK INTER:                  -5.804
REMARK INTRA:                  -0.135
REMARK UNBOUND:                -0.142
REMARK SMILES O=C([O-])C=Cc1ccc(O)cc1
REMARK SMILES IDX 6 1 7 2 12 3 8 4 11 5 9 6 5 7 4 8 2 9 1 10 3 11 10 12
REMARK H PARENT 10 13
REMARK Flexibility Score: inf
ROOT
ATOM      1  C   UNL     1     -30.285  -3.409 -18.730  1.00  0.00    -0.025 A 
ATOM      2  C   UNL     1     -31.678  -3.503 -18.531  1.00  0.00     0.012 A 
ATOM      3  C   UNL     1     -29.808  -2.806 -19.906  1.00  0.00     0.012 A 
ATOM      4  C   UNL     1     -32.565  -3.028 -19.501  1.00  0.00     0.047 A 
ATOM      5  C   UNL     1     -30.699  -2.332 -20.874  1.00  0.00     0.047 A 
ATOM      6  C   UNL     1     -32.077  -2.443 -20.676  1.00  0.00     0.115 A 
ENDROOT
BRANCH   1   7
ATOM      7  C   UNL     1     -29.300  -3.887 -17.728  1.00  0.00     0.010 C 
ATOM      8  C   UNL     1     -28.945  -5.172 -17.585  1.00  0.00     0.025 C 
BRANCH   8   9
ATOM      9  C   UNL     1     -27.955  -5.608 -16.587  1.00  0.00     0.064 C 
ATOM     10  O   UNL     1     -27.021  -4.846 -16.218  1.00  0.00    -0.545 OA
ATOM     11  O   UNL     1     -28.053  -6.880 -16.039  1.00  0.00    -0.545 OA
ENDBRANCH   8   9
ENDBRANCH   1   7
BRANCH   6  12
ATOM     12  O   UNL     1     -32.954  -1.968 -21.650  1.00  0.00    -0.508 OA
ATOM     13  H   UNL     1     -33.144  -0.979 -21.753  1.00  0.00     0.293 HD
ENDBRANCH   6  12
TORSDOF 3
ENDMDL
MODEL 6
REMARK VINA RESULT:    -4.894      4.532      7.079
REMARK INTER + INTRA:          -5.751
REMARK INTER:                  -5.617
REMARK INTRA:                  -0.134
REMARK UNBOUND:                -0.142
REMARK SMILES O=C([O-])C=Cc1ccc(O)cc1
REMARK SMILES IDX 6 1 7 2 12 3 8 4 11 5 9 6 5 7 4 8 2 9 1 10 3 11 10 12
REMARK H PARENT 10 13
REMARK Flexibility Score: inf
ROOT
ATOM      1  C   UNL     1     -36.368  -6.392 -15.943  1.00  0.00    -0.025 A 
ATOM      2  C   UNL     1     -36.037  -5.761 -14.726  1.00  0.00     0.012 A 
ATOM      3  C   UNL     1     -36.298  -7.793 -16.020  1.00  0.00     0.012 A 
ATOM      4  C   UNL     1     -35.623  -6.518 -13.626  1.00  0.00     0.047 A 
ATOM      5  C   UNL     1     -35.883  -8.546 -14.917  1.00  0.00     0.047 A 
ATOM      6  C   UNL     1     -35.543  -7.913 -13.720  1.00  0.00     0.115 A 
ENDROOT
BRANCH   1   7
ATOM      7  C   UNL     1     -36.823  -5.637 -17.137  1.00  0.00     0.010 C 
ATOM      8  C   UNL     1     -36.043  -5.374 -18.195  1.00  0.00     0.025 C 
BRANCH   8   9
ATOM      9  C   UNL     1     -36.534  -4.631 -19.368  1.00  0.00     0.064 C 
ATOM     10  O   UNL     1     -36.741  -5.212 -20.468  1.00  0.00    -0.545 OA
ATOM     11  O   UNL     1     -36.775  -3.268 -19.260  1.00  0.00    -0.545 OA
ENDBRANCH   8   9
ENDBRANCH   1   7
BRANCH   6  12
ATOM     12  O   UNL     1     -35.130  -8.676 -12.630  1.00  0.00    -0.508 OA
ATOM     13  H   UNL     1     -34.221  -8.542 -12.204  1.00  0.00     0.293 HD
ENDBRANCH   6  12
TORSDOF 3
ENDMDL
MODEL 7
REMARK VINA RESULT:    -4.809      3.739      7.568
REMARK INTER + INTRA:          -5.653
REMARK INTER:                  -5.513
REMARK INTRA:                  -0.140
REMARK UNBOUND:                -0.142
REMARK SMILES O=C([O-])C=Cc1ccc(O)cc1
REMARK SMILES IDX 6 1 7 2 12 3 8 4 11 5 9 6 5 7 4 8 2 9 1 10 3 11 10 12
REMARK H PARENT 10 13
REMARK Flexibility Score: inf
ROOT
ATOM      1  C   UNL     1     -36.711  -6.671 -16.230  1.00  0.00    -0.025 A 
ATOM      2  C   UNL     1     -36.261  -7.974 -15.934  1.00  0.00     0.012 A 
ATOM      3  C   UNL     1     -37.826  -6.166 -15.540  1.00  0.00     0.012 A 
ATOM      4  C   UNL     1     -36.930  -8.755 -14.988  1.00  0.00     0.047 A 
ATOM      5  C   UNL     1     -38.492  -6.951 -14.594  1.00  0.00     0.047 A 
ATOM      6  C   UNL     1     -38.048  -8.247 -14.317  1.00  0.00     0.115 A 
ENDROOT
BRANCH   1   7
ATOM      7  C   UNL     1     -36.031  -5.795 -17.218  1.00  0.00     0.010 C 
ATOM      8  C   UNL     1     -35.506  -4.599 -16.917  1.00  0.00     0.025 C 
BRANCH   8   9
ATOM      9  C   UNL     1     -34.828  -3.763 -17.921  1.00  0.00     0.064 C 
ATOM     10  O   UNL     1     -35.476  -3.191 -18.838  1.00  0.00    -0.545 OA
ATOM     11  O   UNL     1     -33.451  -3.599 -17.855  1.00  0.00    -0.545 OA
ENDBRANCH   8   9
ENDBRANCH   1   7
BRANCH   6  12
ATOM     12  O   UNL     1     -38.723  -9.019 -13.373  1.00  0.00    -0.508 OA
ATOM     13  H   UNL     1     -39.079  -8.614 -12.516  1.00  0.00     0.293 HD
ENDBRANCH   6  12
TORSDOF 3
ENDMDL
MODEL 8
REMARK VINA RESULT:    -4.806      3.780      7.633
REMARK INTER + INTRA:          -5.650
REMARK INTER:                  -5.516
REMARK INTRA:                  -0.134
REMARK UNBOUND:                -0.142
REMARK SMILES O=C([O-])C=Cc1ccc(O)cc1
REMARK SMILES IDX 6 1 7 2 12 3 8 4 11 5 9 6 5 7 4 8 2 9 1 10 3 11 10 12
REMARK H PARENT 10 13
REMARK Flexibility Score: inf
ROOT
ATOM      1  C   UNL     1     -36.767  -6.652 -16.205  1.00  0.00    -0.025 A 
ATOM      2  C   UNL     1     -37.920  -6.167 -15.555  1.00  0.00     0.012 A 
ATOM      3  C   UNL     1     -36.365  -7.978 -15.972  1.00  0.00     0.012 A 
ATOM      4  C   UNL     1     -38.633  -6.986 -14.675  1.00  0.00     0.047 A 
ATOM      5  C   UNL     1     -37.081  -8.794 -15.091  1.00  0.00     0.047 A 
ATOM      6  C   UNL     1     -38.214  -8.301 -14.439  1.00  0.00     0.115 A 
ENDROOT
BRANCH   1   7
ATOM      7  C   UNL     1     -35.979  -5.829 -17.157  1.00  0.00     0.010 C 
ATOM      8  C   UNL     1     -35.735  -4.521 -16.987  1.00  0.00     0.025 C 
BRANCH   8   9
ATOM      9  C   UNL     1     -34.940  -3.739 -17.947  1.00  0.00     0.064 C 
ATOM     10  O   UNL     1     -33.691  -3.621 -17.817  1.00  0.00    -0.545 OA
ATOM     11  O   UNL     1     -35.574  -3.123 -19.018  1.00  0.00    -0.545 OA
ENDBRANCH   8   9
ENDBRANCH   1   7
BRANCH   6  12
ATOM     12  O   UNL     1     -38.918  -9.125 -13.562  1.00  0.00    -0.508 OA
ATOM     13  H   UNL     1     -39.227  -8.792 -12.657  1.00  0.00     0.293 HD
ENDBRANCH   6  12
TORSDOF 3
ENDMDL
MODEL 9
REMARK VINA RESULT:    -4.793      1.993      2.790
REMARK INTER + INTRA:          -5.636
REMARK INTER:                  -5.492
REMARK INTRA:                  -0.144
REMARK UNBOUND:                -0.142
REMARK SMILES O=C([O-])C=Cc1ccc(O)cc1
REMARK SMILES IDX 6 1 7 2 12 3 8 4 11 5 9 6 5 7 4 8 2 9 1 10 3 11 10 12
REMARK H PARENT 10 13
REMARK Flexibility Score: inf
ROOT
ATOM      1  C   UNL     1     -34.986  -4.363 -17.808  1.00  0.00    -0.025 A 
ATOM      2  C   UNL     1     -33.833  -3.570 -17.984  1.00  0.00     0.012 A 
ATOM      3  C   UNL     1     -35.452  -5.131 -18.889  1.00  0.00     0.012 A 
ATOM      4  C   UNL     1     -33.183  -3.532 -19.221  1.00  0.00     0.047 A 
ATOM      5  C   UNL     1     -34.798  -5.089 -20.125  1.00  0.00     0.047 A 
ATOM      6  C   UNL     1     -33.665  -4.289 -20.295  1.00  0.00     0.115 A 
ENDROOT
BRANCH   1   7
ATOM      7  C   UNL     1     -35.708  -4.449 -16.514  1.00  0.00     0.010 C 
ATOM      8  C   UNL     1     -36.030  -5.604 -15.914  1.00  0.00     0.025 C 
BRANCH   8   9
ATOM      9  C   UNL     1     -36.736  -5.650 -14.624  1.00  0.00     0.064 C 
ATOM     10  O   UNL     1     -36.861  -6.730 -13.986  1.00  0.00    -0.545 OA
ATOM     11  O   UNL     1     -37.272  -4.481 -14.098  1.00  0.00    -0.545 OA
ENDBRANCH   8   9
ENDBRANCH   1   7
BRANCH   6  12
ATOM     12  O   UNL     1     -33.025  -4.256 -21.532  1.00  0.00    -0.508 OA
ATOM     13  H   UNL     1     -32.178  -3.721 -21.675  1.00  0.00     0.293 HD
ENDBRANCH   6  12
TORSDOF 3
ENDMDL
