MODEL 1
REMARK VINA RESULT:    -3.460      0.000      0.000
REMARK INTER + INTRA:          -4.011
REMARK INTER:                  -3.966
REMARK INTRA:                  -0.045
REMARK UNBOUND:                -0.045
REMARK SMILES O=C([O-])c1cc(O)c(O)c(O)c1
REMARK SMILES IDX 4 1 5 2 12 3 6 4 10 5 8 6 2 7 1 8 3 9 7 10 11 12 9 14
REMARK H PARENT 7 11 11 13 9 15
REMARK Flexibility Score: inf
ROOT
ATOM      1  C   UNL     1      -8.401  -3.665 -13.249  1.00  0.00     0.005 A 
ATOM      2  C   UNL     1      -7.078  -3.326 -13.583  1.00  0.00     0.060 A 
ATOM      3  C   UNL     1      -8.728  -5.017 -13.046  1.00  0.00     0.060 A 
ATOM      4  C   UNL     1      -6.099  -4.321 -13.712  1.00  0.00     0.162 A 
ATOM      5  C   UNL     1      -7.753  -6.015 -13.175  1.00  0.00     0.162 A 
ATOM      6  C   UNL     1      -6.433  -5.665 -13.509  1.00  0.00     0.200 A 
ENDROOT
BRANCH   1   7
ATOM      7  C   UNL     1      -9.437  -2.618 -13.112  1.00  0.00     0.072 C 
ATOM      8  O   UNL     1      -9.857  -1.995 -14.125  1.00  0.00    -0.545 OA
ATOM      9  O   UNL     1      -9.963  -2.305 -11.864  1.00  0.00    -0.545 OA
ENDBRANCH   1   7
BRANCH   4  10
ATOM     10  O   UNL     1      -4.788  -3.980 -14.044  1.00  0.00    -0.504 OA
ATOM     11  H   UNL     1      -4.569  -3.105 -14.506  1.00  0.00     0.293 HD
ENDBRANCH   4  10
BRANCH   5  12
ATOM     12  O   UNL     1      -8.089  -7.352 -12.971  1.00  0.00    -0.504 OA
ATOM     13  H   UNL     1      -7.381  -8.062 -12.825  1.00  0.00     0.293 HD
ENDBRANCH   5  12
BRANCH   6  14
ATOM     14  O   UNL     1      -5.445  -6.641 -13.642  1.00  0.00    -0.502 OA
ATOM     15  H   UNL     1      -4.603  -6.485 -14.183  1.00  0.00     0.293 HD
ENDBRANCH   6  14
TORSDOF 4
ENDMDL
MODEL 2
REMARK VINA RESULT:    -3.434      0.070      2.422
REMARK INTER + INTRA:          -3.981
REMARK INTER:                  -3.935
REMARK INTRA:                  -0.046
REMARK UNBOUND:                -0.045
REMARK SMILES O=C([O-])c1cc(O)c(O)c(O)c1
REMARK SMILES IDX 4 1 5 2 12 3 6 4 10 5 8 6 2 7 1 8 3 9 7 10 11 12 9 14
REMARK H PARENT 7 11 11 13 9 15
REMARK Flexibility Score: inf
ROOT
ATOM      1  C   UNL     1      -8.451  -3.677 -13.237  1.00  0.00     0.005 A 
ATOM      2  C   UNL     1      -8.751  -5.030 -13.000  1.00  0.00     0.060 A 
ATOM      3  C   UNL     1      -7.139  -3.323 -13.596  1.00  0.00     0.060 A 
ATOM      4  C   UNL     1      -7.757  -6.011 -13.118  1.00  0.00     0.162 A 
ATOM      5  C   UNL     1      -6.142  -4.301 -13.715  1.00  0.00     0.162 A 
ATOM      6  C   UNL     1      -6.453  -5.650 -13.475  1.00  0.00     0.200 A 
ENDROOT
BRANCH   1   7
ATOM      7  C   UNL     1      -9.497  -2.638 -13.114  1.00  0.00     0.072 C 
ATOM      8  O   UNL     1      -9.872  -1.984 -14.124  1.00  0.00    -0.545 OA
ATOM      9  O   UNL     1     -10.082  -2.368 -11.883  1.00  0.00    -0.545 OA
ENDBRANCH   1   7
BRANCH   4  10
ATOM     10  O   UNL     1      -8.061  -7.352 -12.881  1.00  0.00    -0.504 OA
ATOM     11  H   UNL     1      -7.927  -8.059 -13.594  1.00  0.00     0.293 HD
ENDBRANCH   4  10
BRANCH   5  12
ATOM     12  O   UNL     1      -4.844  -3.937 -14.071  1.00  0.00    -0.504 OA
ATOM     13  H   UNL     1      -4.198  -4.603 -14.479  1.00  0.00     0.293 HD
ENDBRANCH   5  12
BRANCH   6  14
ATOM     14  O   UNL     1      -5.477  -6.642 -13.588  1.00  0.00    -0.502 OA
ATOM     15  H   UNL     1      -4.528  -6.434 -13.875  1.00  0.00     0.293 HD
ENDBRANCH   6  14
TORSDOF 4
ENDMDL
MODEL 3
REMARK VINA RESULT:    -3.171     13.665     14.455
REMARK INTER + INTRA:          -3.680
REMARK INTER:                  -3.630
REMARK INTRA:                  -0.049
REMARK UNBOUND:                -0.045
REMARK SMILES O=C([O-])c1cc(O)c(O)c(O)c1
REMARK SMILES IDX 4 1 5 2 12 3 6 4 10 5 8 6 2 7 1 8 3 9 7 10 11 12 9 14
REMARK H PARENT 7 11 11 13 9 15
REMARK Flexibility Score: inf
ROOT
ATOM      1  C   UNL     1      -8.455   8.329  -7.587  1.00  0.00     0.005 A 
ATOM      2  C   UNL     1      -9.311   8.194  -8.693  1.00  0.00     0.060 A 
ATOM      3  C   UNL     1      -7.220   8.978  -7.756  1.00  0.00     0.060 A 
ATOM      4  C   UNL     1      -8.939   8.696  -9.947  1.00  0.00     0.162 A 
ATOM      5  C   UNL     1      -6.844   9.483  -9.008  1.00  0.00     0.162 A 
ATOM      6  C   UNL     1      -7.707   9.342 -10.108  1.00  0.00     0.200 A 
ENDROOT
BRANCH   1   7
ATOM      7  C   UNL     1      -8.844   7.799  -6.262  1.00  0.00     0.072 C 
ATOM      8  O   UNL     1     -10.035   7.891  -5.859  1.00  0.00    -0.545 OA
ATOM      9  O   UNL     1      -7.902   7.192  -5.440  1.00  0.00    -0.545 OA
ENDBRANCH   1   7
BRANCH   4  10
ATOM     10  O   UNL     1      -9.792   8.559 -11.042  1.00  0.00    -0.504 OA
ATOM     11  H   UNL     1      -9.529   8.888 -11.964  1.00  0.00     0.293 HD
ENDBRANCH   4  10
BRANCH   5  12
ATOM     12  O   UNL     1      -5.616  10.125  -9.164  1.00  0.00    -0.504 OA
ATOM     13  H   UNL     1      -5.106  10.495  -8.370  1.00  0.00     0.293 HD
ENDBRANCH   5  12
BRANCH   6  14
ATOM     14  O   UNL     1      -7.355   9.836 -11.364  1.00  0.00    -0.502 OA
ATOM     15  H   UNL     1      -8.045  10.028 -12.081  1.00  0.00     0.293 HD
ENDBRANCH   6  14
TORSDOF 4
ENDMDL
MODEL 4
REMARK VINA RESULT:    -3.098      1.498      4.577
REMARK INTER + INTRA:          -3.597
REMARK INTER:                  -3.549
REMARK INTRA:                  -0.048
REMARK UNBOUND:                -0.045
REMARK SMILES O=C([O-])c1cc(O)c(O)c(O)c1
REMARK SMILES IDX 4 1 5 2 12 3 6 4 10 5 8 6 2 7 1 8 3 9 7 10 11 12 9 14
REMARK H PARENT 7 11 11 13 9 15
REMARK Flexibility Score: inf
ROOT
ATOM      1  C   UNL     1      -7.884  -6.829 -13.100  1.00  0.00     0.005 A 
ATOM      2  C   UNL     1      -8.976  -5.966 -12.900  1.00  0.00     0.060 A 
ATOM      3  C   UNL     1      -6.627  -6.278 -13.405  1.00  0.00     0.060 A 
ATOM      4  C   UNL     1      -8.815  -4.578 -13.004  1.00  0.00     0.162 A 
ATOM      5  C   UNL     1      -6.462  -4.890 -13.510  1.00  0.00     0.162 A 
ATOM      6  C   UNL     1      -7.560  -4.037 -13.309  1.00  0.00     0.200 A 
ENDROOT
BRANCH   1   7
ATOM      7  C   UNL     1      -8.050  -8.295 -12.991  1.00  0.00     0.072 C 
ATOM      8  O   UNL     1      -8.632  -8.801 -11.994  1.00  0.00    -0.545 OA
ATOM      9  O   UNL     1      -7.568  -9.135 -13.987  1.00  0.00    -0.545 OA
ENDBRANCH   1   7
BRANCH   4  10
ATOM     10  O   UNL     1      -9.901  -3.726 -12.804  1.00  0.00    -0.504 OA
ATOM     11  H   UNL     1      -9.779  -2.787 -12.444  1.00  0.00     0.293 HD
ENDBRANCH   4  10
BRANCH   5  12
ATOM     12  O   UNL     1      -5.211  -4.356 -13.813  1.00  0.00    -0.504 OA
ATOM     13  H   UNL     1      -4.398  -4.545 -13.237  1.00  0.00     0.293 HD
ENDBRANCH   5  12
BRANCH   6  14
ATOM     14  O   UNL     1      -7.419  -2.652 -13.407  1.00  0.00    -0.502 OA
ATOM     15  H   UNL     1      -7.555  -2.158 -14.281  1.00  0.00     0.293 HD
ENDBRANCH   6  14
TORSDOF 4
ENDMDL
MODEL 5
REMARK VINA RESULT:    -2.758      4.329      6.200
REMARK INTER + INTRA:          -3.206
REMARK INTER:                  -3.162
REMARK INTRA:                  -0.045
REMARK UNBOUND:                -0.045
REMARK SMILES O=C([O-])c1cc(O)c(O)c(O)c1
REMARK SMILES IDX 4 1 5 2 12 3 6 4 10 5 8 6 2 7 1 8 3 9 7 10 11 12 9 14
REMARK H PARENT 7 11 11 13 9 15
REMARK Flexibility Score: inf
ROOT
ATOM      1  C   UNL     1      -8.951  -8.443 -11.393  1.00  0.00     0.005 A 
ATOM      2  C   UNL     1      -9.801  -8.823 -10.340  1.00  0.00     0.060 A 
ATOM      3  C   UNL     1      -7.565  -8.633 -11.252  1.00  0.00     0.060 A 
ATOM      4  C   UNL     1      -9.277  -9.381  -9.166  1.00  0.00     0.162 A 
ATOM      5  C   UNL     1      -7.036  -9.192 -10.080  1.00  0.00     0.162 A 
ATOM      6  C   UNL     1      -7.895  -9.567  -9.034  1.00  0.00     0.200 A 
ENDROOT
BRANCH   1   7
ATOM      7  C   UNL     1      -9.501  -7.853 -12.633  1.00  0.00     0.072 C 
ATOM      8  O   UNL     1      -9.787  -8.586 -13.619  1.00  0.00    -0.545 OA
ATOM      9  O   UNL     1      -9.711  -6.483 -12.730  1.00  0.00    -0.545 OA
ENDBRANCH   1   7
BRANCH   4  10
ATOM     10  O   UNL     1     -10.125  -9.756  -8.125  1.00  0.00    -0.504 OA
ATOM     11  H   UNL     1      -9.962  -9.450  -7.173  1.00  0.00     0.293 HD
ENDBRANCH   4  10
BRANCH   5  12
ATOM     12  O   UNL     1      -5.661  -9.375  -9.953  1.00  0.00    -0.504 OA
ATOM     13  H   UNL     1      -5.023  -9.167 -10.713  1.00  0.00     0.293 HD
ENDBRANCH   5  12
BRANCH   6  14
ATOM     14  O   UNL     1      -7.392 -10.125  -7.858  1.00  0.00    -0.502 OA
ATOM     15  H   UNL     1      -7.342 -11.127  -7.716  1.00  0.00     0.293 HD
ENDBRANCH   6  14
TORSDOF 4
ENDMDL
MODEL 6
REMARK VINA RESULT:    -2.675     16.860     17.788
REMARK INTER + INTRA:          -3.111
REMARK INTER:                  -3.064
REMARK INTRA:                  -0.046
REMARK UNBOUND:                -0.045
REMARK SMILES O=C([O-])c1cc(O)c(O)c(O)c1
REMARK SMILES IDX 4 1 5 2 12 3 6 4 10 5 8 6 2 7 1 8 3 9 7 10 11 12 9 14
REMARK H PARENT 7 11 11 13 9 15
REMARK Flexibility Score: inf
ROOT
ATOM      1  C   UNL     1      -9.197  -6.470   3.227  1.00  0.00     0.005 A 
ATOM      2  C   UNL     1      -9.867  -5.242   3.365  1.00  0.00     0.060 A 
ATOM      3  C   UNL     1      -8.111  -6.753   4.073  1.00  0.00     0.060 A 
ATOM      4  C   UNL     1      -9.457  -4.312   4.331  1.00  0.00     0.162 A 
ATOM      5  C   UNL     1      -7.698  -5.827   5.040  1.00  0.00     0.162 A 
ATOM      6  C   UNL     1      -8.374  -4.602   5.169  1.00  0.00     0.200 A 
ENDROOT
BRANCH   1   7
ATOM      7  C   UNL     1      -9.626  -7.454   2.209  1.00  0.00     0.072 C 
ATOM      8  O   UNL     1      -9.614  -7.155   0.984  1.00  0.00    -0.545 OA
ATOM      9  O   UNL     1     -10.049  -8.722   2.587  1.00  0.00    -0.545 OA
ENDBRANCH   1   7
BRANCH   4  10
ATOM     10  O   UNL     1     -10.125  -3.095   4.463  1.00  0.00    -0.504 OA
ATOM     11  H   UNL     1      -9.921  -2.310   3.857  1.00  0.00     0.293 HD
ENDBRANCH   4  10
BRANCH   5  12
ATOM     12  O   UNL     1      -6.619  -6.118   5.872  1.00  0.00    -0.504 OA
ATOM     13  H   UNL     1      -6.186  -5.407   6.451  1.00  0.00     0.293 HD
ENDBRANCH   5  12
BRANCH   6  14
ATOM     14  O   UNL     1      -7.982  -3.663   6.124  1.00  0.00    -0.502 OA
ATOM     15  H   UNL     1      -8.653  -3.130   6.663  1.00  0.00     0.293 HD
ENDBRANCH   6  14
TORSDOF 4
ENDMDL
MODEL 7
REMARK VINA RESULT:    -2.618     16.038     17.182
REMARK INTER + INTRA:          -3.046
REMARK INTER:                  -2.998
REMARK INTRA:                  -0.048
REMARK UNBOUND:                -0.045
REMARK SMILES O=C([O-])c1cc(O)c(O)c(O)c1
REMARK SMILES IDX 4 1 5 2 12 3 6 4 10 5 8 6 2 7 1 8 3 9 7 10 11 12 9 14
REMARK H PARENT 7 11 11 13 9 15
REMARK Flexibility Score: inf
ROOT
ATOM      1  C   UNL     1      -8.618  -7.846   2.780  1.00  0.00     0.005 A 
ATOM      2  C   UNL     1      -9.135  -6.966   1.813  1.00  0.00     0.060 A 
ATOM      3  C   UNL     1      -8.588  -7.439   4.125  1.00  0.00     0.060 A 
ATOM      4  C   UNL     1      -9.613  -5.702   2.184  1.00  0.00     0.162 A 
ATOM      5  C   UNL     1      -9.065  -6.176   4.501  1.00  0.00     0.162 A 
ATOM      6  C   UNL     1      -9.579  -5.304   3.526  1.00  0.00     0.200 A 
ENDROOT
BRANCH   1   7
ATOM      7  C   UNL     1      -8.112  -9.181   2.392  1.00  0.00     0.072 C 
ATOM      8  O   UNL     1      -8.797  -9.934   1.647  1.00  0.00    -0.545 OA
ATOM      9  O   UNL     1      -6.876  -9.626   2.844  1.00  0.00    -0.545 OA
ENDBRANCH   1   7
BRANCH   4  10
ATOM     10  O   UNL     1     -10.125  -4.832   1.221  1.00  0.00    -0.504 OA
ATOM     11  H   UNL     1     -10.793  -5.145   0.527  1.00  0.00     0.293 HD
ENDBRANCH   4  10
BRANCH   5  12
ATOM     12  O   UNL     1      -9.030  -5.784   5.837  1.00  0.00    -0.504 OA
ATOM     13  H   UNL     1      -9.809  -5.303   6.271  1.00  0.00     0.293 HD
ENDBRANCH   5  12
BRANCH   6  14
ATOM     14  O   UNL     1     -10.060  -4.042   3.875  1.00  0.00    -0.502 OA
ATOM     15  H   UNL     1      -9.706  -3.533   4.677  1.00  0.00     0.293 HD
ENDBRANCH   6  14
TORSDOF 4
ENDMDL
MODEL 8
REMARK VINA RESULT:    -2.469     25.601     26.710
REMARK INTER + INTRA:          -2.875
REMARK INTER:                  -2.829
REMARK INTRA:                  -0.046
REMARK UNBOUND:                -0.045
REMARK SMILES O=C([O-])c1cc(O)c(O)c(O)c1
REMARK SMILES IDX 4 1 5 2 12 3 6 4 10 5 8 6 2 7 1 8 3 9 7 10 11 12 9 14
REMARK H PARENT 7 11 11 13 9 15
REMARK Flexibility Score: inf
ROOT
ATOM      1  C   UNL     1       8.009   9.402   1.933  1.00  0.00     0.005 A 
ATOM      2  C   UNL     1       9.111   9.250   2.792  1.00  0.00     0.060 A 
ATOM      3  C   UNL     1       6.750   9.695   2.485  1.00  0.00     0.060 A 
ATOM      4  C   UNL     1       8.958   9.387   4.179  1.00  0.00     0.162 A 
ATOM      5  C   UNL     1       6.592   9.834   3.871  1.00  0.00     0.162 A 
ATOM      6  C   UNL     1       7.701   9.680   4.721  1.00  0.00     0.200 A 
ENDROOT
BRANCH   1   7
ATOM      7  C   UNL     1       8.167   9.257   0.470  1.00  0.00     0.072 C 
ATOM      8  O   UNL     1       8.910  10.045  -0.176  1.00  0.00    -0.545 OA
ATOM      9  O   UNL     1       7.498   8.250  -0.216  1.00  0.00    -0.545 OA
ENDBRANCH   1   7
BRANCH   4  10
ATOM     10  O   UNL     1      10.055   9.236   5.026  1.00  0.00    -0.504 OA
ATOM     11  H   UNL     1      10.282   8.341   5.444  1.00  0.00     0.293 HD
ENDBRANCH   4  10
BRANCH   5  12
ATOM     12  O   UNL     1       5.339  10.125   4.407  1.00  0.00    -0.504 OA
ATOM     13  H   UNL     1       4.508   9.622   4.118  1.00  0.00     0.293 HD
ENDBRANCH   5  12
BRANCH   6  14
ATOM     14  O   UNL     1       7.569   9.813   6.103  1.00  0.00    -0.502 OA
ATOM     15  H   UNL     1       7.128   9.102   6.674  1.00  0.00     0.293 HD
ENDBRANCH   6  14
TORSDOF 4
ENDMDL
