MODEL 1
REMARK VINA RESULT:     8.469      0.000      0.000
REMARK INTER + INTRA:          16.580
REMARK INTER:                  15.895
REMARK INTRA:                   0.685
REMARK UNBOUND:                 0.685
REMARK SMILES O=C([O-])CCCCCCCCCCCCCCC(=O)[O-]
REMARK SMILES IDX 10 1 9 2 8 3 7 4 6 5 5 6 4 7 2 8 1 9 3 10 11 11 12 12 13 13
REMARK SMILES IDX 14 14 15 15 16 16 17 17 18 18 19 19 20 20
REMARK H PARENT
REMARK Flexibility Score: inf
ROOT
ATOM      1  C   UNL     1      -6.467  19.739 -10.810  1.00  0.00     0.000 C 
ENDROOT
BRANCH   1   2
ATOM      2  C   UNL     1      -5.409  18.632 -10.732  1.00  0.00     0.000 C 
BRANCH   2   3
ATOM      3  C   UNL     1      -4.048  19.136 -11.235  1.00  0.00     0.000 C 
BRANCH   3   4
ATOM      4  C   UNL     1      -2.866  18.387 -10.602  1.00  0.00     0.000 C 
BRANCH   4   5
ATOM      5  C   UNL     1      -3.193  16.914 -10.297  1.00  0.00     0.000 C 
BRANCH   5   6
ATOM      6  C   UNL     1      -4.276  16.345 -11.227  1.00  0.00     0.006 C 
BRANCH   6   7
ATOM      7  C   UNL     1      -4.443  14.827 -11.077  1.00  0.00     0.053 C 
BRANCH   7   8
ATOM      8  C   UNL     1      -3.427  14.281 -10.125  1.00  0.00     0.041 C 
ATOM      9  O   UNL     1      -3.780  13.875  -8.985  1.00  0.00    -0.550 OA
ATOM     10  O   UNL     1      -2.097  14.177 -10.512  1.00  0.00    -0.550 OA
ENDBRANCH   7   8
ENDBRANCH   6   7
ENDBRANCH   5   6
ENDBRANCH   4   5
ENDBRANCH   3   4
ENDBRANCH   2   3
ENDBRANCH   1   2
BRANCH   1  11
ATOM     11  C   UNL     1      -6.602  20.272 -12.245  1.00  0.00     0.000 C 
BRANCH  11  12
ATOM     12  C   UNL     1      -6.476  21.801 -12.323  1.00  0.00     0.000 C 
BRANCH  12  13
ATOM     13  C   UNL     1      -5.310  22.345 -11.484  1.00  0.00     0.000 C 
BRANCH  13  14
ATOM     14  C   UNL     1      -4.656  23.551 -12.171  1.00  0.00     0.000 C 
BRANCH  14  15
ATOM     15  C   UNL     1      -3.779  24.337 -11.184  1.00  0.00     0.000 C 
BRANCH  15  16
ATOM     16  C   UNL     1      -3.699  25.834 -11.526  1.00  0.00     0.006 C 
BRANCH  16  17
ATOM     17  C   UNL     1      -4.426  26.713 -10.502  1.00  0.00     0.053 C 
BRANCH  17  18
ATOM     18  C   UNL     1      -5.501  27.512 -11.169  1.00  0.00     0.041 C 
ATOM     19  O   UNL     1      -6.649  27.018 -11.331  1.00  0.00    -0.550 OA
ATOM     20  O   UNL     1      -5.220  28.781 -11.661  1.00  0.00    -0.550 OA
ENDBRANCH  17  18
ENDBRANCH  16  17
ENDBRANCH  15  16
ENDBRANCH  14  15
ENDBRANCH  13  14
ENDBRANCH  12  13
ENDBRANCH  11  12
ENDBRANCH   1  11
TORSDOF 15
ENDMDL
MODEL 2
REMARK VINA RESULT:     8.667      0.436      9.738
REMARK INTER + INTRA:          16.951
REMARK INTER:                  15.892
REMARK INTRA:                   1.059
REMARK UNBOUND:                 0.685
REMARK SMILES O=C([O-])CCCCCCCCCCCCCCC(=O)[O-]
REMARK SMILES IDX 10 1 9 2 8 3 7 4 6 5 5 6 4 7 2 8 1 9 3 10 11 11 12 12 13 13
REMARK SMILES IDX 14 14 15 15 16 16 17 17 18 18 19 19 20 20
REMARK H PARENT
REMARK Flexibility Score: inf
ROOT
ATOM      1  C   UNL     1      -6.647  20.158 -12.349  1.00  0.00     0.000 C 
ENDROOT
BRANCH   1   2
ATOM      2  C   UNL     1      -6.368  21.664 -12.422  1.00  0.00     0.000 C 
BRANCH   2   3
ATOM      3  C   UNL     1      -5.248  22.064 -11.450  1.00  0.00     0.000 C 
BRANCH   3   4
ATOM      4  C   UNL     1      -4.508  23.337 -11.888  1.00  0.00     0.000 C 
BRANCH   4   5
ATOM      5  C   UNL     1      -4.981  24.589 -11.127  1.00  0.00     0.000 C 
BRANCH   5   6
ATOM      6  C   UNL     1      -4.058  25.798 -11.347  1.00  0.00     0.006 C 
BRANCH   6   7
ATOM      7  C   UNL     1      -4.522  27.041 -10.578  1.00  0.00     0.053 C 
BRANCH   7   8
ATOM      8  C   UNL     1      -5.564  27.779 -11.357  1.00  0.00     0.041 C 
ATOM      9  O   UNL     1      -6.728  27.307 -11.463  1.00  0.00    -0.550 OA
ATOM     10  O   UNL     1      -5.265  29.010 -11.926  1.00  0.00    -0.550 OA
ENDBRANCH   7   8
ENDBRANCH   6   7
ENDBRANCH   5   6
ENDBRANCH   4   5
ENDBRANCH   3   4
ENDBRANCH   2   3
ENDBRANCH   1   2
BRANCH   1  11
ATOM     11  C   UNL     1      -6.443  19.629 -10.921  1.00  0.00     0.000 C 
BRANCH  11  12
ATOM     12  C   UNL     1      -5.258  18.658 -10.813  1.00  0.00     0.000 C 
BRANCH  12  13
ATOM     13  C   UNL     1      -3.903  19.379 -10.737  1.00  0.00     0.000 C 
BRANCH  13  14
ATOM     14  C   UNL     1      -2.744  18.376 -10.785  1.00  0.00     0.000 C 
BRANCH  14  15
ATOM     15  C   UNL     1      -3.223  16.963 -10.416  1.00  0.00     0.000 C 
BRANCH  15  16
ATOM     16  C   UNL     1      -4.135  16.348 -11.492  1.00  0.00     0.006 C 
BRANCH  16  17
ATOM     17  C   UNL     1      -4.532  14.902 -11.172  1.00  0.00     0.053 C 
BRANCH  17  18
ATOM     18  C   UNL     1      -3.708  14.372 -10.041  1.00  0.00     0.041 C 
ATOM     19  O   UNL     1      -4.145  14.421  -8.861  1.00  0.00    -0.550 OA
ATOM     20  O   UNL     1      -2.433  13.875 -10.284  1.00  0.00    -0.550 OA
ENDBRANCH  17  18
ENDBRANCH  16  17
ENDBRANCH  15  16
ENDBRANCH  14  15
ENDBRANCH  13  14
ENDBRANCH  12  13
ENDBRANCH  11  12
ENDBRANCH   1  11
TORSDOF 15
ENDMDL
MODEL 3
REMARK VINA RESULT:     8.901      4.626      6.022
REMARK INTER + INTRA:          17.391
REMARK INTER:                  18.214
REMARK INTRA:                  -0.822
REMARK UNBOUND:                 0.685
REMARK SMILES O=C([O-])CCCCCCCCCCCCCCC(=O)[O-]
REMARK SMILES IDX 10 1 9 2 8 3 7 4 6 5 5 6 4 7 2 8 1 9 3 10 11 11 12 12 13 13
REMARK SMILES IDX 14 14 15 15 16 16 17 17 18 18 19 19 20 20
REMARK H PARENT
REMARK Flexibility Score: inf
ROOT
ATOM      1  C   UNL     1      -5.548  21.179 -11.233  1.00  0.00     0.000 C 
ENDROOT
BRANCH   1   2
ATOM      2  C   UNL     1      -4.100  20.693 -11.097  1.00  0.00     0.000 C 
BRANCH   2   3
ATOM      3  C   UNL     1      -4.035  19.369 -10.321  1.00  0.00     0.000 C 
BRANCH   3   4
ATOM      4  C   UNL     1      -3.227  18.289 -11.056  1.00  0.00     0.000 C 
BRANCH   4   5
ATOM      5  C   UNL     1      -3.489  16.875 -10.504  1.00  0.00     0.000 C 
BRANCH   5   6
ATOM      6  C   UNL     1      -4.287  15.998 -11.482  1.00  0.00     0.006 C 
BRANCH   6   7
ATOM      7  C   UNL     1      -4.520  14.580 -10.945  1.00  0.00     0.053 C 
BRANCH   7   8
ATOM      8  C   UNL     1      -3.359  14.140 -10.111  1.00  0.00     0.041 C 
ATOM      9  O   UNL     1      -2.210  14.051 -10.620  1.00  0.00    -0.550 OA
ATOM     10  O   UNL     1      -3.535  13.875  -8.759  1.00  0.00    -0.550 OA
ENDBRANCH   7   8
ENDBRANCH   6   7
ENDBRANCH   5   6
ENDBRANCH   4   5
ENDBRANCH   3   4
ENDBRANCH   2   3
ENDBRANCH   1   2
BRANCH   1  11
ATOM     11  C   UNL     1      -6.473  20.036 -11.681  1.00  0.00     0.000 C 
BRANCH  11  12
ATOM     12  C   UNL     1      -6.952  20.195 -13.132  1.00  0.00     0.000 C 
BRANCH  12  13
ATOM     13  C   UNL     1      -6.892  21.650 -13.621  1.00  0.00     0.000 C 
BRANCH  13  14
ATOM     14  C   UNL     1      -6.423  21.719 -15.080  1.00  0.00     0.000 C 
BRANCH  14  15
ATOM     15  C   UNL     1      -6.417  20.323 -15.722  1.00  0.00     0.000 C 
BRANCH  15  16
ATOM     16  C   UNL     1      -5.626  20.282 -17.041  1.00  0.00     0.006 C 
BRANCH  16  17
ATOM     17  C   UNL     1      -6.360  19.514 -18.146  1.00  0.00     0.053 C 
BRANCH  17  18
ATOM     18  C   UNL     1      -5.989  18.065 -18.110  1.00  0.00     0.041 C 
ATOM     19  O   UNL     1      -4.778  17.720 -18.139  1.00  0.00    -0.550 OA
ATOM     20  O   UNL     1      -6.983  17.094 -18.101  1.00  0.00    -0.550 OA
ENDBRANCH  17  18
ENDBRANCH  16  17
ENDBRANCH  15  16
ENDBRANCH  14  15
ENDBRANCH  13  14
ENDBRANCH  12  13
ENDBRANCH  11  12
ENDBRANCH   1  11
TORSDOF 15
ENDMDL
MODEL 4
REMARK VINA RESULT:     9.002      0.725      9.670
REMARK INTER + INTRA:          17.580
REMARK INTER:                  17.617
REMARK INTRA:                  -0.037
REMARK UNBOUND:                 0.685
REMARK SMILES O=C([O-])CCCCCCCCCCCCCCC(=O)[O-]
REMARK SMILES IDX 10 1 9 2 8 3 7 4 6 5 5 6 4 7 2 8 1 9 3 10 11 11 12 12 13 13
REMARK SMILES IDX 14 14 15 15 16 16 17 17 18 18 19 19 20 20
REMARK H PARENT
REMARK Flexibility Score: inf
ROOT
ATOM      1  C   UNL     1      -6.488  21.675 -11.942  1.00  0.00     0.000 C 
ENDROOT
BRANCH   1   2
ATOM      2  C   UNL     1      -5.132  22.249 -11.516  1.00  0.00     0.000 C 
BRANCH   2   3
ATOM      3  C   UNL     1      -5.001  23.722 -11.933  1.00  0.00     0.000 C 
BRANCH   3   4
ATOM      4  C   UNL     1      -3.684  24.358 -11.463  1.00  0.00     0.000 C 
BRANCH   4   5
ATOM      5  C   UNL     1      -3.728  25.896 -11.485  1.00  0.00     0.000 C 
BRANCH   5   6
ATOM      6  C   UNL     1      -3.873  26.503 -10.080  1.00  0.00     0.006 C 
BRANCH   6   7
ATOM      7  C   UNL     1      -4.780  27.741 -10.064  1.00  0.00     0.053 C 
BRANCH   7   8
ATOM      8  C   UNL     1      -5.813  27.645 -11.141  1.00  0.00     0.041 C 
ATOM      9  O   UNL     1      -6.683  26.734 -11.105  1.00  0.00    -0.550 OA
ATOM     10  O   UNL     1      -5.846  28.589 -12.159  1.00  0.00    -0.550 OA
ENDBRANCH   7   8
ENDBRANCH   6   7
ENDBRANCH   5   6
ENDBRANCH   4   5
ENDBRANCH   3   4
ENDBRANCH   2   3
ENDBRANCH   1   2
BRANCH   1  11
ATOM     11  C   UNL     1      -6.328  20.268 -12.537  1.00  0.00     0.000 C 
BRANCH  11  12
ATOM     12  C   UNL     1      -6.775  19.161 -11.570  1.00  0.00     0.000 C 
BRANCH  12  13
ATOM     13  C   UNL     1      -5.618  18.611 -10.722  1.00  0.00     0.000 C 
BRANCH  13  14
ATOM     14  C   UNL     1      -4.299  19.313 -11.071  1.00  0.00     0.000 C 
BRANCH  14  15
ATOM     15  C   UNL     1      -3.094  18.435 -10.701  1.00  0.00     0.000 C 
BRANCH  15  16
ATOM     16  C   UNL     1      -3.291  16.962 -11.099  1.00  0.00     0.006 C 
BRANCH  16  17
ATOM     17  C   UNL     1      -3.436  16.037  -9.884  1.00  0.00     0.053 C 
BRANCH  17  18
ATOM     18  C   UNL     1      -3.454  14.606 -10.317  1.00  0.00     0.041 C 
ATOM     19  O   UNL     1      -4.544  14.043 -10.604  1.00  0.00    -0.550 OA
ATOM     20  O   UNL     1      -2.272  13.875 -10.351  1.00  0.00    -0.550 OA
ENDBRANCH  17  18
ENDBRANCH  16  17
ENDBRANCH  15  16
ENDBRANCH  14  15
ENDBRANCH  13  14
ENDBRANCH  12  13
ENDBRANCH  11  12
ENDBRANCH   1  11
TORSDOF 15
ENDMDL
MODEL 5
REMARK VINA RESULT:     9.042      4.612      8.642
REMARK INTER + INTRA:          17.655
REMARK INTER:                  18.193
REMARK INTRA:                  -0.538
REMARK UNBOUND:                 0.685
REMARK SMILES O=C([O-])CCCCCCCCCCCCCCC(=O)[O-]
REMARK SMILES IDX 10 1 9 2 8 3 7 4 6 5 5 6 4 7 2 8 1 9 3 10 11 11 12 12 13 13
REMARK SMILES IDX 14 14 15 15 16 16 17 17 18 18 19 19 20 20
REMARK H PARENT
REMARK Flexibility Score: inf
ROOT
ATOM      1  C   UNL     1      -6.277  19.874 -11.111  1.00  0.00     0.000 C 
ENDROOT
BRANCH   1   2
ATOM      2  C   UNL     1      -6.793  20.027 -12.547  1.00  0.00     0.000 C 
BRANCH   2   3
ATOM      3  C   UNL     1      -6.404  21.394 -13.129  1.00  0.00     0.000 C 
BRANCH   3   4
ATOM      4  C   UNL     1      -6.786  21.539 -14.610  1.00  0.00     0.000 C 
BRANCH   4   5
ATOM      5  C   UNL     1      -6.569  20.240 -15.407  1.00  0.00     0.000 C 
BRANCH   5   6
ATOM      6  C   UNL     1      -5.699  20.452 -16.656  1.00  0.00     0.006 C 
BRANCH   6   7
ATOM      7  C   UNL     1      -6.294  19.793 -17.907  1.00  0.00     0.053 C 
BRANCH   7   8
ATOM      8  C   UNL     1      -5.867  18.362 -17.996  1.00  0.00     0.041 C 
ATOM      9  O   UNL     1      -4.649  18.056 -17.898  1.00  0.00    -0.550 OA
ATOM     10  O   UNL     1      -6.820  17.360 -18.139  1.00  0.00    -0.550 OA
ENDBRANCH   7   8
ENDBRANCH   6   7
ENDBRANCH   5   6
ENDBRANCH   4   5
ENDBRANCH   3   4
ENDBRANCH   2   3
ENDBRANCH   1   2
BRANCH   1  11
ATOM     11  C   UNL     1      -4.912  20.559 -10.941  1.00  0.00     0.000 C 
BRANCH  11  12
ATOM     12  C   UNL     1      -3.751  19.710 -11.479  1.00  0.00     0.000 C 
BRANCH  12  13
ATOM     13  C   UNL     1      -3.134  18.799 -10.407  1.00  0.00     0.000 C 
BRANCH  13  14
ATOM     14  C   UNL     1      -3.329  17.320 -10.765  1.00  0.00     0.000 C 
BRANCH  14  15
ATOM     15  C   UNL     1      -4.800  17.023 -11.094  1.00  0.00     0.000 C 
BRANCH  15  16
ATOM     16  C   UNL     1      -5.215  15.594 -10.706  1.00  0.00     0.006 C 
BRANCH  16  17
ATOM     17  C   UNL     1      -4.211  14.538 -11.183  1.00  0.00     0.053 C 
BRANCH  17  18
ATOM     18  C   UNL     1      -3.277  14.167 -10.074  1.00  0.00     0.041 C 
ATOM     19  O   UNL     1      -3.730  13.875  -8.935  1.00  0.00    -0.550 OA
ATOM     20  O   UNL     1      -1.904  14.196 -10.283  1.00  0.00    -0.550 OA
ENDBRANCH  17  18
ENDBRANCH  16  17
ENDBRANCH  15  16
ENDBRANCH  14  15
ENDBRANCH  13  14
ENDBRANCH  12  13
ENDBRANCH  11  12
ENDBRANCH   1  11
TORSDOF 15
ENDMDL
MODEL 6
REMARK VINA RESULT:     9.073      5.295      7.355
REMARK INTER + INTRA:          17.713
REMARK INTER:                  17.196
REMARK INTRA:                   0.517
REMARK UNBOUND:                 0.685
REMARK SMILES O=C([O-])CCCCCCCCCCCCCCC(=O)[O-]
REMARK SMILES IDX 10 1 9 2 8 3 7 4 6 5 5 6 4 7 2 8 1 9 3 10 11 11 12 12 13 13
REMARK SMILES IDX 14 14 15 15 16 16 17 17 18 18 19 19 20 20
REMARK H PARENT
REMARK Flexibility Score: inf
ROOT
ATOM      1  C   UNL     1      -5.907  16.448 -10.623  1.00  0.00     0.000 C 
ENDROOT
BRANCH   1   2
ATOM      2  C   UNL     1      -7.336  16.038 -10.246  1.00  0.00     0.000 C 
BRANCH   2   3
ATOM      3  C   UNL     1      -7.692  16.523  -8.833  1.00  0.00     0.000 C 
BRANCH   3   4
ATOM      4  C   UNL     1      -9.110  16.114  -8.405  1.00  0.00     0.000 C 
BRANCH   4   5
ATOM      5  C   UNL     1      -9.738  17.108  -7.411  1.00  0.00     0.000 C 
BRANCH   5   6
ATOM      6  C   UNL     1     -11.239  16.861  -7.197  1.00  0.00     0.006 C 
BRANCH   6   7
ATOM      7  C   UNL     1     -11.547  16.251  -5.823  1.00  0.00     0.053 C 
BRANCH   7   8
ATOM      8  C   UNL     1     -12.816  15.461  -5.875  1.00  0.00     0.041 C 
ATOM      9  O   UNL     1     -13.687  15.717  -6.749  1.00  0.00    -0.550 OA
ATOM     10  O   UNL     1     -13.016  14.410  -4.989  1.00  0.00    -0.550 OA
ENDBRANCH   7   8
ENDBRANCH   6   7
ENDBRANCH   5   6
ENDBRANCH   4   5
ENDBRANCH   3   4
ENDBRANCH   2   3
ENDBRANCH   1   2
BRANCH   1  11
ATOM     11  C   UNL     1      -5.100  15.238 -11.118  1.00  0.00     0.000 C 
BRANCH  11  12
ATOM     12  C   UNL     1      -3.693  15.173 -10.504  1.00  0.00     0.000 C 
BRANCH  12  13
ATOM     13  C   UNL     1      -3.126  16.561 -10.169  1.00  0.00     0.000 C 
BRANCH  13  14
ATOM     14  C   UNL     1      -3.722  17.634 -11.089  1.00  0.00     0.000 C 
BRANCH  14  15
ATOM     15  C   UNL     1      -3.042  18.993 -10.862  1.00  0.00     0.000 C 
BRANCH  15  16
ATOM     16  C   UNL     1      -4.042  20.161 -10.859  1.00  0.00     0.006 C 
BRANCH  16  17
ATOM     17  C   UNL     1      -5.490  19.699 -11.061  1.00  0.00     0.053 C 
BRANCH  17  18
ATOM     18  C   UNL     1      -6.239  20.684 -11.903  1.00  0.00     0.041 C 
ATOM     19  O   UNL     1      -6.351  21.881 -11.530  1.00  0.00    -0.550 OA
ATOM     20  O   UNL     1      -6.860  20.265 -13.074  1.00  0.00    -0.550 OA
ENDBRANCH  17  18
ENDBRANCH  16  17
ENDBRANCH  15  16
ENDBRANCH  14  15
ENDBRANCH  13  14
ENDBRANCH  12  13
ENDBRANCH  11  12
ENDBRANCH   1  11
TORSDOF 15
ENDMDL
MODEL 7
REMARK VINA RESULT:     9.270     12.430     13.377
REMARK INTER + INTRA:          18.084
REMARK INTER:                  18.181
REMARK INTRA:                  -0.098
REMARK UNBOUND:                 0.685
REMARK SMILES O=C([O-])CCCCCCCCCCCCCCC(=O)[O-]
REMARK SMILES IDX 10 1 9 2 8 3 7 4 6 5 5 6 4 7 2 8 1 9 3 10 11 11 12 12 13 13
REMARK SMILES IDX 14 14 15 15 16 16 17 17 18 18 19 19 20 20
REMARK H PARENT
REMARK Flexibility Score: inf
ROOT
ATOM      1  C   UNL     1     -13.982  22.607 -19.400  1.00  0.00     0.000 C 
ENDROOT
BRANCH   1   2
ATOM      2  C   UNL     1     -15.192  21.851 -19.961  1.00  0.00     0.000 C 
BRANCH   2   3
ATOM      3  C   UNL     1     -15.299  20.448 -19.346  1.00  0.00     0.000 C 
BRANCH   3   4
ATOM      4  C   UNL     1     -16.407  19.600 -19.988  1.00  0.00     0.000 C 
BRANCH   4   5
ATOM      5  C   UNL     1     -17.469  19.144 -18.970  1.00  0.00     0.000 C 
BRANCH   5   6
ATOM      6  C   UNL     1     -18.018  17.743 -19.278  1.00  0.00     0.006 C 
BRANCH   6   7
ATOM      7  C   UNL     1     -18.377  16.959 -18.009  1.00  0.00     0.053 C 
BRANCH   7   8
ATOM      8  C   UNL     1     -18.006  15.518 -18.163  1.00  0.00     0.041 C 
ATOM      9  O   UNL     1     -17.708  15.058 -19.298  1.00  0.00    -0.550 OA
ATOM     10  O   UNL     1     -17.942  14.693 -17.047  1.00  0.00    -0.550 OA
ENDBRANCH   7   8
ENDBRANCH   6   7
ENDBRANCH   5   6
ENDBRANCH   4   5
ENDBRANCH   3   4
ENDBRANCH   2   3
ENDBRANCH   1   2
BRANCH   1  11
ATOM     11  C   UNL     1     -13.803  23.961 -20.104  1.00  0.00     0.000 C 
BRANCH  11  12
ATOM     12  C   UNL     1     -12.437  24.602 -19.817  1.00  0.00     0.000 C 
BRANCH  12  13
ATOM     13  C   UNL     1     -12.514  25.717 -18.763  1.00  0.00     0.000 C 
BRANCH  13  14
ATOM     14  C   UNL     1     -12.467  27.101 -19.423  1.00  0.00     0.000 C 
BRANCH  14  15
ATOM     15  C   UNL     1     -12.694  28.213 -18.388  1.00  0.00     0.000 C 
BRANCH  15  16
ATOM     16  C   UNL     1     -12.086  27.876 -17.016  1.00  0.00     0.006 C 
BRANCH  16  17
ATOM     17  C   UNL     1     -13.060  27.112 -16.110  1.00  0.00     0.053 C 
BRANCH  17  18
ATOM     18  C   UNL     1     -14.206  27.991 -15.718  1.00  0.00     0.041 C 
ATOM     19  O   UNL     1     -14.001  29.044 -15.057  1.00  0.00    -0.550 OA
ATOM     20  O   UNL     1     -15.507  27.619 -16.035  1.00  0.00    -0.550 OA
ENDBRANCH  17  18
ENDBRANCH  16  17
ENDBRANCH  15  16
ENDBRANCH  14  15
ENDBRANCH  13  14
ENDBRANCH  12  13
ENDBRANCH  11  12
ENDBRANCH   1  11
TORSDOF 15
ENDMDL
MODEL 8
REMARK VINA RESULT:     9.584      5.350      9.182
REMARK INTER + INTRA:          18.672
REMARK INTER:                  18.952
REMARK INTRA:                  -0.280
REMARK UNBOUND:                 0.685
REMARK SMILES O=C([O-])CCCCCCCCCCCCCCC(=O)[O-]
REMARK SMILES IDX 10 1 9 2 8 3 7 4 6 5 5 6 4 7 2 8 1 9 3 10 11 11 12 12 13 13
REMARK SMILES IDX 14 14 15 15 16 16 17 17 18 18 19 19 20 20
REMARK H PARENT
REMARK Flexibility Score: inf
ROOT
ATOM      1  C   UNL     1      -5.268  15.560 -11.247  1.00  0.00     0.000 C 
ENDROOT
BRANCH   1   2
ATOM      2  C   UNL     1      -4.157  15.432 -10.199  1.00  0.00     0.000 C 
BRANCH   2   3
ATOM      3  C   UNL     1      -3.162  16.597 -10.308  1.00  0.00     0.000 C 
BRANCH   3   4
ATOM      4  C   UNL     1      -3.719  17.781 -11.113  1.00  0.00     0.000 C 
BRANCH   4   5
ATOM      5  C   UNL     1      -3.123  19.130 -10.673  1.00  0.00     0.000 C 
BRANCH   5   6
ATOM      6  C   UNL     1      -4.131  20.284 -10.778  1.00  0.00     0.006 C 
BRANCH   6   7
ATOM      7  C   UNL     1      -5.534  19.807 -11.175  1.00  0.00     0.053 C 
BRANCH   7   8
ATOM      8  C   UNL     1      -6.214  20.833 -12.026  1.00  0.00     0.041 C 
ATOM      9  O   UNL     1      -6.858  20.481 -13.050  1.00  0.00    -0.550 OA
ATOM     10  O   UNL     1      -6.176  22.173 -11.662  1.00  0.00    -0.550 OA
ENDBRANCH   7   8
ENDBRANCH   6   7
ENDBRANCH   5   6
ENDBRANCH   4   5
ENDBRANCH   3   4
ENDBRANCH   2   3
ENDBRANCH   1   2
BRANCH   1  11
ATOM     11  C   UNL     1      -6.421  16.431 -10.725  1.00  0.00     0.000 C 
BRANCH  11  12
ATOM     12  C   UNL     1      -7.027  15.892  -9.420  1.00  0.00     0.000 C 
BRANCH  12  13
ATOM     13  C   UNL     1      -8.559  15.997  -9.388  1.00  0.00     0.000 C 
BRANCH  13  14
ATOM     14  C   UNL     1      -9.044  16.545  -8.040  1.00  0.00     0.000 C 
BRANCH  14  15
ATOM     15  C   UNL     1     -10.556  16.330  -7.871  1.00  0.00     0.000 C 
BRANCH  15  16
ATOM     16  C   UNL     1     -11.144  17.152  -6.712  1.00  0.00     0.006 C 
BRANCH  16  17
ATOM     17  C   UNL     1     -11.550  16.281  -5.517  1.00  0.00     0.053 C 
BRANCH  17  18
ATOM     18  C   UNL     1     -12.769  15.479  -5.846  1.00  0.00     0.041 C 
ATOM     19  O   UNL     1     -13.517  15.823  -6.800  1.00  0.00    -0.550 OA
ATOM     20  O   UNL     1     -13.110  14.381  -5.065  1.00  0.00    -0.550 OA
ENDBRANCH  17  18
ENDBRANCH  16  17
ENDBRANCH  15  16
ENDBRANCH  14  15
ENDBRANCH  13  14
ENDBRANCH  12  13
ENDBRANCH  11  12
ENDBRANCH   1  11
TORSDOF 15
ENDMDL
MODEL 9
REMARK VINA RESULT:     9.665      0.883      2.098
REMARK INTER + INTRA:          18.824
REMARK INTER:                  18.962
REMARK INTRA:                  -0.138
REMARK UNBOUND:                 0.685
REMARK SMILES O=C([O-])CCCCCCCCCCCCCCC(=O)[O-]
REMARK SMILES IDX 10 1 9 2 8 3 7 4 6 5 5 6 4 7 2 8 1 9 3 10 11 11 12 12 13 13
REMARK SMILES IDX 14 14 15 15 16 16 17 17 18 18 19 19 20 20
REMARK H PARENT
REMARK Flexibility Score: inf
ROOT
ATOM      1  C   UNL     1      -6.387  21.538 -12.628  1.00  0.00     0.000 C 
ENDROOT
BRANCH   1   2
ATOM      2  C   UNL     1      -6.399  20.010 -12.501  1.00  0.00     0.000 C 
BRANCH   2   3
ATOM      3  C   UNL     1      -6.360  19.580 -11.027  1.00  0.00     0.000 C 
BRANCH   3   4
ATOM      4  C   UNL     1      -5.595  18.265 -10.812  1.00  0.00     0.000 C 
BRANCH   4   5
ATOM      5  C   UNL     1      -4.071  18.470 -10.752  1.00  0.00     0.000 C 
BRANCH   5   6
ATOM      6  C   UNL     1      -3.294  17.146 -10.819  1.00  0.00     0.006 C 
BRANCH   6   7
ATOM      7  C   UNL     1      -4.213  15.919 -10.756  1.00  0.00     0.053 C 
BRANCH   7   8
ATOM      8  C   UNL     1      -3.484  14.751 -10.173  1.00  0.00     0.041 C 
ATOM      9  O   UNL     1      -2.260  14.581 -10.418  1.00  0.00    -0.550 OA
ATOM     10  O   UNL     1      -4.144  13.875  -9.320  1.00  0.00    -0.550 OA
ENDBRANCH   7   8
ENDBRANCH   6   7
ENDBRANCH   5   6
ENDBRANCH   4   5
ENDBRANCH   3   4
ENDBRANCH   2   3
ENDBRANCH   1   2
BRANCH   1  11
ATOM     11  C   UNL     1      -5.785  22.190 -11.374  1.00  0.00     0.000 C 
BRANCH  11  12
ATOM     12  C   UNL     1      -4.635  23.155 -11.701  1.00  0.00     0.000 C 
BRANCH  12  13
ATOM     13  C   UNL     1      -4.985  24.620 -11.402  1.00  0.00     0.000 C 
BRANCH  13  14
ATOM     14  C   UNL     1      -3.754  25.521 -11.558  1.00  0.00     0.000 C 
BRANCH  14  15
ATOM     15  C   UNL     1      -3.697  26.574 -10.440  1.00  0.00     0.000 C 
BRANCH  15  16
ATOM     16  C   UNL     1      -5.066  27.219 -10.165  1.00  0.00     0.006 C 
BRANCH  16  17
ATOM     17  C   UNL     1      -5.929  27.333 -11.428  1.00  0.00     0.053 C 
BRANCH  17  18
ATOM     18  C   UNL     1      -5.945  28.745 -11.924  1.00  0.00     0.041 C 
ATOM     19  O   UNL     1      -7.018  29.259 -12.338  1.00  0.00    -0.550 OA
ATOM     20  O   UNL     1      -4.763  29.475 -11.979  1.00  0.00    -0.550 OA
ENDBRANCH  17  18
ENDBRANCH  16  17
ENDBRANCH  15  16
ENDBRANCH  14  15
ENDBRANCH  13  14
ENDBRANCH  12  13
ENDBRANCH  11  12
ENDBRANCH   1  11
TORSDOF 15
ENDMDL
