MODEL 1
REMARK VINA RESULT:    -2.557      0.000      0.000
REMARK INTER + INTRA:          -2.315
REMARK INTER:                  -3.155
REMARK INTRA:                   0.840
REMARK UNBOUND:                 0.840
REMARK SMILES CC1=CC=CC(C)(C)CC1=O
REMARK SMILES IDX 1 1 2 2 3 3 10 4 11 5 9 6 4 8 5 9 6 10 7 11 8 12
REMARK H PARENT
REMARK Flexibility Score: 80.00
ROOT
ATOM      1  C   UNL     1      11.315 -31.863  13.990  1.00  0.00     0.048 C 
ATOM      2  C   UNL     1      10.189 -32.868  14.056  1.00  0.00    -0.008 C 
ATOM      3  C   UNL     1      10.172 -33.858  13.137  1.00  0.00     0.007 C 
ENDROOT
BRANCH   2   4
ATOM      4  C   UNL     1       9.217 -32.710  15.170  1.00  0.00     0.159 C 
ATOM      5  O   UNL     1       9.347 -31.726  15.950  1.00  0.00    -0.295 OA
BRANCH   4   6
ATOM      6  C   UNL     1       8.103 -33.672  15.457  1.00  0.00     0.091 CG0
ATOM      7  G   UNL     1       7.231 -34.007  14.226  1.00  0.00     0.000 G0
ENDBRANCH   4   6
ENDBRANCH   2   4
BRANCH   3   8
ATOM      8  C   UNL     1       9.202 -34.961  12.952  1.00  0.00    -0.003 C 
ATOM      9  C   UNL     1       7.938 -35.042  13.385  1.00  0.00    -0.020 C 
BRANCH   9  10
ATOM     10  C   UNL     1       7.223 -34.026  14.242  1.00  0.00    -0.010 CG0
ATOM     11  C   UNL     1       5.926 -34.673  14.778  1.00  0.00     0.016 C 
ATOM     12  C   UNL     1       6.826 -32.795  13.396  1.00  0.00     0.016 C 
ATOM     13  G   UNL     1       8.112 -33.658  15.452  1.00  0.00     0.000 G0
ENDBRANCH   9  10
ENDBRANCH   3   8
TORSDOF 0
ENDMDL
MODEL 2
REMARK VINA RESULT:    -2.471      1.700      2.218
REMARK INTER + INTRA:          -2.209
REMARK INTER:                  -3.064
REMARK INTRA:                   0.856
REMARK UNBOUND:                 0.840
REMARK SMILES CC1=CC=CC(C)(C)CC1=O
REMARK SMILES IDX 1 1 2 2 3 3 10 4 11 5 9 6 4 8 5 9 6 10 7 11 8 12
REMARK H PARENT
REMARK Flexibility Score: 80.00
ROOT
ATOM      1  C   UNL     1      10.025 -30.507  17.372  1.00  0.00     0.048 C 
ATOM      2  C   UNL     1       9.533 -31.699  16.586  1.00  0.00    -0.008 C 
ATOM      3  C   UNL     1      10.006 -31.867  15.332  1.00  0.00     0.007 C 
ENDROOT
BRANCH   2   4
ATOM      4  C   UNL     1       8.602 -32.623  17.286  1.00  0.00     0.159 C 
ATOM      5  O   UNL     1       8.207 -32.319  18.446  1.00  0.00    -0.295 OA
BRANCH   4   6
ATOM      6  C   UNL     1       8.125 -33.927  16.718  1.00  0.00     0.091 CG0
ATOM      7  G   UNL     1       7.512 -33.809  15.304  1.00  0.00     0.000 G0
ENDBRANCH   4   6
ENDBRANCH   2   4
BRANCH   3   8
ATOM      8  C   UNL     1       9.699 -32.920  14.337  1.00  0.00    -0.003 C 
ATOM      9  C   UNL     1       8.640 -33.737  14.287  1.00  0.00    -0.020 C 
BRANCH   9  10
ATOM     10  C   UNL     1       7.526 -33.815  15.302  1.00  0.00    -0.010 CG0
ATOM     11  C   UNL     1       6.709 -35.098  15.026  1.00  0.00     0.016 C 
ATOM     12  C   UNL     1       6.576 -32.605  15.150  1.00  0.00     0.016 C 
ATOM     13  G   UNL     1       8.130 -33.925  16.720  1.00  0.00     0.000 G0
ENDBRANCH   9  10
ENDBRANCH   3   8
TORSDOF 0
ENDMDL
MODEL 3
REMARK VINA RESULT:    -2.335      1.945      2.904
REMARK INTER + INTRA:          -2.041
REMARK INTER:                  -2.853
REMARK INTRA:                   0.812
REMARK UNBOUND:                 0.840
REMARK SMILES CC1=CC=CC(C)(C)CC1=O
REMARK SMILES IDX 1 1 2 2 3 3 10 4 11 5 9 6 4 8 5 9 6 10 7 11 8 12
REMARK H PARENT
REMARK Flexibility Score: 80.00
ROOT
ATOM      1  C   UNL     1      12.089 -35.292  12.875  1.00  0.00     0.048 C 
ATOM      2  C   UNL     1      10.941 -34.336  13.098  1.00  0.00    -0.008 C 
ATOM      3  C   UNL     1      11.235 -33.033  13.298  1.00  0.00     0.007 C 
ENDROOT
BRANCH   2   4
ATOM      4  C   UNL     1       9.570 -34.908  13.025  1.00  0.00     0.159 C 
ATOM      5  O   UNL     1       9.443 -36.156  12.884  1.00  0.00    -0.295 OA
BRANCH   4   6
ATOM      6  C   UNL     1       8.314 -34.090  13.068  1.00  0.00     0.091 CG0
ATOM      7  G   UNL     1       8.233 -33.127  14.274  1.00  0.00     0.000 G0
ENDBRANCH   4   6
ENDBRANCH   2   4
BRANCH   3   8
ATOM      8  C   UNL     1      10.333 -31.886  13.550  1.00  0.00    -0.003 C 
ATOM      9  C   UNL     1       9.069 -31.900  13.990  1.00  0.00    -0.020 C 
BRANCH   9  10
ATOM     10  C   UNL     1       8.236 -33.128  14.270  1.00  0.00    -0.010 CG0
ATOM     11  C   UNL     1       6.758 -32.693  14.386  1.00  0.00     0.016 C 
ATOM     12  C   UNL     1       8.652 -33.763  15.617  1.00  0.00     0.016 C 
ATOM     13  G   UNL     1       8.357 -34.111  13.083  1.00  0.00     0.000 G0
ENDBRANCH   9  10
ENDBRANCH   3   8
TORSDOF 0
ENDMDL
MODEL 4
REMARK VINA RESULT:    -2.179      1.691      2.473
REMARK INTER + INTRA:          -1.848
REMARK INTER:                  -2.681
REMARK INTRA:                   0.833
REMARK UNBOUND:                 0.840
REMARK SMILES CC1=CC=CC(C)(C)CC1=O
REMARK SMILES IDX 1 1 2 2 3 3 10 4 11 5 9 6 4 8 5 9 6 10 7 11 8 12
REMARK H PARENT
REMARK Flexibility Score: 80.00
ROOT
ATOM      1  C   UNL     1      10.378 -31.930  13.535  1.00  0.00     0.048 C 
ATOM      2  C   UNL     1       9.195 -32.855  13.374  1.00  0.00    -0.008 C 
ATOM      3  C   UNL     1       7.983 -32.298  13.162  1.00  0.00     0.007 C 
ENDROOT
BRANCH   2   4
ATOM      4  C   UNL     1       9.477 -34.314  13.409  1.00  0.00     0.159 C 
ATOM      5  O   UNL     1      10.650 -34.696  13.679  1.00  0.00    -0.295 OA
BRANCH   4   6
ATOM      6  C   UNL     1       8.462 -35.375  13.104  1.00  0.00     0.091 CG0
ATOM      7  G   UNL     1       7.160 -35.253  13.927  1.00  0.00     0.000 G0
ENDBRANCH   4   6
ENDBRANCH   2   4
BRANCH   3   8
ATOM      8  C   UNL     1       6.662 -32.943  12.981  1.00  0.00    -0.003 C 
ATOM      9  C   UNL     1       6.285 -34.181  13.322  1.00  0.00    -0.020 C 
BRANCH   9  10
ATOM     10  C   UNL     1       7.169 -35.248  13.922  1.00  0.00    -0.010 CG0
ATOM     11  C   UNL     1       6.431 -36.602  13.815  1.00  0.00     0.016 C 
ATOM     12  C   UNL     1       7.418 -34.959  15.420  1.00  0.00     0.016 C 
ATOM     13  G   UNL     1       8.478 -35.348  13.107  1.00  0.00     0.000 G0
ENDBRANCH   9  10
ENDBRANCH   3   8
TORSDOF 0
ENDMDL
MODEL 5
REMARK VINA RESULT:    -1.977      1.705      2.742
REMARK INTER + INTRA:          -1.599
REMARK INTER:                  -2.422
REMARK INTRA:                   0.823
REMARK UNBOUND:                 0.840
REMARK SMILES CC1=CC=CC(C)(C)CC1=O
REMARK SMILES IDX 1 1 2 2 3 3 10 4 11 5 9 6 4 8 5 9 6 10 7 11 8 12
REMARK H PARENT
REMARK Flexibility Score: 80.00
ROOT
ATOM      1  C   UNL     1      10.703 -30.997  16.779  1.00  0.00     0.048 C 
ATOM      2  C   UNL     1       9.575 -31.628  15.998  1.00  0.00    -0.008 C 
ATOM      3  C   UNL     1       8.386 -31.783  16.621  1.00  0.00     0.007 C 
ENDROOT
BRANCH   2   4
ATOM      4  C   UNL     1       9.856 -31.979  14.581  1.00  0.00     0.159 C 
ATOM      5  O   UNL     1      11.034 -31.843  14.147  1.00  0.00    -0.295 OA
BRANCH   4   6
ATOM      6  C   UNL     1       8.817 -32.452  13.609  1.00  0.00     0.091 CG0
ATOM      7  G   UNL     1       7.988 -33.656  14.113  1.00  0.00     0.000 G0
ENDBRANCH   4   6
ENDBRANCH   2   4
BRANCH   3   8
ATOM      8  C   UNL     1       7.123 -32.370  16.119  1.00  0.00    -0.003 C 
ATOM      9  C   UNL     1       6.941 -33.189  15.076  1.00  0.00    -0.020 C 
BRANCH   9  10
ATOM     10  C   UNL     1       8.004 -33.654  14.111  1.00  0.00    -0.010 CG0
ATOM     11  C   UNL     1       7.303 -34.264  12.876  1.00  0.00     0.016 C 
ATOM     12  C   UNL     1       8.872 -34.757  14.759  1.00  0.00     0.016 C 
ATOM     13  G   UNL     1       8.836 -32.439  13.640  1.00  0.00     0.000 G0
ENDBRANCH   9  10
ENDBRANCH   3   8
TORSDOF 0
ENDMDL
MODEL 6
REMARK VINA RESULT:    -1.877      1.830      3.324
REMARK INTER + INTRA:          -1.476
REMARK INTER:                  -2.318
REMARK INTRA:                   0.843
REMARK UNBOUND:                 0.840
REMARK SMILES CC1=CC=CC(C)(C)CC1=O
REMARK SMILES IDX 1 1 2 2 3 3 10 4 11 5 9 6 4 8 5 9 6 10 7 11 8 12
REMARK H PARENT
REMARK Flexibility Score: 80.00
ROOT
ATOM      1  C   UNL     1       7.850 -36.235  12.885  1.00  0.00     0.048 C 
ATOM      2  C   UNL     1       8.071 -34.962  13.667  1.00  0.00    -0.008 C 
ATOM      3  C   UNL     1       9.259 -34.334  13.529  1.00  0.00     0.007 C 
ENDROOT
BRANCH   2   4
ATOM      4  C   UNL     1       6.931 -34.476  14.490  1.00  0.00     0.159 C 
ATOM      5  O   UNL     1       5.896 -35.195  14.572  1.00  0.00    -0.295 OA
BRANCH   4   6
ATOM      6  C   UNL     1       6.911 -33.158  15.205  1.00  0.00     0.091 CG0
ATOM      7  G   UNL     1       8.138 -32.918  16.114  1.00  0.00     0.000 G0
ENDBRANCH   4   6
ENDBRANCH   2   4
BRANCH   3   8
ATOM      8  C   UNL     1       9.755 -33.095  14.168  1.00  0.00    -0.003 C 
ATOM      9  C   UNL     1       9.314 -32.496  15.281  1.00  0.00    -0.020 C 
BRANCH   9  10
ATOM     10  C   UNL     1       8.133 -32.927  16.117  1.00  0.00    -0.010 CG0
ATOM     11  C   UNL     1       7.779 -31.774  17.084  1.00  0.00     0.016 C 
ATOM     12  C   UNL     1       8.500 -34.164  16.967  1.00  0.00     0.016 C 
ATOM     13  G   UNL     1       6.916 -33.174  15.197  1.00  0.00     0.000 G0
ENDBRANCH   9  10
ENDBRANCH   3   8
TORSDOF 0
ENDMDL
MODEL 7
REMARK VINA RESULT:    -1.711      1.528      3.200
REMARK INTER + INTRA:          -1.271
REMARK INTER:                  -2.131
REMARK INTRA:                   0.859
REMARK UNBOUND:                 0.840
REMARK SMILES CC1=CC=CC(C)(C)CC1=O
REMARK SMILES IDX 1 1 2 2 3 3 10 4 11 5 9 6 4 8 5 9 6 10 7 11 8 12
REMARK H PARENT
REMARK Flexibility Score: 80.00
ROOT
ATOM      1  C   UNL     1       7.268 -35.702  17.101  1.00  0.00     0.048 C 
ATOM      2  C   UNL     1       7.502 -34.848  15.877  1.00  0.00    -0.008 C 
ATOM      3  C   UNL     1       7.030 -35.298  14.694  1.00  0.00     0.007 C 
ENDROOT
BRANCH   2   4
ATOM      4  C   UNL     1       8.191 -33.547  16.091  1.00  0.00     0.159 C 
ATOM      5  O   UNL     1       8.630 -33.279  17.244  1.00  0.00    -0.295 OA
BRANCH   4   6
ATOM      6  C   UNL     1       8.367 -32.504  15.029  1.00  0.00     0.091 CG0
ATOM      7  G   UNL     1       9.018 -33.033  13.731  1.00  0.00     0.000 G0
ENDBRANCH   4   6
ENDBRANCH   2   4
BRANCH   3   8
ATOM      8  C   UNL     1       7.118 -34.690  13.347  1.00  0.00    -0.003 C 
ATOM      9  C   UNL     1       7.972 -33.758  12.906  1.00  0.00    -0.020 C 
BRANCH   9  10
ATOM     10  C   UNL     1       9.019 -33.049  13.730  1.00  0.00    -0.010 CG0
ATOM     11  C   UNL     1       9.539 -31.842  12.915  1.00  0.00     0.016 C 
ATOM     12  C   UNL     1      10.215 -33.989  14.002  1.00  0.00     0.016 C 
ATOM     13  G   UNL     1       8.375 -32.511  15.028  1.00  0.00     0.000 G0
ENDBRANCH   9  10
ENDBRANCH   3   8
TORSDOF 0
ENDMDL
MODEL 8
REMARK VINA RESULT:    -1.671      1.921      3.879
REMARK INTER + INTRA:          -1.222
REMARK INTER:                  -2.068
REMARK INTRA:                   0.846
REMARK UNBOUND:                 0.840
REMARK SMILES CC1=CC=CC(C)(C)CC1=O
REMARK SMILES IDX 1 1 2 2 3 3 10 4 11 5 9 6 4 8 5 9 6 10 7 11 8 12
REMARK H PARENT
REMARK Flexibility Score: 80.00
ROOT
ATOM      1  C   UNL     1       6.079 -33.686  15.808  1.00  0.00     0.048 C 
ATOM      2  C   UNL     1       7.527 -33.350  15.541  1.00  0.00    -0.008 C 
ATOM      3  C   UNL     1       8.068 -32.312  16.214  1.00  0.00     0.007 C 
ENDROOT
BRANCH   2   4
ATOM      4  C   UNL     1       8.254 -34.233  14.591  1.00  0.00     0.159 C 
ATOM      5  O   UNL     1       7.618 -35.164  14.024  1.00  0.00    -0.295 OA
BRANCH   4   6
ATOM      6  C   UNL     1       9.718 -34.117  14.287  1.00  0.00     0.091 CG0
ATOM      7  G   UNL     1      10.171 -32.686  13.918  1.00  0.00     0.000 G0
ENDBRANCH   4   6
ENDBRANCH   2   4
BRANCH   3   8
ATOM      8  C   UNL     1       9.437 -31.753  16.152  1.00  0.00    -0.003 C 
ATOM      9  C   UNL     1      10.345 -31.876  15.176  1.00  0.00    -0.020 C 
BRANCH   9  10
ATOM     10  C   UNL     1      10.193 -32.693  13.916  1.00  0.00    -0.010 CG0
ATOM     11  C   UNL     1      11.582 -32.818  13.250  1.00  0.00     0.016 C 
ATOM     12  C   UNL     1       9.251 -31.976  12.921  1.00  0.00     0.016 C 
ATOM     13  G   UNL     1       9.705 -34.114  14.281  1.00  0.00     0.000 G0
ENDBRANCH   9  10
ENDBRANCH   3   8
TORSDOF 0
ENDMDL
MODEL 9
REMARK VINA RESULT:    -1.174      1.940      3.509
REMARK INTER + INTRA:          -0.609
REMARK INTER:                  -1.463
REMARK INTRA:                   0.854
REMARK UNBOUND:                 0.840
REMARK SMILES CC1=CC=CC(C)(C)CC1=O
REMARK SMILES IDX 1 1 2 2 3 3 10 4 11 5 9 6 4 8 5 9 6 10 7 11 8 12
REMARK H PARENT
REMARK Flexibility Score: 80.00
ROOT
ATOM      1  C   UNL     1       7.132 -34.065  12.877  1.00  0.00     0.048 C 
ATOM      2  C   UNL     1       7.767 -33.802  14.222  1.00  0.00    -0.008 C 
ATOM      3  C   UNL     1       7.574 -34.713  15.201  1.00  0.00     0.007 C 
ENDROOT
BRANCH   2   4
ATOM      4  C   UNL     1       8.604 -32.578  14.338  1.00  0.00     0.159 C 
ATOM      5  O   UNL     1       8.663 -31.791  13.353  1.00  0.00    -0.295 OA
BRANCH   4   6
ATOM      6  C   UNL     1       9.423 -32.231  15.545  1.00  0.00     0.091 CG0
ATOM      7  G   UNL     1       8.623 -32.232  16.868  1.00  0.00     0.000 G0
ENDBRANCH   4   6
ENDBRANCH   2   4
BRANCH   3   8
ATOM      8  C   UNL     1       8.056 -34.716  16.600  1.00  0.00    -0.003 C 
ATOM      9  C   UNL     1       8.484 -33.684  17.338  1.00  0.00    -0.020 C 
BRANCH   9  10
ATOM     10  C   UNL     1       8.638 -32.258  16.869  1.00  0.00    -0.010 CG0
ATOM     11  C   UNL     1       9.464 -31.489  17.926  1.00  0.00     0.016 C 
ATOM     12  C   UNL     1       7.255 -31.577  16.759  1.00  0.00     0.016 C 
ATOM     13  G   UNL     1       9.423 -32.237  15.537  1.00  0.00     0.000 G0
ENDBRANCH   9  10
ENDBRANCH   3   8
TORSDOF 0
ENDMDL
