MODEL 1
REMARK VINA RESULT:    -4.391      0.000      0.000
REMARK INTER + INTRA:          -6.160
REMARK INTER:                  -5.932
REMARK INTRA:                  -0.229
REMARK UNBOUND:                -0.229
REMARK SMILES CCCCCCCC(=O)[O-]
REMARK SMILES IDX 5 1 6 2 7 3 8 4 9 5 10 6 4 7 3 8 2 9 1 10
REMARK H PARENT
REMARK Flexibility Score: inf
ROOT
ATOM      1  C   UNL     1      21.932 -10.610  22.770  1.00  0.00     0.000 C 
ENDROOT
BRANCH   1   2
ATOM      2  C   UNL     1      22.272 -11.682  21.728  1.00  0.00     0.006 C 
BRANCH   2   3
ATOM      3  C   UNL     1      21.046 -12.541  21.404  1.00  0.00     0.053 C 
BRANCH   3   4
ATOM      4  C   UNL     1      21.375 -13.542  20.340  1.00  0.00     0.041 C 
ATOM      5  O   UNL     1      20.670 -13.617  19.301  1.00  0.00    -0.550 OA
ATOM      6  O   UNL     1      22.490 -14.359  20.477  1.00  0.00    -0.550 OA
ENDBRANCH   3   4
ENDBRANCH   2   3
ENDBRANCH   1   2
BRANCH   1   7
ATOM      7  C   UNL     1      20.742 -11.046  23.639  1.00  0.00     0.000 C 
BRANCH   7   8
ATOM      8  C   UNL     1      20.475 -10.090  24.815  1.00  0.00    -0.000 C 
BRANCH   8   9
ATOM      9  C   UNL     1      21.140  -8.707  24.688  1.00  0.00    -0.003 C 
ATOM     10  C   UNL     1      20.549  -7.669  25.641  1.00  0.00     0.004 C 
ENDBRANCH   8   9
ENDBRANCH   7   8
ENDBRANCH   1   7
TORSDOF 6
ENDMDL
MODEL 2
REMARK VINA RESULT:    -4.380      3.342      6.449
REMARK INTER + INTRA:          -6.145
REMARK INTER:                  -6.058
REMARK INTRA:                  -0.087
REMARK UNBOUND:                -0.229
REMARK SMILES CCCCCCCC(=O)[O-]
REMARK SMILES IDX 5 1 6 2 7 3 8 4 9 5 10 6 4 7 3 8 2 9 1 10
REMARK H PARENT
REMARK Flexibility Score: inf
ROOT
ATOM      1  C   UNL     1      21.517 -13.083  20.909  1.00  0.00     0.000 C 
ENDROOT
BRANCH   1   2
ATOM      2  C   UNL     1      21.771 -11.927  21.885  1.00  0.00     0.006 C 
BRANCH   2   3
ATOM      3  C   UNL     1      20.539 -11.663  22.756  1.00  0.00     0.053 C 
BRANCH   3   4
ATOM      4  C   UNL     1      20.848 -10.639  23.802  1.00  0.00     0.041 C 
ATOM      5  O   UNL     1      20.407 -10.776  24.973  1.00  0.00    -0.550 OA
ATOM      6  O   UNL     1      21.662  -9.556  23.495  1.00  0.00    -0.550 OA
ENDBRANCH   3   4
ENDBRANCH   2   3
ENDBRANCH   1   2
BRANCH   1   7
ATOM      7  C   UNL     1      22.658 -14.109  20.963  1.00  0.00     0.000 C 
BRANCH   7   8
ATOM      8  C   UNL     1      22.648 -15.081  19.770  1.00  0.00    -0.000 C 
BRANCH   8   9
ATOM      9  C   UNL     1      23.149 -16.502  20.089  1.00  0.00    -0.003 C 
ATOM     10  C   UNL     1      23.228 -17.399  18.855  1.00  0.00     0.004 C 
ENDBRANCH   8   9
ENDBRANCH   7   8
ENDBRANCH   1   7
TORSDOF 6
ENDMDL
MODEL 3
REMARK VINA RESULT:    -4.375      3.287      6.834
REMARK INTER + INTRA:          -6.139
REMARK INTER:                  -5.996
REMARK INTRA:                  -0.143
REMARK UNBOUND:                -0.229
REMARK SMILES CCCCCCCC(=O)[O-]
REMARK SMILES IDX 5 1 6 2 7 3 8 4 9 5 10 6 4 7 3 8 2 9 1 10
REMARK H PARENT
REMARK Flexibility Score: inf
ROOT
ATOM      1  C   UNL     1      22.839 -14.387  20.785  1.00  0.00     0.000 C 
ENDROOT
BRANCH   1   2
ATOM      2  C   UNL     1      21.681 -13.388  20.896  1.00  0.00     0.006 C 
BRANCH   2   3
ATOM      3  C   UNL     1      22.130 -12.102  21.597  1.00  0.00     0.053 C 
BRANCH   3   4
ATOM      4  C   UNL     1      21.037 -11.574  22.472  1.00  0.00     0.041 C 
ATOM      5  O   UNL     1      19.903 -12.119  22.468  1.00  0.00    -0.550 OA
ATOM      6  O   UNL     1      21.286 -10.508  23.327  1.00  0.00    -0.550 OA
ENDBRANCH   3   4
ENDBRANCH   2   3
ENDBRANCH   1   2
BRANCH   1   7
ATOM      7  C   UNL     1      22.697 -15.256  19.526  1.00  0.00     0.000 C 
BRANCH   7   8
ATOM      8  C   UNL     1      23.129 -16.716  19.753  1.00  0.00    -0.000 C 
BRANCH   8   9
ATOM      9  C   UNL     1      23.449 -17.502  18.468  1.00  0.00    -0.003 C 
ATOM     10  C   UNL     1      22.933 -16.816  17.203  1.00  0.00     0.004 C 
ENDBRANCH   8   9
ENDBRANCH   7   8
ENDBRANCH   1   7
TORSDOF 6
ENDMDL
MODEL 4
REMARK VINA RESULT:    -4.297      1.027      1.715
REMARK INTER + INTRA:          -6.033
REMARK INTER:                  -5.783
REMARK INTRA:                  -0.251
REMARK UNBOUND:                -0.229
REMARK SMILES CCCCCCCC(=O)[O-]
REMARK SMILES IDX 5 1 6 2 7 3 8 4 9 5 10 6 4 7 3 8 2 9 1 10
REMARK H PARENT
REMARK Flexibility Score: inf
ROOT
ATOM      1  C   UNL     1      20.757 -10.290  24.053  1.00  0.00     0.000 C 
ENDROOT
BRANCH   1   2
ATOM      2  C   UNL     1      20.654 -11.447  23.052  1.00  0.00     0.006 C 
BRANCH   2   3
ATOM      3  C   UNL     1      21.913 -11.533  22.182  1.00  0.00     0.053 C 
BRANCH   3   4
ATOM      4  C   UNL     1      21.855 -12.738  21.297  1.00  0.00     0.041 C 
ATOM      5  O   UNL     1      20.789 -13.034  20.697  1.00  0.00    -0.550 OA
ATOM      6  O   UNL     1      22.994 -13.508  21.097  1.00  0.00    -0.550 OA
ENDBRANCH   3   4
ENDBRANCH   2   3
ENDBRANCH   1   2
BRANCH   1   7
ATOM      7  C   UNL     1      21.533  -9.109  23.451  1.00  0.00     0.000 C 
BRANCH   7   8
ATOM      8  C   UNL     1      21.116  -7.752  24.045  1.00  0.00    -0.000 C 
BRANCH   8   9
ATOM      9  C   UNL     1      20.304  -7.839  25.350  1.00  0.00    -0.003 C 
ATOM     10  C   UNL     1      21.092  -7.381  26.577  1.00  0.00     0.004 C 
ENDBRANCH   8   9
ENDBRANCH   7   8
ENDBRANCH   1   7
TORSDOF 6
ENDMDL
MODEL 5
REMARK VINA RESULT:    -4.280      4.232      8.142
REMARK INTER + INTRA:          -6.011
REMARK INTER:                  -5.758
REMARK INTRA:                  -0.253
REMARK UNBOUND:                -0.229
REMARK SMILES CCCCCCCC(=O)[O-]
REMARK SMILES IDX 5 1 6 2 7 3 8 4 9 5 10 6 4 7 3 8 2 9 1 10
REMARK H PARENT
REMARK Flexibility Score: inf
ROOT
ATOM      1  C   UNL     1      22.997 -16.885  19.725  1.00  0.00     0.000 C 
ENDROOT
BRANCH   1   2
ATOM      2  C   UNL     1      22.814 -15.414  19.335  1.00  0.00     0.006 C 
BRANCH   2   3
ATOM      3  C   UNL     1      22.765 -14.519  20.577  1.00  0.00     0.053 C 
BRANCH   3   4
ATOM      4  C   UNL     1      21.616 -13.563  20.489  1.00  0.00     0.041 C 
ATOM      5  O   UNL     1      20.780 -13.663  19.553  1.00  0.00    -0.550 OA
ATOM      6  O   UNL     1      21.444 -12.592  21.467  1.00  0.00    -0.550 OA
ENDBRANCH   3   4
ENDBRANCH   2   3
ENDBRANCH   1   2
BRANCH   1   7
ATOM      7  C   UNL     1      23.609 -17.689  18.568  1.00  0.00     0.000 C 
BRANCH   7   8
ATOM      8  C   UNL     1      22.956 -17.378  17.210  1.00  0.00    -0.000 C 
BRANCH   8   9
ATOM      9  C   UNL     1      22.530 -18.615  16.399  1.00  0.00    -0.003 C 
ATOM     10  C   UNL     1      21.839 -19.680  17.251  1.00  0.00     0.004 C 
ENDBRANCH   8   9
ENDBRANCH   7   8
ENDBRANCH   1   7
TORSDOF 6
ENDMDL
MODEL 6
REMARK VINA RESULT:    -4.273      2.305      3.641
REMARK INTER + INTRA:          -6.000
REMARK INTER:                  -5.848
REMARK INTRA:                  -0.152
REMARK UNBOUND:                -0.229
REMARK SMILES CCCCCCCC(=O)[O-]
REMARK SMILES IDX 5 1 6 2 7 3 8 4 9 5 10 6 4 7 3 8 2 9 1 10
REMARK H PARENT
REMARK Flexibility Score: inf
ROOT
ATOM      1  C   UNL     1      22.047 -13.484  20.932  1.00  0.00     0.000 C 
ENDROOT
BRANCH   1   2
ATOM      2  C   UNL     1      22.936 -14.696  20.625  1.00  0.00     0.006 C 
BRANCH   2   3
ATOM      3  C   UNL     1      22.694 -15.207  19.202  1.00  0.00     0.053 C 
BRANCH   3   4
ATOM      4  C   UNL     1      23.081 -16.648  19.090  1.00  0.00     0.041 C 
ATOM      5  O   UNL     1      23.089 -17.383  20.112  1.00  0.00    -0.550 OA
ATOM      6  O   UNL     1      23.387 -17.192  17.849  1.00  0.00    -0.550 OA
ENDBRANCH   3   4
ENDBRANCH   2   3
ENDBRANCH   1   2
BRANCH   1   7
ATOM      7  C   UNL     1      22.837 -12.398  21.678  1.00  0.00     0.000 C 
BRANCH   7   8
ATOM      8  C   UNL     1      21.974 -11.181  22.055  1.00  0.00    -0.000 C 
BRANCH   8   9
ATOM      9  C   UNL     1      20.676 -11.519  22.813  1.00  0.00    -0.003 C 
ATOM     10  C   UNL     1      20.587 -10.837  24.178  1.00  0.00     0.004 C 
ENDBRANCH   8   9
ENDBRANCH   7   8
ENDBRANCH   1   7
TORSDOF 6
ENDMDL
MODEL 7
REMARK VINA RESULT:    -4.180      4.227      6.243
REMARK INTER + INTRA:          -5.875
REMARK INTER:                  -5.633
REMARK INTRA:                  -0.242
REMARK UNBOUND:                -0.229
REMARK SMILES CCCCCCCC(=O)[O-]
REMARK SMILES IDX 5 1 6 2 7 3 8 4 9 5 10 6 4 7 3 8 2 9 1 10
REMARK H PARENT
REMARK Flexibility Score: inf
ROOT
ATOM      1  C   UNL     1      20.744  -9.978  24.416  1.00  0.00     0.000 C 
ENDROOT
BRANCH   1   2
ATOM      2  C   UNL     1      21.261  -8.705  23.733  1.00  0.00     0.006 C 
BRANCH   2   3
ATOM      3  C   UNL     1      21.801  -7.710  24.764  1.00  0.00     0.053 C 
BRANCH   3   4
ATOM      4  C   UNL     1      20.759  -7.409  25.796  1.00  0.00     0.041 C 
ATOM      5  O   UNL     1      21.027  -7.528  27.020  1.00  0.00    -0.550 OA
ATOM      6  O   UNL     1      19.507  -6.951  25.406  1.00  0.00    -0.550 OA
ENDBRANCH   3   4
ENDBRANCH   2   3
ENDBRANCH   1   2
BRANCH   1   7
ATOM      7  C   UNL     1      20.817 -11.181  23.464  1.00  0.00     0.000 C 
BRANCH   7   8
ATOM      8  C   UNL     1      21.857 -10.999  22.344  1.00  0.00    -0.000 C 
BRANCH   8   9
ATOM      9  C   UNL     1      22.303 -12.303  21.658  1.00  0.00    -0.003 C 
ATOM     10  C   UNL     1      21.166 -13.009  20.919  1.00  0.00     0.004 C 
ENDBRANCH   8   9
ENDBRANCH   7   8
ENDBRANCH   1   7
TORSDOF 6
ENDMDL
MODEL 8
REMARK VINA RESULT:    -3.993      4.159      6.230
REMARK INTER + INTRA:          -5.622
REMARK INTER:                  -5.418
REMARK INTRA:                  -0.204
REMARK UNBOUND:                -0.229
REMARK SMILES CCCCCCCC(=O)[O-]
REMARK SMILES IDX 5 1 6 2 7 3 8 4 9 5 10 6 4 7 3 8 2 9 1 10
REMARK H PARENT
REMARK Flexibility Score: inf
ROOT
ATOM      1  C   UNL     1      23.241 -16.770  20.367  1.00  0.00     0.000 C 
ENDROOT
BRANCH   1   2
ATOM      2  C   UNL     1      23.763 -17.710  19.273  1.00  0.00     0.006 C 
BRANCH   2   3
ATOM      3  C   UNL     1      22.606 -18.382  18.528  1.00  0.00     0.053 C 
BRANCH   3   4
ATOM      4  C   UNL     1      22.715 -18.131  17.057  1.00  0.00     0.041 C 
ATOM      5  O   UNL     1      23.340 -17.126  16.630  1.00  0.00    -0.550 OA
ATOM      6  O   UNL     1      22.166 -19.034  16.156  1.00  0.00    -0.550 OA
ENDBRANCH   3   4
ENDBRANCH   2   3
ENDBRANCH   1   2
BRANCH   1   7
ATOM      7  C   UNL     1      22.788 -15.429  19.769  1.00  0.00     0.000 C 
BRANCH   7   8
ATOM      8  C   UNL     1      22.738 -14.296  20.809  1.00  0.00    -0.000 C 
BRANCH   8   9
ATOM      9  C   UNL     1      21.481 -13.409  20.738  1.00  0.00    -0.003 C 
ATOM     10  C   UNL     1      21.557 -12.189  21.655  1.00  0.00     0.004 C 
ENDBRANCH   8   9
ENDBRANCH   7   8
ENDBRANCH   1   7
TORSDOF 6
ENDMDL
MODEL 9
REMARK VINA RESULT:    -3.686      5.179      7.506
REMARK INTER + INTRA:          -5.208
REMARK INTER:                  -5.004
REMARK INTRA:                  -0.204
REMARK UNBOUND:                -0.229
REMARK SMILES CCCCCCCC(=O)[O-]
REMARK SMILES IDX 5 1 6 2 7 3 8 4 9 5 10 6 4 7 3 8 2 9 1 10
REMARK H PARENT
REMARK Flexibility Score: inf
ROOT
ATOM      1  C   UNL     1      23.739 -17.560  18.694  1.00  0.00     0.000 C 
ENDROOT
BRANCH   1   2
ATOM      2  C   UNL     1      23.000 -17.402  17.359  1.00  0.00     0.006 C 
BRANCH   2   3
ATOM      3  C   UNL     1      23.316 -18.568  16.417  1.00  0.00     0.053 C 
BRANCH   3   4
ATOM      4  C   UNL     1      22.463 -19.753  16.747  1.00  0.00     0.041 C 
ATOM      5  O   UNL     1      21.259 -19.788  16.383  1.00  0.00    -0.550 OA
ATOM      6  O   UNL     1      23.013 -20.839  17.415  1.00  0.00    -0.550 OA
ENDBRANCH   3   4
ENDBRANCH   2   3
ENDBRANCH   1   2
BRANCH   1   7
ATOM      7  C   UNL     1      23.017 -16.798  19.815  1.00  0.00     0.000 C 
BRANCH   7   8
ATOM      8  C   UNL     1      22.625 -15.365  19.412  1.00  0.00    -0.000 C 
BRANCH   8   9
ATOM      9  C   UNL     1      22.624 -14.346  20.567  1.00  0.00    -0.003 C 
ATOM     10  C   UNL     1      21.446 -13.375  20.506  1.00  0.00     0.004 C 
ENDBRANCH   8   9
ENDBRANCH   7   8
ENDBRANCH   1   7
TORSDOF 6
ENDMDL
