MODEL 1
REMARK VINA RESULT:    -2.663      0.000      0.000
REMARK INTER + INTRA:          -7.557
REMARK INTER:                  -4.842
REMARK INTRA:                  -2.714
REMARK UNBOUND:                -2.714
REMARK SMILES CCCCCCCCCCCCCCCC(=O)[O-]
REMARK SMILES IDX 9 1 10 2 11 3 12 4 13 5 14 6 15 7 16 8 17 9 18 10 8 11 7 12
REMARK SMILES IDX 6 13 5 14 4 15 3 16 2 17 1 18
REMARK H PARENT
REMARK Flexibility Score: inf
ROOT
ATOM      1  C   UNL     1      95.828  64.976 227.215  1.00  0.00     0.000 C 
ENDROOT
BRANCH   1   2
ATOM      2  C   UNL     1      95.533  65.940 226.053  1.00  0.00     0.000 C 
BRANCH   2   3
ATOM      3  C   UNL     1      96.568  65.842 224.920  1.00  0.00     0.000 C 
BRANCH   3   4
ATOM      4  C   UNL     1      97.462  64.597 225.036  1.00  0.00     0.000 C 
BRANCH   4   5
ATOM      5  C   UNL     1      98.956  64.952 225.134  1.00  0.00     0.000 C 
BRANCH   5   6
ATOM      6  C   UNL     1      99.189  66.400 225.593  1.00  0.00     0.006 C 
BRANCH   6   7
ATOM      7  C   UNL     1     100.386  66.535 226.544  1.00  0.00     0.053 C 
BRANCH   7   8
ATOM      8  C   UNL     1     101.667  66.532 225.772  1.00  0.00     0.041 C 
ATOM      9  O   UNL     1     102.705  66.019 226.269  1.00  0.00    -0.550 OA
ATOM     10  O   UNL     1     101.705  67.051 224.484  1.00  0.00    -0.550 OA
ENDBRANCH   7   8
ENDBRANCH   6   7
ENDBRANCH   5   6
ENDBRANCH   4   5
ENDBRANCH   3   4
ENDBRANCH   2   3
ENDBRANCH   1   2
BRANCH   1  11
ATOM     11  C   UNL     1      96.581  65.637 228.388  1.00  0.00     0.000 C 
BRANCH  11  12
ATOM     12  C   UNL     1      97.799  64.810 228.838  1.00  0.00    -0.000 C 
BRANCH  12  13
ATOM     13  C   UNL     1      97.723  63.338 228.390  1.00  0.00    -0.000 C 
BRANCH  13  14
ATOM     14  C   UNL     1      99.068  62.717 227.973  1.00  0.00    -0.000 C 
BRANCH  14  15
ATOM     15  C   UNL     1     100.278  63.455 228.563  1.00  0.00    -0.000 C 
BRANCH  15  16
ATOM     16  C   UNL     1     101.572  63.057 227.838  1.00  0.00    -0.000 C 
BRANCH  16  17
ATOM     17  C   UNL     1     101.314  62.154 226.621  1.00  0.00    -0.003 C 
ATOM     18  C   UNL     1     101.890  62.729 225.327  1.00  0.00     0.004 C 
ENDBRANCH  16  17
ENDBRANCH  15  16
ENDBRANCH  14  15
ENDBRANCH  13  14
ENDBRANCH  12  13
ENDBRANCH  11  12
ENDBRANCH   1  11
TORSDOF 14
ENDMDL
MODEL 2
REMARK VINA RESULT:    -2.610     11.598     14.529
REMARK INTER + INTRA:          -7.460
REMARK INTER:                  -6.697
REMARK INTRA:                  -0.763
REMARK UNBOUND:                -2.714
REMARK SMILES CCCCCCCCCCCCCCCC(=O)[O-]
REMARK SMILES IDX 9 1 10 2 11 3 12 4 13 5 14 6 15 7 16 8 17 9 18 10 8 11 7 12
REMARK SMILES IDX 6 13 5 14 4 15 3 16 2 17 1 18
REMARK H PARENT
REMARK Flexibility Score: inf
ROOT
ATOM      1  C   UNL     1     109.038  60.611 216.363  1.00  0.00     0.000 C 
ENDROOT
BRANCH   1   2
ATOM      2  C   UNL     1     110.281  61.496 216.169  1.00  0.00     0.000 C 
BRANCH   2   3
ATOM      3  C   UNL     1     110.011  62.715 215.271  1.00  0.00     0.000 C 
BRANCH   3   4
ATOM      4  C   UNL     1     111.085  63.806 215.411  1.00  0.00     0.000 C 
BRANCH   4   5
ATOM      5  C   UNL     1     111.877  63.687 216.725  1.00  0.00     0.000 C 
BRANCH   5   6
ATOM      6  C   UNL     1     111.739  64.936 217.610  1.00  0.00     0.006 C 
BRANCH   6   7
ATOM      7  C   UNL     1     113.095  65.543 217.992  1.00  0.00     0.053 C 
BRANCH   7   8
ATOM      8  C   UNL     1     113.429  66.686 217.086  1.00  0.00     0.041 C 
ATOM      9  O   UNL     1     114.085  66.486 216.030  1.00  0.00    -0.550 OA
ATOM     10  O   UNL     1     112.974  67.964 217.382  1.00  0.00    -0.550 OA
ENDBRANCH   7   8
ENDBRANCH   6   7
ENDBRANCH   5   6
ENDBRANCH   4   5
ENDBRANCH   3   4
ENDBRANCH   2   3
ENDBRANCH   1   2
BRANCH   1  11
ATOM     11  C   UNL     1     107.764  61.185 215.707  1.00  0.00     0.000 C 
BRANCH  11  12
ATOM     12  C   UNL     1     106.493  60.447 216.161  1.00  0.00    -0.000 C 
BRANCH  12  13
ATOM     13  C   UNL     1     106.496  60.116 217.665  1.00  0.00    -0.000 C 
BRANCH  13  14
ATOM     14  C   UNL     1     105.311  59.257 218.143  1.00  0.00    -0.000 C 
BRANCH  14  15
ATOM     15  C   UNL     1     104.777  59.684 219.518  1.00  0.00    -0.000 C 
BRANCH  15  16
ATOM     16  C   UNL     1     103.339  59.188 219.727  1.00  0.00    -0.000 C 
BRANCH  16  17
ATOM     17  C   UNL     1     102.763  58.501 218.479  1.00  0.00    -0.003 C 
ATOM     18  C   UNL     1     102.009  57.213 218.809  1.00  0.00     0.004 C 
ENDBRANCH  16  17
ENDBRANCH  15  16
ENDBRANCH  14  15
ENDBRANCH  13  14
ENDBRANCH  12  13
ENDBRANCH  11  12
ENDBRANCH   1  11
TORSDOF 14
ENDMDL
MODEL 3
REMARK VINA RESULT:    -2.598      1.183      2.103
REMARK INTER + INTRA:          -7.438
REMARK INTER:                  -4.765
REMARK INTRA:                  -2.673
REMARK UNBOUND:                -2.714
REMARK SMILES CCCCCCCCCCCCCCCC(=O)[O-]
REMARK SMILES IDX 9 1 10 2 11 3 12 4 13 5 14 6 15 7 16 8 17 9 18 10 8 11 7 12
REMARK SMILES IDX 6 13 5 14 4 15 3 16 2 17 1 18
REMARK H PARENT
REMARK Flexibility Score: inf
ROOT
ATOM      1  C   UNL     1      95.199  66.157 226.228  1.00  0.00     0.000 C 
ENDROOT
BRANCH   1   2
ATOM      2  C   UNL     1      95.300  66.051 224.697  1.00  0.00     0.000 C 
BRANCH   2   3
ATOM      3  C   UNL     1      96.716  65.692 224.216  1.00  0.00     0.000 C 
BRANCH   3   4
ATOM      4  C   UNL     1      97.354  64.560 225.038  1.00  0.00     0.000 C 
BRANCH   4   5
ATOM      5  C   UNL     1      98.841  64.817 225.338  1.00  0.00     0.000 C 
BRANCH   5   6
ATOM      6  C   UNL     1      99.183  66.315 225.380  1.00  0.00     0.006 C 
BRANCH   6   7
ATOM      7  C   UNL     1     100.316  66.635 226.364  1.00  0.00     0.053 C 
BRANCH   7   8
ATOM      8  C   UNL     1     101.643  66.547 225.679  1.00  0.00     0.041 C 
ATOM      9  O   UNL     1     102.697  66.404 226.353  1.00  0.00    -0.550 OA
ATOM     10  O   UNL     1     101.712  66.572 224.292  1.00  0.00    -0.550 OA
ENDBRANCH   7   8
ENDBRANCH   6   7
ENDBRANCH   5   6
ENDBRANCH   4   5
ENDBRANCH   3   4
ENDBRANCH   2   3
ENDBRANCH   1   2
BRANCH   1  11
ATOM     11  C   UNL     1      95.645  67.526 226.782  1.00  0.00     0.000 C 
BRANCH  11  12
ATOM     12  C   UNL     1      96.683  67.387 227.910  1.00  0.00    -0.000 C 
BRANCH  12  13
ATOM     13  C   UNL     1      96.846  65.936 228.400  1.00  0.00    -0.000 C 
BRANCH  13  14
ATOM     14  C   UNL     1      98.065  65.690 229.308  1.00  0.00    -0.000 C 
BRANCH  14  15
ATOM     15  C   UNL     1      98.743  64.338 229.047  1.00  0.00    -0.000 C 
BRANCH  15  16
ATOM     16  C   UNL     1      97.731  63.307 228.525  1.00  0.00    -0.000 C 
BRANCH  16  17
ATOM     17  C   UNL     1      98.409  62.081 227.895  1.00  0.00    -0.003 C 
ATOM     18  C   UNL     1      99.925  62.239 227.776  1.00  0.00     0.004 C 
ENDBRANCH  16  17
ENDBRANCH  15  16
ENDBRANCH  14  15
ENDBRANCH  13  14
ENDBRANCH  12  13
ENDBRANCH  11  12
ENDBRANCH   1  11
TORSDOF 14
ENDMDL
MODEL 4
REMARK VINA RESULT:    -2.560      8.366     10.131
REMARK INTER + INTRA:          -7.369
REMARK INTER:                  -4.823
REMARK INTRA:                  -2.547
REMARK UNBOUND:                -2.714
REMARK SMILES CCCCCCCCCCCCCCCC(=O)[O-]
REMARK SMILES IDX 9 1 10 2 11 3 12 4 13 5 14 6 15 7 16 8 17 9 18 10 8 11 7 12
REMARK SMILES IDX 6 13 5 14 4 15 3 16 2 17 1 18
REMARK H PARENT
REMARK Flexibility Score: inf
ROOT
ATOM      1  C   UNL     1      99.541  56.767 223.757  1.00  0.00     0.000 C 
ENDROOT
BRANCH   1   2
ATOM      2  C   UNL     1      99.620  57.348 222.335  1.00  0.00     0.000 C 
BRANCH   2   3
ATOM      3  C   UNL     1      98.276  57.912 221.845  1.00  0.00     0.000 C 
BRANCH   3   4
ATOM      4  C   UNL     1      97.894  57.407 220.445  1.00  0.00     0.000 C 
BRANCH   4   5
ATOM      5  C   UNL     1      99.121  57.000 219.610  1.00  0.00     0.000 C 
BRANCH   5   6
ATOM      6  C   UNL     1      99.388  57.969 218.447  1.00  0.00     0.006 C 
BRANCH   6   7
ATOM      7  C   UNL     1      99.591  59.415 218.916  1.00  0.00     0.053 C 
BRANCH   7   8
ATOM      8  C   UNL     1     101.044  59.691 219.142  1.00  0.00     0.041 C 
ATOM      9  O   UNL     1     101.403  60.717 219.778  1.00  0.00    -0.550 OA
ATOM     10  O   UNL     1     102.001  58.790 218.693  1.00  0.00    -0.550 OA
ENDBRANCH   7   8
ENDBRANCH   6   7
ENDBRANCH   5   6
ENDBRANCH   4   5
ENDBRANCH   3   4
ENDBRANCH   2   3
ENDBRANCH   1   2
BRANCH   1  11
ATOM     11  C   UNL     1      99.493  55.225 223.791  1.00  0.00     0.000 C 
BRANCH  11  12
ATOM     12  C   UNL     1      99.630  54.608 222.388  1.00  0.00    -0.000 C 
BRANCH  12  13
ATOM     13  C   UNL     1      98.358  53.872 221.930  1.00  0.00    -0.000 C 
BRANCH  13  14
ATOM     14  C   UNL     1      97.134  54.058 222.846  1.00  0.00    -0.000 C 
BRANCH  14  15
ATOM     15  C   UNL     1      95.921  54.649 222.114  1.00  0.00    -0.000 C 
BRANCH  15  16
ATOM     16  C   UNL     1      95.351  55.853 222.878  1.00  0.00    -0.000 C 
BRANCH  16  17
ATOM     17  C   UNL     1      95.950  55.998 224.285  1.00  0.00    -0.003 C 
ATOM     18  C   UNL     1      96.061  57.455 224.733  1.00  0.00     0.004 C 
ENDBRANCH  16  17
ENDBRANCH  15  16
ENDBRANCH  14  15
ENDBRANCH  13  14
ENDBRANCH  12  13
ENDBRANCH  11  12
ENDBRANCH   1  11
TORSDOF 14
ENDMDL
MODEL 5
REMARK VINA RESULT:    -2.540      8.835     10.145
REMARK INTER + INTRA:          -7.333
REMARK INTER:                  -4.937
REMARK INTRA:                  -2.396
REMARK UNBOUND:                -2.714
REMARK SMILES CCCCCCCCCCCCCCCC(=O)[O-]
REMARK SMILES IDX 9 1 10 2 11 3 12 4 13 5 14 6 15 7 16 8 17 9 18 10 8 11 7 12
REMARK SMILES IDX 6 13 5 14 4 15 3 16 2 17 1 18
REMARK H PARENT
REMARK Flexibility Score: inf
ROOT
ATOM      1  C   UNL     1      96.858  56.678 224.595  1.00  0.00     0.000 C 
ENDROOT
BRANCH   1   2
ATOM      2  C   UNL     1      96.343  57.688 223.556  1.00  0.00     0.000 C 
BRANCH   2   3
ATOM      3  C   UNL     1      97.306  57.867 222.370  1.00  0.00     0.000 C 
BRANCH   3   4
ATOM      4  C   UNL     1      98.696  57.268 222.637  1.00  0.00     0.000 C 
BRANCH   4   5
ATOM      5  C   UNL     1      99.622  57.360 221.412  1.00  0.00     0.000 C 
BRANCH   5   6
ATOM      6  C   UNL     1      99.212  58.483 220.446  1.00  0.00     0.006 C 
BRANCH   6   7
ATOM      7  C   UNL     1     100.182  58.633 219.267  1.00  0.00     0.053 C 
BRANCH   7   8
ATOM      8  C   UNL     1     100.290  60.069 218.859  1.00  0.00     0.041 C 
ATOM      9  O   UNL     1      99.648  60.495 217.864  1.00  0.00    -0.550 OA
ATOM     10  O   UNL     1     101.061  60.948 219.609  1.00  0.00    -0.550 OA
ENDBRANCH   7   8
ENDBRANCH   6   7
ENDBRANCH   5   6
ENDBRANCH   4   5
ENDBRANCH   3   4
ENDBRANCH   2   3
ENDBRANCH   1   2
BRANCH   1  11
ATOM     11  C   UNL     1      96.309  55.251 224.392  1.00  0.00     0.000 C 
BRANCH  11  12
ATOM     12  C   UNL     1      95.129  55.217 223.406  1.00  0.00    -0.000 C 
BRANCH  12  13
ATOM     13  C   UNL     1      95.411  54.352 222.162  1.00  0.00    -0.000 C 
BRANCH  13  14
ATOM     14  C   UNL     1      96.881  53.929 221.986  1.00  0.00    -0.000 C 
BRANCH  14  15
ATOM     15  C   UNL     1      97.475  54.373 220.642  1.00  0.00    -0.000 C 
BRANCH  15  16
ATOM     16  C   UNL     1      96.499  55.287 219.885  1.00  0.00    -0.000 C 
BRANCH  16  17
ATOM     17  C   UNL     1      97.165  56.017 218.708  1.00  0.00    -0.003 C 
ATOM     18  C   UNL     1      98.515  55.410 218.324  1.00  0.00     0.004 C 
ENDBRANCH  16  17
ENDBRANCH  15  16
ENDBRANCH  14  15
ENDBRANCH  13  14
ENDBRANCH  12  13
ENDBRANCH  11  12
ENDBRANCH   1  11
TORSDOF 14
ENDMDL
MODEL 6
REMARK VINA RESULT:    -2.528      1.890      5.019
REMARK INTER + INTRA:          -7.311
REMARK INTER:                  -5.373
REMARK INTRA:                  -1.938
REMARK UNBOUND:                -2.714
REMARK SMILES CCCCCCCCCCCCCCCC(=O)[O-]
REMARK SMILES IDX 9 1 10 2 11 3 12 4 13 5 14 6 15 7 16 8 17 9 18 10 8 11 7 12
REMARK SMILES IDX 6 13 5 14 4 15 3 16 2 17 1 18
REMARK H PARENT
REMARK Flexibility Score: inf
ROOT
ATOM      1  C   UNL     1      98.625  65.370 225.026  1.00  0.00     0.000 C 
ENDROOT
BRANCH   1   2
ATOM      2  C   UNL     1      99.517  66.014 226.100  1.00  0.00     0.000 C 
BRANCH   2   3
ATOM      3  C   UNL     1     100.998  65.626 225.956  1.00  0.00     0.000 C 
BRANCH   3   4
ATOM      4  C   UNL     1     101.290  64.864 224.653  1.00  0.00     0.000 C 
BRANCH   4   5
ATOM      5  C   UNL     1     101.761  63.422 224.908  1.00  0.00     0.000 C 
BRANCH   5   6
ATOM      6  C   UNL     1     102.252  63.208 226.348  1.00  0.00     0.006 C 
BRANCH   6   7
ATOM      7  C   UNL     1     103.579  62.439 226.414  1.00  0.00     0.053 C 
BRANCH   7   8
ATOM      8  C   UNL     1     104.732  63.374 226.230  1.00  0.00     0.041 C 
ATOM      9  O   UNL     1     104.596  64.603 226.466  1.00  0.00    -0.550 OA
ATOM     10  O   UNL     1     105.972  62.880 225.844  1.00  0.00    -0.550 OA
ENDBRANCH   7   8
ENDBRANCH   6   7
ENDBRANCH   5   6
ENDBRANCH   4   5
ENDBRANCH   3   4
ENDBRANCH   2   3
ENDBRANCH   1   2
BRANCH   1  11
ATOM     11  C   UNL     1      97.712  64.251 225.572  1.00  0.00     0.000 C 
BRANCH  11  12
ATOM     12  C   UNL     1      97.515  64.354 227.095  1.00  0.00    -0.000 C 
BRANCH  12  13
ATOM     13  C   UNL     1      96.190  65.036 227.483  1.00  0.00    -0.000 C 
BRANCH  13  14
ATOM     14  C   UNL     1      96.322  66.506 227.921  1.00  0.00    -0.000 C 
BRANCH  14  15
ATOM     15  C   UNL     1      95.607  67.480 226.973  1.00  0.00    -0.000 C 
BRANCH  15  16
ATOM     16  C   UNL     1      94.875  66.722 225.856  1.00  0.00    -0.000 C 
BRANCH  16  17
ATOM     17  C   UNL     1      95.367  67.114 224.455  1.00  0.00    -0.003 C 
ATOM     18  C   UNL     1      95.185  65.994 223.430  1.00  0.00     0.004 C 
ENDBRANCH  16  17
ENDBRANCH  15  16
ENDBRANCH  14  15
ENDBRANCH  13  14
ENDBRANCH  12  13
ENDBRANCH  11  12
ENDBRANCH   1  11
TORSDOF 14
ENDMDL
MODEL 7
REMARK VINA RESULT:    -2.516      1.488      4.859
REMARK INTER + INTRA:          -7.289
REMARK INTER:                  -4.699
REMARK INTRA:                  -2.590
REMARK UNBOUND:                -2.714
REMARK SMILES CCCCCCCCCCCCCCCC(=O)[O-]
REMARK SMILES IDX 9 1 10 2 11 3 12 4 13 5 14 6 15 7 16 8 17 9 18 10 8 11 7 12
REMARK SMILES IDX 6 13 5 14 4 15 3 16 2 17 1 18
REMARK H PARENT
REMARK Flexibility Score: inf
ROOT
ATOM      1  C   UNL     1     100.680  66.150 227.488  1.00  0.00     0.000 C 
ENDROOT
BRANCH   1   2
ATOM      2  C   UNL     1     100.174  65.802 228.898  1.00  0.00     0.000 C 
BRANCH   2   3
ATOM      3  C   UNL     1     100.048  64.287 229.130  1.00  0.00     0.000 C 
BRANCH   3   4
ATOM      4  C   UNL     1     101.236  63.497 228.555  1.00  0.00     0.000 C 
BRANCH   4   5
ATOM      5  C   UNL     1     100.789  62.268 227.745  1.00  0.00     0.000 C 
BRANCH   5   6
ATOM      6  C   UNL     1     101.309  62.295 226.299  1.00  0.00     0.006 C 
BRANCH   6   7
ATOM      7  C   UNL     1     102.830  62.109 226.213  1.00  0.00     0.053 C 
BRANCH   7   8
ATOM      8  C   UNL     1     103.467  63.308 225.586  1.00  0.00     0.041 C 
ATOM      9  O   UNL     1     102.756  64.193 225.042  1.00  0.00    -0.550 OA
ATOM     10  O   UNL     1     104.845  63.472 225.644  1.00  0.00    -0.550 OA
ENDBRANCH   7   8
ENDBRANCH   6   7
ENDBRANCH   5   6
ENDBRANCH   4   5
ENDBRANCH   3   4
ENDBRANCH   2   3
ENDBRANCH   1   2
BRANCH   1  11
ATOM     11  C   UNL     1      99.800  67.184 226.754  1.00  0.00     0.000 C 
BRANCH  11  12
ATOM     12  C   UNL     1      99.266  66.647 225.415  1.00  0.00    -0.000 C 
BRANCH  12  13
ATOM     13  C   UNL     1      99.268  65.109 225.341  1.00  0.00    -0.000 C 
BRANCH  13  14
ATOM     14  C   UNL     1      97.873  64.457 225.345  1.00  0.00    -0.000 C 
BRANCH  14  15
ATOM     15  C   UNL     1      97.405  64.052 226.750  1.00  0.00    -0.000 C 
BRANCH  15  16
ATOM     16  C   UNL     1      96.189  64.882 227.185  1.00  0.00    -0.000 C 
BRANCH  16  17
ATOM     17  C   UNL     1      96.547  65.955 228.225  1.00  0.00    -0.003 C 
ATOM     18  C   UNL     1      96.218  67.370 227.750  1.00  0.00     0.004 C 
ENDBRANCH  16  17
ENDBRANCH  15  16
ENDBRANCH  14  15
ENDBRANCH  13  14
ENDBRANCH  12  13
ENDBRANCH  11  12
ENDBRANCH   1  11
TORSDOF 14
ENDMDL
MODEL 8
REMARK VINA RESULT:    -2.512      1.824      4.498
REMARK INTER + INTRA:          -7.282
REMARK INTER:                  -4.696
REMARK INTRA:                  -2.586
REMARK UNBOUND:                -2.714
REMARK SMILES CCCCCCCCCCCCCCCC(=O)[O-]
REMARK SMILES IDX 9 1 10 2 11 3 12 4 13 5 14 6 15 7 16 8 17 9 18 10 8 11 7 12
REMARK SMILES IDX 6 13 5 14 4 15 3 16 2 17 1 18
REMARK H PARENT
REMARK Flexibility Score: inf
ROOT
ATOM      1  C   UNL     1      97.510  64.423 225.735  1.00  0.00     0.000 C 
ENDROOT
BRANCH   1   2
ATOM      2  C   UNL     1      96.760  64.573 227.069  1.00  0.00     0.000 C 
BRANCH   2   3
ATOM      3  C   UNL     1      97.598  65.280 228.148  1.00  0.00     0.000 C 
BRANCH   3   4
ATOM      4  C   UNL     1      98.991  64.654 228.324  1.00  0.00     0.000 C 
BRANCH   4   5
ATOM      5  C   UNL     1     100.117  65.702 228.284  1.00  0.00     0.000 C 
BRANCH   5   6
ATOM      6  C   UNL     1     101.323  65.239 227.451  1.00  0.00     0.006 C 
BRANCH   6   7
ATOM      7  C   UNL     1     100.995  64.039 226.552  1.00  0.00     0.053 C 
BRANCH   7   8
ATOM      8  C   UNL     1     101.626  64.208 225.206  1.00  0.00     0.041 C 
ATOM      9  O   UNL     1     100.948  64.645 224.239  1.00  0.00    -0.550 OA
ATOM     10  O   UNL     1     102.976  63.930 225.031  1.00  0.00    -0.550 OA
ENDBRANCH   7   8
ENDBRANCH   6   7
ENDBRANCH   5   6
ENDBRANCH   4   5
ENDBRANCH   3   4
ENDBRANCH   2   3
ENDBRANCH   1   2
BRANCH   1  11
ATOM     11  C   UNL     1      96.760  65.035 224.533  1.00  0.00     0.000 C 
BRANCH  11  12
ATOM     12  C   UNL     1      95.563  65.896 224.972  1.00  0.00    -0.000 C 
BRANCH  12  13
ATOM     13  C   UNL     1      95.518  67.265 224.267  1.00  0.00    -0.000 C 
BRANCH  13  14
ATOM     14  C   UNL     1      96.820  68.082 224.352  1.00  0.00    -0.000 C 
BRANCH  14  15
ATOM     15  C   UNL     1      97.030  68.733 225.726  1.00  0.00    -0.000 C 
BRANCH  15  16
ATOM     16  C   UNL     1      98.394  68.344 226.316  1.00  0.00    -0.000 C 
BRANCH  16  17
ATOM     17  C   UNL     1      99.276  67.585 225.314  1.00  0.00    -0.003 C 
ATOM     18  C   UNL     1     100.621  68.272 225.073  1.00  0.00     0.004 C 
ENDBRANCH  16  17
ENDBRANCH  15  16
ENDBRANCH  14  15
ENDBRANCH  13  14
ENDBRANCH  12  13
ENDBRANCH  11  12
ENDBRANCH   1  11
TORSDOF 14
ENDMDL
MODEL 9
REMARK VINA RESULT:    -2.481      1.959      4.153
REMARK INTER + INTRA:          -7.225
REMARK INTER:                  -4.736
REMARK INTRA:                  -2.489
REMARK UNBOUND:                -2.714
REMARK SMILES CCCCCCCCCCCCCCCC(=O)[O-]
REMARK SMILES IDX 9 1 10 2 11 3 12 4 13 5 14 6 15 7 16 8 17 9 18 10 8 11 7 12
REMARK SMILES IDX 6 13 5 14 4 15 3 16 2 17 1 18
REMARK H PARENT
REMARK Flexibility Score: inf
ROOT
ATOM      1  C   UNL     1      96.572  66.261 224.025  1.00  0.00     0.000 C 
ENDROOT
BRANCH   1   2
ATOM      2  C   UNL     1      96.623  64.973 224.865  1.00  0.00     0.000 C 
BRANCH   2   3
ATOM      3  C   UNL     1      98.045  64.626 225.337  1.00  0.00     0.000 C 
BRANCH   3   4
ATOM      4  C   UNL     1      98.057  63.819 226.646  1.00  0.00     0.000 C 
BRANCH   4   5
ATOM      5  C   UNL     1      99.481  63.570 227.171  1.00  0.00     0.000 C 
BRANCH   5   6
ATOM      6  C   UNL     1     100.392  64.798 227.011  1.00  0.00     0.006 C 
BRANCH   6   7
ATOM      7  C   UNL     1     101.783  64.437 226.475  1.00  0.00     0.053 C 
BRANCH   7   8
ATOM      8  C   UNL     1     101.670  63.729 225.163  1.00  0.00     0.041 C 
ATOM      9  O   UNL     1     101.262  64.346 224.143  1.00  0.00    -0.550 OA
ATOM     10  O   UNL     1     102.061  62.401 225.053  1.00  0.00    -0.550 OA
ENDBRANCH   7   8
ENDBRANCH   6   7
ENDBRANCH   5   6
ENDBRANCH   4   5
ENDBRANCH   3   4
ENDBRANCH   2   3
ENDBRANCH   1   2
BRANCH   1  11
ATOM     11  C   UNL     1      95.464  67.241 224.467  1.00  0.00     0.000 C 
BRANCH  11  12
ATOM     12  C   UNL     1      94.963  66.949 225.892  1.00  0.00    -0.000 C 
BRANCH  12  13
ATOM     13  C   UNL     1      95.674  67.797 226.963  1.00  0.00    -0.000 C 
BRANCH  13  14
ATOM     14  C   UNL     1      96.298  66.993 228.119  1.00  0.00    -0.000 C 
BRANCH  14  15
ATOM     15  C   UNL     1      97.828  67.110 228.173  1.00  0.00    -0.000 C 
BRANCH  15  16
ATOM     16  C   UNL     1      98.292  68.482 227.664  1.00  0.00    -0.000 C 
BRANCH  16  17
ATOM     17  C   UNL     1      99.616  68.407 226.887  1.00  0.00    -0.003 C 
ATOM     18  C   UNL     1      99.418  68.042 225.416  1.00  0.00     0.004 C 
ENDBRANCH  16  17
ENDBRANCH  15  16
ENDBRANCH  14  15
ENDBRANCH  13  14
ENDBRANCH  12  13
ENDBRANCH  11  12
ENDBRANCH   1  11
TORSDOF 14
ENDMDL
