MODEL 1
REMARK VINA RESULT:    -4.931      0.000      0.000
REMARK INTER + INTRA:         -10.894
REMARK INTER:                  -9.255
REMARK INTRA:                  -1.639
REMARK UNBOUND:                -1.639
REMARK SMILES O=C([O-])CCCCCCCCCCCCCCC(=O)[O-]
REMARK SMILES IDX 10 1 9 2 8 3 7 4 6 5 5 6 4 7 2 8 1 9 3 10 11 11 12 12 13 13
REMARK SMILES IDX 14 14 15 15 16 16 17 17 18 18 19 19 20 20
REMARK H PARENT
REMARK Flexibility Score: inf
ROOT
ATOM      1  C   UNL     1     -17.675 -25.820  15.180  1.00  0.00     0.000 C 
ENDROOT
BRANCH   1   2
ATOM      2  C   UNL     1     -17.335 -26.613  13.907  1.00  0.00     0.000 C 
BRANCH   2   3
ATOM      3  C   UNL     1     -16.671 -25.741  12.827  1.00  0.00     0.000 C 
BRANCH   3   4
ATOM      4  C   UNL     1     -16.874 -26.303  11.410  1.00  0.00     0.000 C 
BRANCH   4   5
ATOM      5  C   UNL     1     -15.653 -26.084  10.504  1.00  0.00     0.000 C 
BRANCH   5   6
ATOM      6  C   UNL     1     -15.844 -26.778   9.150  1.00  0.00     0.006 C 
BRANCH   6   7
ATOM      7  C   UNL     1     -16.798 -25.980   8.255  1.00  0.00     0.053 C 
BRANCH   7   8
ATOM      8  C   UNL     1     -16.091 -25.518   7.019  1.00  0.00     0.041 C 
ATOM      9  O   UNL     1     -16.629 -25.659   5.891  1.00  0.00    -0.550 OA
ATOM     10  O   UNL     1     -14.815 -24.977   7.110  1.00  0.00    -0.550 OA
ENDBRANCH   7   8
ENDBRANCH   6   7
ENDBRANCH   5   6
ENDBRANCH   4   5
ENDBRANCH   3   4
ENDBRANCH   2   3
ENDBRANCH   1   2
BRANCH   1  11
ATOM     11  C   UNL     1     -19.185 -25.614  15.368  1.00  0.00     0.000 C 
BRANCH  11  12
ATOM     12  C   UNL     1     -19.641 -24.292  14.731  1.00  0.00     0.000 C 
BRANCH  12  13
ATOM     13  C   UNL     1     -21.041 -24.387  14.106  1.00  0.00     0.000 C 
BRANCH  13  14
ATOM     14  C   UNL     1     -21.107 -23.770  12.699  1.00  0.00     0.000 C 
BRANCH  14  15
ATOM     15  C   UNL     1     -20.096 -24.421  11.733  1.00  0.00     0.000 C 
BRANCH  15  16
ATOM     16  C   UNL     1     -19.203 -23.410  10.991  1.00  0.00     0.006 C 
BRANCH  16  17
ATOM     17  C   UNL     1     -18.961 -22.099  11.761  1.00  0.00     0.053 C 
BRANCH  17  18
ATOM     18  C   UNL     1     -19.447 -20.890  11.017  1.00  0.00     0.041 C 
ATOM     19  O   UNL     1     -19.717 -20.968   9.789  1.00  0.00    -0.550 OA
ATOM     20  O   UNL     1     -19.536 -19.660  11.658  1.00  0.00    -0.550 OA
ENDBRANCH  17  18
ENDBRANCH  16  17
ENDBRANCH  15  16
ENDBRANCH  14  15
ENDBRANCH  13  14
ENDBRANCH  12  13
ENDBRANCH  11  12
ENDBRANCH   1  11
TORSDOF 15
ENDMDL
MODEL 2
REMARK VINA RESULT:    -4.899      9.303     10.901
REMARK INTER + INTRA:         -10.834
REMARK INTER:                  -9.653
REMARK INTRA:                  -1.181
REMARK UNBOUND:                -1.639
REMARK SMILES O=C([O-])CCCCCCCCCCCCCCC(=O)[O-]
REMARK SMILES IDX 10 1 9 2 8 3 7 4 6 5 5 6 4 7 2 8 1 9 3 10 11 11 12 12 13 13
REMARK SMILES IDX 14 14 15 15 16 16 17 17 18 18 19 19 20 20
REMARK H PARENT
REMARK Flexibility Score: inf
ROOT
ATOM      1  C   UNL     1     -22.509 -26.717   3.030  1.00  0.00     0.000 C 
ENDROOT
BRANCH   1   2
ATOM      2  C   UNL     1     -22.984 -25.270   2.820  1.00  0.00     0.000 C 
BRANCH   2   3
ATOM      3  C   UNL     1     -22.346 -24.611   1.585  1.00  0.00     0.000 C 
BRANCH   3   4
ATOM      4  C   UNL     1     -21.926 -25.639   0.521  1.00  0.00     0.000 C 
BRANCH   4   5
ATOM      5  C   UNL     1     -20.675 -25.208  -0.260  1.00  0.00     0.000 C 
BRANCH   5   6
ATOM      6  C   UNL     1     -19.554 -26.244  -0.114  1.00  0.00     0.006 C 
BRANCH   6   7
ATOM      7  C   UNL     1     -19.309 -26.584   1.360  1.00  0.00     0.053 C 
BRANCH   7   8
ATOM      8  C   UNL     1     -17.956 -27.198   1.537  1.00  0.00     0.041 C 
ATOM      9  O   UNL     1     -17.141 -26.711   2.362  1.00  0.00    -0.550 OA
ATOM     10  O   UNL     1     -17.576 -28.280   0.751  1.00  0.00    -0.550 OA
ENDBRANCH   7   8
ENDBRANCH   6   7
ENDBRANCH   5   6
ENDBRANCH   4   5
ENDBRANCH   3   4
ENDBRANCH   2   3
ENDBRANCH   1   2
BRANCH   1  11
ATOM     11  C   UNL     1     -23.451 -27.529   3.932  1.00  0.00     0.000 C 
BRANCH  11  12
ATOM     12  C   UNL     1     -23.861 -28.845   3.252  1.00  0.00     0.000 C 
BRANCH  12  13
ATOM     13  C   UNL     1     -23.174 -30.071   3.872  1.00  0.00     0.000 C 
BRANCH  13  14
ATOM     14  C   UNL     1     -22.968 -29.933   5.391  1.00  0.00     0.000 C 
BRANCH  14  15
ATOM     15  C   UNL     1     -24.095 -30.617   6.192  1.00  0.00     0.000 C 
BRANCH  15  16
ATOM     16  C   UNL     1     -24.923 -29.648   7.054  1.00  0.00     0.006 C 
BRANCH  16  17
ATOM     17  C   UNL     1     -25.995 -28.868   6.272  1.00  0.00     0.053 C 
BRANCH  17  18
ATOM     18  C   UNL     1     -27.375 -29.053   6.833  1.00  0.00     0.041 C 
ATOM     19  O   UNL     1     -27.569 -28.969   8.075  1.00  0.00    -0.550 OA
ATOM     20  O   UNL     1     -28.433 -29.387   5.997  1.00  0.00    -0.550 OA
ENDBRANCH  17  18
ENDBRANCH  16  17
ENDBRANCH  15  16
ENDBRANCH  14  15
ENDBRANCH  13  14
ENDBRANCH  12  13
ENDBRANCH  11  12
ENDBRANCH   1  11
TORSDOF 15
ENDMDL
MODEL 3
REMARK VINA RESULT:    -4.882      1.442      5.485
REMARK INTER + INTRA:         -10.803
REMARK INTER:                  -9.424
REMARK INTRA:                  -1.379
REMARK UNBOUND:                -1.639
REMARK SMILES O=C([O-])CCCCCCCCCCCCCCC(=O)[O-]
REMARK SMILES IDX 10 1 9 2 8 3 7 4 6 5 5 6 4 7 2 8 1 9 3 10 11 11 12 12 13 13
REMARK SMILES IDX 14 14 15 15 16 16 17 17 18 18 19 19 20 20
REMARK H PARENT
REMARK Flexibility Score: inf
ROOT
ATOM      1  C   UNL     1     -19.096 -26.121  15.282  1.00  0.00     0.000 C 
ENDROOT
BRANCH   1   2
ATOM      2  C   UNL     1     -20.150 -25.230  14.603  1.00  0.00     0.000 C 
BRANCH   2   3
ATOM      3  C   UNL     1     -19.625 -23.816  14.303  1.00  0.00     0.000 C 
BRANCH   3   4
ATOM      4  C   UNL     1     -19.505 -23.541  12.794  1.00  0.00     0.000 C 
BRANCH   4   5
ATOM      5  C   UNL     1     -19.964 -22.126  12.410  1.00  0.00     0.000 C 
BRANCH   5   6
ATOM      6  C   UNL     1     -18.925 -21.436  11.518  1.00  0.00     0.006 C 
BRANCH   6   7
ATOM      7  C   UNL     1     -19.587 -20.816  10.283  1.00  0.00     0.053 C 
BRANCH   7   8
ATOM      8  C   UNL     1     -20.126 -21.886   9.387  1.00  0.00     0.041 C 
ATOM      9  O   UNL     1     -19.366 -22.786   8.945  1.00  0.00    -0.550 OA
ATOM     10  O   UNL     1     -21.460 -21.860   8.998  1.00  0.00    -0.550 OA
ENDBRANCH   7   8
ENDBRANCH   6   7
ENDBRANCH   5   6
ENDBRANCH   4   5
ENDBRANCH   3   4
ENDBRANCH   2   3
ENDBRANCH   1   2
BRANCH   1  11
ATOM     11  C   UNL     1     -18.782 -27.391  14.477  1.00  0.00     0.000 C 
BRANCH  11  12
ATOM     12  C   UNL     1     -17.918 -27.061  13.249  1.00  0.00     0.000 C 
BRANCH  12  13
ATOM     13  C   UNL     1     -16.724 -26.157  13.591  1.00  0.00     0.000 C 
BRANCH  13  14
ATOM     14  C   UNL     1     -16.318 -25.241  12.423  1.00  0.00     0.000 C 
BRANCH  14  15
ATOM     15  C   UNL     1     -15.534 -26.003  11.335  1.00  0.00     0.000 C 
BRANCH  15  16
ATOM     16  C   UNL     1     -16.298 -26.153  10.007  1.00  0.00     0.006 C 
BRANCH  16  17
ATOM     17  C   UNL     1     -15.465 -26.768   8.867  1.00  0.00     0.053 C 
BRANCH  17  18
ATOM     18  C   UNL     1     -15.680 -26.079   7.552  1.00  0.00     0.041 C 
ATOM     19  O   UNL     1     -16.579 -26.479   6.767  1.00  0.00    -0.550 OA
ATOM     20  O   UNL     1     -14.845 -25.040   7.160  1.00  0.00    -0.550 OA
ENDBRANCH  17  18
ENDBRANCH  16  17
ENDBRANCH  15  16
ENDBRANCH  14  15
ENDBRANCH  13  14
ENDBRANCH  12  13
ENDBRANCH  11  12
ENDBRANCH   1  11
TORSDOF 15
ENDMDL
MODEL 4
REMARK VINA RESULT:    -4.837      7.893      9.984
REMARK INTER + INTRA:         -10.717
REMARK INTER:                  -9.708
REMARK INTRA:                  -1.009
REMARK UNBOUND:                -1.639
REMARK SMILES O=C([O-])CCCCCCCCCCCCCCC(=O)[O-]
REMARK SMILES IDX 10 1 9 2 8 3 7 4 6 5 5 6 4 7 2 8 1 9 3 10 11 11 12 12 13 13
REMARK SMILES IDX 14 14 15 15 16 16 17 17 18 18 19 19 20 20
REMARK H PARENT
REMARK Flexibility Score: inf
ROOT
ATOM      1  C   UNL     1     -25.308 -26.091  16.891  1.00  0.00     0.000 C 
ENDROOT
BRANCH   1   2
ATOM      2  C   UNL     1     -24.100 -26.715  17.609  1.00  0.00     0.000 C 
BRANCH   2   3
ATOM      3  C   UNL     1     -22.876 -25.784  17.626  1.00  0.00     0.000 C 
BRANCH   3   4
ATOM      4  C   UNL     1     -21.599 -26.483  17.127  1.00  0.00     0.000 C 
BRANCH   4   5
ATOM      5  C   UNL     1     -21.744 -27.036  15.702  1.00  0.00     0.000 C 
BRANCH   5   6
ATOM      6  C   UNL     1     -20.795 -28.219  15.474  1.00  0.00     0.006 C 
BRANCH   6   7
ATOM      7  C   UNL     1     -21.542 -29.414  14.873  1.00  0.00     0.053 C 
BRANCH   7   8
ATOM      8  C   UNL     1     -21.856 -30.421  15.935  1.00  0.00     0.041 C 
ATOM      9  O   UNL     1     -22.660 -31.361  15.699  1.00  0.00    -0.550 OA
ATOM     10  O   UNL     1     -21.300 -30.292  17.202  1.00  0.00    -0.550 OA
ENDBRANCH   7   8
ENDBRANCH   6   7
ENDBRANCH   5   6
ENDBRANCH   4   5
ENDBRANCH   3   4
ENDBRANCH   2   3
ENDBRANCH   1   2
BRANCH   1  11
ATOM     11  C   UNL     1     -24.903 -25.032  15.854  1.00  0.00     0.000 C 
BRANCH  11  12
ATOM     12  C   UNL     1     -26.094 -24.128  15.501  1.00  0.00     0.000 C 
BRANCH  12  13
ATOM     13  C   UNL     1     -27.271 -24.909  14.896  1.00  0.00     0.000 C 
BRANCH  13  14
ATOM     14  C   UNL     1     -28.635 -24.285  15.235  1.00  0.00     0.000 C 
BRANCH  14  15
ATOM     15  C   UNL     1     -28.629 -23.591  16.613  1.00  0.00     0.000 C 
BRANCH  15  16
ATOM     16  C   UNL     1     -29.874 -23.890  17.467  1.00  0.00     0.006 C 
BRANCH  16  17
ATOM     17  C   UNL     1     -30.329 -22.716  18.352  1.00  0.00     0.053 C 
BRANCH  17  18
ATOM     18  C   UNL     1     -29.966 -21.379  17.775  1.00  0.00     0.041 C 
ATOM     19  O   UNL     1     -29.147 -20.632  18.373  1.00  0.00    -0.550 OA
ATOM     20  O   UNL     1     -30.583 -20.925  16.615  1.00  0.00    -0.550 OA
ENDBRANCH  17  18
ENDBRANCH  16  17
ENDBRANCH  15  16
ENDBRANCH  14  15
ENDBRANCH  13  14
ENDBRANCH  12  13
ENDBRANCH  11  12
ENDBRANCH   1  11
TORSDOF 15
ENDMDL
MODEL 5
REMARK VINA RESULT:    -4.832      9.163     11.741
REMARK INTER + INTRA:         -10.709
REMARK INTER:                  -9.126
REMARK INTRA:                  -1.582
REMARK UNBOUND:                -1.639
REMARK SMILES O=C([O-])CCCCCCCCCCCCCCC(=O)[O-]
REMARK SMILES IDX 10 1 9 2 8 3 7 4 6 5 5 6 4 7 2 8 1 9 3 10 11 11 12 12 13 13
REMARK SMILES IDX 14 14 15 15 16 16 17 17 18 18 19 19 20 20
REMARK H PARENT
REMARK Flexibility Score: inf
ROOT
ATOM      1  C   UNL     1     -22.717 -28.467   2.790  1.00  0.00     0.000 C 
ENDROOT
BRANCH   1   2
ATOM      2  C   UNL     1     -24.039 -28.971   3.392  1.00  0.00     0.000 C 
BRANCH   2   3
ATOM      3  C   UNL     1     -24.446 -28.196   4.657  1.00  0.00     0.000 C 
BRANCH   3   4
ATOM      4  C   UNL     1     -25.139 -29.092   5.698  1.00  0.00     0.000 C 
BRANCH   4   5
ATOM      5  C   UNL     1     -26.660 -28.879   5.746  1.00  0.00     0.000 C 
BRANCH   5   6
ATOM      6  C   UNL     1     -27.272 -29.573   6.969  1.00  0.00     0.006 C 
BRANCH   6   7
ATOM      7  C   UNL     1     -27.839 -28.546   7.955  1.00  0.00     0.053 C 
BRANCH   7   8
ATOM      8  C   UNL     1     -26.838 -28.242   9.025  1.00  0.00     0.041 C 
ATOM      9  O   UNL     1     -26.967 -27.215   9.741  1.00  0.00    -0.550 OA
ATOM     10  O   UNL     1     -25.733 -29.067   9.198  1.00  0.00    -0.550 OA
ENDBRANCH   7   8
ENDBRANCH   6   7
ENDBRANCH   5   6
ENDBRANCH   4   5
ENDBRANCH   3   4
ENDBRANCH   2   3
ENDBRANCH   1   2
BRANCH   1  11
ATOM     11  C   UNL     1     -21.508 -28.734   3.700  1.00  0.00     0.000 C 
BRANCH  11  12
ATOM     12  C   UNL     1     -21.039 -30.192   3.572  1.00  0.00     0.000 C 
BRANCH  12  13
ATOM     13  C   UNL     1     -21.272 -31.004   4.855  1.00  0.00     0.000 C 
BRANCH  13  14
ATOM     14  C   UNL     1     -22.465 -31.968   4.741  1.00  0.00     0.000 C 
BRANCH  14  15
ATOM     15  C   UNL     1     -23.229 -32.105   6.074  1.00  0.00     0.000 C 
BRANCH  15  16
ATOM     16  C   UNL     1     -22.451 -31.580   7.295  1.00  0.00     0.006 C 
BRANCH  16  17
ATOM     17  C   UNL     1     -22.067 -32.668   8.313  1.00  0.00     0.053 C 
BRANCH  17  18
ATOM     18  C   UNL     1     -22.509 -32.341   9.709  1.00  0.00     0.041 C 
ATOM     19  O   UNL     1     -22.391 -31.168  10.151  1.00  0.00    -0.550 OA
ATOM     20  O   UNL     1     -22.986 -33.342  10.547  1.00  0.00    -0.550 OA
ENDBRANCH  17  18
ENDBRANCH  16  17
ENDBRANCH  15  16
ENDBRANCH  14  15
ENDBRANCH  13  14
ENDBRANCH  12  13
ENDBRANCH  11  12
ENDBRANCH   1  11
TORSDOF 15
ENDMDL
MODEL 6
REMARK VINA RESULT:    -4.818      9.038      9.854
REMARK INTER + INTRA:         -10.682
REMARK INTER:                  -9.067
REMARK INTRA:                  -1.614
REMARK UNBOUND:                -1.639
REMARK SMILES O=C([O-])CCCCCCCCCCCCCCC(=O)[O-]
REMARK SMILES IDX 10 1 9 2 8 3 7 4 6 5 5 6 4 7 2 8 1 9 3 10 11 11 12 12 13 13
REMARK SMILES IDX 14 14 15 15 16 16 17 17 18 18 19 19 20 20
REMARK H PARENT
REMARK Flexibility Score: inf
ROOT
ATOM      1  C   UNL     1     -24.526 -28.972   4.457  1.00  0.00     0.000 C 
ENDROOT
BRANCH   1   2
ATOM      2  C   UNL     1     -23.580 -29.504   3.367  1.00  0.00     0.000 C 
BRANCH   2   3
ATOM      3  C   UNL     1     -22.737 -30.699   3.847  1.00  0.00     0.000 C 
BRANCH   3   4
ATOM      4  C   UNL     1     -21.316 -30.689   3.258  1.00  0.00     0.000 C 
BRANCH   4   5
ATOM      5  C   UNL     1     -21.013 -29.411   2.461  1.00  0.00     0.000 C 
BRANCH   5   6
ATOM      6  C   UNL     1     -19.956 -28.559   3.173  1.00  0.00     0.006 C 
BRANCH   6   7
ATOM      7  C   UNL     1     -19.518 -27.381   2.297  1.00  0.00     0.053 C 
BRANCH   7   8
ATOM      8  C   UNL     1     -18.109 -27.571   1.831  1.00  0.00     0.041 C 
ATOM      9  O   UNL     1     -17.159 -27.017   2.442  1.00  0.00    -0.550 OA
ATOM     10  O   UNL     1     -17.850 -28.320   0.689  1.00  0.00    -0.550 OA
ENDBRANCH   7   8
ENDBRANCH   6   7
ENDBRANCH   5   6
ENDBRANCH   4   5
ENDBRANCH   3   4
ENDBRANCH   2   3
ENDBRANCH   1   2
BRANCH   1  11
ATOM     11  C   UNL     1     -24.546 -27.438   4.531  1.00  0.00     0.000 C 
BRANCH  11  12
ATOM     12  C   UNL     1     -23.197 -26.851   4.087  1.00  0.00     0.000 C 
BRANCH  12  13
ATOM     13  C   UNL     1     -23.323 -25.415   3.555  1.00  0.00     0.000 C 
BRANCH  13  14
ATOM     14  C   UNL     1     -22.502 -25.181   2.275  1.00  0.00     0.000 C 
BRANCH  14  15
ATOM     15  C   UNL     1     -22.994 -23.949   1.489  1.00  0.00     0.000 C 
BRANCH  15  16
ATOM     16  C   UNL     1     -24.368 -23.426   1.945  1.00  0.00     0.006 C 
BRANCH  16  17
ATOM     17  C   UNL     1     -24.369 -21.948   2.376  1.00  0.00     0.053 C 
BRANCH  17  18
ATOM     18  C   UNL     1     -23.373 -21.658   3.460  1.00  0.00     0.041 C 
ATOM     19  O   UNL     1     -23.633 -21.957   4.655  1.00  0.00    -0.550 OA
ATOM     20  O   UNL     1     -22.188 -20.993   3.164  1.00  0.00    -0.550 OA
ENDBRANCH  17  18
ENDBRANCH  16  17
ENDBRANCH  15  16
ENDBRANCH  14  15
ENDBRANCH  13  14
ENDBRANCH  12  13
ENDBRANCH  11  12
ENDBRANCH   1  11
TORSDOF 15
ENDMDL
MODEL 7
REMARK VINA RESULT:    -4.816      8.664     10.359
REMARK INTER + INTRA:         -10.678
REMARK INTER:                  -8.774
REMARK INTRA:                  -1.905
REMARK UNBOUND:                -1.639
REMARK SMILES O=C([O-])CCCCCCCCCCCCCCC(=O)[O-]
REMARK SMILES IDX 10 1 9 2 8 3 7 4 6 5 5 6 4 7 2 8 1 9 3 10 11 11 12 12 13 13
REMARK SMILES IDX 14 14 15 15 16 16 17 17 18 18 19 19 20 20
REMARK H PARENT
REMARK Flexibility Score: inf
ROOT
ATOM      1  C   UNL     1     -22.803 -29.735   3.542  1.00  0.00     0.000 C 
ENDROOT
BRANCH   1   2
ATOM      2  C   UNL     1     -22.836 -31.265   3.692  1.00  0.00     0.000 C 
BRANCH   2   3
ATOM      3  C   UNL     1     -22.339 -31.735   5.070  1.00  0.00     0.000 C 
BRANCH   3   4
ATOM      4  C   UNL     1     -23.371 -31.487   6.183  1.00  0.00     0.000 C 
BRANCH   4   5
ATOM      5  C   UNL     1     -22.868 -30.503   7.250  1.00  0.00     0.000 C 
BRANCH   5   6
ATOM      6  C   UNL     1     -22.317 -31.251   8.469  1.00  0.00     0.006 C 
BRANCH   6   7
ATOM      7  C   UNL     1     -23.136 -30.933   9.725  1.00  0.00     0.053 C 
BRANCH   7   8
ATOM      8  C   UNL     1     -22.797 -31.888  10.826  1.00  0.00     0.041 C 
ATOM      9  O   UNL     1     -22.982 -33.123  10.673  1.00  0.00    -0.550 OA
ATOM     10  O   UNL     1     -22.323 -31.407  12.041  1.00  0.00    -0.550 OA
ENDBRANCH   7   8
ENDBRANCH   6   7
ENDBRANCH   5   6
ENDBRANCH   4   5
ENDBRANCH   3   4
ENDBRANCH   2   3
ENDBRANCH   1   2
BRANCH   1  11
ATOM     11  C   UNL     1     -24.199 -29.099   3.624  1.00  0.00     0.000 C 
BRANCH  11  12
ATOM     12  C   UNL     1     -24.165 -27.812   4.464  1.00  0.00     0.000 C 
BRANCH  12  13
ATOM     13  C   UNL     1     -25.110 -27.870   5.673  1.00  0.00     0.000 C 
BRANCH  13  14
ATOM     14  C   UNL     1     -26.067 -29.073   5.624  1.00  0.00     0.000 C 
BRANCH  14  15
ATOM     15  C   UNL     1     -26.623 -29.428   7.019  1.00  0.00     0.000 C 
BRANCH  15  16
ATOM     16  C   UNL     1     -25.867 -28.757   8.180  1.00  0.00     0.006 C 
BRANCH  16  17
ATOM     17  C   UNL     1     -26.778 -28.051   9.201  1.00  0.00     0.053 C 
BRANCH  17  18
ATOM     18  C   UNL     1     -26.502 -26.580   9.306  1.00  0.00     0.041 C 
ATOM     19  O   UNL     1     -25.519 -26.076   8.702  1.00  0.00    -0.550 OA
ATOM     20  O   UNL     1     -27.286 -25.776  10.125  1.00  0.00    -0.550 OA
ENDBRANCH  17  18
ENDBRANCH  16  17
ENDBRANCH  15  16
ENDBRANCH  14  15
ENDBRANCH  13  14
ENDBRANCH  12  13
ENDBRANCH  11  12
ENDBRANCH   1  11
TORSDOF 15
ENDMDL
MODEL 8
REMARK VINA RESULT:    -4.787      4.602      7.838
REMARK INTER + INTRA:         -10.624
REMARK INTER:                  -8.964
REMARK INTRA:                  -1.660
REMARK UNBOUND:                -1.639
REMARK SMILES O=C([O-])CCCCCCCCCCCCCCC(=O)[O-]
REMARK SMILES IDX 10 1 9 2 8 3 7 4 6 5 5 6 4 7 2 8 1 9 3 10 11 11 12 12 13 13
REMARK SMILES IDX 14 14 15 15 16 16 17 17 18 18 19 19 20 20
REMARK H PARENT
REMARK Flexibility Score: inf
ROOT
ATOM      1  C   UNL     1     -20.585 -27.558  14.351  1.00  0.00     0.000 C 
ENDROOT
BRANCH   1   2
ATOM      2  C   UNL     1     -20.928 -28.959  14.884  1.00  0.00     0.000 C 
BRANCH   2   3
ATOM      3  C   UNL     1     -21.021 -29.002  16.419  1.00  0.00     0.000 C 
BRANCH   3   4
ATOM      4  C   UNL     1     -22.435 -29.353  16.913  1.00  0.00     0.000 C 
BRANCH   4   5
ATOM      5  C   UNL     1     -23.055 -28.241  17.772  1.00  0.00     0.000 C 
BRANCH   5   6
ATOM      6  C   UNL     1     -23.343 -26.993  16.929  1.00  0.00     0.006 C 
BRANCH   6   7
ATOM      7  C   UNL     1     -24.643 -26.316  17.376  1.00  0.00     0.053 C 
BRANCH   7   8
ATOM      8  C   UNL     1     -25.245 -25.543  16.245  1.00  0.00     0.041 C 
ATOM      9  O   UNL     1     -26.495 -25.471  16.121  1.00  0.00    -0.550 OA
ATOM     10  O   UNL     1     -24.423 -24.943  15.298  1.00  0.00    -0.550 OA
ENDBRANCH   7   8
ENDBRANCH   6   7
ENDBRANCH   5   6
ENDBRANCH   4   5
ENDBRANCH   3   4
ENDBRANCH   2   3
ENDBRANCH   1   2
BRANCH   1  11
ATOM     11  C   UNL     1     -20.003 -26.635  15.433  1.00  0.00     0.000 C 
BRANCH  11  12
ATOM     12  C   UNL     1     -20.521 -25.199  15.263  1.00  0.00     0.000 C 
BRANCH  12  13
ATOM     13  C   UNL     1     -19.455 -24.249  14.694  1.00  0.00     0.000 C 
BRANCH  13  14
ATOM     14  C   UNL     1     -19.749 -23.825  13.245  1.00  0.00     0.000 C 
BRANCH  14  15
ATOM     15  C   UNL     1     -18.486 -23.878  12.359  1.00  0.00     0.000 C 
BRANCH  15  16
ATOM     16  C   UNL     1     -18.362 -25.168  11.528  1.00  0.00     0.006 C 
BRANCH  16  17
ATOM     17  C   UNL     1     -17.652 -26.322  12.259  1.00  0.00     0.053 C 
BRANCH  17  18
ATOM     18  C   UNL     1     -16.400 -25.884  12.961  1.00  0.00     0.041 C 
ATOM     19  O   UNL     1     -16.351 -25.874  14.219  1.00  0.00    -0.550 OA
ATOM     20  O   UNL     1     -15.313 -25.419  12.231  1.00  0.00    -0.550 OA
ENDBRANCH  17  18
ENDBRANCH  16  17
ENDBRANCH  15  16
ENDBRANCH  14  15
ENDBRANCH  13  14
ENDBRANCH  12  13
ENDBRANCH  11  12
ENDBRANCH   1  11
TORSDOF 15
ENDMDL
MODEL 9
REMARK VINA RESULT:    -4.751      4.897      6.689
REMARK INTER + INTRA:         -10.557
REMARK INTER:                  -9.082
REMARK INTRA:                  -1.475
REMARK UNBOUND:                -1.639
REMARK SMILES O=C([O-])CCCCCCCCCCCCCCC(=O)[O-]
REMARK SMILES IDX 10 1 9 2 8 3 7 4 6 5 5 6 4 7 2 8 1 9 3 10 11 11 12 12 13 13
REMARK SMILES IDX 14 14 15 15 16 16 17 17 18 18 19 19 20 20
REMARK H PARENT
REMARK Flexibility Score: inf
ROOT
ATOM      1  C   UNL     1     -19.815 -23.471  13.142  1.00  0.00     0.000 C 
ENDROOT
BRANCH   1   2
ATOM      2  C   UNL     1     -18.541 -23.761  12.331  1.00  0.00     0.000 C 
BRANCH   2   3
ATOM      3  C   UNL     1     -18.594 -25.122  11.614  1.00  0.00     0.000 C 
BRANCH   3   4
ATOM      4  C   UNL     1     -17.311 -25.945  11.821  1.00  0.00     0.000 C 
BRANCH   4   5
ATOM      5  C   UNL     1     -16.524 -25.515  13.068  1.00  0.00     0.000 C 
BRANCH   5   6
ATOM      6  C   UNL     1     -16.859 -26.413  14.264  1.00  0.00     0.006 C 
BRANCH   6   7
ATOM      7  C   UNL     1     -16.670 -25.660  15.586  1.00  0.00     0.053 C 
BRANCH   7   8
ATOM      8  C   UNL     1     -15.479 -26.188  16.322  1.00  0.00     0.041 C 
ATOM      9  O   UNL     1     -14.565 -25.406  16.691  1.00  0.00    -0.550 OA
ATOM     10  O   UNL     1     -15.354 -27.552  16.555  1.00  0.00    -0.550 OA
ENDBRANCH   7   8
ENDBRANCH   6   7
ENDBRANCH   5   6
ENDBRANCH   4   5
ENDBRANCH   3   4
ENDBRANCH   2   3
ENDBRANCH   1   2
BRANCH   1  11
ATOM     11  C   UNL     1     -19.878 -24.262  14.457  1.00  0.00     0.000 C 
BRANCH  11  12
ATOM     12  C   UNL     1     -21.222 -24.995  14.590  1.00  0.00     0.000 C 
BRANCH  12  13
ATOM     13  C   UNL     1     -21.052 -26.499  14.855  1.00  0.00     0.000 C 
BRANCH  13  14
ATOM     14  C   UNL     1     -22.203 -27.090  15.688  1.00  0.00     0.000 C 
BRANCH  14  15
ATOM     15  C   UNL     1     -22.673 -26.123  16.794  1.00  0.00     0.000 C 
BRANCH  15  16
ATOM     16  C   UNL     1     -24.191 -25.869  16.796  1.00  0.00     0.006 C 
BRANCH  16  17
ATOM     17  C   UNL     1     -24.690 -25.023  15.611  1.00  0.00     0.053 C 
BRANCH  17  18
ATOM     18  C   UNL     1     -26.152 -24.698  15.703  1.00  0.00     0.041 C 
ATOM     19  O   UNL     1     -26.531 -23.499  15.781  1.00  0.00    -0.550 OA
ATOM     20  O   UNL     1     -27.094 -25.717  15.776  1.00  0.00    -0.550 OA
ENDBRANCH  17  18
ENDBRANCH  16  17
ENDBRANCH  15  16
ENDBRANCH  14  15
ENDBRANCH  13  14
ENDBRANCH  12  13
ENDBRANCH  11  12
ENDBRANCH   1  11
TORSDOF 15
ENDMDL
