MODEL 1
REMARK VINA RESULT:    -7.711      0.000      0.000
REMARK INTER + INTRA:          -9.601
REMARK INTER:                  -9.289
REMARK INTRA:                  -0.311
REMARK UNBOUND:                -0.311
REMARK SMILES O=c1c(O)c(-c2ccc(O)c(O)c2)oc2cc(O)cc(O)c12
REMARK SMILES IDX 5 1 3 2 2 3 1 4 22 5 20 6 19 7 17 8 16 9 15 10 14 11 6 12
REMARK SMILES IDX 7 13 8 14 9 15 13 16 11 17 10 18 12 20 4 22 21 24 18 26
REMARK H PARENT 10 19 12 21 4 23 21 25 18 27
REMARK Flexibility Score: inf
ROOT
ATOM      1  C   UNL     1      23.730  62.231  90.535  1.00  0.00     0.180 A 
ATOM      2  C   UNL     1      23.225  62.007  89.240  1.00  0.00     0.208 A 
ATOM      3  C   UNL     1      22.590  60.787  88.960  1.00  0.00     0.238 A 
ATOM      4  O   UNL     1      22.124  60.579  87.807  1.00  0.00    -0.285 OA
ATOM      5  C   UNL     1      22.489  59.808  89.969  1.00  0.00     0.111 A 
ATOM      6  C   UNL     1      21.868  58.551  89.769  1.00  0.00     0.134 A 
ATOM      7  C   UNL     1      21.815  57.625  90.822  1.00  0.00     0.093 A 
ATOM      8  C   UNL     1      22.371  57.931  92.070  1.00  0.00     0.123 A 
ATOM      9  C   UNL     1      22.984  59.170  92.272  1.00  0.00     0.094 A 
ATOM     10  C   UNL     1      23.044  60.106  91.235  1.00  0.00     0.146 A 
ATOM     11  O   UNL     1      23.629  61.278  91.458  1.00  0.00    -0.452 OA
ENDROOT
BRANCH   1  12
ATOM     12  C   UNL     1      24.395  63.499  90.912  1.00  0.00     0.025 A 
ATOM     13  C   UNL     1      25.792  63.632  90.866  1.00  0.00     0.016 A 
ATOM     14  C   UNL     1      26.396  64.845  91.204  1.00  0.00     0.051 A 
ATOM     15  C   UNL     1      25.623  65.948  91.581  1.00  0.00     0.157 A 
ATOM     16  C   UNL     1      23.616  64.610  91.269  1.00  0.00     0.062 A 
ATOM     17  C   UNL     1      24.213  65.830  91.611  1.00  0.00     0.158 A 
BRANCH  15  18
ATOM     18  O   UNL     1      26.289  67.130  91.913  1.00  0.00    -0.504 OA
ATOM     19  H   UNL     1      26.691  67.316  92.820  1.00  0.00     0.293 HD
ENDBRANCH  15  18
BRANCH  17  20
ATOM     20  O   UNL     1      23.375  66.888  91.967  1.00  0.00    -0.504 OA
ATOM     21  H   UNL     1      23.094  67.624  91.335  1.00  0.00     0.293 HD
ENDBRANCH  17  20
ENDBRANCH   1  12
BRANCH   2  22
ATOM     22  O   UNL     1      23.382  62.974  88.243  1.00  0.00    -0.502 OA
ATOM     23  H   UNL     1      24.092  63.695  88.293  1.00  0.00     0.293 HD
ENDBRANCH   2  22
BRANCH   6  24
ATOM     24  O   UNL     1      21.305  58.215  88.537  1.00  0.00    -0.507 OA
ATOM     25  H   UNL     1      21.838  57.736  87.820  1.00  0.00     0.293 HD
ENDBRANCH   6  24
BRANCH   8  26
ATOM     26  O   UNL     1      22.320  57.013  93.115  1.00  0.00    -0.508 OA
ATOM     27  H   UNL     1      22.271  56.016  92.941  1.00  0.00     0.293 HD
ENDBRANCH   8  26
TORSDOF 6
ENDMDL
MODEL 2
REMARK VINA RESULT:    -6.386      1.801      3.375
REMARK INTER + INTRA:          -8.005
REMARK INTER:                  -7.692
REMARK INTRA:                  -0.313
REMARK UNBOUND:                -0.311
REMARK SMILES O=c1c(O)c(-c2ccc(O)c(O)c2)oc2cc(O)cc(O)c12
REMARK SMILES IDX 5 1 3 2 2 3 1 4 22 5 20 6 19 7 17 8 16 9 15 10 14 11 6 12
REMARK SMILES IDX 7 13 8 14 9 15 13 16 11 17 10 18 12 20 4 22 21 24 18 26
REMARK H PARENT 10 19 12 21 4 23 21 25 18 27
REMARK Flexibility Score: inf
ROOT
ATOM      1  C   UNL     1      23.802  61.441  89.831  1.00  0.00     0.180 A 
ATOM      2  C   UNL     1      23.358  60.397  90.663  1.00  0.00     0.208 A 
ATOM      3  C   UNL     1      22.853  59.227  90.075  1.00  0.00     0.238 A 
ATOM      4  O   UNL     1      22.462  58.281  90.811  1.00  0.00    -0.285 OA
ATOM      5  C   UNL     1      22.781  59.130  88.671  1.00  0.00     0.111 A 
ATOM      6  C   UNL     1      22.281  57.988  87.998  1.00  0.00     0.134 A 
ATOM      7  C   UNL     1      22.234  57.972  86.596  1.00  0.00     0.093 A 
ATOM      8  C   UNL     1      22.675  59.073  85.855  1.00  0.00     0.123 A 
ATOM      9  C   UNL     1      23.169  60.201  86.513  1.00  0.00     0.094 A 
ATOM     10  C   UNL     1      23.226  60.235  87.910  1.00  0.00     0.146 A 
ATOM     11  O   UNL     1      23.705  61.320  88.509  1.00  0.00    -0.452 OA
ENDROOT
BRANCH   1  12
ATOM     12  C   UNL     1      24.366  62.698  90.375  1.00  0.00     0.025 A 
ATOM     13  C   UNL     1      25.752  62.894  90.474  1.00  0.00     0.016 A 
ATOM     14  C   UNL     1      26.260  64.097  90.969  1.00  0.00     0.051 A 
ATOM     15  C   UNL     1      25.401  65.129  91.361  1.00  0.00     0.157 A 
ATOM     16  C   UNL     1      23.501  63.739  90.746  1.00  0.00     0.062 A 
ATOM     17  C   UNL     1      24.002  64.949  91.244  1.00  0.00     0.158 A 
BRANCH  15  18
ATOM     18  O   UNL     1      25.972  66.304  91.852  1.00  0.00    -0.504 OA
ATOM     19  H   UNL     1      25.941  66.586  92.821  1.00  0.00     0.293 HD
ENDBRANCH  15  18
BRANCH  17  20
ATOM     20  O   UNL     1      23.082  65.936  91.606  1.00  0.00    -0.504 OA
ATOM     21  H   UNL     1      23.006  66.832  91.148  1.00  0.00     0.293 HD
ENDBRANCH  17  20
ENDBRANCH   1  12
BRANCH   2  22
ATOM     22  O   UNL     1      23.394  60.538  92.054  1.00  0.00    -0.502 OA
ATOM     23  H   UNL     1      22.876  61.261  92.539  1.00  0.00     0.293 HD
ENDBRANCH   2  22
BRANCH   6  24
ATOM     24  O   UNL     1      21.833  56.874  88.710  1.00  0.00    -0.507 OA
ATOM     25  H   UNL     1      20.969  56.892  89.240  1.00  0.00     0.293 HD
ENDBRANCH   6  24
BRANCH   8  26
ATOM     26  O   UNL     1      22.628  59.057  84.463  1.00  0.00    -0.508 OA
ATOM     27  H   UNL     1      23.472  59.089  83.904  1.00  0.00     0.293 HD
ENDBRANCH   8  26
TORSDOF 6
ENDMDL
MODEL 3
REMARK VINA RESULT:    -6.366      2.017      3.803
REMARK INTER + INTRA:          -7.979
REMARK INTER:                  -7.759
REMARK INTRA:                  -0.220
REMARK UNBOUND:                -0.311
REMARK SMILES O=c1c(O)c(-c2ccc(O)c(O)c2)oc2cc(O)cc(O)c12
REMARK SMILES IDX 5 1 3 2 2 3 1 4 22 5 20 6 19 7 17 8 16 9 15 10 14 11 6 12
REMARK SMILES IDX 7 13 8 14 9 15 13 16 11 17 10 18 12 20 4 22 21 24 18 26
REMARK H PARENT 10 19 12 21 4 23 21 25 18 27
REMARK Flexibility Score: inf
ROOT
ATOM      1  C   UNL     1      23.189  60.496  90.184  1.00  0.00     0.180 A 
ATOM      2  C   UNL     1      22.990  59.450  91.104  1.00  0.00     0.208 A 
ATOM      3  C   UNL     1      22.603  58.188  90.625  1.00  0.00     0.238 A 
ATOM      4  O   UNL     1      22.433  57.240  91.438  1.00  0.00    -0.285 OA
ATOM      5  C   UNL     1      22.402  58.001  89.242  1.00  0.00     0.111 A 
ATOM      6  C   UNL     1      22.009  56.764  88.677  1.00  0.00     0.134 A 
ATOM      7  C   UNL     1      21.820  56.660  87.291  1.00  0.00     0.093 A 
ATOM      8  C   UNL     1      22.017  57.768  86.460  1.00  0.00     0.123 A 
ATOM      9  C   UNL     1      22.407  58.990  87.012  1.00  0.00     0.094 A 
ATOM     10  C   UNL     1      22.601  59.113  88.391  1.00  0.00     0.146 A 
ATOM     11  O   UNL     1      22.975  60.287  88.888  1.00  0.00    -0.452 OA
ENDROOT
BRANCH   1  12
ATOM     12  C   UNL     1      23.615  61.849  90.610  1.00  0.00     0.025 A 
ATOM     13  C   UNL     1      22.755  62.693  91.331  1.00  0.00     0.016 A 
ATOM     14  C   UNL     1      23.187  63.955  91.742  1.00  0.00     0.051 A 
ATOM     15  C   UNL     1      24.484  64.395  91.456  1.00  0.00     0.157 A 
ATOM     16  C   UNL     1      24.923  62.279  90.340  1.00  0.00     0.062 A 
ATOM     17  C   UNL     1      25.365  63.544  90.748  1.00  0.00     0.158 A 
BRANCH  15  18
ATOM     18  O   UNL     1      24.852  65.670  91.890  1.00  0.00    -0.504 OA
ATOM     19  H   UNL     1      25.542  65.846  92.606  1.00  0.00     0.293 HD
ENDBRANCH  15  18
BRANCH  17  20
ATOM     20  O   UNL     1      26.676  63.909  90.434  1.00  0.00    -0.504 OA
ATOM     21  H   UNL     1      27.298  64.385  91.071  1.00  0.00     0.293 HD
ENDBRANCH  17  20
ENDBRANCH   1  12
BRANCH   2  22
ATOM     22  O   UNL     1      23.147  59.674  92.475  1.00  0.00    -0.502 OA
ATOM     23  H   UNL     1      23.508  58.966  93.103  1.00  0.00     0.293 HD
ENDBRANCH   2  22
BRANCH   6  24
ATOM     24  O   UNL     1      21.803  55.640  89.480  1.00  0.00    -0.507 OA
ATOM     25  H   UNL     1      22.390  55.444  90.283  1.00  0.00     0.293 HD
ENDBRANCH   6  24
BRANCH   8  26
ATOM     26  O   UNL     1      21.830  57.666  85.083  1.00  0.00    -0.508 OA
ATOM     27  H   UNL     1      21.136  58.226  84.601  1.00  0.00     0.293 HD
ENDBRANCH   8  26
TORSDOF 6
ENDMDL
MODEL 4
REMARK VINA RESULT:    -6.354      2.956      7.406
REMARK INTER + INTRA:          -7.965
REMARK INTER:                  -7.839
REMARK INTRA:                  -0.127
REMARK UNBOUND:                -0.311
REMARK SMILES O=c1c(O)c(-c2ccc(O)c(O)c2)oc2cc(O)cc(O)c12
REMARK SMILES IDX 5 1 3 2 2 3 1 4 22 5 20 6 19 7 17 8 16 9 15 10 14 11 6 12
REMARK SMILES IDX 7 13 8 14 9 15 13 16 11 17 10 18 12 20 4 22 21 24 18 26
REMARK H PARENT 10 19 12 21 4 23 21 25 18 27
REMARK Flexibility Score: inf
ROOT
ATOM      1  C   UNL     1      23.196  60.266  88.155  1.00  0.00     0.180 A 
ATOM      2  C   UNL     1      23.219  59.951  89.527  1.00  0.00     0.208 A 
ATOM      3  C   UNL     1      23.150  60.994  90.464  1.00  0.00     0.238 A 
ATOM      4  O   UNL     1      23.158  60.723  91.696  1.00  0.00    -0.285 OA
ATOM      5  C   UNL     1      23.080  62.328  90.017  1.00  0.00     0.111 A 
ATOM      6  C   UNL     1      23.011  63.437  90.895  1.00  0.00     0.134 A 
ATOM      7  C   UNL     1      22.953  64.737  90.371  1.00  0.00     0.093 A 
ATOM      8  C   UNL     1      22.962  64.950  88.988  1.00  0.00     0.123 A 
ATOM      9  C   UNL     1      23.029  63.860  88.118  1.00  0.00     0.094 A 
ATOM     10  C   UNL     1      23.086  62.556  88.621  1.00  0.00     0.146 A 
ATOM     11  O   UNL     1      23.145  61.538  87.770  1.00  0.00    -0.452 OA
ENDROOT
BRANCH   1  12
ATOM     12  C   UNL     1      23.247  59.221  87.106  1.00  0.00     0.025 A 
ATOM     13  C   UNL     1      22.275  58.210  87.035  1.00  0.00     0.016 A 
ATOM     14  C   UNL     1      22.330  57.250  86.023  1.00  0.00     0.051 A 
ATOM     15  C   UNL     1      23.343  57.286  85.058  1.00  0.00     0.157 A 
ATOM     16  C   UNL     1      24.250  59.273  86.127  1.00  0.00     0.062 A 
ATOM     17  C   UNL     1      24.314  58.314  85.109  1.00  0.00     0.158 A 
BRANCH  15  18
ATOM     18  O   UNL     1      23.344  56.293  84.076  1.00  0.00    -0.504 OA
ATOM     19  H   UNL     1      23.119  55.325  84.251  1.00  0.00     0.293 HD
ENDBRANCH  15  18
BRANCH  17  20
ATOM     20  O   UNL     1      25.348  58.420  84.176  1.00  0.00    -0.504 OA
ATOM     21  H   UNL     1      26.065  57.722  84.046  1.00  0.00     0.293 HD
ENDBRANCH  17  20
ENDBRANCH   1  12
BRANCH   2  22
ATOM     22  O   UNL     1      23.339  58.623  89.945  1.00  0.00    -0.502 OA
ATOM     23  H   UNL     1      24.040  57.996  89.569  1.00  0.00     0.293 HD
ENDBRANCH   2  22
BRANCH   6  24
ATOM     24  O   UNL     1      23.001  63.258  92.279  1.00  0.00    -0.507 OA
ATOM     25  H   UNL     1      23.852  63.085  92.801  1.00  0.00     0.293 HD
ENDBRANCH   6  24
BRANCH   8  26
ATOM     26  O   UNL     1      22.906  66.240  88.467  1.00  0.00    -0.508 OA
ATOM     27  H   UNL     1      22.146  66.535  87.865  1.00  0.00     0.293 HD
ENDBRANCH   8  26
TORSDOF 6
ENDMDL
MODEL 5
REMARK VINA RESULT:    -6.152      2.703      4.192
REMARK INTER + INTRA:          -7.722
REMARK INTER:                  -7.443
REMARK INTRA:                  -0.279
REMARK UNBOUND:                -0.311
REMARK SMILES O=c1c(O)c(-c2ccc(O)c(O)c2)oc2cc(O)cc(O)c12
REMARK SMILES IDX 5 1 3 2 2 3 1 4 22 5 20 6 19 7 17 8 16 9 15 10 14 11 6 12
REMARK SMILES IDX 7 13 8 14 9 15 13 16 11 17 10 18 12 20 4 22 21 24 18 26
REMARK H PARENT 10 19 12 21 4 23 21 25 18 27
REMARK Flexibility Score: inf
ROOT
ATOM      1  C   UNL     1      23.066  60.891  88.640  1.00  0.00     0.180 A 
ATOM      2  C   UNL     1      22.047  60.023  89.074  1.00  0.00     0.208 A 
ATOM      3  C   UNL     1      21.797  58.850  88.345  1.00  0.00     0.238 A 
ATOM      4  O   UNL     1      20.894  58.059  88.731  1.00  0.00    -0.285 OA
ATOM      5  C   UNL     1      22.553  58.576  87.187  1.00  0.00     0.111 A 
ATOM      6  C   UNL     1      22.363  57.418  86.394  1.00  0.00     0.134 A 
ATOM      7  C   UNL     1      23.151  57.222  85.250  1.00  0.00     0.093 A 
ATOM      8  C   UNL     1      24.124  58.159  84.884  1.00  0.00     0.123 A 
ATOM      9  C   UNL     1      24.316  59.301  85.664  1.00  0.00     0.094 A 
ATOM     10  C   UNL     1      23.541  59.514  86.809  1.00  0.00     0.146 A 
ATOM     11  O   UNL     1      23.749  60.608  87.534  1.00  0.00    -0.452 OA
ENDROOT
BRANCH   1  12
ATOM     12  C   UNL     1      23.402  62.138  89.365  1.00  0.00     0.025 A 
ATOM     13  C   UNL     1      24.111  62.110  90.576  1.00  0.00     0.016 A 
ATOM     14  C   UNL     1      24.437  63.299  91.230  1.00  0.00     0.051 A 
ATOM     15  C   UNL     1      24.075  64.537  90.686  1.00  0.00     0.157 A 
ATOM     16  C   UNL     1      23.057  63.378  88.806  1.00  0.00     0.062 A 
ATOM     17  C   UNL     1      23.379  64.576  89.455  1.00  0.00     0.158 A 
BRANCH  15  18
ATOM     18  O   UNL     1      24.426  65.689  91.393  1.00  0.00    -0.504 OA
ATOM     19  H   UNL     1      24.694  66.559  90.957  1.00  0.00     0.293 HD
ENDBRANCH  15  18
BRANCH  17  20
ATOM     20  O   UNL     1      22.992  65.772  88.846  1.00  0.00    -0.504 OA
ATOM     21  H   UNL     1      22.332  66.422  89.246  1.00  0.00     0.293 HD
ENDBRANCH  17  20
ENDBRANCH   1  12
BRANCH   2  22
ATOM     22  O   UNL     1      21.278  60.343  90.197  1.00  0.00    -0.502 OA
ATOM     23  H   UNL     1      20.266  60.296  90.193  1.00  0.00     0.293 HD
ENDBRANCH   2  22
BRANCH   6  24
ATOM     24  O   UNL     1      21.400  56.466  86.732  1.00  0.00    -0.507 OA
ATOM     25  H   UNL     1      20.466  56.490  86.340  1.00  0.00     0.293 HD
ENDBRANCH   6  24
BRANCH   8  26
ATOM     26  O   UNL     1      24.905  57.965  83.748  1.00  0.00    -0.508 OA
ATOM     27  H   UNL     1      25.436  57.113  83.610  1.00  0.00     0.293 HD
ENDBRANCH   8  26
TORSDOF 6
ENDMDL
MODEL 6
REMARK VINA RESULT:    -6.004      3.244      5.256
REMARK INTER + INTRA:          -7.543
REMARK INTER:                  -7.216
REMARK INTRA:                  -0.328
REMARK UNBOUND:                -0.311
REMARK SMILES O=c1c(O)c(-c2ccc(O)c(O)c2)oc2cc(O)cc(O)c12
REMARK SMILES IDX 5 1 3 2 2 3 1 4 22 5 20 6 19 7 17 8 16 9 15 10 14 11 6 12
REMARK SMILES IDX 7 13 8 14 9 15 13 16 11 17 10 18 12 20 4 22 21 24 18 26
REMARK H PARENT 10 19 12 21 4 23 21 25 18 27
REMARK Flexibility Score: inf
ROOT
ATOM      1  C   UNL     1      22.586  59.494  88.378  1.00  0.00     0.180 A 
ATOM      2  C   UNL     1      21.855  58.330  88.680  1.00  0.00     0.208 A 
ATOM      3  C   UNL     1      21.797  57.298  87.731  1.00  0.00     0.238 A 
ATOM      4  O   UNL     1      21.155  56.246  87.995  1.00  0.00    -0.285 OA
ATOM      5  C   UNL     1      22.452  57.455  86.492  1.00  0.00     0.111 A 
ATOM      6  C   UNL     1      22.440  56.465  85.479  1.00  0.00     0.134 A 
ATOM      7  C   UNL     1      23.108  56.701  84.269  1.00  0.00     0.093 A 
ATOM      8  C   UNL     1      23.787  57.905  84.051  1.00  0.00     0.123 A 
ATOM      9  C   UNL     1      23.802  58.884  85.047  1.00  0.00     0.094 A 
ATOM     10  C   UNL     1      23.143  58.667  86.262  1.00  0.00     0.146 A 
ATOM     11  O   UNL     1      23.178  59.614  87.193  1.00  0.00    -0.452 OA
ENDROOT
BRANCH   1  12
ATOM     12  C   UNL     1      22.709  60.618  89.334  1.00  0.00     0.025 A 
ATOM     13  C   UNL     1      23.683  60.614  90.345  1.00  0.00     0.016 A 
ATOM     14  C   UNL     1      23.796  61.695  91.221  1.00  0.00     0.051 A 
ATOM     15  C   UNL     1      22.952  62.805  91.099  1.00  0.00     0.157 A 
ATOM     16  C   UNL     1      21.876  61.739  89.196  1.00  0.00     0.062 A 
ATOM     17  C   UNL     1      21.981  62.828  90.070  1.00  0.00     0.158 A 
BRANCH  15  18
ATOM     18  O   UNL     1      23.113  63.851  92.009  1.00  0.00    -0.504 OA
ATOM     19  H   UNL     1      23.898  64.486  92.007  1.00  0.00     0.293 HD
ENDBRANCH  15  18
BRANCH  17  20
ATOM     20  O   UNL     1      21.110  63.903  89.879  1.00  0.00    -0.504 OA
ATOM     21  H   UNL     1      21.412  64.844  89.673  1.00  0.00     0.293 HD
ENDBRANCH  17  20
ENDBRANCH   1  12
BRANCH   2  22
ATOM     22  O   UNL     1      21.174  58.220  89.896  1.00  0.00    -0.502 OA
ATOM     23  H   UNL     1      20.510  58.917  90.212  1.00  0.00     0.293 HD
ENDBRANCH   2  22
BRANCH   6  24
ATOM     24  O   UNL     1      21.771  55.254  85.666  1.00  0.00    -0.507 OA
ATOM     25  H   UNL     1      21.810  54.754  86.546  1.00  0.00     0.293 HD
ENDBRANCH   6  24
BRANCH   8  26
ATOM     26  O   UNL     1      24.450  58.140  82.849  1.00  0.00    -0.508 OA
ATOM     27  H   UNL     1      24.041  57.881  81.959  1.00  0.00     0.293 HD
ENDBRANCH   8  26
TORSDOF 6
ENDMDL
MODEL 7
REMARK VINA RESULT:    -5.986      1.638      6.747
REMARK INTER + INTRA:          -7.522
REMARK INTER:                  -7.425
REMARK INTRA:                  -0.097
REMARK UNBOUND:                -0.311
REMARK SMILES O=c1c(O)c(-c2ccc(O)c(O)c2)oc2cc(O)cc(O)c12
REMARK SMILES IDX 5 1 3 2 2 3 1 4 22 5 20 6 19 7 17 8 16 9 15 10 14 11 6 12
REMARK SMILES IDX 7 13 8 14 9 15 13 16 11 17 10 18 12 20 4 22 21 24 18 26
REMARK H PARENT 10 19 12 21 4 23 21 25 18 27
REMARK Flexibility Score: inf
ROOT
ATOM      1  C   UNL     1      22.722  61.436  89.519  1.00  0.00     0.180 A 
ATOM      2  C   UNL     1      21.978  62.252  88.647  1.00  0.00     0.208 A 
ATOM      3  C   UNL     1      22.260  63.626  88.594  1.00  0.00     0.238 A 
ATOM      4  O   UNL     1      21.608  64.364  87.808  1.00  0.00    -0.285 OA
ATOM      5  C   UNL     1      23.263  64.162  89.428  1.00  0.00     0.111 A 
ATOM      6  C   UNL     1      23.607  65.536  89.440  1.00  0.00     0.134 A 
ATOM      7  C   UNL     1      24.611  65.994  90.305  1.00  0.00     0.093 A 
ATOM      8  C   UNL     1      25.278  65.106  91.158  1.00  0.00     0.123 A 
ATOM      9  C   UNL     1      24.943  63.751  91.148  1.00  0.00     0.094 A 
ATOM     10  C   UNL     1      23.945  63.275  90.292  1.00  0.00     0.146 A 
ATOM     11  O   UNL     1      23.651  61.979  90.301  1.00  0.00    -0.452 OA
ENDROOT
BRANCH   1  12
ATOM     12  C   UNL     1      22.497  59.975  89.617  1.00  0.00     0.025 A 
ATOM     13  C   UNL     1      22.576  59.147  88.487  1.00  0.00     0.016 A 
ATOM     14  C   UNL     1      22.383  57.769  88.607  1.00  0.00     0.051 A 
ATOM     15  C   UNL     1      22.121  57.190  89.854  1.00  0.00     0.157 A 
ATOM     16  C   UNL     1      22.256  59.395  90.872  1.00  0.00     0.062 A 
ATOM     17  C   UNL     1      22.060  58.015  91.002  1.00  0.00     0.158 A 
BRANCH  15  18
ATOM     18  O   UNL     1      21.932  55.808  89.905  1.00  0.00    -0.504 OA
ATOM     19  H   UNL     1      22.682  55.139  90.006  1.00  0.00     0.293 HD
ENDBRANCH  15  18
BRANCH  17  20
ATOM     20  O   UNL     1      21.813  57.509  92.281  1.00  0.00    -0.504 OA
ATOM     21  H   UNL     1      21.311  58.011  92.999  1.00  0.00     0.293 HD
ENDBRANCH  17  20
ENDBRANCH   1  12
BRANCH   2  22
ATOM     22  O   UNL     1      20.955  61.703  87.867  1.00  0.00    -0.502 OA
ATOM     23  H   UNL     1      20.663  62.114  86.989  1.00  0.00     0.293 HD
ENDBRANCH   2  22
BRANCH   6  24
ATOM     24  O   UNL     1      22.960  66.446  88.602  1.00  0.00    -0.507 OA
ATOM     25  H   UNL     1      22.412  67.214  88.971  1.00  0.00     0.293 HD
ENDBRANCH   6  24
BRANCH   8  26
ATOM     26  O   UNL     1      26.275  65.561  92.018  1.00  0.00    -0.508 OA
ATOM     27  H   UNL     1      26.806  66.399  91.816  1.00  0.00     0.293 HD
ENDBRANCH   8  26
TORSDOF 6
ENDMDL
MODEL 8
REMARK VINA RESULT:    -5.793      3.875      9.049
REMARK INTER + INTRA:          -7.290
REMARK INTER:                  -6.964
REMARK INTRA:                  -0.325
REMARK UNBOUND:                -0.311
REMARK SMILES O=c1c(O)c(-c2ccc(O)c(O)c2)oc2cc(O)cc(O)c12
REMARK SMILES IDX 5 1 3 2 2 3 1 4 22 5 20 6 19 7 17 8 16 9 15 10 14 11 6 12
REMARK SMILES IDX 7 13 8 14 9 15 13 16 11 17 10 18 12 20 4 22 21 24 18 26
REMARK H PARENT 10 19 12 21 4 23 21 25 18 27
REMARK Flexibility Score: inf
ROOT
ATOM      1  C   UNL     1      21.521  55.972  88.906  1.00  0.00     0.180 A 
ATOM      2  C   UNL     1      20.832  57.093  88.406  1.00  0.00     0.208 A 
ATOM      3  C   UNL     1      21.231  58.374  88.817  1.00  0.00     0.238 A 
ATOM      4  O   UNL     1      20.629  59.386  88.367  1.00  0.00    -0.285 OA
ATOM      5  C   UNL     1      22.293  58.512  89.734  1.00  0.00     0.111 A 
ATOM      6  C   UNL     1      22.754  59.766  90.202  1.00  0.00     0.134 A 
ATOM      7  C   UNL     1      23.812  59.819  91.122  1.00  0.00     0.093 A 
ATOM      8  C   UNL     1      24.417  58.645  91.582  1.00  0.00     0.123 A 
ATOM      9  C   UNL     1      23.966  57.405  91.123  1.00  0.00     0.094 A 
ATOM     10  C   UNL     1      22.914  57.332  90.204  1.00  0.00     0.146 A 
ATOM     11  O   UNL     1      22.509  56.139  89.781  1.00  0.00    -0.452 OA
ENDROOT
BRANCH   1  12
ATOM     12  C   UNL     1      21.172  54.589  88.506  1.00  0.00     0.025 A 
ATOM     13  C   UNL     1      20.208  53.847  89.206  1.00  0.00     0.016 A 
ATOM     14  C   UNL     1      19.879  52.554  88.796  1.00  0.00     0.051 A 
ATOM     15  C   UNL     1      20.492  51.981  87.676  1.00  0.00     0.157 A 
ATOM     16  C   UNL     1      21.773  54.027  87.369  1.00  0.00     0.062 A 
ATOM     17  C   UNL     1      21.450  52.730  86.951  1.00  0.00     0.158 A 
BRANCH  15  18
ATOM     18  O   UNL     1      20.123  50.682  87.322  1.00  0.00    -0.504 OA
ATOM     19  H   UNL     1      20.645  49.857  87.576  1.00  0.00     0.293 HD
ENDBRANCH  15  18
BRANCH  17  20
ATOM     20  O   UNL     1      22.097  52.230  85.818  1.00  0.00    -0.504 OA
ATOM     21  H   UNL     1      22.888  52.675  85.378  1.00  0.00     0.293 HD
ENDBRANCH  17  20
ENDBRANCH   1  12
BRANCH   2  22
ATOM     22  O   UNL     1      19.750  56.927  87.537  1.00  0.00    -0.502 OA
ATOM     23  H   UNL     1      19.163  56.102  87.552  1.00  0.00     0.293 HD
ENDBRANCH   2  22
BRANCH   6  24
ATOM     24  O   UNL     1      22.171  60.956  89.762  1.00  0.00    -0.507 OA
ATOM     25  H   UNL     1      22.716  61.801  89.632  1.00  0.00     0.293 HD
ENDBRANCH   6  24
BRANCH   8  26
ATOM     26  O   UNL     1      25.466  58.697  92.496  1.00  0.00    -0.508 OA
ATOM     27  H   UNL     1      25.402  59.246  93.345  1.00  0.00     0.293 HD
ENDBRANCH   8  26
TORSDOF 6
ENDMDL
MODEL 9
REMARK VINA RESULT:    -5.743      3.604      7.638
REMARK INTER + INTRA:          -7.229
REMARK INTER:                  -6.999
REMARK INTRA:                  -0.230
REMARK UNBOUND:                -0.311
REMARK SMILES O=c1c(O)c(-c2ccc(O)c(O)c2)oc2cc(O)cc(O)c12
REMARK SMILES IDX 5 1 3 2 2 3 1 4 22 5 20 6 19 7 17 8 16 9 15 10 14 11 6 12
REMARK SMILES IDX 7 13 8 14 9 15 13 16 11 17 10 18 12 20 4 22 21 24 18 26
REMARK H PARENT 10 19 12 21 4 23 21 25 18 27
REMARK Flexibility Score: inf
ROOT
ATOM      1  C   UNL     1      22.529  58.311  87.479  1.00  0.00     0.180 A 
ATOM      2  C   UNL     1      22.244  57.359  88.477  1.00  0.00     0.208 A 
ATOM      3  C   UNL     1      22.405  57.719  89.824  1.00  0.00     0.238 A 
ATOM      4  O   UNL     1      22.142  56.879  90.727  1.00  0.00    -0.285 OA
ATOM      5  C   UNL     1      22.866  59.011  90.149  1.00  0.00     0.111 A 
ATOM      6  C   UNL     1      23.058  59.452  91.481  1.00  0.00     0.134 A 
ATOM      7  C   UNL     1      23.529  60.751  91.723  1.00  0.00     0.093 A 
ATOM      8  C   UNL     1      23.810  61.617  90.660  1.00  0.00     0.123 A 
ATOM      9  C   UNL     1      23.621  61.187  89.345  1.00  0.00     0.094 A 
ATOM     10  C   UNL     1      23.151  59.896  89.084  1.00  0.00     0.146 A 
ATOM     11  O   UNL     1      22.976  59.516  87.823  1.00  0.00    -0.452 OA
ENDROOT
BRANCH   1  12
ATOM     12  C   UNL     1      22.366  58.014  86.038  1.00  0.00     0.025 A 
ATOM     13  C   UNL     1      21.096  57.826  85.469  1.00  0.00     0.016 A 
ATOM     14  C   UNL     1      20.966  57.571  84.103  1.00  0.00     0.051 A 
ATOM     15  C   UNL     1      22.093  57.510  83.276  1.00  0.00     0.157 A 
ATOM     16  C   UNL     1      23.496  57.976  85.207  1.00  0.00     0.062 A 
ATOM     17  C   UNL     1      23.376  57.719  83.836  1.00  0.00     0.158 A 
BRANCH  15  18
ATOM     18  O   UNL     1      21.894  57.245  81.920  1.00  0.00    -0.504 OA
ATOM     19  H   UNL     1      21.241  56.561  81.568  1.00  0.00     0.293 HD
ENDBRANCH  15  18
BRANCH  17  20
ATOM     20  O   UNL     1      24.546  57.684  83.074  1.00  0.00    -0.504 OA
ATOM     21  H   UNL     1      24.931  58.484  82.593  1.00  0.00     0.293 HD
ENDBRANCH  17  20
ENDBRANCH   1  12
BRANCH   2  22
ATOM     22  O   UNL     1      21.836  56.069  88.126  1.00  0.00    -0.502 OA
ATOM     23  H   UNL     1      22.022  55.670  87.214  1.00  0.00     0.293 HD
ENDBRANCH   2  22
BRANCH   6  24
ATOM     24  O   UNL     1      22.788  58.611  92.562  1.00  0.00    -0.507 OA
ATOM     25  H   UNL     1      23.480  58.424  93.279  1.00  0.00     0.293 HD
ENDBRANCH   6  24
BRANCH   8  26
ATOM     26  O   UNL     1      24.278  62.907  90.899  1.00  0.00    -0.508 OA
ATOM     27  H   UNL     1      25.232  63.077  91.197  1.00  0.00     0.293 HD
ENDBRANCH   8  26
TORSDOF 6
ENDMDL
