MODEL 1
REMARK VINA RESULT:    -4.640      0.000      0.000
REMARK INTER + INTRA:          -6.193
REMARK INTER:                  -5.996
REMARK INTRA:                  -0.197
REMARK UNBOUND:                -0.197
REMARK SMILES CCCCCCC(=O)[O-]
REMARK SMILES IDX 5 1 6 2 7 3 8 4 9 5 4 6 3 7 2 8 1 9
REMARK H PARENT
REMARK Flexibility Score: inf
ROOT
ATOM      1  C   UNL     1       9.326 -12.250  26.361  1.00  0.00     0.006 C 
ENDROOT
BRANCH   1   2
ATOM      2  C   UNL     1       8.989 -11.537  25.048  1.00  0.00     0.053 C 
BRANCH   2   3
ATOM      3  C   UNL     1       9.745 -12.147  23.910  1.00  0.00     0.041 C 
ATOM      4  O   UNL     1       9.418 -11.889  22.722  1.00  0.00    -0.550 OA
ATOM      5  O   UNL     1      10.780 -13.039  24.162  1.00  0.00    -0.550 OA
ENDBRANCH   2   3
ENDBRANCH   1   2
BRANCH   1   6
ATOM      6  C   UNL     1       8.265 -13.306  26.701  1.00  0.00     0.000 C 
BRANCH   6   7
ATOM      7  C   UNL     1       7.940 -13.358  28.202  1.00  0.00    -0.000 C 
BRANCH   7   8
ATOM      8  C   UNL     1       8.645 -12.249  28.998  1.00  0.00    -0.003 C 
ATOM      9  C   UNL     1       7.961 -12.017  30.342  1.00  0.00     0.004 C 
ENDBRANCH   7   8
ENDBRANCH   6   7
ENDBRANCH   1   6
TORSDOF 5
ENDMDL
MODEL 2
REMARK VINA RESULT:    -4.588      1.394      1.682
REMARK INTER + INTRA:          -6.126
REMARK INTER:                  -5.755
REMARK INTRA:                  -0.371
REMARK UNBOUND:                -0.197
REMARK SMILES CCCCCCC(=O)[O-]
REMARK SMILES IDX 5 1 6 2 7 3 8 4 9 5 4 6 3 7 2 8 1 9
REMARK H PARENT
REMARK Flexibility Score: inf
ROOT
ATOM      1  C   UNL     1       9.018 -11.649  25.659  1.00  0.00     0.006 C 
ENDROOT
BRANCH   1   2
ATOM      2  C   UNL     1       9.881 -11.764  24.399  1.00  0.00     0.053 C 
BRANCH   2   3
ATOM      3  C   UNL     1      11.045 -12.672  24.642  1.00  0.00     0.041 C 
ATOM      4  O   UNL     1      11.350 -13.551  23.793  1.00  0.00    -0.550 OA
ATOM      5  O   UNL     1      11.763 -12.581  25.828  1.00  0.00    -0.550 OA
ENDBRANCH   2   3
ENDBRANCH   1   2
BRANCH   1   6
ATOM      6  C   UNL     1       8.265 -12.959  25.931  1.00  0.00     0.000 C 
BRANCH   6   7
ATOM      7  C   UNL     1       8.261 -13.342  27.420  1.00  0.00    -0.000 C 
BRANCH   7   8
ATOM      8  C   UNL     1       9.039 -12.342  28.289  1.00  0.00    -0.003 C 
ATOM      9  C   UNL     1      10.090 -13.053  29.137  1.00  0.00     0.004 C 
ENDBRANCH   7   8
ENDBRANCH   6   7
ENDBRANCH   1   6
TORSDOF 5
ENDMDL
MODEL 3
REMARK VINA RESULT:    -4.415      1.979      2.294
REMARK INTER + INTRA:          -5.903
REMARK INTER:                  -5.775
REMARK INTRA:                  -0.128
REMARK UNBOUND:                -0.197
REMARK SMILES CCCCCCC(=O)[O-]
REMARK SMILES IDX 5 1 6 2 7 3 8 4 9 5 4 6 3 7 2 8 1 9
REMARK H PARENT
REMARK Flexibility Score: inf
ROOT
ATOM      1  C   UNL     1       9.592 -12.495  27.092  1.00  0.00     0.006 C 
ENDROOT
BRANCH   1   2
ATOM      2  C   UNL     1       8.650 -12.448  25.886  1.00  0.00     0.053 C 
BRANCH   2   3
ATOM      3  C   UNL     1       9.228 -11.596  24.801  1.00  0.00     0.041 C 
ATOM      4  O   UNL     1       9.267 -10.344  24.931  1.00  0.00    -0.550 OA
ATOM      5  O   UNL     1       9.679 -12.180  23.623  1.00  0.00    -0.550 OA
ENDBRANCH   2   3
ENDBRANCH   1   2
BRANCH   1   6
ATOM      6  C   UNL     1       8.829 -12.868  28.372  1.00  0.00     0.000 C 
BRANCH   6   7
ATOM      7  C   UNL     1       9.716 -12.818  29.626  1.00  0.00    -0.000 C 
BRANCH   7   8
ATOM      8  C   UNL     1      11.047 -13.563  29.439  1.00  0.00    -0.003 C 
ATOM      9  C   UNL     1      11.803 -13.676  30.759  1.00  0.00     0.004 C 
ENDBRANCH   7   8
ENDBRANCH   6   7
ENDBRANCH   1   6
TORSDOF 5
ENDMDL
MODEL 4
REMARK VINA RESULT:    -4.345      3.704      5.468
REMARK INTER + INTRA:          -5.812
REMARK INTER:                  -5.641
REMARK INTRA:                  -0.171
REMARK UNBOUND:                -0.197
REMARK SMILES CCCCCCC(=O)[O-]
REMARK SMILES IDX 5 1 6 2 7 3 8 4 9 5 4 6 3 7 2 8 1 9
REMARK H PARENT
REMARK Flexibility Score: inf
ROOT
ATOM      1  C   UNL     1       9.038 -12.685  28.475  1.00  0.00     0.006 C 
ENDROOT
BRANCH   1   2
ATOM      2  C   UNL     1       8.141 -11.990  29.504  1.00  0.00     0.053 C 
BRANCH   2   3
ATOM      3  C   UNL     1       8.736 -12.090  30.873  1.00  0.00     0.041 C 
ATOM      4  O   UNL     1       9.930 -12.464  31.019  1.00  0.00    -0.550 OA
ATOM      5  O   UNL     1       7.958 -11.818  31.991  1.00  0.00    -0.550 OA
ENDBRANCH   2   3
ENDBRANCH   1   2
BRANCH   1   6
ATOM      6  C   UNL     1       8.197 -13.388  27.399  1.00  0.00     0.000 C 
BRANCH   6   7
ATOM      7  C   UNL     1       8.628 -13.012  25.972  1.00  0.00    -0.000 C 
BRANCH   7   8
ATOM      8  C   UNL     1       9.154 -11.572  25.874  1.00  0.00    -0.003 C 
ATOM      9  C   UNL     1       9.188 -11.097  24.424  1.00  0.00     0.004 C 
ENDBRANCH   7   8
ENDBRANCH   6   7
ENDBRANCH   1   6
TORSDOF 5
ENDMDL
MODEL 5
REMARK VINA RESULT:    -4.202      3.231      5.015
REMARK INTER + INTRA:          -5.627
REMARK INTER:                  -5.461
REMARK INTRA:                  -0.166
REMARK UNBOUND:                -0.197
REMARK SMILES CCCCCCC(=O)[O-]
REMARK SMILES IDX 5 1 6 2 7 3 8 4 9 5 4 6 3 7 2 8 1 9
REMARK H PARENT
REMARK Flexibility Score: inf
ROOT
ATOM      1  C   UNL     1       9.784 -12.669  28.130  1.00  0.00     0.006 C 
ENDROOT
BRANCH   1   2
ATOM      2  C   UNL     1       9.892 -13.113  29.592  1.00  0.00     0.053 C 
BRANCH   2   3
ATOM      3  C   UNL     1      11.306 -13.468  29.929  1.00  0.00     0.041 C 
ATOM      4  O   UNL     1      12.125 -13.745  29.014  1.00  0.00    -0.550 OA
ATOM      5  O   UNL     1      11.706 -13.542  31.258  1.00  0.00    -0.550 OA
ENDBRANCH   2   3
ENDBRANCH   1   2
BRANCH   1   6
ATOM      6  C   UNL     1       8.465 -13.149  27.506  1.00  0.00     0.000 C 
BRANCH   6   7
ATOM      7  C   UNL     1       8.429 -12.962  25.981  1.00  0.00    -0.000 C 
BRANCH   7   8
ATOM      8  C   UNL     1       8.907 -11.569  25.545  1.00  0.00    -0.003 C 
ATOM      9  C   UNL     1      10.049 -11.669  24.538  1.00  0.00     0.004 C 
ENDBRANCH   7   8
ENDBRANCH   6   7
ENDBRANCH   1   6
TORSDOF 5
ENDMDL
MODEL 6
REMARK VINA RESULT:    -4.168      3.072      5.164
REMARK INTER + INTRA:          -5.583
REMARK INTER:                  -5.402
REMARK INTRA:                  -0.181
REMARK UNBOUND:                -0.197
REMARK SMILES CCCCCCC(=O)[O-]
REMARK SMILES IDX 5 1 6 2 7 3 8 4 9 5 4 6 3 7 2 8 1 9
REMARK H PARENT
REMARK Flexibility Score: inf
ROOT
ATOM      1  C   UNL     1       9.617 -12.339  26.725  1.00  0.00     0.006 C 
ENDROOT
BRANCH   1   2
ATOM      2  C   UNL     1       8.581 -12.928  27.687  1.00  0.00     0.053 C 
BRANCH   2   3
ATOM      3  C   UNL     1       8.905 -12.556  29.100  1.00  0.00     0.041 C 
ATOM      4  O   UNL     1       9.993 -12.924  29.618  1.00  0.00    -0.550 OA
ATOM      5  O   UNL     1       7.985 -11.846  29.861  1.00  0.00    -0.550 OA
ENDBRANCH   2   3
ENDBRANCH   1   2
BRANCH   1   6
ATOM      6  C   UNL     1       8.936 -11.720  25.495  1.00  0.00     0.000 C 
BRANCH   6   7
ATOM      7  C   UNL     1       9.768 -11.882  24.214  1.00  0.00    -0.000 C 
BRANCH   7   8
ATOM      8  C   UNL     1      11.231 -12.253  24.501  1.00  0.00    -0.003 C 
ATOM      9  C   UNL     1      11.643 -13.504  23.731  1.00  0.00     0.004 C 
ENDBRANCH   7   8
ENDBRANCH   6   7
ENDBRANCH   1   6
TORSDOF 5
ENDMDL
MODEL 7
REMARK VINA RESULT:    -4.143      1.406      1.878
REMARK INTER + INTRA:          -5.551
REMARK INTER:                  -5.467
REMARK INTRA:                  -0.084
REMARK UNBOUND:                -0.197
REMARK SMILES CCCCCCC(=O)[O-]
REMARK SMILES IDX 5 1 6 2 7 3 8 4 9 5 4 6 3 7 2 8 1 9
REMARK H PARENT
REMARK Flexibility Score: inf
ROOT
ATOM      1  C   UNL     1       9.687 -12.374  24.533  1.00  0.00     0.006 C 
ENDROOT
BRANCH   1   2
ATOM      2  C   UNL     1       9.385 -11.489  23.320  1.00  0.00     0.053 C 
BRANCH   2   3
ATOM      3  C   UNL     1       9.695 -12.217  22.050  1.00  0.00     0.041 C 
ATOM      4  O   UNL     1       8.866 -12.218  21.102  1.00  0.00    -0.550 OA
ATOM      5  O   UNL     1      10.880 -12.934  21.931  1.00  0.00    -0.550 OA
ENDBRANCH   2   3
ENDBRANCH   1   2
BRANCH   1   6
ATOM      6  C   UNL     1       9.034 -11.807  25.803  1.00  0.00     0.000 C 
BRANCH   6   7
ATOM      7  C   UNL     1       8.787 -12.883  26.872  1.00  0.00    -0.000 C 
BRANCH   7   8
ATOM      8  C   UNL     1       8.881 -12.328  28.302  1.00  0.00    -0.003 C 
ATOM      9  C   UNL     1       9.997 -13.012  29.085  1.00  0.00     0.004 C 
ENDBRANCH   7   8
ENDBRANCH   6   7
ENDBRANCH   1   6
TORSDOF 5
ENDMDL
MODEL 8
REMARK VINA RESULT:    -3.955      2.300      3.509
REMARK INTER + INTRA:          -5.309
REMARK INTER:                  -5.074
REMARK INTRA:                  -0.234
REMARK UNBOUND:                -0.197
REMARK SMILES CCCCCCC(=O)[O-]
REMARK SMILES IDX 5 1 6 2 7 3 8 4 9 5 4 6 3 7 2 8 1 9
REMARK H PARENT
REMARK Flexibility Score: inf
ROOT
ATOM      1  C   UNL     1      10.880 -12.673  24.338  1.00  0.00     0.006 C 
ENDROOT
BRANCH   1   2
ATOM      2  C   UNL     1      12.094 -11.988  24.973  1.00  0.00     0.053 C 
BRANCH   2   3
ATOM      3  C   UNL     1      13.113 -13.003  25.384  1.00  0.00     0.041 C 
ATOM      4  O   UNL     1      13.921 -12.748  26.316  1.00  0.00    -0.550 OA
ATOM      5  O   UNL     1      13.205 -14.212  24.705  1.00  0.00    -0.550 OA
ENDBRANCH   2   3
ENDBRANCH   1   2
BRANCH   1   6
ATOM      6  C   UNL     1       9.710 -11.689  24.188  1.00  0.00     0.000 C 
BRANCH   6   7
ATOM      7  C   UNL     1       9.019 -11.384  25.527  1.00  0.00    -0.000 C 
BRANCH   7   8
ATOM      8  C   UNL     1       8.764 -12.647  26.363  1.00  0.00    -0.003 C 
ATOM      9  C   UNL     1       9.225 -12.454  27.805  1.00  0.00     0.004 C 
ENDBRANCH   7   8
ENDBRANCH   6   7
ENDBRANCH   1   6
TORSDOF 5
ENDMDL
MODEL 9
REMARK VINA RESULT:    -3.927      1.827      2.976
REMARK INTER + INTRA:          -5.272
REMARK INTER:                  -5.112
REMARK INTRA:                  -0.160
REMARK UNBOUND:                -0.197
REMARK SMILES CCCCCCC(=O)[O-]
REMARK SMILES IDX 5 1 6 2 7 3 8 4 9 5 4 6 3 7 2 8 1 9
REMARK H PARENT
REMARK Flexibility Score: inf
ROOT
ATOM      1  C   UNL     1      10.412 -12.481  23.683  1.00  0.00     0.006 C 
ENDROOT
BRANCH   1   2
ATOM      2  C   UNL     1       9.372 -11.784  22.802  1.00  0.00     0.053 C 
BRANCH   2   3
ATOM      3  C   UNL     1       9.439 -12.302  21.400  1.00  0.00     0.041 C 
ATOM      4  O   UNL     1      10.476 -12.887  20.990  1.00  0.00    -0.550 OA
ATOM      5  O   UNL     1       8.376 -12.094  20.530  1.00  0.00    -0.550 OA
ENDBRANCH   2   3
ENDBRANCH   1   2
BRANCH   1   6
ATOM      6  C   UNL     1      10.545 -11.775  25.040  1.00  0.00     0.000 C 
BRANCH   6   7
ATOM      7  C   UNL     1       9.189 -11.563  25.732  1.00  0.00    -0.000 C 
BRANCH   7   8
ATOM      8  C   UNL     1       8.815 -12.723  26.668  1.00  0.00    -0.003 C 
ATOM      9  C   UNL     1       9.453 -12.547  28.043  1.00  0.00     0.004 C 
ENDBRANCH   7   8
ENDBRANCH   6   7
ENDBRANCH   1   6
TORSDOF 5
ENDMDL
