MODEL 1
REMARK VINA RESULT:    -3.634      0.000      0.000
REMARK INTER + INTRA:          -4.014
REMARK INTER:                  -3.847
REMARK INTRA:                  -0.167
REMARK UNBOUND:                -0.167
REMARK SMILES CC(C)[C@@H]1CC[C@H](C)CC1=O
REMARK SMILES IDX 8 1 7 2 6 3 5 4 4 5 10 6 11 7 9 8 2 9 1 10 3 11
REMARK H PARENT
REMARK Flexibility Score: inf
ROOT
ATOM      1  C   UNL     1      -0.875   7.231   2.486  1.00  0.00     0.008 C 
ATOM      2  C   UNL     1      -1.558   8.435   1.817  1.00  0.00    -0.007 C 
ATOM      3  C   UNL     1      -0.631   9.669   1.752  1.00  0.00     0.004 C 
ATOM      4  C   UNL     1       0.533   9.477   0.763  1.00  0.00     0.012 C 
ATOM      5  C   UNL     1       0.027   9.135  -0.658  1.00  0.00     0.058 C 
ATOM      6  C   UNL     1      -0.979   7.999  -0.589  1.00  0.00     0.136 C 
ATOM      7  O   UNL     1      -0.963   7.084  -1.400  1.00  0.00    -0.299 OA
ATOM      8  C   UNL     1      -2.094   8.073   0.419  1.00  0.00     0.079 C 
ENDROOT
BRANCH   5   9
ATOM      9  C   UNL     1       1.181   8.874  -1.679  1.00  0.00    -0.007 C 
ATOM     10  C   UNL     1       1.094   9.812  -2.891  1.00  0.00     0.008 C 
ATOM     11  C   UNL     1       2.585   8.946  -1.055  1.00  0.00     0.008 C 
ENDBRANCH   5   9
TORSDOF 1
ENDMDL
MODEL 2
REMARK VINA RESULT:    -3.365     13.569     14.672
REMARK INTER + INTRA:          -3.729
REMARK INTER:                  -3.572
REMARK INTRA:                  -0.156
REMARK UNBOUND:                -0.167
REMARK SMILES CC(C)[C@@H]1CC[C@H](C)CC1=O
REMARK SMILES IDX 8 1 7 2 6 3 5 4 4 5 10 6 11 7 9 8 2 9 1 10 3 11
REMARK H PARENT
REMARK Flexibility Score: inf
ROOT
ATOM      1  C   UNL     1       2.664  -0.219  -8.892  1.00  0.00     0.008 C 
ATOM      2  C   UNL     1       2.023  -0.671  -7.570  1.00  0.00    -0.007 C 
ATOM      3  C   UNL     1       0.668  -1.378  -7.791  1.00  0.00     0.004 C 
ATOM      4  C   UNL     1       0.825  -2.754  -8.461  1.00  0.00     0.012 C 
ATOM      5  C   UNL     1       1.765  -3.681  -7.654  1.00  0.00     0.058 C 
ATOM      6  C   UNL     1       3.056  -2.950  -7.328  1.00  0.00     0.136 C 
ATOM      7  O   UNL     1       4.143  -3.503  -7.423  1.00  0.00    -0.299 OA
ATOM      8  C   UNL     1       2.982  -1.560  -6.755  1.00  0.00     0.079 C 
ENDROOT
BRANCH   5   9
ATOM      9  C   UNL     1       1.999  -5.068  -8.333  1.00  0.00    -0.007 C 
ATOM     10  C   UNL     1       1.845  -6.225  -7.336  1.00  0.00     0.008 C 
ATOM     11  C   UNL     1       1.108  -5.311  -9.565  1.00  0.00     0.008 C 
ENDBRANCH   5   9
TORSDOF 1
ENDMDL
MODEL 3
REMARK VINA RESULT:    -3.356      2.677      4.479
REMARK INTER + INTRA:          -3.719
REMARK INTER:                  -3.570
REMARK INTRA:                  -0.149
REMARK UNBOUND:                -0.167
REMARK SMILES CC(C)[C@@H]1CC[C@H](C)CC1=O
REMARK SMILES IDX 8 1 7 2 6 3 5 4 4 5 10 6 11 7 9 8 2 9 1 10 3 11
REMARK H PARENT
REMARK Flexibility Score: inf
ROOT
ATOM      1  C   UNL     1      -5.003   4.746   0.141  1.00  0.00     0.008 C 
ATOM      2  C   UNL     1      -4.871   6.189  -0.374  1.00  0.00    -0.007 C 
ATOM      3  C   UNL     1      -5.086   7.230   0.748  1.00  0.00     0.004 C 
ATOM      4  C   UNL     1      -3.936   7.237   1.771  1.00  0.00     0.012 C 
ATOM      5  C   UNL     1      -2.567   7.483   1.093  1.00  0.00     0.058 C 
ATOM      6  C   UNL     1      -2.399   6.543  -0.087  1.00  0.00     0.136 C 
ATOM      7  O   UNL     1      -1.338   5.974  -0.302  1.00  0.00    -0.299 OA
ATOM      8  C   UNL     1      -3.522   6.413  -1.082  1.00  0.00     0.079 C 
ENDROOT
BRANCH   5   9
ATOM      9  C   UNL     1      -1.367   7.438   2.091  1.00  0.00    -0.007 C 
ATOM     10  C   UNL     1      -0.381   8.591   1.851  1.00  0.00     0.008 C 
ATOM     11  C   UNL     1      -1.793   7.407   3.569  1.00  0.00     0.008 C 
ENDBRANCH   5   9
TORSDOF 1
ENDMDL
MODEL 4
REMARK VINA RESULT:    -3.324     10.861     12.129
REMARK INTER + INTRA:          -3.686
REMARK INTER:                  -3.545
REMARK INTRA:                  -0.141
REMARK UNBOUND:                -0.167
REMARK SMILES CC(C)[C@@H]1CC[C@H](C)CC1=O
REMARK SMILES IDX 8 1 7 2 6 3 5 4 4 5 10 6 11 7 9 8 2 9 1 10 3 11
REMARK H PARENT
REMARK Flexibility Score: inf
ROOT
ATOM      1  C   UNL     1       6.917   5.026   7.300  1.00  0.00     0.008 C 
ATOM      2  C   UNL     1       6.371   4.362   6.025  1.00  0.00    -0.007 C 
ATOM      3  C   UNL     1       7.498   3.989   5.036  1.00  0.00     0.004 C 
ATOM      4  C   UNL     1       8.373   2.833   5.550  1.00  0.00     0.012 C 
ATOM      5  C   UNL     1       7.531   1.575   5.872  1.00  0.00     0.058 C 
ATOM      6  C   UNL     1       6.351   1.954   6.749  1.00  0.00     0.136 C 
ATOM      7  O   UNL     1       6.016   1.263   7.700  1.00  0.00    -0.299 OA
ATOM      8  C   UNL     1       5.502   3.135   6.358  1.00  0.00     0.079 C 
ENDROOT
BRANCH   5   9
ATOM      9  C   UNL     1       8.376   0.398   6.454  1.00  0.00    -0.007 C 
ATOM     10  C   UNL     1       9.114  -0.375   5.351  1.00  0.00     0.008 C 
ATOM     11  C   UNL     1       9.367   0.830   7.548  1.00  0.00     0.008 C 
ENDBRANCH   5   9
TORSDOF 1
ENDMDL
MODEL 5
REMARK VINA RESULT:    -3.280     14.705     15.793
REMARK INTER + INTRA:          -3.639
REMARK INTER:                  -3.462
REMARK INTRA:                  -0.177
REMARK UNBOUND:                -0.167
REMARK SMILES CC(C)[C@@H]1CC[C@H](C)CC1=O
REMARK SMILES IDX 8 1 7 2 6 3 5 4 4 5 10 6 11 7 9 8 2 9 1 10 3 11
REMARK H PARENT
REMARK Flexibility Score: inf
ROOT
ATOM      1  C   UNL     1       7.609  -2.289  -5.257  1.00  0.00     0.008 C 
ATOM      2  C   UNL     1       6.171  -2.363  -4.717  1.00  0.00    -0.007 C 
ATOM      3  C   UNL     1       5.156  -2.756  -5.813  1.00  0.00     0.004 C 
ATOM      4  C   UNL     1       5.316  -4.218  -6.265  1.00  0.00     0.012 C 
ATOM      5  C   UNL     1       5.199  -5.202  -5.077  1.00  0.00     0.058 C 
ATOM      6  C   UNL     1       6.107  -4.755  -3.945  1.00  0.00     0.136 C 
ATOM      7  O   UNL     1       6.782  -5.556  -3.315  1.00  0.00    -0.299 OA
ATOM      8  C   UNL     1       6.073  -3.314  -3.509  1.00  0.00     0.079 C 
ENDROOT
BRANCH   5   9
ATOM      9  C   UNL     1       5.415  -6.694  -5.486  1.00  0.00    -0.007 C 
ATOM     10  C   UNL     1       4.114  -7.505  -5.394  1.00  0.00     0.008 C 
ATOM     11  C   UNL     1       6.048  -6.867  -6.878  1.00  0.00     0.008 C 
ENDBRANCH   5   9
TORSDOF 1
ENDMDL
MODEL 6
REMARK VINA RESULT:    -3.253     14.364     15.603
REMARK INTER + INTRA:          -3.611
REMARK INTER:                  -3.464
REMARK INTRA:                  -0.146
REMARK UNBOUND:                -0.167
REMARK SMILES CC(C)[C@@H]1CC[C@H](C)CC1=O
REMARK SMILES IDX 8 1 7 2 6 3 5 4 4 5 10 6 11 7 9 8 2 9 1 10 3 11
REMARK H PARENT
REMARK Flexibility Score: inf
ROOT
ATOM      1  C   UNL     1       8.548  -1.641  -4.535  1.00  0.00     0.008 C 
ATOM      2  C   UNL     1       7.964  -2.212  -3.232  1.00  0.00    -0.007 C 
ATOM      3  C   UNL     1       6.419  -2.245  -3.253  1.00  0.00     0.004 C 
ATOM      4  C   UNL     1       5.867  -3.289  -4.238  1.00  0.00     0.012 C 
ATOM      5  C   UNL     1       6.410  -4.706  -3.937  1.00  0.00     0.058 C 
ATOM      6  C   UNL     1       7.922  -4.661  -3.797  1.00  0.00     0.136 C 
ATOM      7  O   UNL     1       8.634  -5.522  -4.293  1.00  0.00    -0.299 OA
ATOM      8  C   UNL     1       8.541  -3.605  -2.920  1.00  0.00     0.079 C 
ENDROOT
BRANCH   5   9
ATOM      9  C   UNL     1       5.919  -5.786  -4.954  1.00  0.00    -0.007 C 
ATOM     10  C   UNL     1       5.495  -7.082  -4.249  1.00  0.00     0.008 C 
ATOM     11  C   UNL     1       4.792  -5.295  -5.880  1.00  0.00     0.008 C 
ENDBRANCH   5   9
TORSDOF 1
ENDMDL
MODEL 7
REMARK VINA RESULT:    -3.231     12.854     13.865
REMARK INTER + INTRA:          -3.588
REMARK INTER:                  -3.430
REMARK INTRA:                  -0.158
REMARK UNBOUND:                -0.167
REMARK SMILES CC(C)[C@@H]1CC[C@H](C)CC1=O
REMARK SMILES IDX 8 1 7 2 6 3 5 4 4 5 10 6 11 7 9 8 2 9 1 10 3 11
REMARK H PARENT
REMARK Flexibility Score: inf
ROOT
ATOM      1  C   UNL     1       4.501  -3.036  -8.190  1.00  0.00     0.008 C 
ATOM      2  C   UNL     1       3.460  -3.018  -7.059  1.00  0.00    -0.007 C 
ATOM      3  C   UNL     1       3.058  -1.580  -6.661  1.00  0.00     0.004 C 
ATOM      4  C   UNL     1       2.234  -0.877  -7.753  1.00  0.00     0.012 C 
ATOM      5  C   UNL     1       0.967  -1.683  -8.125  1.00  0.00     0.058 C 
ATOM      6  C   UNL     1       1.338  -3.129  -8.402  1.00  0.00     0.136 C 
ATOM      7  O   UNL     1       0.854  -3.743  -9.343  1.00  0.00    -0.299 OA
ATOM      8  C   UNL     1       2.220  -3.856  -7.422  1.00  0.00     0.079 C 
ENDROOT
BRANCH   5   9
ATOM      9  C   UNL     1       0.134  -1.031  -9.274  1.00  0.00    -0.007 C 
ATOM     10  C   UNL     1      -1.360  -0.959  -8.926  1.00  0.00     0.008 C 
ATOM     11  C   UNL     1       0.645   0.357  -9.697  1.00  0.00     0.008 C 
ENDBRANCH   5   9
TORSDOF 1
ENDMDL
MODEL 8
REMARK VINA RESULT:    -3.215      2.563      4.863
REMARK INTER + INTRA:          -3.570
REMARK INTER:                  -3.392
REMARK INTRA:                  -0.178
REMARK UNBOUND:                -0.167
REMARK SMILES CC(C)[C@@H]1CC[C@H](C)CC1=O
REMARK SMILES IDX 8 1 7 2 6 3 5 4 4 5 10 6 11 7 9 8 2 9 1 10 3 11
REMARK H PARENT
REMARK Flexibility Score: inf
ROOT
ATOM      1  C   UNL     1      -1.409   9.530   0.213  1.00  0.00     0.008 C 
ATOM      2  C   UNL     1      -1.810   8.743   1.472  1.00  0.00    -0.007 C 
ATOM      3  C   UNL     1      -3.336   8.768   1.712  1.00  0.00     0.004 C 
ATOM      4  C   UNL     1      -4.110   7.950   0.664  1.00  0.00     0.012 C 
ATOM      5  C   UNL     1      -3.620   6.484   0.605  1.00  0.00     0.058 C 
ATOM      6  C   UNL     1      -2.106   6.448   0.489  1.00  0.00     0.136 C 
ATOM      7  O   UNL     1      -1.543   5.673  -0.271  1.00  0.00    -0.299 OA
ATOM      8  C   UNL     1      -1.284   7.296   1.422  1.00  0.00     0.079 C 
ENDROOT
BRANCH   5   9
ATOM      9  C   UNL     1      -4.340   5.634  -0.491  1.00  0.00    -0.007 C 
ATOM     10  C   UNL     1      -5.305   4.610   0.124  1.00  0.00     0.008 C 
ATOM     11  C   UNL     1      -5.073   6.481  -1.546  1.00  0.00     0.008 C 
ENDBRANCH   5   9
TORSDOF 1
ENDMDL
