MODEL 1
REMARK VINA RESULT:    -4.145      0.000      0.000
REMARK INTER + INTRA:          -6.235
REMARK INTER:                  -5.720
REMARK INTRA:                  -0.514
REMARK UNBOUND:                -0.514
REMARK SMILES OC[C@H](O)C(O)[C@@H](O)CO
REMARK SMILES IDX 5 1 7 2 9 3 10 4 8 6 3 8 2 9 1 10 4 12 6 14
REMARK H PARENT 10 5 8 7 1 11 4 13 6 15
REMARK Flexibility Score: inf
ROOT
ATOM      1  C   UNL     1     212.617 197.176 213.459  1.00  0.00     0.176 C 
ENDROOT
BRANCH   1   2
ATOM      2  C   UNL     1     213.472 197.680 214.658  1.00  0.00     0.171 C 
BRANCH   2   3
ATOM      3  C   UNL     1     212.949 197.185 216.018  1.00  0.00     0.190 C 
BRANCH   3   4
ATOM      4  O   UNL     1     213.036 195.789 216.101  1.00  0.00    -0.394 OA
ATOM      5  H   UNL     1     212.253 195.424 215.613  1.00  0.00     0.210 HD
ENDBRANCH   3   4
ENDBRANCH   2   3
BRANCH   2   6
ATOM      6  O   UNL     1     213.466 199.086 214.667  1.00  0.00    -0.388 OA
ATOM      7  H   UNL     1     213.572 199.374 215.611  1.00  0.00     0.211 HD
ENDBRANCH   2   6
ENDBRANCH   1   2
BRANCH   1   8
ATOM      8  C   UNL     1     213.352 196.137 212.565  1.00  0.00     0.171 C 
BRANCH   8   9
ATOM      9  C   UNL     1     212.749 196.082 211.147  1.00  0.00     0.190 C 
BRANCH   9  10
ATOM     10  O   UNL     1     211.350 196.012 211.206  1.00  0.00    -0.394 OA
ATOM     11  H   UNL     1     211.100 196.122 212.161  1.00  0.00     0.210 HD
ENDBRANCH   9  10
ENDBRANCH   8   9
BRANCH   8  12
ATOM     12  O   UNL     1     213.247 194.862 213.145  1.00  0.00    -0.388 OA
ATOM     13  H   UNL     1     213.563 194.941 214.083  1.00  0.00     0.211 HD
ENDBRANCH   8  12
ENDBRANCH   1   8
BRANCH   1  14
ATOM     14  O   UNL     1     212.201 198.279 212.690  1.00  0.00    -0.388 OA
ATOM     15  H   UNL     1     211.702 197.926 211.908  1.00  0.00     0.211 HD
ENDBRANCH   1  14
TORSDOF 9
ENDMDL
MODEL 2
REMARK VINA RESULT:    -4.115      1.060      1.983
REMARK INTER + INTRA:          -6.193
REMARK INTER:                  -5.711
REMARK INTRA:                  -0.482
REMARK UNBOUND:                -0.514
REMARK SMILES OC[C@H](O)C(O)[C@@H](O)CO
REMARK SMILES IDX 5 1 7 2 9 3 10 4 8 6 3 8 2 9 1 10 4 12 6 14
REMARK H PARENT 10 5 8 7 1 11 4 13 6 15
REMARK Flexibility Score: inf
ROOT
ATOM      1  C   UNL     1     213.481 196.888 213.901  1.00  0.00     0.176 C 
ENDROOT
BRANCH   1   2
ATOM      2  C   UNL     1     213.456 197.215 215.423  1.00  0.00     0.171 C 
BRANCH   2   3
ATOM      3  C   UNL     1     212.147 196.786 216.109  1.00  0.00     0.190 C 
BRANCH   3   4
ATOM      4  O   UNL     1     212.383 196.439 217.446  1.00  0.00    -0.394 OA
ATOM      5  H   UNL     1     213.034 197.099 217.802  1.00  0.00     0.210 HD
ENDBRANCH   3   4
ENDBRANCH   2   3
BRANCH   2   6
ATOM      6  O   UNL     1     213.613 198.601 215.597  1.00  0.00    -0.388 OA
ATOM      7  H   UNL     1     213.274 198.824 216.503  1.00  0.00     0.211 HD
ENDBRANCH   2   6
ENDBRANCH   1   2
BRANCH   1   8
ATOM      8  C   UNL     1     212.286 197.497 213.115  1.00  0.00     0.171 C 
BRANCH   8   9
ATOM      9  C   UNL     1     212.361 197.155 211.614  1.00  0.00     0.190 C 
BRANCH   9  10
ATOM     10  O   UNL     1     211.859 195.868 211.373  1.00  0.00    -0.394 OA
ATOM     11  H   UNL     1     211.592 195.841 210.416  1.00  0.00     0.210 HD
ENDBRANCH   9  10
ENDBRANCH   8   9
BRANCH   8  12
ATOM     12  O   UNL     1     212.298 198.896 213.255  1.00  0.00    -0.388 OA
ATOM     13  H   UNL     1     212.407 199.091 214.223  1.00  0.00     0.211 HD
ENDBRANCH   8  12
ENDBRANCH   1   8
BRANCH   1  14
ATOM     14  O   UNL     1     213.522 195.491 213.728  1.00  0.00    -0.388 OA
ATOM     15  H   UNL     1     214.285 195.147 214.262  1.00  0.00     0.211 HD
ENDBRANCH   1  14
TORSDOF 9
ENDMDL
MODEL 3
REMARK VINA RESULT:    -3.992      1.244      4.030
REMARK INTER + INTRA:          -6.023
REMARK INTER:                  -5.573
REMARK INTRA:                  -0.450
REMARK UNBOUND:                -0.514
REMARK SMILES OC[C@H](O)C(O)[C@@H](O)CO
REMARK SMILES IDX 5 1 7 2 9 3 10 4 8 6 3 8 2 9 1 10 4 12 6 14
REMARK H PARENT 10 5 8 7 1 11 4 13 6 15
REMARK Flexibility Score: inf
ROOT
ATOM      1  C   UNL     1     212.635 197.607 212.660  1.00  0.00     0.176 C 
ENDROOT
BRANCH   1   2
ATOM      2  C   UNL     1     212.417 197.119 211.198  1.00  0.00     0.171 C 
BRANCH   2   3
ATOM      3  C   UNL     1     211.390 197.968 210.428  1.00  0.00     0.190 C 
BRANCH   3   4
ATOM      4  O   UNL     1     210.132 197.347 210.439  1.00  0.00    -0.394 OA
ATOM      5  H   UNL     1     209.469 198.051 210.660  1.00  0.00     0.210 HD
ENDBRANCH   3   4
ENDBRANCH   2   3
BRANCH   2   6
ATOM      6  O   UNL     1     211.964 195.789 211.220  1.00  0.00    -0.388 OA
ATOM      7  H   UNL     1     212.385 195.322 210.452  1.00  0.00     0.211 HD
ENDBRANCH   2   6
ENDBRANCH   1   2
BRANCH   1   8
ATOM      8  C   UNL     1     212.747 196.448 213.691  1.00  0.00     0.171 C 
BRANCH   8   9
ATOM      9  C   UNL     1     212.802 196.980 215.137  1.00  0.00     0.190 C 
BRANCH   9  10
ATOM     10  O   UNL     1     212.838 195.920 216.054  1.00  0.00    -0.394 OA
ATOM     11  H   UNL     1     213.207 195.136 215.568  1.00  0.00     0.210 HD
ENDBRANCH   9  10
ENDBRANCH   8   9
BRANCH   8  12
ATOM     12  O   UNL     1     213.917 195.711 213.441  1.00  0.00    -0.388 OA
ATOM     13  H   UNL     1     213.831 194.853 213.934  1.00  0.00     0.211 HD
ENDBRANCH   8  12
ENDBRANCH   1   8
BRANCH   1  14
ATOM     14  O   UNL     1     211.592 198.483 213.016  1.00  0.00    -0.388 OA
ATOM     15  H   UNL     1     210.876 197.938 213.438  1.00  0.00     0.211 HD
ENDBRANCH   1  14
TORSDOF 9
ENDMDL
MODEL 4
REMARK VINA RESULT:    -3.904      0.747      3.621
REMARK INTER + INTRA:          -5.901
REMARK INTER:                  -5.536
REMARK INTRA:                  -0.366
REMARK UNBOUND:                -0.514
REMARK SMILES OC[C@H](O)C(O)[C@@H](O)CO
REMARK SMILES IDX 5 1 7 2 9 3 10 4 8 6 3 8 2 9 1 10 4 12 6 14
REMARK H PARENT 10 5 8 7 1 11 4 13 6 15
REMARK Flexibility Score: inf
ROOT
ATOM      1  C   UNL     1     212.675 197.781 212.877  1.00  0.00     0.176 C 
ENDROOT
BRANCH   1   2
ATOM      2  C   UNL     1     212.287 196.375 212.335  1.00  0.00     0.171 C 
BRANCH   2   3
ATOM      3  C   UNL     1     213.509 195.484 212.049  1.00  0.00     0.190 C 
BRANCH   3   4
ATOM      4  O   UNL     1     213.497 194.352 212.876  1.00  0.00    -0.394 OA
ATOM      5  H   UNL     1     212.945 193.667 212.415  1.00  0.00     0.210 HD
ENDBRANCH   3   4
ENDBRANCH   2   3
BRANCH   2   6
ATOM      6  O   UNL     1     211.562 196.528 211.140  1.00  0.00    -0.388 OA
ATOM      7  H   UNL     1     211.244 195.626 210.872  1.00  0.00     0.211 HD
ENDBRANCH   2   6
ENDBRANCH   1   2
BRANCH   1   8
ATOM      8  C   UNL     1     213.356 197.742 214.274  1.00  0.00     0.171 C 
BRANCH   8   9
ATOM      9  C   UNL     1     212.505 196.964 215.298  1.00  0.00     0.190 C 
BRANCH   9  10
ATOM     10  O   UNL     1     213.149 195.778 215.678  1.00  0.00    -0.394 OA
ATOM     11  H   UNL     1     212.490 195.045 215.555  1.00  0.00     0.210 HD
ENDBRANCH   9  10
ENDBRANCH   8   9
BRANCH   8  12
ATOM     12  O   UNL     1     213.532 199.054 214.746  1.00  0.00    -0.388 OA
ATOM     13  H   UNL     1     213.591 199.645 213.950  1.00  0.00     0.211 HD
ENDBRANCH   8  12
ENDBRANCH   1   8
BRANCH   1  14
ATOM     14  O   UNL     1     211.527 198.597 212.912  1.00  0.00    -0.388 OA
ATOM     15  H   UNL     1     211.111 198.563 212.012  1.00  0.00     0.211 HD
ENDBRANCH   1  14
TORSDOF 9
ENDMDL
MODEL 5
REMARK VINA RESULT:    -3.891      2.457      3.323
REMARK INTER + INTRA:          -5.884
REMARK INTER:                  -5.180
REMARK INTRA:                  -0.704
REMARK UNBOUND:                -0.514
REMARK SMILES OC[C@H](O)C(O)[C@@H](O)CO
REMARK SMILES IDX 5 1 7 2 9 3 10 4 8 6 3 8 2 9 1 10 4 12 6 14
REMARK H PARENT 10 5 8 7 1 11 4 13 6 15
REMARK Flexibility Score: inf
ROOT
ATOM      1  C   UNL     1     211.414 198.135 211.794  1.00  0.00     0.176 C 
ENDROOT
BRANCH   1   2
ATOM      2  C   UNL     1     212.360 197.102 212.472  1.00  0.00     0.171 C 
BRANCH   2   3
ATOM      3  C   UNL     1     213.078 197.667 213.711  1.00  0.00     0.190 C 
BRANCH   3   4
ATOM      4  O   UNL     1     212.237 197.620 214.831  1.00  0.00    -0.394 OA
ATOM      5  H   UNL     1     211.334 197.894 214.523  1.00  0.00     0.210 HD
ENDBRANCH   3   4
ENDBRANCH   2   3
BRANCH   2   6
ATOM      6  O   UNL     1     213.335 196.695 211.544  1.00  0.00    -0.388 OA
ATOM      7  H   UNL     1     213.715 197.517 211.137  1.00  0.00     0.211 HD
ENDBRANCH   2   6
ENDBRANCH   1   2
BRANCH   1   8
ATOM      8  C   UNL     1     211.707 198.347 210.282  1.00  0.00     0.171 C 
BRANCH   8   9
ATOM      9  C   UNL     1     211.053 199.640 209.754  1.00  0.00     0.190 C 
BRANCH   9  10
ATOM     10  O   UNL     1     209.694 199.685 210.099  1.00  0.00    -0.394 OA
ATOM     11  H   UNL     1     209.511 200.609 210.412  1.00  0.00     0.210 HD
ENDBRANCH   9  10
ENDBRANCH   8   9
BRANCH   8  12
ATOM     12  O   UNL     1     211.201 197.260 209.550  1.00  0.00    -0.388 OA
ATOM     13  H   UNL     1     211.709 197.220 208.698  1.00  0.00     0.211 HD
ENDBRANCH   8  12
ENDBRANCH   1   8
BRANCH   1  14
ATOM     14  O   UNL     1     211.492 199.359 212.486  1.00  0.00    -0.388 OA
ATOM     15  H   UNL     1     212.453 199.546 212.654  1.00  0.00     0.211 HD
ENDBRANCH   1  14
TORSDOF 9
ENDMDL
MODEL 6
REMARK VINA RESULT:    -3.814      1.893      4.430
REMARK INTER + INTRA:          -5.778
REMARK INTER:                  -5.520
REMARK INTRA:                  -0.258
REMARK UNBOUND:                -0.514
REMARK SMILES OC[C@H](O)C(O)[C@@H](O)CO
REMARK SMILES IDX 5 1 7 2 9 3 10 4 8 6 3 8 2 9 1 10 4 12 6 14
REMARK H PARENT 10 5 8 7 1 11 4 13 6 15
REMARK Flexibility Score: inf
ROOT
ATOM      1  C   UNL     1     211.844 196.758 211.387  1.00  0.00     0.176 C 
ENDROOT
BRANCH   1   2
ATOM      2  C   UNL     1     211.801 197.749 210.188  1.00  0.00     0.171 C 
BRANCH   2   3
ATOM      3  C   UNL     1     210.719 198.832 210.342  1.00  0.00     0.190 C 
BRANCH   3   4
ATOM      4  O   UNL     1     211.205 199.911 211.093  1.00  0.00    -0.394 OA
ATOM      5  H   UNL     1     212.039 200.215 210.649  1.00  0.00     0.210 HD
ENDBRANCH   3   4
ENDBRANCH   2   3
BRANCH   2   6
ATOM      6  O   UNL     1     211.543 197.030 209.007  1.00  0.00    -0.388 OA
ATOM      7  H   UNL     1     210.574 197.126 208.811  1.00  0.00     0.211 HD
ENDBRANCH   2   6
ENDBRANCH   1   2
BRANCH   1   8
ATOM      8  C   UNL     1     212.781 197.216 212.539  1.00  0.00     0.171 C 
BRANCH   8   9
ATOM      9  C   UNL     1     213.408 196.013 213.273  1.00  0.00     0.190 C 
BRANCH   9  10
ATOM     10  O   UNL     1     213.034 196.008 214.625  1.00  0.00    -0.394 OA
ATOM     11  H   UNL     1     213.226 196.917 214.976  1.00  0.00     0.210 HD
ENDBRANCH   9  10
ENDBRANCH   8   9
BRANCH   8  12
ATOM     12  O   UNL     1     212.047 197.972 213.468  1.00  0.00    -0.388 OA
ATOM     13  H   UNL     1     212.691 198.310 214.144  1.00  0.00     0.211 HD
ENDBRANCH   8  12
ENDBRANCH   1   8
BRANCH   1  14
ATOM     14  O   UNL     1     212.223 195.484 210.922  1.00  0.00    -0.388 OA
ATOM     15  H   UNL     1     211.982 195.434 209.960  1.00  0.00     0.211 HD
ENDBRANCH   1  14
TORSDOF 9
ENDMDL
MODEL 7
REMARK VINA RESULT:    -3.765      2.268      4.928
REMARK INTER + INTRA:          -5.710
REMARK INTER:                  -5.015
REMARK INTRA:                  -0.695
REMARK UNBOUND:                -0.514
REMARK SMILES OC[C@H](O)C(O)[C@@H](O)CO
REMARK SMILES IDX 5 1 7 2 9 3 10 4 8 6 3 8 2 9 1 10 4 12 6 14
REMARK H PARENT 10 5 8 7 1 11 4 13 6 15
REMARK Flexibility Score: inf
ROOT
ATOM      1  C   UNL     1     212.141 197.280 210.629  1.00  0.00     0.176 C 
ENDROOT
BRANCH   1   2
ATOM      2  C   UNL     1     213.031 196.435 209.673  1.00  0.00     0.171 C 
BRANCH   2   3
ATOM      3  C   UNL     1     212.812 196.776 208.188  1.00  0.00     0.190 C 
BRANCH   3   4
ATOM      4  O   UNL     1     211.791 195.984 207.646  1.00  0.00    -0.394 OA
ATOM      5  H   UNL     1     211.147 196.604 207.215  1.00  0.00     0.210 HD
ENDBRANCH   3   4
ENDBRANCH   2   3
BRANCH   2   6
ATOM      6  O   UNL     1     212.741 195.072 209.860  1.00  0.00    -0.388 OA
ATOM      7  H   UNL     1     212.256 194.990 210.722  1.00  0.00     0.211 HD
ENDBRANCH   2   6
ENDBRANCH   1   2
BRANCH   1   8
ATOM      8  C   UNL     1     212.360 196.954 212.133  1.00  0.00     0.171 C 
BRANCH   8   9
ATOM      9  C   UNL     1     212.293 198.225 213.004  1.00  0.00     0.190 C 
BRANCH   9  10
ATOM     10  O   UNL     1     211.315 199.106 212.521  1.00  0.00    -0.394 OA
ATOM     11  H   UNL     1     210.613 198.546 212.096  1.00  0.00     0.210 HD
ENDBRANCH   9  10
ENDBRANCH   8   9
BRANCH   8  12
ATOM     12  O   UNL     1     213.623 196.361 212.305  1.00  0.00    -0.388 OA
ATOM     13  H   UNL     1     214.212 197.045 212.719  1.00  0.00     0.211 HD
ENDBRANCH   8  12
ENDBRANCH   1   8
BRANCH   1  14
ATOM     14  O   UNL     1     210.788 197.103 210.280  1.00  0.00    -0.388 OA
ATOM     15  H   UNL     1     210.415 197.999 210.071  1.00  0.00     0.211 HD
ENDBRANCH   1  14
TORSDOF 9
ENDMDL
MODEL 8
REMARK VINA RESULT:    -3.601      2.100      4.433
REMARK INTER + INTRA:          -5.483
REMARK INTER:                  -5.153
REMARK INTRA:                  -0.330
REMARK UNBOUND:                -0.514
REMARK SMILES OC[C@H](O)C(O)[C@@H](O)CO
REMARK SMILES IDX 5 1 7 2 9 3 10 4 8 6 3 8 2 9 1 10 4 12 6 14
REMARK H PARENT 10 5 8 7 1 11 4 13 6 15
REMARK Flexibility Score: inf
ROOT
ATOM      1  C   UNL     1     211.939 198.204 211.842  1.00  0.00     0.176 C 
ENDROOT
BRANCH   1   2
ATOM      2  C   UNL     1     210.968 197.907 210.663  1.00  0.00     0.171 C 
BRANCH   2   3
ATOM      3  C   UNL     1     211.640 198.031 209.284  1.00  0.00     0.190 C 
BRANCH   3   4
ATOM      4  O   UNL     1     211.699 196.782 208.651  1.00  0.00    -0.394 OA
ATOM      5  H   UNL     1     212.415 196.265 209.104  1.00  0.00     0.210 HD
ENDBRANCH   3   4
ENDBRANCH   2   3
BRANCH   2   6
ATOM      6  O   UNL     1     209.893 198.813 210.713  1.00  0.00    -0.388 OA
ATOM      7  H   UNL     1     209.088 198.299 210.984  1.00  0.00     0.211 HD
ENDBRANCH   2   6
ENDBRANCH   1   2
BRANCH   1   8
ATOM      8  C   UNL     1     212.464 196.925 212.552  1.00  0.00     0.171 C 
BRANCH   8   9
ATOM      9  C   UNL     1     212.972 197.235 213.975  1.00  0.00     0.190 C 
BRANCH   9  10
ATOM     10  O   UNL     1     213.788 198.376 213.972  1.00  0.00    -0.394 OA
ATOM     11  H   UNL     1     213.571 198.882 214.799  1.00  0.00     0.210 HD
ENDBRANCH   9  10
ENDBRANCH   8   9
BRANCH   8  12
ATOM     12  O   UNL     1     213.524 196.378 211.809  1.00  0.00    -0.388 OA
ATOM     13  H   UNL     1     213.129 195.715 211.184  1.00  0.00     0.211 HD
ENDBRANCH   8  12
ENDBRANCH   1   8
BRANCH   1  14
ATOM     14  O   UNL     1     211.299 199.053 212.766  1.00  0.00    -0.388 OA
ATOM     15  H   UNL     1     210.338 199.091 212.520  1.00  0.00     0.211 HD
ENDBRANCH   1  14
TORSDOF 9
ENDMDL
MODEL 9
REMARK VINA RESULT:    -3.600      1.550      2.391
REMARK INTER + INTRA:          -5.483
REMARK INTER:                  -5.166
REMARK INTRA:                  -0.317
REMARK UNBOUND:                -0.514
REMARK SMILES OC[C@H](O)C(O)[C@@H](O)CO
REMARK SMILES IDX 5 1 7 2 9 3 10 4 8 6 3 8 2 9 1 10 4 12 6 14
REMARK H PARENT 10 5 8 7 1 11 4 13 6 15
REMARK Flexibility Score: inf
ROOT
ATOM      1  C   UNL     1     212.035 196.480 211.626  1.00  0.00     0.176 C 
ENDROOT
BRANCH   1   2
ATOM      2  C   UNL     1     212.526 197.538 212.656  1.00  0.00     0.171 C 
BRANCH   2   3
ATOM      3  C   UNL     1     212.643 196.978 214.084  1.00  0.00     0.190 C 
BRANCH   3   4
ATOM      4  O   UNL     1     213.346 195.765 214.081  1.00  0.00    -0.394 OA
ATOM      5  H   UNL     1     213.101 195.295 213.242  1.00  0.00     0.210 HD
ENDBRANCH   3   4
ENDBRANCH   2   3
BRANCH   2   6
ATOM      6  O   UNL     1     211.620 198.614 212.676  1.00  0.00    -0.388 OA
ATOM      7  H   UNL     1     212.082 199.379 213.109  1.00  0.00     0.211 HD
ENDBRANCH   2   6
ENDBRANCH   1   2
BRANCH   1   8
ATOM      8  C   UNL     1     213.072 196.170 210.510  1.00  0.00     0.171 C 
BRANCH   8   9
ATOM      9  C   UNL     1     212.835 197.039 209.259  1.00  0.00     0.190 C 
BRANCH   9  10
ATOM     10  O   UNL     1     211.847 196.472 208.441  1.00  0.00    -0.394 OA
ATOM     11  H   UNL     1     211.417 197.223 207.954  1.00  0.00     0.210 HD
ENDBRANCH   9  10
ENDBRANCH   8   9
BRANCH   8  12
ATOM     12  O   UNL     1     212.972 194.818 210.140  1.00  0.00    -0.388 OA
ATOM     13  H   UNL     1     213.818 194.377 210.415  1.00  0.00     0.211 HD
ENDBRANCH   8  12
ENDBRANCH   1   8
BRANCH   1  14
ATOM     14  O   UNL     1     210.819 196.912 211.061  1.00  0.00    -0.388 OA
ATOM     15  H   UNL     1     211.006 197.745 210.555  1.00  0.00     0.211 HD
ENDBRANCH   1  14
TORSDOF 9
ENDMDL
