MODEL 1
REMARK VINA RESULT:    -7.286      0.000      0.000
REMARK INTER + INTRA:         -18.075
REMARK INTER:                 -16.656
REMARK INTRA:                  -1.419
REMARK UNBOUND:                -1.419
REMARK SMILES CCCCCCCCCCCCCCCCCCCCCCCC(=O)[O-]
REMARK SMILES IDX 13 1 14 2 15 3 16 4 17 5 18 6 19 7 20 8 21 9 22 10 23 11
REMARK SMILES IDX 24 12 25 13 26 14 12 15 11 16 10 17 9 18 8 19 7 20 6 21 5 22
REMARK SMILES IDX 4 23 3 24 2 25 1 26
REMARK H PARENT
REMARK Flexibility Score: inf
ROOT
ATOM      1  C   UNL     1     -22.758 -22.322  31.667  1.00  0.00     0.000 C 
ENDROOT
BRANCH   1   2
ATOM      2  C   UNL     1     -21.447 -21.514  31.670  1.00  0.00     0.000 C 
BRANCH   2   3
ATOM      3  C   UNL     1     -21.622 -20.098  31.093  1.00  0.00     0.000 C 
BRANCH   3   4
ATOM      4  C   UNL     1     -21.958 -20.061  29.590  1.00  0.00     0.000 C 
BRANCH   4   5
ATOM      5  C   UNL     1     -20.998 -19.165  28.788  1.00  0.00     0.000 C 
BRANCH   5   6
ATOM      6  C   UNL     1     -20.597 -17.889  29.547  1.00  0.00     0.000 C 
BRANCH   6   7
ATOM      7  C   UNL     1     -19.076 -17.748  29.772  1.00  0.00     0.000 C 
BRANCH   7   8
ATOM      8  C   UNL     1     -18.698 -16.370  30.345  1.00  0.00     0.000 C 
BRANCH   8   9
ATOM      9  C   UNL     1     -17.830 -15.548  29.379  1.00  0.00     0.000 C 
BRANCH   9  10
ATOM     10  C   UNL     1     -18.219 -15.769  27.907  1.00  0.00     0.006 C 
BRANCH  10  11
ATOM     11  C   UNL     1     -16.991 -15.897  26.995  1.00  0.00     0.053 C 
BRANCH  11  12
ATOM     12  C   UNL     1     -17.226 -15.341  25.622  1.00  0.00     0.041 C 
ATOM     13  O   UNL     1     -16.256 -14.992  24.897  1.00  0.00    -0.550 OA
ATOM     14  O   UNL     1     -18.526 -15.150  25.167  1.00  0.00    -0.550 OA
ENDBRANCH  11  12
ENDBRANCH  10  11
ENDBRANCH   9  10
ENDBRANCH   8   9
ENDBRANCH   7   8
ENDBRANCH   6   7
ENDBRANCH   5   6
ENDBRANCH   4   5
ENDBRANCH   3   4
ENDBRANCH   2   3
ENDBRANCH   1   2
BRANCH   1  15
ATOM     15  C   UNL     1     -22.580 -23.735  31.085  1.00  0.00     0.000 C 
BRANCH  15  16
ATOM     16  C   UNL     1     -22.082 -23.776  29.628  1.00  0.00     0.000 C 
BRANCH  16  17
ATOM     17  C   UNL     1     -23.024 -24.537  28.671  1.00  0.00     0.000 C 
BRANCH  17  18
ATOM     18  C   UNL     1     -23.562 -25.839  29.294  1.00  0.00    -0.000 C 
BRANCH  18  19
ATOM     19  C   UNL     1     -25.040 -25.725  29.713  1.00  0.00    -0.000 C 
BRANCH  19  20
ATOM     20  C   UNL     1     -25.309 -26.118  31.177  1.00  0.00    -0.000 C 
BRANCH  20  21
ATOM     21  C   UNL     1     -26.328 -27.263  31.302  1.00  0.00    -0.000 C 
BRANCH  21  22
ATOM     22  C   UNL     1     -25.944 -28.502  30.473  1.00  0.00    -0.000 C 
BRANCH  22  23
ATOM     23  C   UNL     1     -26.859 -28.740  29.252  1.00  0.00    -0.000 C 
BRANCH  23  24
ATOM     24  C   UNL     1     -26.155 -28.411  27.926  1.00  0.00    -0.000 C 
BRANCH  24  25
ATOM     25  C   UNL     1     -27.173 -28.148  26.810  1.00  0.00    -0.003 C 
ATOM     26  C   UNL     1     -26.760 -28.840  25.516  1.00  0.00     0.004 C 
ENDBRANCH  24  25
ENDBRANCH  23  24
ENDBRANCH  22  23
ENDBRANCH  21  22
ENDBRANCH  20  21
ENDBRANCH  19  20
ENDBRANCH  18  19
ENDBRANCH  17  18
ENDBRANCH  16  17
ENDBRANCH  15  16
ENDBRANCH   1  15
TORSDOF 22
ENDMDL
MODEL 2
REMARK VINA RESULT:    -7.196      1.104      1.910
REMARK INTER + INTRA:         -17.870
REMARK INTER:                 -16.255
REMARK INTRA:                  -1.616
REMARK UNBOUND:                -1.419
REMARK SMILES CCCCCCCCCCCCCCCCCCCCCCCC(=O)[O-]
REMARK SMILES IDX 13 1 14 2 15 3 16 4 17 5 18 6 19 7 20 8 21 9 22 10 23 11
REMARK SMILES IDX 24 12 25 13 26 14 12 15 11 16 10 17 9 18 8 19 7 20 6 21 5 22
REMARK SMILES IDX 4 23 3 24 2 25 1 26
REMARK H PARENT
REMARK Flexibility Score: inf
ROOT
ATOM      1  C   UNL     1     -21.996 -21.583  28.546  1.00  0.00     0.000 C 
ENDROOT
BRANCH   1   2
ATOM      2  C   UNL     1     -22.572 -20.258  29.078  1.00  0.00     0.000 C 
BRANCH   2   3
ATOM      3  C   UNL     1     -21.554 -19.104  29.020  1.00  0.00     0.000 C 
BRANCH   3   4
ATOM      4  C   UNL     1     -20.239 -19.377  29.774  1.00  0.00     0.000 C 
BRANCH   4   5
ATOM      5  C   UNL     1     -20.297 -18.939  31.248  1.00  0.00     0.000 C 
BRANCH   5   6
ATOM      6  C   UNL     1     -19.451 -17.686  31.532  1.00  0.00     0.000 C 
BRANCH   6   7
ATOM      7  C   UNL     1     -19.042 -16.907  30.264  1.00  0.00     0.000 C 
BRANCH   7   8
ATOM      8  C   UNL     1     -18.105 -15.728  30.582  1.00  0.00     0.000 C 
BRANCH   8   9
ATOM      9  C   UNL     1     -17.517 -15.084  29.315  1.00  0.00     0.000 C 
BRANCH   9  10
ATOM     10  C   UNL     1     -18.199 -15.586  28.031  1.00  0.00     0.006 C 
BRANCH  10  11
ATOM     11  C   UNL     1     -17.183 -16.012  26.963  1.00  0.00     0.053 C 
BRANCH  11  12
ATOM     12  C   UNL     1     -17.369 -15.289  25.662  1.00  0.00     0.041 C 
ATOM     13  O   UNL     1     -16.396 -14.714  25.103  1.00  0.00    -0.550 OA
ATOM     14  O   UNL     1     -18.636 -15.198  25.097  1.00  0.00    -0.550 OA
ENDBRANCH  11  12
ENDBRANCH  10  11
ENDBRANCH   9  10
ENDBRANCH   8   9
ENDBRANCH   7   8
ENDBRANCH   6   7
ENDBRANCH   5   6
ENDBRANCH   4   5
ENDBRANCH   3   4
ENDBRANCH   2   3
ENDBRANCH   1   2
BRANCH   1  15
ATOM     15  C   UNL     1     -22.027 -22.705  29.598  1.00  0.00     0.000 C 
BRANCH  15  16
ATOM     16  C   UNL     1     -22.302 -22.233  31.039  1.00  0.00     0.000 C 
BRANCH  16  17
ATOM     17  C   UNL     1     -23.099 -23.249  31.883  1.00  0.00     0.000 C 
BRANCH  17  18
ATOM     18  C   UNL     1     -23.130 -24.648  31.240  1.00  0.00    -0.000 C 
BRANCH  18  19
ATOM     19  C   UNL     1     -24.270 -25.525  31.790  1.00  0.00    -0.000 C 
BRANCH  19  20
ATOM     20  C   UNL     1     -24.849 -26.517  30.765  1.00  0.00    -0.000 C 
BRANCH  20  21
ATOM     21  C   UNL     1     -24.128 -26.450  29.408  1.00  0.00    -0.000 C 
BRANCH  21  22
ATOM     22  C   UNL     1     -24.919 -27.127  28.274  1.00  0.00    -0.000 C 
BRANCH  22  23
ATOM     23  C   UNL     1     -26.305 -27.651  28.711  1.00  0.00    -0.000 C 
BRANCH  23  24
ATOM     24  C   UNL     1     -26.860 -28.705  27.740  1.00  0.00    -0.000 C 
BRANCH  24  25
ATOM     25  C   UNL     1     -26.608 -28.301  26.283  1.00  0.00    -0.003 C 
ATOM     26  C   UNL     1     -27.544 -29.046  25.337  1.00  0.00     0.004 C 
ENDBRANCH  24  25
ENDBRANCH  23  24
ENDBRANCH  22  23
ENDBRANCH  21  22
ENDBRANCH  20  21
ENDBRANCH  19  20
ENDBRANCH  18  19
ENDBRANCH  17  18
ENDBRANCH  16  17
ENDBRANCH  15  16
ENDBRANCH   1  15
TORSDOF 22
ENDMDL
MODEL 3
REMARK VINA RESULT:    -7.059      4.673     12.010
REMARK INTER + INTRA:         -17.557
REMARK INTER:                 -16.016
REMARK INTRA:                  -1.541
REMARK UNBOUND:                -1.419
REMARK SMILES CCCCCCCCCCCCCCCCCCCCCCCC(=O)[O-]
REMARK SMILES IDX 13 1 14 2 15 3 16 4 17 5 18 6 19 7 20 8 21 9 22 10 23 11
REMARK SMILES IDX 24 12 25 13 26 14 12 15 11 16 10 17 9 18 8 19 7 20 6 21 5 22
REMARK SMILES IDX 4 23 3 24 2 25 1 26
REMARK H PARENT
REMARK Flexibility Score: inf
ROOT
ATOM      1  C   UNL     1     -22.433 -20.809  29.916  1.00  0.00     0.000 C 
ENDROOT
BRANCH   1   2
ATOM      2  C   UNL     1     -21.960 -21.649  28.714  1.00  0.00     0.000 C 
BRANCH   2   3
ATOM      3  C   UNL     1     -21.841 -23.147  29.048  1.00  0.00     0.000 C 
BRANCH   3   4
ATOM      4  C   UNL     1     -23.117 -23.964  28.769  1.00  0.00     0.000 C 
BRANCH   4   5
ATOM      5  C   UNL     1     -23.079 -25.361  29.411  1.00  0.00     0.000 C 
BRANCH   5   6
ATOM      6  C   UNL     1     -23.814 -25.419  30.762  1.00  0.00     0.000 C 
BRANCH   6   7
ATOM      7  C   UNL     1     -25.249 -25.982  30.668  1.00  0.00     0.000 C 
BRANCH   7   8
ATOM      8  C   UNL     1     -25.465 -26.817  29.394  1.00  0.00     0.000 C 
BRANCH   8   9
ATOM      9  C   UNL     1     -26.259 -28.106  29.662  1.00  0.00     0.000 C 
BRANCH   9  10
ATOM     10  C   UNL     1     -26.772 -28.760  28.368  1.00  0.00     0.006 C 
BRANCH  10  11
ATOM     11  C   UNL     1     -26.478 -27.904  27.128  1.00  0.00     0.053 C 
BRANCH  11  12
ATOM     12  C   UNL     1     -26.867 -28.583  25.848  1.00  0.00     0.041 C 
ATOM     13  O   UNL     1     -25.985 -29.003  25.052  1.00  0.00    -0.550 OA
ATOM     14  O   UNL     1     -28.209 -28.695  25.506  1.00  0.00    -0.550 OA
ENDBRANCH  11  12
ENDBRANCH  10  11
ENDBRANCH   9  10
ENDBRANCH   8   9
ENDBRANCH   7   8
ENDBRANCH   6   7
ENDBRANCH   5   6
ENDBRANCH   4   5
ENDBRANCH   3   4
ENDBRANCH   2   3
ENDBRANCH   1   2
BRANCH   1  15
ATOM     15  C   UNL     1     -22.048 -21.441  31.265  1.00  0.00     0.000 C 
BRANCH  15  16
ATOM     16  C   UNL     1     -20.874 -20.756  31.989  1.00  0.00     0.000 C 
BRANCH  16  17
ATOM     17  C   UNL     1     -20.926 -19.215  31.936  1.00  0.00     0.000 C 
BRANCH  17  18
ATOM     18  C   UNL     1     -19.567 -18.597  31.555  1.00  0.00    -0.000 C 
BRANCH  18  19
ATOM     19  C   UNL     1     -19.717 -17.328  30.694  1.00  0.00    -0.000 C 
BRANCH  19  20
ATOM     20  C   UNL     1     -20.328 -17.582  29.304  1.00  0.00    -0.000 C 
BRANCH  20  21
ATOM     21  C   UNL     1     -19.517 -16.924  28.175  1.00  0.00    -0.000 C 
BRANCH  21  22
ATOM     22  C   UNL     1     -18.127 -16.449  28.633  1.00  0.00    -0.000 C 
BRANCH  22  23
ATOM     23  C   UNL     1     -17.522 -15.344  27.738  1.00  0.00    -0.000 C 
BRANCH  23  24
ATOM     24  C   UNL     1     -17.640 -15.678  26.243  1.00  0.00    -0.000 C 
BRANCH  24  25
ATOM     25  C   UNL     1     -16.487 -15.057  25.446  1.00  0.00    -0.003 C 
ATOM     26  C   UNL     1     -15.888 -16.065  24.471  1.00  0.00     0.004 C 
ENDBRANCH  24  25
ENDBRANCH  23  24
ENDBRANCH  22  23
ENDBRANCH  21  22
ENDBRANCH  20  21
ENDBRANCH  19  20
ENDBRANCH  18  19
ENDBRANCH  17  18
ENDBRANCH  16  17
ENDBRANCH  15  16
ENDBRANCH   1  15
TORSDOF 22
ENDMDL
MODEL 4
REMARK VINA RESULT:    -6.956      4.657     11.800
REMARK INTER + INTRA:         -17.321
REMARK INTER:                 -15.779
REMARK INTRA:                  -1.541
REMARK UNBOUND:                -1.419
REMARK SMILES CCCCCCCCCCCCCCCCCCCCCCCC(=O)[O-]
REMARK SMILES IDX 13 1 14 2 15 3 16 4 17 5 18 6 19 7 20 8 21 9 22 10 23 11
REMARK SMILES IDX 24 12 25 13 26 14 12 15 11 16 10 17 9 18 8 19 7 20 6 21 5 22
REMARK SMILES IDX 4 23 3 24 2 25 1 26
REMARK H PARENT
REMARK Flexibility Score: inf
ROOT
ATOM      1  C   UNL     1     -21.633 -23.120  29.067  1.00  0.00     0.000 C 
ENDROOT
BRANCH   1   2
ATOM      2  C   UNL     1     -22.537 -24.164  28.385  1.00  0.00     0.000 C 
BRANCH   2   3
ATOM      3  C   UNL     1     -23.343 -25.000  29.396  1.00  0.00     0.000 C 
BRANCH   3   4
ATOM      4  C   UNL     1     -23.100 -24.622  30.870  1.00  0.00     0.000 C 
BRANCH   4   5
ATOM      5  C   UNL     1     -23.970 -25.437  31.843  1.00  0.00     0.000 C 
BRANCH   5   6
ATOM      6  C   UNL     1     -25.341 -25.808  31.252  1.00  0.00     0.000 C 
BRANCH   6   7
ATOM      7  C   UNL     1     -25.771 -27.263  31.535  1.00  0.00     0.000 C 
BRANCH   7   8
ATOM      8  C   UNL     1     -26.091 -28.037  30.243  1.00  0.00     0.000 C 
BRANCH   8   9
ATOM      9  C   UNL     1     -25.928 -27.171  28.983  1.00  0.00     0.000 C 
BRANCH   9  10
ATOM     10  C   UNL     1     -25.803 -28.014  27.703  1.00  0.00     0.006 C 
BRANCH  10  11
ATOM     11  C   UNL     1     -27.172 -28.369  27.105  1.00  0.00     0.053 C 
BRANCH  11  12
ATOM     12  C   UNL     1     -27.096 -28.724  25.650  1.00  0.00     0.041 C 
ATOM     13  O   UNL     1     -28.145 -28.810  24.956  1.00  0.00    -0.550 OA
ATOM     14  O   UNL     1     -25.866 -29.022  25.074  1.00  0.00    -0.550 OA
ENDBRANCH  11  12
ENDBRANCH  10  11
ENDBRANCH   9  10
ENDBRANCH   8   9
ENDBRANCH   7   8
ENDBRANCH   6   7
ENDBRANCH   5   6
ENDBRANCH   4   5
ENDBRANCH   3   4
ENDBRANCH   2   3
ENDBRANCH   1   2
BRANCH   1  15
ATOM     15  C   UNL     1     -22.034 -21.676  28.718  1.00  0.00     0.000 C 
BRANCH  15  16
ATOM     16  C   UNL     1     -22.388 -20.792  29.929  1.00  0.00     0.000 C 
BRANCH  16  17
ATOM     17  C   UNL     1     -21.982 -21.406  31.285  1.00  0.00     0.000 C 
BRANCH  17  18
ATOM     18  C   UNL     1     -20.883 -20.589  31.992  1.00  0.00    -0.000 C 
BRANCH  18  19
ATOM     19  C   UNL     1     -20.835 -19.127  31.511  1.00  0.00    -0.000 C 
BRANCH  19  20
ATOM     20  C   UNL     1     -19.418 -18.621  31.184  1.00  0.00    -0.000 C 
BRANCH  20  21
ATOM     21  C   UNL     1     -19.336 -17.085  31.142  1.00  0.00    -0.000 C 
BRANCH  21  22
ATOM     22  C   UNL     1     -18.363 -16.565  30.069  1.00  0.00    -0.000 C 
BRANCH  22  23
ATOM     23  C   UNL     1     -18.818 -16.862  28.623  1.00  0.00    -0.000 C 
BRANCH  23  24
ATOM     24  C   UNL     1     -18.535 -15.688  27.672  1.00  0.00    -0.000 C 
BRANCH  24  25
ATOM     25  C   UNL     1     -17.169 -15.843  26.994  1.00  0.00    -0.003 C 
ATOM     26  C   UNL     1     -17.177 -15.228  25.599  1.00  0.00     0.004 C 
ENDBRANCH  24  25
ENDBRANCH  23  24
ENDBRANCH  22  23
ENDBRANCH  21  22
ENDBRANCH  20  21
ENDBRANCH  19  20
ENDBRANCH  18  19
ENDBRANCH  17  18
ENDBRANCH  16  17
ENDBRANCH  15  16
ENDBRANCH   1  15
TORSDOF 22
ENDMDL
MODEL 5
REMARK VINA RESULT:    -6.829      0.896      1.675
REMARK INTER + INTRA:         -17.030
REMARK INTER:                 -15.681
REMARK INTRA:                  -1.349
REMARK UNBOUND:                -1.419
REMARK SMILES CCCCCCCCCCCCCCCCCCCCCCCC(=O)[O-]
REMARK SMILES IDX 13 1 14 2 15 3 16 4 17 5 18 6 19 7 20 8 21 9 22 10 23 11
REMARK SMILES IDX 24 12 25 13 26 14 12 15 11 16 10 17 9 18 8 19 7 20 6 21 5 22
REMARK SMILES IDX 4 23 3 24 2 25 1 26
REMARK H PARENT
REMARK Flexibility Score: inf
ROOT
ATOM      1  C   UNL     1     -21.673 -22.831  29.070  1.00  0.00     0.000 C 
ENDROOT
BRANCH   1   2
ATOM      2  C   UNL     1     -22.058 -21.343  28.974  1.00  0.00     0.000 C 
BRANCH   2   3
ATOM      3  C   UNL     1     -22.380 -20.725  30.347  1.00  0.00     0.000 C 
BRANCH   3   4
ATOM      4  C   UNL     1     -21.201 -20.731  31.339  1.00  0.00     0.000 C 
BRANCH   4   5
ATOM      5  C   UNL     1     -20.507 -19.362  31.445  1.00  0.00     0.000 C 
BRANCH   5   6
ATOM      6  C   UNL     1     -20.845 -18.428  30.270  1.00  0.00     0.000 C 
BRANCH   6   7
ATOM      7  C   UNL     1     -19.605 -17.893  29.521  1.00  0.00     0.000 C 
BRANCH   7   8
ATOM      8  C   UNL     1     -18.971 -16.685  30.235  1.00  0.00     0.000 C 
BRANCH   8   9
ATOM      9  C   UNL     1     -17.974 -15.930  29.340  1.00  0.00     0.000 C 
BRANCH   9  10
ATOM     10  C   UNL     1     -18.316 -16.052  27.846  1.00  0.00     0.006 C 
BRANCH  10  11
ATOM     11  C   UNL     1     -17.078 -15.903  26.952  1.00  0.00     0.053 C 
BRANCH  11  12
ATOM     12  C   UNL     1     -17.371 -15.191  25.665  1.00  0.00     0.041 C 
ATOM     13  O   UNL     1     -16.464 -14.558  25.062  1.00  0.00    -0.550 OA
ATOM     14  O   UNL     1     -18.668 -15.177  25.163  1.00  0.00    -0.550 OA
ENDBRANCH  11  12
ENDBRANCH  10  11
ENDBRANCH   9  10
ENDBRANCH   8   9
ENDBRANCH   7   8
ENDBRANCH   6   7
ENDBRANCH   5   6
ENDBRANCH   4   5
ENDBRANCH   3   4
ENDBRANCH   2   3
ENDBRANCH   1   2
BRANCH   1  15
ATOM     15  C   UNL     1     -22.730 -23.755  28.441  1.00  0.00     0.000 C 
BRANCH  15  16
ATOM     16  C   UNL     1     -23.161 -24.941  29.326  1.00  0.00     0.000 C 
BRANCH  16  17
ATOM     17  C   UNL     1     -23.154 -24.623  30.836  1.00  0.00     0.000 C 
BRANCH  17  18
ATOM     18  C   UNL     1     -24.159 -25.487  31.620  1.00  0.00    -0.000 C 
BRANCH  18  19
ATOM     19  C   UNL     1     -25.253 -26.086  30.716  1.00  0.00    -0.000 C 
BRANCH  19  20
ATOM     20  C   UNL     1     -25.826 -27.422  31.224  1.00  0.00    -0.000 C 
BRANCH  20  21
ATOM     21  C   UNL     1     -26.283 -28.341  30.078  1.00  0.00    -0.000 C 
BRANCH  21  22
ATOM     22  C   UNL     1     -26.038 -27.732  28.686  1.00  0.00    -0.000 C 
BRANCH  22  23
ATOM     23  C   UNL     1     -26.950 -28.314  27.584  1.00  0.00    -0.000 C 
BRANCH  23  24
ATOM     24  C   UNL     1     -26.180 -28.608  26.287  1.00  0.00    -0.000 C 
BRANCH  24  25
ATOM     25  C   UNL     1     -27.107 -29.192  25.215  1.00  0.00    -0.003 C 
ATOM     26  C   UNL     1     -28.266 -28.246  24.916  1.00  0.00     0.004 C 
ENDBRANCH  24  25
ENDBRANCH  23  24
ENDBRANCH  22  23
ENDBRANCH  21  22
ENDBRANCH  20  21
ENDBRANCH  19  20
ENDBRANCH  18  19
ENDBRANCH  17  18
ENDBRANCH  16  17
ENDBRANCH  15  16
ENDBRANCH   1  15
TORSDOF 22
ENDMDL
MODEL 6
REMARK VINA RESULT:    -6.551      1.881      2.505
REMARK INTER + INTRA:         -16.396
REMARK INTER:                 -15.289
REMARK INTRA:                  -1.107
REMARK UNBOUND:                -1.419
REMARK SMILES CCCCCCCCCCCCCCCCCCCCCCCC(=O)[O-]
REMARK SMILES IDX 13 1 14 2 15 3 16 4 17 5 18 6 19 7 20 8 21 9 22 10 23 11
REMARK SMILES IDX 24 12 25 13 26 14 12 15 11 16 10 17 9 18 8 19 7 20 6 21 5 22
REMARK SMILES IDX 4 23 3 24 2 25 1 26
REMARK H PARENT
REMARK Flexibility Score: inf
ROOT
ATOM      1  C   UNL     1     -22.037 -22.005  28.751  1.00  0.00     0.000 C 
ENDROOT
BRANCH   1   2
ATOM      2  C   UNL     1     -22.473 -21.066  29.891  1.00  0.00     0.000 C 
BRANCH   2   3
ATOM      3  C   UNL     1     -22.324 -21.712  31.280  1.00  0.00     0.000 C 
BRANCH   3   4
ATOM      4  C   UNL     1     -21.168 -21.142  32.126  1.00  0.00     0.000 C 
BRANCH   4   5
ATOM      5  C   UNL     1     -21.030 -19.616  31.990  1.00  0.00     0.000 C 
BRANCH   5   6
ATOM      6  C   UNL     1     -19.752 -19.196  31.243  1.00  0.00     0.000 C 
BRANCH   6   7
ATOM      7  C   UNL     1     -19.774 -17.738  30.738  1.00  0.00     0.000 C 
BRANCH   7   8
ATOM      8  C   UNL     1     -20.618 -17.577  29.461  1.00  0.00     0.000 C 
BRANCH   8   9
ATOM      9  C   UNL     1     -19.800 -17.033  28.279  1.00  0.00     0.000 C 
BRANCH   9  10
ATOM     10  C   UNL     1     -18.302 -16.911  28.607  1.00  0.00     0.006 C 
BRANCH  10  11
ATOM     11  C   UNL     1     -17.806 -15.460  28.525  1.00  0.00     0.053 C 
BRANCH  11  12
ATOM     12  C   UNL     1     -17.783 -14.778  29.861  1.00  0.00     0.041 C 
ATOM     13  O   UNL     1     -17.666 -13.525  29.938  1.00  0.00    -0.550 OA
ATOM     14  O   UNL     1     -17.828 -15.536  31.025  1.00  0.00    -0.550 OA
ENDBRANCH  11  12
ENDBRANCH  10  11
ENDBRANCH   9  10
ENDBRANCH   8   9
ENDBRANCH   7   8
ENDBRANCH   6   7
ENDBRANCH   5   6
ENDBRANCH   4   5
ENDBRANCH   3   4
ENDBRANCH   2   3
ENDBRANCH   1   2
BRANCH   1  15
ATOM     15  C   UNL     1     -21.961 -23.476  29.194  1.00  0.00     0.000 C 
BRANCH  15  16
ATOM     16  C   UNL     1     -23.062 -24.384  28.615  1.00  0.00     0.000 C 
BRANCH  16  17
ATOM     17  C   UNL     1     -23.310 -25.663  29.441  1.00  0.00     0.000 C 
BRANCH  17  18
ATOM     18  C   UNL     1     -23.576 -25.357  30.927  1.00  0.00    -0.000 C 
BRANCH  18  19
ATOM     19  C   UNL     1     -25.077 -25.360  31.271  1.00  0.00    -0.000 C 
BRANCH  19  20
ATOM     20  C   UNL     1     -25.671 -26.766  31.476  1.00  0.00    -0.000 C 
BRANCH  20  21
ATOM     21  C   UNL     1     -25.398 -27.700  30.285  1.00  0.00    -0.000 C 
BRANCH  21  22
ATOM     22  C   UNL     1     -26.466 -28.796  30.124  1.00  0.00    -0.000 C 
BRANCH  22  23
ATOM     23  C   UNL     1     -27.167 -28.783  28.748  1.00  0.00    -0.000 C 
BRANCH  23  24
ATOM     24  C   UNL     1     -26.457 -27.862  27.743  1.00  0.00    -0.000 C 
BRANCH  24  25
ATOM     25  C   UNL     1     -26.283 -28.555  26.386  1.00  0.00    -0.003 C 
ATOM     26  C   UNL     1     -27.633 -28.818  25.728  1.00  0.00     0.004 C 
ENDBRANCH  24  25
ENDBRANCH  23  24
ENDBRANCH  22  23
ENDBRANCH  21  22
ENDBRANCH  20  21
ENDBRANCH  19  20
ENDBRANCH  18  19
ENDBRANCH  17  18
ENDBRANCH  16  17
ENDBRANCH  15  16
ENDBRANCH   1  15
TORSDOF 22
ENDMDL
MODEL 7
REMARK VINA RESULT:    -5.742      1.400      3.176
REMARK INTER + INTRA:         -14.545
REMARK INTER:                 -13.257
REMARK INTRA:                  -1.288
REMARK UNBOUND:                -1.419
REMARK SMILES CCCCCCCCCCCCCCCCCCCCCCCC(=O)[O-]
REMARK SMILES IDX 13 1 14 2 15 3 16 4 17 5 18 6 19 7 20 8 21 9 22 10 23 11
REMARK SMILES IDX 24 12 25 13 26 14 12 15 11 16 10 17 9 18 8 19 7 20 6 21 5 22
REMARK SMILES IDX 4 23 3 24 2 25 1 26
REMARK H PARENT
REMARK Flexibility Score: inf
ROOT
ATOM      1  C   UNL     1     -23.401 -24.740  29.026  1.00  0.00     0.000 C 
ENDROOT
BRANCH   1   2
ATOM      2  C   UNL     1     -22.671 -24.205  30.272  1.00  0.00     0.000 C 
BRANCH   2   3
ATOM      3  C   UNL     1     -21.679 -23.076  29.938  1.00  0.00     0.000 C 
BRANCH   3   4
ATOM      4  C   UNL     1     -22.110 -22.178  28.762  1.00  0.00     0.000 C 
BRANCH   4   5
ATOM      5  C   UNL     1     -21.886 -20.682  29.043  1.00  0.00     0.000 C 
BRANCH   5   6
ATOM      6  C   UNL     1     -22.314 -20.270  30.462  1.00  0.00     0.000 C 
BRANCH   6   7
ATOM      7  C   UNL     1     -21.173 -19.665  31.308  1.00  0.00     0.000 C 
BRANCH   7   8
ATOM      8  C   UNL     1     -20.435 -18.536  30.566  1.00  0.00     0.000 C 
BRANCH   8   9
ATOM      9  C   UNL     1     -19.527 -17.715  31.496  1.00  0.00     0.000 C 
BRANCH   9  10
ATOM     10  C   UNL     1     -18.726 -16.642  30.740  1.00  0.00     0.006 C 
BRANCH  10  11
ATOM     11  C   UNL     1     -18.608 -16.955  29.242  1.00  0.00     0.053 C 
BRANCH  11  12
ATOM     12  C   UNL     1     -18.022 -15.820  28.456  1.00  0.00     0.041 C 
ATOM     13  O   UNL     1     -17.861 -15.919  27.210  1.00  0.00    -0.550 OA
ATOM     14  O   UNL     1     -17.594 -14.672  29.113  1.00  0.00    -0.550 OA
ENDBRANCH  11  12
ENDBRANCH  10  11
ENDBRANCH   9  10
ENDBRANCH   8   9
ENDBRANCH   7   8
ENDBRANCH   6   7
ENDBRANCH   5   6
ENDBRANCH   4   5
ENDBRANCH   3   4
ENDBRANCH   2   3
ENDBRANCH   1   2
BRANCH   1  15
ATOM     15  C   UNL     1     -24.222 -26.007  29.323  1.00  0.00     0.000 C 
BRANCH  15  16
ATOM     16  C   UNL     1     -24.187 -26.471  30.792  1.00  0.00     0.000 C 
BRANCH  16  17
ATOM     17  C   UNL     1     -25.547 -26.353  31.512  1.00  0.00     0.000 C 
BRANCH  17  18
ATOM     18  C   UNL     1     -26.540 -27.443  31.070  1.00  0.00    -0.000 C 
BRANCH  18  19
ATOM     19  C   UNL     1     -25.846 -28.783  30.760  1.00  0.00    -0.000 C 
BRANCH  19  20
ATOM     20  C   UNL     1     -26.551 -29.618  29.676  1.00  0.00    -0.000 C 
BRANCH  20  21
ATOM     21  C   UNL     1     -27.255 -28.745  28.624  1.00  0.00    -0.000 C 
BRANCH  21  22
ATOM     22  C   UNL     1     -26.273 -27.917  27.776  1.00  0.00    -0.000 C 
BRANCH  22  23
ATOM     23  C   UNL     1     -26.436 -28.127  26.255  1.00  0.00    -0.000 C 
BRANCH  23  24
ATOM     24  C   UNL     1     -27.397 -29.281  25.927  1.00  0.00    -0.000 C 
BRANCH  24  25
ATOM     25  C   UNL     1     -28.689 -28.760  25.287  1.00  0.00    -0.003 C 
ATOM     26  C   UNL     1     -28.392 -27.967  24.019  1.00  0.00     0.004 C 
ENDBRANCH  24  25
ENDBRANCH  23  24
ENDBRANCH  22  23
ENDBRANCH  21  22
ENDBRANCH  20  21
ENDBRANCH  19  20
ENDBRANCH  18  19
ENDBRANCH  17  18
ENDBRANCH  16  17
ENDBRANCH  15  16
ENDBRANCH   1  15
TORSDOF 22
ENDMDL
MODEL 8
REMARK VINA RESULT:    -5.715      4.650     11.693
REMARK INTER + INTRA:         -14.485
REMARK INTER:                 -12.678
REMARK INTRA:                  -1.807
REMARK UNBOUND:                -1.419
REMARK SMILES CCCCCCCCCCCCCCCCCCCCCCCC(=O)[O-]
REMARK SMILES IDX 13 1 14 2 15 3 16 4 17 5 18 6 19 7 20 8 21 9 22 10 23 11
REMARK SMILES IDX 24 12 25 13 26 14 12 15 11 16 10 17 9 18 8 19 7 20 6 21 5 22
REMARK SMILES IDX 4 23 3 24 2 25 1 26
REMARK H PARENT
REMARK Flexibility Score: inf
ROOT
ATOM      1  C   UNL     1     -22.984 -22.616  32.293  1.00  0.00     0.000 C 
ENDROOT
BRANCH   1   2
ATOM      2  C   UNL     1     -23.476 -23.993  31.810  1.00  0.00     0.000 C 
BRANCH   2   3
ATOM      3  C   UNL     1     -22.581 -24.589  30.708  1.00  0.00     0.000 C 
BRANCH   3   4
ATOM      4  C   UNL     1     -23.194 -24.542  29.296  1.00  0.00     0.000 C 
BRANCH   4   5
ATOM      5  C   UNL     1     -24.047 -25.782  28.977  1.00  0.00     0.000 C 
BRANCH   5   6
ATOM      6  C   UNL     1     -25.370 -25.816  29.760  1.00  0.00     0.000 C 
BRANCH   6   7
ATOM      7  C   UNL     1     -25.438 -26.930  30.826  1.00  0.00     0.000 C 
BRANCH   7   8
ATOM      8  C   UNL     1     -25.608 -28.326  30.199  1.00  0.00     0.000 C 
BRANCH   8   9
ATOM      9  C   UNL     1     -27.028 -28.560  29.661  1.00  0.00     0.000 C 
BRANCH   9  10
ATOM     10  C   UNL     1     -27.029 -29.221  28.272  1.00  0.00     0.006 C 
BRANCH  10  11
ATOM     11  C   UNL     1     -26.458 -28.296  27.189  1.00  0.00     0.053 C 
BRANCH  11  12
ATOM     12  C   UNL     1     -26.768 -28.767  25.799  1.00  0.00     0.041 C 
ATOM     13  O   UNL     1     -25.856 -28.858  24.934  1.00  0.00    -0.550 OA
ATOM     14  O   UNL     1     -28.082 -29.048  25.442  1.00  0.00    -0.550 OA
ENDBRANCH  11  12
ENDBRANCH  10  11
ENDBRANCH   9  10
ENDBRANCH   8   9
ENDBRANCH   7   8
ENDBRANCH   6   7
ENDBRANCH   5   6
ENDBRANCH   4   5
ENDBRANCH   3   4
ENDBRANCH   2   3
ENDBRANCH   1   2
BRANCH   1  15
ATOM     15  C   UNL     1     -21.667 -22.192  31.621  1.00  0.00     0.000 C 
BRANCH  15  16
ATOM     16  C   UNL     1     -21.096 -20.846  32.108  1.00  0.00     0.000 C 
BRANCH  16  17
ATOM     17  C   UNL     1     -21.549 -19.637  31.262  1.00  0.00     0.000 C 
BRANCH  17  18
ATOM     18  C   UNL     1     -22.242 -20.065  29.954  1.00  0.00    -0.000 C 
BRANCH  18  19
ATOM     19  C   UNL     1     -21.583 -19.445  28.708  1.00  0.00    -0.000 C 
BRANCH  19  20
ATOM     20  C   UNL     1     -20.178 -18.868  28.962  1.00  0.00    -0.000 C 
BRANCH  20  21
ATOM     21  C   UNL     1     -20.119 -17.346  28.750  1.00  0.00    -0.000 C 
BRANCH  21  22
ATOM     22  C   UNL     1     -18.680 -16.803  28.689  1.00  0.00    -0.000 C 
BRANCH  22  23
ATOM     23  C   UNL     1     -18.267 -15.997  29.940  1.00  0.00    -0.000 C 
BRANCH  23  24
ATOM     24  C   UNL     1     -19.192 -16.267  31.137  1.00  0.00    -0.000 C 
BRANCH  24  25
ATOM     25  C   UNL     1     -18.475 -17.089  32.214  1.00  0.00    -0.003 C 
ATOM     26  C   UNL     1     -18.156 -18.493  31.712  1.00  0.00     0.004 C 
ENDBRANCH  24  25
ENDBRANCH  23  24
ENDBRANCH  22  23
ENDBRANCH  21  22
ENDBRANCH  20  21
ENDBRANCH  19  20
ENDBRANCH  18  19
ENDBRANCH  17  18
ENDBRANCH  16  17
ENDBRANCH  15  16
ENDBRANCH   1  15
TORSDOF 22
ENDMDL
MODEL 9
REMARK VINA RESULT:    -5.688      4.866     12.389
REMARK INTER + INTRA:         -14.423
REMARK INTER:                 -13.333
REMARK INTRA:                  -1.090
REMARK UNBOUND:                -1.419
REMARK SMILES CCCCCCCCCCCCCCCCCCCCCCCC(=O)[O-]
REMARK SMILES IDX 13 1 14 2 15 3 16 4 17 5 18 6 19 7 20 8 21 9 22 10 23 11
REMARK SMILES IDX 24 12 25 13 26 14 12 15 11 16 10 17 9 18 8 19 7 20 6 21 5 22
REMARK SMILES IDX 4 23 3 24 2 25 1 26
REMARK H PARENT
REMARK Flexibility Score: inf
ROOT
ATOM      1  C   UNL     1     -23.038 -22.497  32.058  1.00  0.00     0.000 C 
ENDROOT
BRANCH   1   2
ATOM      2  C   UNL     1     -23.549 -23.857  31.548  1.00  0.00     0.000 C 
BRANCH   2   3
ATOM      3  C   UNL     1     -22.616 -24.485  30.497  1.00  0.00     0.000 C 
BRANCH   3   4
ATOM      4  C   UNL     1     -23.347 -25.177  29.330  1.00  0.00     0.000 C 
BRANCH   4   5
ATOM      5  C   UNL     1     -24.004 -26.505  29.744  1.00  0.00     0.000 C 
BRANCH   5   6
ATOM      6  C   UNL     1     -25.520 -26.378  29.967  1.00  0.00     0.000 C 
BRANCH   6   7
ATOM      7  C   UNL     1     -26.246 -27.733  30.109  1.00  0.00     0.000 C 
BRANCH   7   8
ATOM      8  C   UNL     1     -25.940 -28.683  28.937  1.00  0.00     0.000 C 
BRANCH   8   9
ATOM      9  C   UNL     1     -26.312 -28.076  27.575  1.00  0.00     0.000 C 
BRANCH   9  10
ATOM     10  C   UNL     1     -27.463 -28.831  26.889  1.00  0.00     0.006 C 
BRANCH  10  11
ATOM     11  C   UNL     1     -27.342 -28.811  25.359  1.00  0.00     0.053 C 
BRANCH  11  12
ATOM     12  C   UNL     1     -28.662 -28.614  24.675  1.00  0.00     0.041 C 
ATOM     13  O   UNL     1     -28.768 -27.818  23.703  1.00  0.00    -0.550 OA
ATOM     14  O   UNL     1     -29.793 -29.267  25.152  1.00  0.00    -0.550 OA
ENDBRANCH  11  12
ENDBRANCH  10  11
ENDBRANCH   9  10
ENDBRANCH   8   9
ENDBRANCH   7   8
ENDBRANCH   6   7
ENDBRANCH   5   6
ENDBRANCH   4   5
ENDBRANCH   3   4
ENDBRANCH   2   3
ENDBRANCH   1   2
BRANCH   1  15
ATOM     15  C   UNL     1     -21.652 -22.140  31.494  1.00  0.00     0.000 C 
BRANCH  15  16
ATOM     16  C   UNL     1     -20.939 -20.980  32.215  1.00  0.00     0.000 C 
BRANCH  16  17
ATOM     17  C   UNL     1     -21.129 -19.611  31.528  1.00  0.00     0.000 C 
BRANCH  17  18
ATOM     18  C   UNL     1     -21.742 -19.743  30.122  1.00  0.00    -0.000 C 
BRANCH  18  19
ATOM     19  C   UNL     1     -20.840 -19.143  29.027  1.00  0.00    -0.000 C 
BRANCH  19  20
ATOM     20  C   UNL     1     -19.687 -18.279  29.568  1.00  0.00    -0.000 C 
BRANCH  20  21
ATOM     21  C   UNL     1     -19.568 -16.930  28.838  1.00  0.00    -0.000 C 
BRANCH  21  22
ATOM     22  C   UNL     1     -18.211 -16.241  29.067  1.00  0.00    -0.000 C 
BRANCH  22  23
ATOM     23  C   UNL     1     -17.321 -16.188  27.805  1.00  0.00    -0.000 C 
BRANCH  23  24
ATOM     24  C   UNL     1     -17.867 -15.214  26.750  1.00  0.00    -0.000 C 
BRANCH  24  25
ATOM     25  C   UNL     1     -17.299 -15.528  25.361  1.00  0.00    -0.003 C 
ATOM     26  C   UNL     1     -15.982 -14.795  25.128  1.00  0.00     0.004 C 
ENDBRANCH  24  25
ENDBRANCH  23  24
ENDBRANCH  22  23
ENDBRANCH  21  22
ENDBRANCH  20  21
ENDBRANCH  19  20
ENDBRANCH  18  19
ENDBRANCH  17  18
ENDBRANCH  16  17
ENDBRANCH  15  16
ENDBRANCH   1  15
TORSDOF 22
ENDMDL
