MODEL 1
REMARK VINA RESULT:    -5.768      0.000      0.000
REMARK INTER + INTRA:         -11.978
REMARK INTER:                  -9.815
REMARK INTRA:                  -2.163
REMARK UNBOUND:                -2.163
REMARK SMILES OC[C@H]1O[C@H](Oc2cc(O)cc3[o+]c(-c4ccc(O)cc4)c(O[C@H]4O[C@H](CO)[C@@H](O)[C@@H](O)[C@H]4O)cc23)[C@@H](O)[C@H](O)[C@H]1O.[Cl-]
REMARK SMILES IDX 14 1 22 2 35 3 36 4 7 5 8 6 9 7 11 8 12 9 13 10 15 11 16 12
REMARK SMILES IDX 17 13 18 14 21 15 20 16 19 17 23 19 24 20 33 21 25 22 31 23
REMARK SMILES IDX 26 24 29 25 34 26 32 28 27 30 28 31 30 33 6 35 5 36 37 37
REMARK SMILES IDX 4 38 39 39 3 40 41 41 38 42 40 44 2 46 1 47 42 49 10 51
REMARK H PARENT 19 18 34 27 32 29 28 32 30 34 38 43 40 45 1 48 42 50 10 52
REMARK Flexibility Score: inf
ROOT
ATOM      1  C   UNL     1       1.698  45.913   4.483  1.00  0.00     0.402 A 
ATOM      2  C   UNL     1       2.090  45.711   3.148  1.00  0.00     0.229 A 
ATOM      3  C   UNL     1       3.449  45.710   2.839  1.00  0.00     0.079 A 
ATOM      4  C   UNL     1       4.393  45.948   3.848  1.00  0.00     0.126 A 
ATOM      5  C   UNL     1       5.771  46.033   3.564  1.00  0.00     0.143 A 
ATOM      6  C   UNL     1       6.673  46.236   4.628  1.00  0.00     0.094 A 
ATOM      7  C   UNL     1       6.208  46.369   5.940  1.00  0.00     0.128 A 
ATOM      8  C   UNL     1       4.833  46.321   6.209  1.00  0.00     0.162 A 
ATOM      9  C   UNL     1       3.923  46.122   5.167  1.00  0.00     0.368 A 
ATOM     10  O   UNL     1       2.618  46.101   5.427  1.00  0.00    -0.202 OA
ENDROOT
BRANCH   1  11
ATOM     11  C   UNL     1       0.276  45.924   4.858  1.00  0.00     0.084 A 
ATOM     12  C   UNL     1      -0.457  47.119   4.789  1.00  0.00     0.022 A 
ATOM     13  C   UNL     1      -1.820  47.118   5.097  1.00  0.00     0.047 A 
ATOM     14  C   UNL     1      -2.450  45.933   5.503  1.00  0.00     0.115 A 
ATOM     15  C   UNL     1      -0.353  44.738   5.271  1.00  0.00     0.022 A 
ATOM     16  C   UNL     1      -1.711  44.743   5.597  1.00  0.00     0.047 A 
BRANCH  14  17
ATOM     17  O   UNL     1      -3.807  45.954   5.810  1.00  0.00    -0.508 OA
ATOM     18  H   UNL     1      -4.229  46.737   6.308  1.00  0.00     0.293 HD
ENDBRANCH  14  17
ENDBRANCH   1  11
BRANCH   2  19
ATOM     19  O   UNL     1       1.150  45.518   2.133  1.00  0.00    -0.452 OA
BRANCH  19  20
ATOM     20  C   UNL     1       1.464  44.933   0.860  1.00  0.00     0.339 C 
ATOM     21  C   UNL     1       0.829  45.745  -0.303  1.00  0.00     0.214 C 
ATOM     22  O   UNL     1       1.183  43.533   0.831  1.00  0.00    -0.332 OA
ATOM     23  C   UNL     1       0.660  44.826  -1.529  1.00  0.00     0.180 C 
ATOM     24  C   UNL     1      -0.110  43.244   0.328  1.00  0.00     0.179 C 
ATOM     25  C   UNL     1      -0.209  43.595  -1.180  1.00  0.00     0.177 C 
BRANCH  21  26
ATOM     26  O   UNL     1      -0.421  46.262   0.093  1.00  0.00    -0.384 OA
ATOM     27  H   UNL     1      -0.255  46.877   0.856  1.00  0.00     0.211 HD
ENDBRANCH  21  26
BRANCH  23  28
ATOM     28  O   UNL     1       0.103  45.536  -2.606  1.00  0.00    -0.387 OA
ATOM     29  H   UNL     1      -0.623  46.104  -2.230  1.00  0.00     0.211 HD
ENDBRANCH  23  28
BRANCH  24  30
ATOM     30  C   UNL     1      -0.420  41.768   0.592  1.00  0.00     0.191 C 
BRANCH  30  31
ATOM     31  O   UNL     1      -1.522  41.359  -0.167  1.00  0.00    -0.394 OA
ATOM     32  H   UNL     1      -2.326  41.635   0.344  1.00  0.00     0.210 HD
ENDBRANCH  30  31
ENDBRANCH  24  30
BRANCH  25  33
ATOM     33  O   UNL     1      -1.557  43.850  -1.494  1.00  0.00    -0.387 OA
ATOM     34  H   UNL     1      -1.917  43.038  -1.935  1.00  0.00     0.211 HD
ENDBRANCH  25  33
ENDBRANCH  19  20
ENDBRANCH   2  19
BRANCH   5  35
ATOM     35  O   UNL     1       6.187  45.935   2.222  1.00  0.00    -0.461 OA
BRANCH  35  36
ATOM     36  C   UNL     1       6.126  44.796   1.359  1.00  0.00     0.339 C 
ATOM     37  C   UNL     1       5.109  45.021   0.219  1.00  0.00     0.214 C 
ATOM     38  O   UNL     1       5.942  43.602   2.118  1.00  0.00    -0.332 OA
ATOM     39  C   UNL     1       5.213  43.849  -0.780  1.00  0.00     0.180 C 
ATOM     40  C   UNL     1       5.173  42.595   1.463  1.00  0.00     0.179 C 
ATOM     41  C   UNL     1       5.446  42.485  -0.065  1.00  0.00     0.177 C 
BRANCH  37  42
ATOM     42  O   UNL     1       5.389  46.229  -0.445  1.00  0.00    -0.384 OA
ATOM     43  H   UNL     1       5.243  46.066  -1.414  1.00  0.00     0.211 HD
ENDBRANCH  37  42
BRANCH  39  44
ATOM     44  O   UNL     1       4.070  43.805  -1.603  1.00  0.00    -0.387 OA
ATOM     45  H   UNL     1       4.256  44.358  -2.406  1.00  0.00     0.211 HD
ENDBRANCH  39  44
BRANCH  40  46
ATOM     46  C   UNL     1       5.386  41.258   2.187  1.00  0.00     0.191 C 
BRANCH  46  47
ATOM     47  O   UNL     1       5.205  40.192   1.299  1.00  0.00    -0.394 OA
ATOM     48  H   UNL     1       5.867  40.323   0.575  1.00  0.00     0.210 HD
ENDBRANCH  46  47
ENDBRANCH  40  46
BRANCH  41  49
ATOM     49  O   UNL     1       6.739  41.993  -0.335  1.00  0.00    -0.387 OA
ATOM     50  H   UNL     1       7.274  42.734  -0.720  1.00  0.00     0.211 HD
ENDBRANCH  41  49
ENDBRANCH  35  36
ENDBRANCH   5  35
BRANCH   7  51
ATOM     51  O   UNL     1       7.125  46.552   6.974  1.00  0.00    -0.507 OA
ATOM     52  H   UNL     1       7.708  45.794   7.304  1.00  0.00     0.293 HD
ENDBRANCH   7  51
TORSDOF 17
ENDMDL
MODEL 2
REMARK VINA RESULT:    -4.969     15.549     19.666
REMARK INTER + INTRA:         -10.618
REMARK INTER:                  -8.123
REMARK INTRA:                  -2.495
REMARK UNBOUND:                -2.163
REMARK SMILES OC[C@H]1O[C@H](Oc2cc(O)cc3[o+]c(-c4ccc(O)cc4)c(O[C@H]4O[C@H](CO)[C@@H](O)[C@@H](O)[C@H]4O)cc23)[C@@H](O)[C@H](O)[C@H]1O.[Cl-]
REMARK SMILES IDX 14 1 22 2 35 3 36 4 7 5 8 6 9 7 11 8 12 9 13 10 15 11 16 12
REMARK SMILES IDX 17 13 18 14 21 15 20 16 19 17 23 19 24 20 33 21 25 22 31 23
REMARK SMILES IDX 26 24 29 25 34 26 32 28 27 30 28 31 30 33 6 35 5 36 37 37
REMARK SMILES IDX 4 38 39 39 3 40 41 41 38 42 40 44 2 46 1 47 42 49 10 51
REMARK H PARENT 19 18 34 27 32 29 28 32 30 34 38 43 40 45 1 48 42 50 10 52
REMARK Flexibility Score: inf
ROOT
ATOM      1  C   UNL     1     -11.867  31.578  10.433  1.00  0.00     0.402 A 
ATOM      2  C   UNL     1     -11.375  31.510   9.119  1.00  0.00     0.229 A 
ATOM      3  C   UNL     1     -11.323  32.677   8.358  1.00  0.00     0.079 A 
ATOM      4  C   UNL     1     -11.795  33.881   8.897  1.00  0.00     0.126 A 
ATOM      5  C   UNL     1     -11.833  35.066   8.135  1.00  0.00     0.143 A 
ATOM      6  C   UNL     1     -12.282  36.254   8.747  1.00  0.00     0.094 A 
ATOM      7  C   UNL     1     -12.701  36.253  10.082  1.00  0.00     0.128 A 
ATOM      8  C   UNL     1     -12.696  35.062  10.821  1.00  0.00     0.162 A 
ATOM      9  C   UNL     1     -12.256  33.875  10.232  1.00  0.00     0.368 A 
ATOM     10  O   UNL     1     -12.275  32.743  10.932  1.00  0.00    -0.202 OA
ENDROOT
BRANCH   1  11
ATOM     11  C   UNL     1     -11.943  30.375  11.274  1.00  0.00     0.084 A 
ATOM     12  C   UNL     1     -12.909  29.392  11.005  1.00  0.00     0.022 A 
ATOM     13  C   UNL     1     -12.947  28.225  11.773  1.00  0.00     0.047 A 
ATOM     14  C   UNL     1     -12.044  28.047  12.829  1.00  0.00     0.115 A 
ATOM     15  C   UNL     1     -11.042  30.199  12.337  1.00  0.00     0.022 A 
ATOM     16  C   UNL     1     -11.094  29.040  13.115  1.00  0.00     0.047 A 
BRANCH  14  17
ATOM     17  O   UNL     1     -12.102  26.880  13.585  1.00  0.00    -0.508 OA
ATOM     18  H   UNL     1     -11.928  25.965  13.169  1.00  0.00     0.293 HD
ENDBRANCH  14  17
ENDBRANCH   1  11
BRANCH   2  19
ATOM     19  O   UNL     1     -10.946  30.302   8.563  1.00  0.00    -0.452 OA
BRANCH  19  20
ATOM     20  C   UNL     1     -10.879  30.058   7.149  1.00  0.00     0.339 C 
ATOM     21  C   UNL     1     -11.083  28.551   6.830  1.00  0.00     0.214 C 
ATOM     22  O   UNL     1      -9.713  30.637   6.562  1.00  0.00    -0.332 OA
ATOM     23  C   UNL     1     -10.434  28.230   5.469  1.00  0.00     0.180 C 
ATOM     24  C   UNL     1      -8.628  29.729   6.485  1.00  0.00     0.179 C 
ATOM     25  C   UNL     1      -8.929  28.590   5.477  1.00  0.00     0.177 C 
BRANCH  21  26
ATOM     26  O   UNL     1     -10.507  27.758   7.842  1.00  0.00    -0.384 OA
ATOM     27  H   UNL     1      -9.955  28.361   8.409  1.00  0.00     0.211 HD
ENDBRANCH  21  26
BRANCH  23  28
ATOM     28  O   UNL     1     -10.617  26.875   5.142  1.00  0.00    -0.387 OA
ATOM     29  H   UNL     1      -9.821  26.387   5.486  1.00  0.00     0.211 HD
ENDBRANCH  23  28
BRANCH  24  30
ATOM     30  C   UNL     1      -7.364  30.507   6.107  1.00  0.00     0.191 C 
BRANCH  30  31
ATOM     31  O   UNL     1      -7.263  31.673   6.875  1.00  0.00    -0.394 OA
ATOM     32  H   UNL     1      -7.897  31.562   7.629  1.00  0.00     0.210 HD
ENDBRANCH  30  31
ENDBRANCH  24  30
BRANCH  25  33
ATOM     33  O   UNL     1      -8.164  27.463   5.830  1.00  0.00    -0.387 OA
ATOM     34  H   UNL     1      -7.768  27.643   6.722  1.00  0.00     0.211 HD
ENDBRANCH  25  33
ENDBRANCH  19  20
ENDBRANCH   2  19
BRANCH   5  35
ATOM     35  O   UNL     1     -11.441  35.008   6.784  1.00  0.00    -0.461 OA
BRANCH  35  36
ATOM     36  C   UNL     1     -10.269  35.562   6.179  1.00  0.00     0.339 C 
ATOM     37  C   UNL     1      -9.084  34.575   6.264  1.00  0.00     0.214 C 
ATOM     38  O   UNL     1     -10.014  36.870   6.688  1.00  0.00    -0.332 OA
ATOM     39  C   UNL     1      -7.905  35.140   5.444  1.00  0.00     0.180 C 
ATOM     40  C   UNL     1      -8.633  37.216   6.772  1.00  0.00     0.179 C 
ATOM     41  C   UNL     1      -7.775  36.685   5.588  1.00  0.00     0.177 C 
BRANCH  37  42
ATOM     42  O   UNL     1      -9.461  33.324   5.743  1.00  0.00    -0.384 OA
ATOM     43  H   UNL     1     -10.392  33.421   5.409  1.00  0.00     0.211 HD
ENDBRANCH  37  42
BRANCH  39  44
ATOM     44  O   UNL     1      -6.707  34.491   5.800  1.00  0.00    -0.387 OA
ATOM     45  H   UNL     1      -6.034  35.192   6.006  1.00  0.00     0.211 HD
ENDBRANCH  39  44
BRANCH  40  46
ATOM     46  C   UNL     1      -8.511  38.738   6.940  1.00  0.00     0.191 C 
BRANCH  46  47
ATOM     47  O   UNL     1      -7.393  39.213   6.246  1.00  0.00    -0.394 OA
ATOM     48  H   UNL     1      -7.504  38.912   5.309  1.00  0.00     0.210 HD
ENDBRANCH  46  47
ENDBRANCH  40  46
BRANCH  41  49
ATOM     49  O   UNL     1      -8.095  37.329   4.376  1.00  0.00    -0.387 OA
ATOM     50  H   UNL     1      -7.245  37.573   3.926  1.00  0.00     0.211 HD
ENDBRANCH  41  49
ENDBRANCH  35  36
ENDBRANCH   5  35
BRANCH   7  51
ATOM     51  O   UNL     1     -13.125  37.446  10.664  1.00  0.00    -0.507 OA
ATOM     52  H   UNL     1     -14.017  37.516  11.137  1.00  0.00     0.293 HD
ENDBRANCH   7  51
TORSDOF 17
ENDMDL
MODEL 3
REMARK VINA RESULT:    -4.927     14.661     18.758
REMARK INTER + INTRA:         -10.546
REMARK INTER:                  -9.852
REMARK INTRA:                  -0.694
REMARK UNBOUND:                -2.163
REMARK SMILES OC[C@H]1O[C@H](Oc2cc(O)cc3[o+]c(-c4ccc(O)cc4)c(O[C@H]4O[C@H](CO)[C@@H](O)[C@@H](O)[C@H]4O)cc23)[C@@H](O)[C@H](O)[C@H]1O.[Cl-]
REMARK SMILES IDX 14 1 22 2 35 3 36 4 7 5 8 6 9 7 11 8 12 9 13 10 15 11 16 12
REMARK SMILES IDX 17 13 18 14 21 15 20 16 19 17 23 19 24 20 33 21 25 22 31 23
REMARK SMILES IDX 26 24 29 25 34 26 32 28 27 30 28 31 30 33 6 35 5 36 37 37
REMARK SMILES IDX 4 38 39 39 3 40 41 41 38 42 40 44 2 46 1 47 42 49 10 51
REMARK H PARENT 19 18 34 27 32 29 28 32 30 34 38 43 40 45 1 48 42 50 10 52
REMARK Flexibility Score: inf
ROOT
ATOM      1  C   UNL     1     -11.814  34.231   9.276  1.00  0.00     0.402 A 
ATOM      2  C   UNL     1     -11.806  33.860   7.921  1.00  0.00     0.229 A 
ATOM      3  C   UNL     1     -11.721  32.507   7.594  1.00  0.00     0.079 A 
ATOM      4  C   UNL     1     -11.604  31.550   8.611  1.00  0.00     0.126 A 
ATOM      5  C   UNL     1     -11.437  30.182   8.322  1.00  0.00     0.143 A 
ATOM      6  C   UNL     1     -11.364  29.264   9.390  1.00  0.00     0.094 A 
ATOM      7  C   UNL     1     -11.439  29.707  10.714  1.00  0.00     0.128 A 
ATOM      8  C   UNL     1     -11.568  31.075  10.994  1.00  0.00     0.162 A 
ATOM      9  C   UNL     1     -11.640  31.999   9.950  1.00  0.00     0.368 A 
ATOM     10  O   UNL     1     -11.738  33.298  10.223  1.00  0.00    -0.202 OA
ENDROOT
BRANCH   1  11
ATOM     11  C   UNL     1     -11.901  35.644   9.670  1.00  0.00     0.084 A 
ATOM     12  C   UNL     1     -10.862  36.529   9.341  1.00  0.00     0.022 A 
ATOM     13  C   UNL     1     -10.969  37.882   9.672  1.00  0.00     0.047 A 
ATOM     14  C   UNL     1     -12.097  38.353  10.357  1.00  0.00     0.115 A 
ATOM     15  C   UNL     1     -13.029  36.114  10.364  1.00  0.00     0.022 A 
ATOM     16  C   UNL     1     -13.125  37.464  10.710  1.00  0.00     0.047 A 
BRANCH  14  17
ATOM     17  O   UNL     1     -12.182  39.703  10.682  1.00  0.00    -0.508 OA
ATOM     18  H   UNL     1     -12.712  40.358  10.107  1.00  0.00     0.293 HD
ENDBRANCH  14  17
ENDBRANCH   1  11
BRANCH   2  19
ATOM     19  O   UNL     1     -11.876  34.814   6.902  1.00  0.00    -0.452 OA
BRANCH  19  20
ATOM     20  C   UNL     1     -10.921  34.908   5.835  1.00  0.00     0.339 C 
ATOM     21  C   UNL     1      -9.502  34.492   6.315  1.00  0.00     0.214 C 
ATOM     22  O   UNL     1     -10.978  36.173   5.176  1.00  0.00    -0.332 OA
ATOM     23  C   UNL     1      -8.447  35.146   5.401  1.00  0.00     0.180 C 
ATOM     24  C   UNL     1     -10.057  37.111   5.706  1.00  0.00     0.179 C 
ATOM     25  C   UNL     1      -8.597  36.686   5.400  1.00  0.00     0.177 C 
BRANCH  21  26
ATOM     26  O   UNL     1      -9.305  34.894   7.650  1.00  0.00    -0.384 OA
ATOM     27  H   UNL     1      -9.944  34.378   8.210  1.00  0.00     0.211 HD
ENDBRANCH  21  26
BRANCH  23  28
ATOM     28  O   UNL     1      -7.151  34.775   5.798  1.00  0.00    -0.387 OA
ATOM     29  H   UNL     1      -7.217  33.853   6.168  1.00  0.00     0.211 HD
ENDBRANCH  23  28
BRANCH  24  30
ATOM     30  C   UNL     1     -10.381  38.493   5.134  1.00  0.00     0.191 C 
BRANCH  30  31
ATOM     31  O   UNL     1      -9.686  39.485   5.836  1.00  0.00    -0.394 OA
ATOM     32  H   UNL     1     -10.314  39.830   6.521  1.00  0.00     0.210 HD
ENDBRANCH  30  31
ENDBRANCH  24  30
BRANCH  25  33
ATOM     33  O   UNL     1      -7.751  37.255   6.370  1.00  0.00    -0.387 OA
ATOM     34  H   UNL     1      -7.419  36.516   6.943  1.00  0.00     0.211 HD
ENDBRANCH  25  33
ENDBRANCH  19  20
ENDBRANCH   2  19
BRANCH   5  35
ATOM     35  O   UNL     1     -11.324  29.790   6.974  1.00  0.00    -0.461 OA
BRANCH  35  36
ATOM     36  C   UNL     1     -10.133  29.562   6.216  1.00  0.00     0.339 C 
ATOM     37  C   UNL     1      -9.522  28.182   6.549  1.00  0.00     0.214 C 
ATOM     38  O   UNL     1      -9.243  30.670   6.337  1.00  0.00    -0.332 OA
ATOM     39  C   UNL     1      -8.352  27.910   5.581  1.00  0.00     0.180 C 
ATOM     40  C   UNL     1      -7.859  30.329   6.295  1.00  0.00     0.179 C 
ATOM     41  C   UNL     1      -7.519  29.193   5.288  1.00  0.00     0.177 C 
BRANCH  37  42
ATOM     42  O   UNL     1     -10.496  27.178   6.402  1.00  0.00    -0.384 OA
ATOM     43  H   UNL     1     -11.179  27.334   7.107  1.00  0.00     0.211 HD
ENDBRANCH  37  42
BRANCH  39  44
ATOM     44  O   UNL     1      -7.536  26.875   6.080  1.00  0.00    -0.387 OA
ATOM     45  H   UNL     1      -7.813  26.698   7.016  1.00  0.00     0.211 HD
ENDBRANCH  39  44
BRANCH  40  46
ATOM     46  C   UNL     1      -7.041  31.602   6.032  1.00  0.00     0.191 C 
BRANCH  46  47
ATOM     47  O   UNL     1      -6.408  32.022   7.207  1.00  0.00    -0.394 OA
ATOM     48  H   UNL     1      -6.280  32.999   7.114  1.00  0.00     0.210 HD
ENDBRANCH  46  47
ENDBRANCH  40  46
BRANCH  41  49
ATOM     49  O   UNL     1      -7.690  29.606   3.951  1.00  0.00    -0.387 OA
ATOM     50  H   UNL     1      -8.660  29.744   3.796  1.00  0.00     0.211 HD
ENDBRANCH  41  49
ENDBRANCH  35  36
ENDBRANCH   5  35
BRANCH   7  51
ATOM     51  O   UNL     1     -11.382  28.775  11.750  1.00  0.00    -0.507 OA
ATOM     52  H   UNL     1     -10.952  28.998  12.638  1.00  0.00     0.293 HD
ENDBRANCH   7  51
TORSDOF 17
ENDMDL
MODEL 4
REMARK VINA RESULT:    -4.497      1.442      2.668
REMARK INTER + INTRA:          -9.815
REMARK INTER:                  -8.222
REMARK INTRA:                  -1.593
REMARK UNBOUND:                -2.163
REMARK SMILES OC[C@H]1O[C@H](Oc2cc(O)cc3[o+]c(-c4ccc(O)cc4)c(O[C@H]4O[C@H](CO)[C@@H](O)[C@@H](O)[C@H]4O)cc23)[C@@H](O)[C@H](O)[C@H]1O.[Cl-]
REMARK SMILES IDX 14 1 22 2 35 3 36 4 7 5 8 6 9 7 11 8 12 9 13 10 15 11 16 12
REMARK SMILES IDX 17 13 18 14 21 15 20 16 19 17 23 19 24 20 33 21 25 22 31 23
REMARK SMILES IDX 26 24 29 25 34 26 32 28 27 30 28 31 30 33 6 35 5 36 37 37
REMARK SMILES IDX 4 38 39 39 3 40 41 41 38 42 40 44 2 46 1 47 42 49 10 51
REMARK H PARENT 19 18 34 27 32 29 28 32 30 34 38 43 40 45 1 48 42 50 10 52
REMARK Flexibility Score: inf
ROOT
ATOM      1  C   UNL     1       1.807  46.089   5.092  1.00  0.00     0.402 A 
ATOM      2  C   UNL     1       2.446  46.019   3.842  1.00  0.00     0.229 A 
ATOM      3  C   UNL     1       3.834  46.138   3.789  1.00  0.00     0.079 A 
ATOM      4  C   UNL     1       4.560  46.363   4.966  1.00  0.00     0.126 A 
ATOM      5  C   UNL     1       5.954  46.567   4.946  1.00  0.00     0.143 A 
ATOM      6  C   UNL     1       6.632  46.750   6.169  1.00  0.00     0.094 A 
ATOM      7  C   UNL     1       5.931  46.748   7.379  1.00  0.00     0.128 A 
ATOM      8  C   UNL     1       4.539  46.583   7.386  1.00  0.00     0.162 A 
ATOM      9  C   UNL     1       3.849  46.402   6.186  1.00  0.00     0.368 A 
ATOM     10  O   UNL     1       2.525  46.268   6.199  1.00  0.00    -0.202 OA
ENDROOT
BRANCH   1  11
ATOM     11  C   UNL     1       0.345  45.971   5.199  1.00  0.00     0.084 A 
ATOM     12  C   UNL     1      -0.246  44.707   5.352  1.00  0.00     0.022 A 
ATOM     13  C   UNL     1      -1.630  44.600   5.505  1.00  0.00     0.047 A 
ATOM     14  C   UNL     1      -2.433  45.748   5.476  1.00  0.00     0.115 A 
ATOM     15  C   UNL     1      -0.460  47.122   5.163  1.00  0.00     0.022 A 
ATOM     16  C   UNL     1      -1.846  47.010   5.297  1.00  0.00     0.047 A 
BRANCH  14  17
ATOM     17  O   UNL     1      -3.811  45.619   5.625  1.00  0.00    -0.508 OA
ATOM     18  H   UNL     1      -4.228  44.784   6.036  1.00  0.00     0.293 HD
ENDBRANCH  14  17
ENDBRANCH   1  11
BRANCH   2  19
ATOM     19  O   UNL     1       1.721  45.839   2.661  1.00  0.00    -0.452 OA
BRANCH  19  20
ATOM     20  C   UNL     1       2.253  45.194   1.494  1.00  0.00     0.339 C 
ATOM     21  C   UNL     1       1.242  45.248   0.314  1.00  0.00     0.214 C 
ATOM     22  O   UNL     1       2.754  43.889   1.786  1.00  0.00    -0.332 OA
ATOM     23  C   UNL     1       1.543  44.095  -0.664  1.00  0.00     0.180 C 
ATOM     24  C   UNL     1       1.794  42.870   1.568  1.00  0.00     0.179 C 
ATOM     25  C   UNL     1       1.471  42.728   0.058  1.00  0.00     0.177 C 
BRANCH  21  26
ATOM     26  O   UNL     1      -0.076  45.144   0.799  1.00  0.00    -0.384 OA
ATOM     27  H   UNL     1      -0.668  45.596   0.140  1.00  0.00     0.211 HD
ENDBRANCH  21  26
BRANCH  23  28
ATOM     28  O   UNL     1       0.656  44.127  -1.753  1.00  0.00    -0.387 OA
ATOM     29  H   UNL     1       0.648  43.212  -2.144  1.00  0.00     0.211 HD
ENDBRANCH  23  28
BRANCH  24  30
ATOM     30  C   UNL     1       2.324  41.563   2.164  1.00  0.00     0.191 C 
BRANCH  30  31
ATOM     31  O   UNL     1       1.328  40.579   2.139  1.00  0.00    -0.394 OA
ATOM     32  H   UNL     1       1.396  40.141   1.252  1.00  0.00     0.210 HD
ENDBRANCH  30  31
ENDBRANCH  24  30
BRANCH  25  33
ATOM     33  O   UNL     1       0.183  42.178  -0.076  1.00  0.00    -0.387 OA
ATOM     34  H   UNL     1      -0.448  42.784   0.393  1.00  0.00     0.211 HD
ENDBRANCH  25  33
ENDBRANCH  19  20
ENDBRANCH   2  19
BRANCH   5  35
ATOM     35  O   UNL     1       6.609  46.602   3.700  1.00  0.00    -0.461 OA
BRANCH  35  36
ATOM     36  C   UNL     1       6.229  45.956   2.482  1.00  0.00     0.339 C 
ATOM     37  C   UNL     1       6.883  44.561   2.370  1.00  0.00     0.214 C 
ATOM     38  O   UNL     1       6.439  46.822   1.369  1.00  0.00    -0.332 OA
ATOM     39  C   UNL     1       6.301  43.836   1.138  1.00  0.00     0.180 C 
ATOM     40  C   UNL     1       6.808  46.159   0.161  1.00  0.00     0.179 C 
ATOM     41  C   UNL     1       6.078  44.803  -0.062  1.00  0.00     0.177 C 
BRANCH  37  42
ATOM     42  O   UNL     1       6.613  43.808   3.528  1.00  0.00    -0.384 OA
ATOM     43  H   UNL     1       6.640  44.440   4.294  1.00  0.00     0.211 HD
ENDBRANCH  37  42
BRANCH  39  44
ATOM     44  O   UNL     1       7.124  42.753   0.775  1.00  0.00    -0.387 OA
ATOM     45  H   UNL     1       7.237  42.177   1.576  1.00  0.00     0.211 HD
ENDBRANCH  39  44
BRANCH  40  46
ATOM     46  C   UNL     1       6.611  47.125  -1.016  1.00  0.00     0.191 C 
BRANCH  46  47
ATOM     47  O   UNL     1       6.147  46.430  -2.139  1.00  0.00    -0.394 OA
ATOM     48  H   UNL     1       6.914  45.898  -2.468  1.00  0.00     0.210 HD
ENDBRANCH  46  47
ENDBRANCH  40  46
BRANCH  41  49
ATOM     49  O   UNL     1       4.703  44.980  -0.314  1.00  0.00    -0.387 OA
ATOM     50  H   UNL     1       4.235  44.143  -0.058  1.00  0.00     0.211 HD
ENDBRANCH  41  49
ENDBRANCH  35  36
ENDBRANCH   5  35
BRANCH   7  51
ATOM     51  O   UNL     1       6.630  46.916   8.573  1.00  0.00    -0.507 OA
ATOM     52  H   UNL     1       7.456  46.370   8.782  1.00  0.00     0.293 HD
ENDBRANCH   7  51
TORSDOF 17
ENDMDL
MODEL 5
REMARK VINA RESULT:    -4.191     14.828     19.338
REMARK INTER + INTRA:          -9.293
REMARK INTER:                  -8.594
REMARK INTRA:                  -0.699
REMARK UNBOUND:                -2.163
REMARK SMILES OC[C@H]1O[C@H](Oc2cc(O)cc3[o+]c(-c4ccc(O)cc4)c(O[C@H]4O[C@H](CO)[C@@H](O)[C@@H](O)[C@H]4O)cc23)[C@@H](O)[C@H](O)[C@H]1O.[Cl-]
REMARK SMILES IDX 14 1 22 2 35 3 36 4 7 5 8 6 9 7 11 8 12 9 13 10 15 11 16 12
REMARK SMILES IDX 17 13 18 14 21 15 20 16 19 17 23 19 24 20 33 21 25 22 31 23
REMARK SMILES IDX 26 24 29 25 34 26 32 28 27 30 28 31 30 33 6 35 5 36 37 37
REMARK SMILES IDX 4 38 39 39 3 40 41 41 38 42 40 44 2 46 1 47 42 49 10 51
REMARK H PARENT 19 18 34 27 32 29 28 32 30 34 38 43 40 45 1 48 42 50 10 52
REMARK Flexibility Score: inf
ROOT
ATOM      1  C   UNL     1      -6.791  32.052   6.303  1.00  0.00     0.402 A 
ATOM      2  C   UNL     1      -8.088  31.687   6.701  1.00  0.00     0.229 A 
ATOM      3  C   UNL     1      -9.112  32.630   6.604  1.00  0.00     0.079 A 
ATOM      4  C   UNL     1      -8.825  33.925   6.153  1.00  0.00     0.126 A 
ATOM      5  C   UNL     1      -9.814  34.928   6.115  1.00  0.00     0.143 A 
ATOM      6  C   UNL     1      -9.472  36.202   5.614  1.00  0.00     0.094 A 
ATOM      7  C   UNL     1      -8.169  36.469   5.181  1.00  0.00     0.128 A 
ATOM      8  C   UNL     1      -7.183  35.477   5.258  1.00  0.00     0.162 A 
ATOM      9  C   UNL     1      -7.502  34.210   5.752  1.00  0.00     0.368 A 
ATOM     10  O   UNL     1      -6.555  33.279   5.844  1.00  0.00    -0.202 OA
ENDROOT
BRANCH   1  11
ATOM     11  C   UNL     1      -5.679  31.094   6.388  1.00  0.00     0.084 A 
ATOM     12  C   UNL     1      -4.605  31.343   7.258  1.00  0.00     0.022 A 
ATOM     13  C   UNL     1      -3.574  30.408   7.375  1.00  0.00     0.047 A 
ATOM     14  C   UNL     1      -3.594  29.237   6.606  1.00  0.00     0.115 A 
ATOM     15  C   UNL     1      -5.696  29.924   5.612  1.00  0.00     0.022 A 
ATOM     16  C   UNL     1      -4.654  28.999   5.717  1.00  0.00     0.047 A 
BRANCH  14  17
ATOM     17  O   UNL     1      -2.554  28.320   6.734  1.00  0.00    -0.508 OA
ATOM     18  H   UNL     1      -2.601  27.550   7.401  1.00  0.00     0.293 HD
ENDBRANCH  14  17
ENDBRANCH   1  11
BRANCH   2  19
ATOM     19  O   UNL     1      -8.369  30.410   7.194  1.00  0.00    -0.452 OA
BRANCH  19  20
ATOM     20  C   UNL     1      -9.365  29.543   6.631  1.00  0.00     0.339 C 
ATOM     21  C   UNL     1     -10.747  30.251   6.559  1.00  0.00     0.214 C 
ATOM     22  O   UNL     1      -9.385  28.266   7.270  1.00  0.00    -0.332 OA
ATOM     23  C   UNL     1     -11.861  29.185   6.538  1.00  0.00     0.180 C 
ATOM     24  C   UNL     1     -10.325  28.196   8.328  1.00  0.00     0.179 C 
ATOM     25  C   UNL     1     -11.776  28.275   7.786  1.00  0.00     0.177 C 
BRANCH  21  26
ATOM     26  O   UNL     1     -10.913  31.107   7.665  1.00  0.00    -0.384 OA
ATOM     27  H   UNL     1     -11.890  31.180   7.835  1.00  0.00     0.211 HD
ENDBRANCH  21  26
BRANCH  23  28
ATOM     28  O   UNL     1     -13.125  29.794   6.454  1.00  0.00    -0.387 OA
ATOM     29  H   UNL     1     -13.375  30.064   7.379  1.00  0.00     0.211 HD
ENDBRANCH  23  28
BRANCH  24  30
ATOM     30  C   UNL     1     -10.079  26.906   9.116  1.00  0.00     0.191 C 
BRANCH  30  31
ATOM     31  O   UNL     1     -10.873  26.883  10.269  1.00  0.00    -0.394 OA
ATOM     32  H   UNL     1     -11.797  26.693   9.964  1.00  0.00     0.210 HD
ENDBRANCH  30  31
ENDBRANCH  24  30
BRANCH  25  33
ATOM     33  O   UNL     1     -12.609  28.772   8.805  1.00  0.00    -0.387 OA
ATOM     34  H   UNL     1     -13.482  28.995   8.391  1.00  0.00     0.211 HD
ENDBRANCH  25  33
ENDBRANCH  19  20
ENDBRANCH   2  19
BRANCH   5  35
ATOM     35  O   UNL     1     -11.100  34.623   6.601  1.00  0.00    -0.461 OA
BRANCH  35  36
ATOM     36  C   UNL     1     -11.579  34.708   7.947  1.00  0.00     0.339 C 
ATOM     37  C   UNL     1     -11.413  36.140   8.502  1.00  0.00     0.214 C 
ATOM     38  O   UNL     1     -11.011  33.672   8.746  1.00  0.00    -0.332 OA
ATOM     39  C   UNL     1     -12.105  36.223   9.878  1.00  0.00     0.180 C 
ATOM     40  C   UNL     1     -10.791  34.027  10.110  1.00  0.00     0.179 C 
ATOM     41  C   UNL     1     -11.907  34.926  10.717  1.00  0.00     0.177 C 
BRANCH  37  42
ATOM     42  O   UNL     1     -12.002  37.068   7.624  1.00  0.00    -0.384 OA
ATOM     43  H   UNL     1     -12.984  36.924   7.670  1.00  0.00     0.211 HD
ENDBRANCH  37  42
BRANCH  39  44
ATOM     44  O   UNL     1     -11.659  37.359  10.583  1.00  0.00    -0.387 OA
ATOM     45  H   UNL     1     -10.880  37.085  11.134  1.00  0.00     0.211 HD
ENDBRANCH  39  44
BRANCH  40  46
ATOM     46  C   UNL     1     -10.570  32.745  10.927  1.00  0.00     0.191 C 
BRANCH  46  47
ATOM     47  O   UNL     1     -11.448  31.742  10.501  1.00  0.00    -0.394 OA
ATOM     48  H   UNL     1     -10.985  31.266   9.767  1.00  0.00     0.210 HD
ENDBRANCH  46  47
ENDBRANCH  40  46
BRANCH  41  49
ATOM     49  O   UNL     1     -13.124  34.230  10.859  1.00  0.00    -0.387 OA
ATOM     50  H   UNL     1     -13.824  34.738  10.373  1.00  0.00     0.211 HD
ENDBRANCH  41  49
ENDBRANCH  35  36
ENDBRANCH   5  35
BRANCH   7  51
ATOM     51  O   UNL     1      -7.865  37.732   4.675  1.00  0.00    -0.507 OA
ATOM     52  H   UNL     1      -8.366  38.120   3.886  1.00  0.00     0.293 HD
ENDBRANCH   7  51
TORSDOF 17
ENDMDL
MODEL 6
REMARK VINA RESULT:    -4.165     14.545     19.461
REMARK INTER + INTRA:          -9.249
REMARK INTER:                  -8.500
REMARK INTRA:                  -0.749
REMARK UNBOUND:                -2.163
REMARK SMILES OC[C@H]1O[C@H](Oc2cc(O)cc3[o+]c(-c4ccc(O)cc4)c(O[C@H]4O[C@H](CO)[C@@H](O)[C@@H](O)[C@H]4O)cc23)[C@@H](O)[C@H](O)[C@H]1O.[Cl-]
REMARK SMILES IDX 14 1 22 2 35 3 36 4 7 5 8 6 9 7 11 8 12 9 13 10 15 11 16 12
REMARK SMILES IDX 17 13 18 14 21 15 20 16 19 17 23 19 24 20 33 21 25 22 31 23
REMARK SMILES IDX 26 24 29 25 34 26 32 28 27 30 28 31 30 33 6 35 5 36 37 37
REMARK SMILES IDX 4 38 39 39 3 40 41 41 38 42 40 44 2 46 1 47 42 49 10 51
REMARK H PARENT 19 18 34 27 32 29 28 32 30 34 38 43 40 45 1 48 42 50 10 52
REMARK Flexibility Score: inf
ROOT
ATOM      1  C   UNL     1      -8.142  31.888   5.800  1.00  0.00     0.402 A 
ATOM      2  C   UNL     1      -9.260  31.992   6.644  1.00  0.00     0.229 A 
ATOM      3  C   UNL     1      -9.800  33.253   6.895  1.00  0.00     0.079 A 
ATOM      4  C   UNL     1      -9.200  34.390   6.338  1.00  0.00     0.126 A 
ATOM      5  C   UNL     1      -9.667  35.688   6.628  1.00  0.00     0.143 A 
ATOM      6  C   UNL     1      -9.045  36.790   6.006  1.00  0.00     0.094 A 
ATOM      7  C   UNL     1      -7.972  36.599   5.129  1.00  0.00     0.128 A 
ATOM      8  C   UNL     1      -7.490  35.308   4.875  1.00  0.00     0.162 A 
ATOM      9  C   UNL     1      -8.092  34.204   5.483  1.00  0.00     0.368 A 
ATOM     10  O   UNL     1      -7.614  32.983   5.255  1.00  0.00    -0.202 OA
ENDROOT
BRANCH   1  11
ATOM     11  C   UNL     1      -7.536  30.581   5.507  1.00  0.00     0.084 A 
ATOM     12  C   UNL     1      -8.283  29.597   4.839  1.00  0.00     0.022 A 
ATOM     13  C   UNL     1      -7.691  28.374   4.517  1.00  0.00     0.047 A 
ATOM     14  C   UNL     1      -6.363  28.115   4.883  1.00  0.00     0.115 A 
ATOM     15  C   UNL     1      -6.208  30.320   5.881  1.00  0.00     0.022 A 
ATOM     16  C   UNL     1      -5.623  29.088   5.574  1.00  0.00     0.047 A 
BRANCH  14  17
ATOM     17  O   UNL     1      -5.793  26.888   4.557  1.00  0.00    -0.508 OA
ATOM     18  H   UNL     1      -4.868  26.825   4.133  1.00  0.00     0.293 HD
ENDBRANCH  14  17
ENDBRANCH   1  11
BRANCH   2  19
ATOM     19  O   UNL     1      -9.834  30.864   7.238  1.00  0.00    -0.452 OA
BRANCH  19  20
ATOM     20  C   UNL     1     -11.205  30.799   7.659  1.00  0.00     0.339 C 
ATOM     21  C   UNL     1     -11.490  31.817   8.797  1.00  0.00     0.214 C 
ATOM     22  O   UNL     1     -11.614  29.460   7.942  1.00  0.00    -0.332 OA
ATOM     23  C   UNL     1     -12.710  31.339   9.610  1.00  0.00     0.180 C 
ATOM     24  C   UNL     1     -11.471  29.121   9.310  1.00  0.00     0.179 C 
ATOM     25  C   UNL     1     -12.467  29.924  10.187  1.00  0.00     0.177 C 
BRANCH  21  26
ATOM     26  O   UNL     1     -10.364  31.936   9.635  1.00  0.00    -0.384 OA
ATOM     27  H   UNL     1     -10.389  32.848  10.032  1.00  0.00     0.211 HD
ENDBRANCH  21  26
BRANCH  23  28
ATOM     28  O   UNL     1     -13.006  32.249  10.639  1.00  0.00    -0.387 OA
ATOM     29  H   UNL     1     -12.324  32.973  10.586  1.00  0.00     0.211 HD
ENDBRANCH  23  28
BRANCH  24  30
ATOM     30  C   UNL     1     -11.666  27.610   9.463  1.00  0.00     0.191 C 
BRANCH  30  31
ATOM     31  O   UNL     1     -12.352  27.326  10.650  1.00  0.00    -0.394 OA
ATOM     32  H   UNL     1     -11.752  27.602  11.388  1.00  0.00     0.210 HD
ENDBRANCH  30  31
ENDBRANCH  24  30
BRANCH  25  33
ATOM     33  O   UNL     1     -11.944  30.016  11.490  1.00  0.00    -0.387 OA
ATOM     34  H   UNL     1     -10.975  30.210  11.407  1.00  0.00     0.211 HD
ENDBRANCH  25  33
ENDBRANCH  19  20
ENDBRANCH   2  19
BRANCH   5  35
ATOM     35  O   UNL     1     -10.722  35.831   7.550  1.00  0.00    -0.461 OA
BRANCH  35  36
ATOM     36  C   UNL     1     -11.108  37.001   8.277  1.00  0.00     0.339 C 
ATOM     37  C   UNL     1     -11.877  36.623   9.562  1.00  0.00     0.214 C 
ATOM     38  O   UNL     1     -11.769  37.928   7.418  1.00  0.00    -0.332 OA
ATOM     39  C   UNL     1     -12.110  37.900  10.396  1.00  0.00     0.180 C 
ATOM     40  C   UNL     1     -12.785  38.703   8.051  1.00  0.00     0.179 C 
ATOM     41  C   UNL     1     -12.438  39.134   9.505  1.00  0.00     0.177 C 
BRANCH  37  42
ATOM     42  O   UNL     1     -11.130  35.700  10.316  1.00  0.00    -0.384 OA
ATOM     43  H   UNL     1     -11.782  35.145  10.820  1.00  0.00     0.211 HD
ENDBRANCH  37  42
BRANCH  39  44
ATOM     44  O   UNL     1     -13.118  37.681  11.355  1.00  0.00    -0.387 OA
ATOM     45  H   UNL     1     -13.740  36.999  10.989  1.00  0.00     0.211 HD
ENDBRANCH  39  44
BRANCH  40  46
ATOM     46  C   UNL     1     -13.124  39.904   7.155  1.00  0.00     0.191 C 
BRANCH  46  47
ATOM     47  O   UNL     1     -12.427  39.817   5.945  1.00  0.00    -0.394 OA
ATOM     48  H   UNL     1     -11.483  40.029   6.157  1.00  0.00     0.210 HD
ENDBRANCH  46  47
ENDBRANCH  40  46
BRANCH  41  49
ATOM     49  O   UNL     1     -11.386  40.071   9.539  1.00  0.00    -0.387 OA
ATOM     50  H   UNL     1     -10.752  39.845   8.812  1.00  0.00     0.211 HD
ENDBRANCH  41  49
ENDBRANCH  35  36
ENDBRANCH   5  35
BRANCH   7  51
ATOM     51  O   UNL     1      -7.388  37.707   4.516  1.00  0.00    -0.507 OA
ATOM     52  H   UNL     1      -6.395  37.740   4.321  1.00  0.00     0.293 HD
ENDBRANCH   7  51
TORSDOF 17
ENDMDL
MODEL 7
REMARK VINA RESULT:    -4.153     14.013     17.989
REMARK INTER + INTRA:          -9.230
REMARK INTER:                  -7.918
REMARK INTRA:                  -1.312
REMARK UNBOUND:                -2.163
REMARK SMILES OC[C@H]1O[C@H](Oc2cc(O)cc3[o+]c(-c4ccc(O)cc4)c(O[C@H]4O[C@H](CO)[C@@H](O)[C@@H](O)[C@H]4O)cc23)[C@@H](O)[C@H](O)[C@H]1O.[Cl-]
REMARK SMILES IDX 14 1 22 2 35 3 36 4 7 5 8 6 9 7 11 8 12 9 13 10 15 11 16 12
REMARK SMILES IDX 17 13 18 14 21 15 20 16 19 17 23 19 24 20 33 21 25 22 31 23
REMARK SMILES IDX 26 24 29 25 34 26 32 28 27 30 28 31 30 33 6 35 5 36 37 37
REMARK SMILES IDX 4 38 39 39 3 40 41 41 38 42 40 44 2 46 1 47 42 49 10 51
REMARK H PARENT 19 18 34 27 32 29 28 32 30 34 38 43 40 45 1 48 42 50 10 52
REMARK Flexibility Score: inf
ROOT
ATOM      1  C   UNL     1     -10.857  32.780   7.864  1.00  0.00     0.402 A 
ATOM      2  C   UNL     1      -9.700  33.024   7.104  1.00  0.00     0.229 A 
ATOM      3  C   UNL     1      -9.164  31.987   6.342  1.00  0.00     0.079 A 
ATOM      4  C   UNL     1      -9.759  30.718   6.377  1.00  0.00     0.126 A 
ATOM      5  C   UNL     1      -9.203  29.624   5.683  1.00  0.00     0.143 A 
ATOM      6  C   UNL     1      -9.870  28.383   5.726  1.00  0.00     0.094 A 
ATOM      7  C   UNL     1     -11.052  28.235   6.458  1.00  0.00     0.128 A 
ATOM      8  C   UNL     1     -11.578  29.318   7.176  1.00  0.00     0.162 A 
ATOM      9  C   UNL     1     -10.930  30.556   7.147  1.00  0.00     0.368 A 
ATOM     10  O   UNL     1     -11.422  31.574   7.849  1.00  0.00    -0.202 OA
ENDROOT
BRANCH   1  11
ATOM     11  C   UNL     1     -11.459  33.841   8.684  1.00  0.00     0.084 A 
ATOM     12  C   UNL     1     -10.908  34.155   9.937  1.00  0.00     0.022 A 
ATOM     13  C   UNL     1     -11.449  35.197  10.694  1.00  0.00     0.047 A 
ATOM     14  C   UNL     1     -12.558  35.911  10.219  1.00  0.00     0.115 A 
ATOM     15  C   UNL     1     -12.574  34.552   8.211  1.00  0.00     0.022 A 
ATOM     16  C   UNL     1     -13.125  35.581   8.977  1.00  0.00     0.047 A 
BRANCH  14  17
ATOM     17  O   UNL     1     -13.085  36.943  10.989  1.00  0.00    -0.508 OA
ATOM     18  H   UNL     1     -12.644  37.238  11.860  1.00  0.00     0.293 HD
ENDBRANCH  14  17
ENDBRANCH   1  11
BRANCH   2  19
ATOM     19  O   UNL     1      -9.079  34.276   7.103  1.00  0.00    -0.452 OA
BRANCH  19  20
ATOM     20  C   UNL     1      -9.468  35.355   6.240  1.00  0.00     0.339 C 
ATOM     21  C   UNL     1      -8.228  36.019   5.580  1.00  0.00     0.214 C 
ATOM     22  O   UNL     1     -10.355  36.266   6.890  1.00  0.00    -0.332 OA
ATOM     23  C   UNL     1      -8.583  37.464   5.176  1.00  0.00     0.180 C 
ATOM     24  C   UNL     1      -9.678  37.359   7.486  1.00  0.00     0.179 C 
ATOM     25  C   UNL     1      -9.053  38.280   6.405  1.00  0.00     0.177 C 
BRANCH  21  26
ATOM     26  O   UNL     1      -7.141  36.017   6.476  1.00  0.00    -0.384 OA
ATOM     27  H   UNL     1      -6.558  36.785   6.232  1.00  0.00     0.211 HD
ENDBRANCH  21  26
BRANCH  23  28
ATOM     28  O   UNL     1      -7.485  38.089   4.559  1.00  0.00    -0.387 OA
ATOM     29  H   UNL     1      -7.836  38.901   4.104  1.00  0.00     0.211 HD
ENDBRANCH  23  28
BRANCH  24  30
ATOM     30  C   UNL     1     -10.665  38.117   8.379  1.00  0.00     0.191 C 
BRANCH  30  31
ATOM     31  O   UNL     1     -10.996  39.349   7.802  1.00  0.00    -0.394 OA
ATOM     32  H   UNL     1     -10.136  39.800   7.604  1.00  0.00     0.210 HD
ENDBRANCH  30  31
ENDBRANCH  24  30
BRANCH  25  33
ATOM     33  O   UNL     1      -7.966  38.967   6.975  1.00  0.00    -0.387 OA
ATOM     34  H   UNL     1      -7.294  38.288   7.243  1.00  0.00     0.211 HD
ENDBRANCH  25  33
ENDBRANCH  19  20
ENDBRANCH   2  19
BRANCH   5  35
ATOM     35  O   UNL     1      -7.989  29.812   4.995  1.00  0.00    -0.461 OA
BRANCH  35  36
ATOM     36  C   UNL     1      -6.691  29.322   5.342  1.00  0.00     0.339 C 
ATOM     37  C   UNL     1      -5.805  30.456   5.903  1.00  0.00     0.214 C 
ATOM     38  O   UNL     1      -6.129  28.584   4.259  1.00  0.00    -0.332 OA
ATOM     39  C   UNL     1      -4.489  29.845   6.428  1.00  0.00     0.180 C 
ATOM     40  C   UNL     1      -4.710  28.676   4.151  1.00  0.00     0.179 C 
ATOM     41  C   UNL     1      -3.971  28.691   5.520  1.00  0.00     0.177 C 
BRANCH  37  42
ATOM     42  O   UNL     1      -6.470  31.111   6.954  1.00  0.00    -0.384 OA
ATOM     43  H   UNL     1      -7.017  31.833   6.544  1.00  0.00     0.211 HD
ENDBRANCH  37  42
BRANCH  39  44
ATOM     44  O   UNL     1      -3.512  30.848   6.585  1.00  0.00    -0.387 OA
ATOM     45  H   UNL     1      -3.470  31.362   5.737  1.00  0.00     0.211 HD
ENDBRANCH  39  44
BRANCH  40  46
ATOM     46  C   UNL     1      -4.207  27.552   3.232  1.00  0.00     0.191 C 
BRANCH  46  47
ATOM     47  O   UNL     1      -4.070  28.023   1.922  1.00  0.00    -0.394 OA
ATOM     48  H   UNL     1      -4.664  28.813   1.851  1.00  0.00     0.210 HD
ENDBRANCH  46  47
ENDBRANCH  40  46
BRANCH  41  49
ATOM     49  O   UNL     1      -4.065  27.451   6.183  1.00  0.00    -0.387 OA
ATOM     50  H   UNL     1      -4.191  26.746   5.496  1.00  0.00     0.211 HD
ENDBRANCH  41  49
ENDBRANCH  35  36
ENDBRANCH   5  35
BRANCH   7  51
ATOM     51  O   UNL     1     -11.699  26.999   6.468  1.00  0.00    -0.507 OA
ATOM     52  H   UNL     1     -12.292  26.707   5.703  1.00  0.00     0.293 HD
ENDBRANCH   7  51
TORSDOF 17
ENDMDL
MODEL 8
REMARK VINA RESULT:    -4.073     15.155     19.011
REMARK INTER + INTRA:          -9.093
REMARK INTER:                  -9.840
REMARK INTRA:                   0.747
REMARK UNBOUND:                -2.163
REMARK SMILES OC[C@H]1O[C@H](Oc2cc(O)cc3[o+]c(-c4ccc(O)cc4)c(O[C@H]4O[C@H](CO)[C@@H](O)[C@@H](O)[C@H]4O)cc23)[C@@H](O)[C@H](O)[C@H]1O.[Cl-]
REMARK SMILES IDX 14 1 22 2 35 3 36 4 7 5 8 6 9 7 11 8 12 9 13 10 15 11 16 12
REMARK SMILES IDX 17 13 18 14 21 15 20 16 19 17 23 19 24 20 33 21 25 22 31 23
REMARK SMILES IDX 26 24 29 25 34 26 32 28 27 30 28 31 30 33 6 35 5 36 37 37
REMARK SMILES IDX 4 38 39 39 3 40 41 41 38 42 40 44 2 46 1 47 42 49 10 51
REMARK H PARENT 19 18 34 27 32 29 28 32 30 34 38 43 40 45 1 48 42 50 10 52
REMARK Flexibility Score: inf
ROOT
ATOM      1  C   UNL     1      -9.899  35.395   6.635  1.00  0.00     0.402 A 
ATOM      2  C   UNL     1     -10.787  34.333   6.872  1.00  0.00     0.229 A 
ATOM      3  C   UNL     1     -10.294  33.029   6.865  1.00  0.00     0.079 A 
ATOM      4  C   UNL     1      -8.941  32.797   6.585  1.00  0.00     0.126 A 
ATOM      5  C   UNL     1      -8.419  31.492   6.492  1.00  0.00     0.143 A 
ATOM      6  C   UNL     1      -7.041  31.325   6.246  1.00  0.00     0.094 A 
ATOM      7  C   UNL     1      -6.209  32.437   6.081  1.00  0.00     0.128 A 
ATOM      8  C   UNL     1      -6.742  33.732   6.138  1.00  0.00     0.162 A 
ATOM      9  C   UNL     1      -8.106  33.917   6.378  1.00  0.00     0.368 A 
ATOM     10  O   UNL     1      -8.610  35.148   6.408  1.00  0.00    -0.202 OA
ENDROOT
BRANCH   1  11
ATOM     11  C   UNL     1     -10.371  36.787   6.631  1.00  0.00     0.084 A 
ATOM     12  C   UNL     1     -10.402  37.513   5.430  1.00  0.00     0.022 A 
ATOM     13  C   UNL     1     -10.898  38.819   5.418  1.00  0.00     0.047 A 
ATOM     14  C   UNL     1     -11.338  39.416   6.607  1.00  0.00     0.115 A 
ATOM     15  C   UNL     1     -10.805  37.388   7.824  1.00  0.00     0.022 A 
ATOM     16  C   UNL     1     -11.284  38.700   7.813  1.00  0.00     0.047 A 
BRANCH  14  17
ATOM     17  O   UNL     1     -11.825  40.719   6.575  1.00  0.00    -0.508 OA
ATOM     18  H   UNL     1     -12.527  41.044   7.239  1.00  0.00     0.293 HD
ENDBRANCH  14  17
ENDBRANCH   1  11
BRANCH   2  19
ATOM     19  O   UNL     1     -12.147  34.557   7.106  1.00  0.00    -0.452 OA
BRANCH  19  20
ATOM     20  C   UNL     1     -12.893  33.899   8.141  1.00  0.00     0.339 C 
ATOM     21  C   UNL     1     -12.868  34.723   9.459  1.00  0.00     0.214 C 
ATOM     22  O   UNL     1     -12.512  32.531   8.288  1.00  0.00    -0.332 OA
ATOM     23  C   UNL     1     -13.124  33.779  10.651  1.00  0.00     0.180 C 
ATOM     24  C   UNL     1     -11.513  32.343   9.276  1.00  0.00     0.179 C 
ATOM     25  C   UNL     1     -12.071  32.645  10.692  1.00  0.00     0.177 C 
BRANCH  21  26
ATOM     26  O   UNL     1     -11.623  35.365   9.606  1.00  0.00    -0.384 OA
ATOM     27  H   UNL     1     -11.801  36.265   9.990  1.00  0.00     0.211 HD
ENDBRANCH  21  26
BRANCH  23  28
ATOM     28  O   UNL     1     -13.125  34.497  11.858  1.00  0.00    -0.387 OA
ATOM     29  H   UNL     1     -12.565  33.981  12.500  1.00  0.00     0.211 HD
ENDBRANCH  23  28
BRANCH  24  30
ATOM     30  C   UNL     1     -10.981  30.911   9.167  1.00  0.00     0.191 C 
BRANCH  30  31
ATOM     31  O   UNL     1     -11.986  29.992   9.489  1.00  0.00    -0.394 OA
ATOM     32  H   UNL     1     -11.790  29.174   8.966  1.00  0.00     0.210 HD
ENDBRANCH  30  31
ENDBRANCH  24  30
BRANCH  25  33
ATOM     33  O   UNL     1     -10.999  33.010  11.527  1.00  0.00    -0.387 OA
ATOM     34  H   UNL     1     -10.348  32.263  11.516  1.00  0.00     0.211 HD
ENDBRANCH  25  33
ENDBRANCH  19  20
ENDBRANCH   2  19
BRANCH   5  35
ATOM     35  O   UNL     1      -9.305  30.404   6.624  1.00  0.00    -0.461 OA
BRANCH  35  36
ATOM     36  C   UNL     1      -9.787  29.528   5.601  1.00  0.00     0.339 C 
ATOM     37  C   UNL     1     -11.010  28.724   6.095  1.00  0.00     0.214 C 
ATOM     38  O   UNL     1      -8.719  28.751   5.063  1.00  0.00    -0.332 OA
ATOM     39  C   UNL     1     -11.600  27.936   4.907  1.00  0.00     0.180 C 
ATOM     40  C   UNL     1      -9.093  27.440   4.641  1.00  0.00     0.179 C 
ATOM     41  C   UNL     1     -10.494  27.368   3.969  1.00  0.00     0.177 C 
BRANCH  37  42
ATOM     42  O   UNL     1     -11.985  29.598   6.609  1.00  0.00    -0.384 OA
ATOM     43  H   UNL     1     -12.417  29.130   7.372  1.00  0.00     0.211 HD
ENDBRANCH  37  42
BRANCH  39  44
ATOM     44  O   UNL     1     -12.449  26.912   5.373  1.00  0.00    -0.387 OA
ATOM     45  H   UNL     1     -12.551  27.028   6.353  1.00  0.00     0.211 HD
ENDBRANCH  39  44
BRANCH  40  46
ATOM     46  C   UNL     1      -7.987  26.875   3.738  1.00  0.00     0.191 C 
BRANCH  46  47
ATOM     47  O   UNL     1      -7.271  27.918   3.139  1.00  0.00    -0.394 OA
ATOM     48  H   UNL     1      -7.792  28.186   2.341  1.00  0.00     0.210 HD
ENDBRANCH  46  47
ENDBRANCH  40  46
BRANCH  41  49
ATOM     49  O   UNL     1     -10.514  28.020   2.720  1.00  0.00    -0.387 OA
ATOM     50  H   UNL     1     -11.267  27.649   2.193  1.00  0.00     0.211 HD
ENDBRANCH  41  49
ENDBRANCH  35  36
ENDBRANCH   5  35
BRANCH   7  51
ATOM     51  O   UNL     1      -4.847  32.242   5.856  1.00  0.00    -0.507 OA
ATOM     52  H   UNL     1      -4.172  32.976   6.030  1.00  0.00     0.293 HD
ENDBRANCH   7  51
TORSDOF 17
ENDMDL
MODEL 9
REMARK VINA RESULT:    -4.042     15.532     19.569
REMARK INTER + INTRA:          -9.041
REMARK INTER:                  -8.083
REMARK INTRA:                  -0.958
REMARK UNBOUND:                -2.163
REMARK SMILES OC[C@H]1O[C@H](Oc2cc(O)cc3[o+]c(-c4ccc(O)cc4)c(O[C@H]4O[C@H](CO)[C@@H](O)[C@@H](O)[C@H]4O)cc23)[C@@H](O)[C@H](O)[C@H]1O.[Cl-]
REMARK SMILES IDX 14 1 22 2 35 3 36 4 7 5 8 6 9 7 11 8 12 9 13 10 15 11 16 12
REMARK SMILES IDX 17 13 18 14 21 15 20 16 19 17 23 19 24 20 33 21 25 22 31 23
REMARK SMILES IDX 26 24 29 25 34 26 32 28 27 30 28 31 30 33 6 35 5 36 37 37
REMARK SMILES IDX 4 38 39 39 3 40 41 41 38 42 40 44 2 46 1 47 42 49 10 51
REMARK H PARENT 19 18 34 27 32 29 28 32 30 34 38 43 40 45 1 48 42 50 10 52
REMARK Flexibility Score: inf
ROOT
ATOM      1  C   UNL     1     -11.761  33.228   9.393  1.00  0.00     0.402 A 
ATOM      2  C   UNL     1     -11.128  32.526   8.353  1.00  0.00     0.229 A 
ATOM      3  C   UNL     1     -11.025  31.138   8.442  1.00  0.00     0.079 A 
ATOM      4  C   UNL     1     -11.514  30.475   9.576  1.00  0.00     0.126 A 
ATOM      5  C   UNL     1     -11.360  29.084   9.741  1.00  0.00     0.143 A 
ATOM      6  C   UNL     1     -11.909  28.470  10.885  1.00  0.00     0.094 A 
ATOM      7  C   UNL     1     -12.578  29.231  11.849  1.00  0.00     0.128 A 
ATOM      8  C   UNL     1     -12.694  30.620  11.696  1.00  0.00     0.162 A 
ATOM      9  C   UNL     1     -12.156  31.246  10.570  1.00  0.00     0.368 A 
ATOM     10  O   UNL     1     -12.249  32.568  10.442  1.00  0.00    -0.202 OA
ENDROOT
BRANCH   1  11
ATOM     11  C   UNL     1     -11.892  34.691   9.345  1.00  0.00     0.084 A 
ATOM     12  C   UNL     1     -10.886  35.503   9.892  1.00  0.00     0.022 A 
ATOM     13  C   UNL     1     -10.987  36.893   9.801  1.00  0.00     0.047 A 
ATOM     14  C   UNL     1     -12.105  37.480   9.192  1.00  0.00     0.115 A 
ATOM     15  C   UNL     1     -13.015  35.278   8.740  1.00  0.00     0.022 A 
ATOM     16  C   UNL     1     -13.124  36.669   8.667  1.00  0.00     0.047 A 
BRANCH  14  17
ATOM     17  O   UNL     1     -12.189  38.867   9.115  1.00  0.00    -0.508 OA
ATOM     18  H   UNL     1     -12.704  39.409   9.808  1.00  0.00     0.293 HD
ENDBRANCH  14  17
ENDBRANCH   1  11
BRANCH   2  19
ATOM     19  O   UNL     1     -10.598  33.189   7.243  1.00  0.00    -0.452 OA
BRANCH  19  20
ATOM     20  C   UNL     1      -9.466  34.069   7.309  1.00  0.00     0.339 C 
ATOM     21  C   UNL     1      -9.581  35.209   6.259  1.00  0.00     0.214 C 
ATOM     22  O   UNL     1      -8.230  33.355   7.277  1.00  0.00    -0.332 OA
ATOM     23  C   UNL     1      -8.172  35.745   5.937  1.00  0.00     0.180 C 
ATOM     24  C   UNL     1      -7.702  33.230   5.968  1.00  0.00     0.179 C 
ATOM     25  C   UNL     1      -7.257  34.610   5.417  1.00  0.00     0.177 C 
BRANCH  21  26
ATOM     26  O   UNL     1     -10.199  34.730   5.087  1.00  0.00    -0.384 OA
ATOM     27  H   UNL     1     -10.818  34.001   5.360  1.00  0.00     0.211 HD
ENDBRANCH  21  26
BRANCH  23  28
ATOM     28  O   UNL     1      -8.243  36.791   5.001  1.00  0.00    -0.387 OA
ATOM     29  H   UNL     1      -8.030  36.397   4.113  1.00  0.00     0.211 HD
ENDBRANCH  23  28
BRANCH  24  30
ATOM     30  C   UNL     1      -6.544  32.228   6.000  1.00  0.00     0.191 C 
BRANCH  30  31
ATOM     31  O   UNL     1      -6.361  31.739   7.299  1.00  0.00    -0.394 OA
ATOM     32  H   UNL     1      -6.964  32.269   7.881  1.00  0.00     0.210 HD
ENDBRANCH  30  31
ENDBRANCH  24  30
BRANCH  25  33
ATOM     33  O   UNL     1      -7.293  34.565   4.011  1.00  0.00    -0.387 OA
ATOM     34  H   UNL     1      -6.521  35.091   3.678  1.00  0.00     0.211 HD
ENDBRANCH  25  33
ENDBRANCH  19  20
ENDBRANCH   2  19
BRANCH   5  35
ATOM     35  O   UNL     1     -10.642  28.368   8.764  1.00  0.00    -0.461 OA
BRANCH  35  36
ATOM     36  C   UNL     1     -10.322  28.771   7.429  1.00  0.00     0.339 C 
ATOM     37  C   UNL     1     -11.253  28.083   6.407  1.00  0.00     0.214 C 
ATOM     38  O   UNL     1      -8.925  28.621   7.183  1.00  0.00    -0.332 OA
ATOM     39  C   UNL     1     -10.990  28.685   5.010  1.00  0.00     0.180 C 
ATOM     40  C   UNL     1      -8.592  28.275   5.840  1.00  0.00     0.179 C 
ATOM     41  C   UNL     1      -9.479  28.974   4.769  1.00  0.00     0.177 C 
BRANCH  37  42
ATOM     42  O   UNL     1     -12.597  28.294   6.762  1.00  0.00    -0.384 OA
ATOM     43  H   UNL     1     -13.056  27.416   6.687  1.00  0.00     0.211 HD
ENDBRANCH  37  42
BRANCH  39  44
ATOM     44  O   UNL     1     -11.515  27.845   4.009  1.00  0.00    -0.387 OA
ATOM     45  H   UNL     1     -10.834  27.770   3.290  1.00  0.00     0.211 HD
ENDBRANCH  39  44
BRANCH  40  46
ATOM     46  C   UNL     1      -7.096  28.537   5.615  1.00  0.00     0.191 C 
BRANCH  46  47
ATOM     47  O   UNL     1      -6.348  28.010   6.674  1.00  0.00    -0.394 OA
ATOM     48  H   UNL     1      -6.702  27.099   6.833  1.00  0.00     0.210 HD
ENDBRANCH  46  47
ENDBRANCH  40  46
BRANCH  41  49
ATOM     49  O   UNL     1      -9.237  30.361   4.710  1.00  0.00    -0.387 OA
ATOM     50  H   UNL     1     -10.105  30.827   4.825  1.00  0.00     0.211 HD
ENDBRANCH  41  49
ENDBRANCH  35  36
ENDBRANCH   5  35
BRANCH   7  51
ATOM     51  O   UNL     1     -13.124  28.594  12.962  1.00  0.00    -0.507 OA
ATOM     52  H   UNL     1     -12.864  27.648  13.210  1.00  0.00     0.293 HD
ENDBRANCH   7  51
TORSDOF 17
ENDMDL
