MODEL 1
REMARK VINA RESULT:    -3.121      0.000      0.000
REMARK INTER + INTRA:          -3.623
REMARK INTER:                  -3.577
REMARK INTRA:                  -0.047
REMARK UNBOUND:                -0.047
REMARK SMILES CC(C)[C@@H]([NH3+])C(=O)[O-]
REMARK SMILES IDX 4 1 5 2 6 6 7 7 8 8 2 9 1 10 3 11
REMARK H PARENT 5 3 5 4 5 5
REMARK Flexibility Score: inf
ROOT
ATOM      1  C   UNL     1     146.889 139.055 152.540  1.00  0.00     0.230 C 
ENDROOT
BRANCH   1   2
ATOM      2  N   UNL     1     145.755 139.900 152.946  1.00  0.00    -0.350 N 
ATOM      3  H   UNL     1     145.665 139.885 153.988  1.00  0.00     0.345 HD
ATOM      4  H   UNL     1     145.918 140.892 152.659  1.00  0.00     0.345 HD
ATOM      5  H   UNL     1     144.857 139.562 152.532  1.00  0.00     0.345 HD
ENDBRANCH   1   2
BRANCH   1   6
ATOM      6  C   UNL     1     148.157 139.496 153.232  1.00  0.00     0.099 C 
ATOM      7  O   UNL     1     148.130 139.810 154.451  1.00  0.00    -0.544 OA
ATOM      8  O   UNL     1     149.349 139.605 152.526  1.00  0.00    -0.544 OA
ENDBRANCH   1   6
BRANCH   1   9
ATOM      9  C   UNL     1     146.631 137.536 152.774  1.00  0.00     0.047 C 
ATOM     10  C   UNL     1     145.257 137.232 153.394  1.00  0.00     0.014 C 
ATOM     11  C   UNL     1     146.824 136.719 151.486  1.00  0.00     0.014 C 
ENDBRANCH   1   9
TORSDOF 3
ENDMDL
MODEL 2
REMARK VINA RESULT:    -3.085      1.704      1.970
REMARK INTER + INTRA:          -3.582
REMARK INTER:                  -3.523
REMARK INTRA:                  -0.059
REMARK UNBOUND:                -0.047
REMARK SMILES CC(C)[C@@H]([NH3+])C(=O)[O-]
REMARK SMILES IDX 4 1 5 2 6 6 7 7 8 8 2 9 1 10 3 11
REMARK H PARENT 5 3 5 4 5 5
REMARK Flexibility Score: inf
ROOT
ATOM      1  C   UNL     1     147.536 138.186 153.561  1.00  0.00     0.230 C 
ENDROOT
BRANCH   1   2
ATOM      2  N   UNL     1     148.194 136.957 154.032  1.00  0.00    -0.350 N 
ATOM      3  H   UNL     1     147.713 136.615 154.896  1.00  0.00     0.345 HD
ATOM      4  H   UNL     1     148.120 136.204 153.312  1.00  0.00     0.345 HD
ATOM      5  H   UNL     1     149.201 137.123 154.259  1.00  0.00     0.345 HD
ENDBRANCH   1   2
BRANCH   1   6
ATOM      6  C   UNL     1     148.477 139.363 153.650  1.00  0.00     0.099 C 
ATOM      7  O   UNL     1     148.437 140.123 154.654  1.00  0.00    -0.544 OA
ATOM      8  O   UNL     1     149.358 139.648 152.613  1.00  0.00    -0.544 OA
ENDBRANCH   1   6
BRANCH   1   9
ATOM      9  C   UNL     1     146.953 138.051 152.121  1.00  0.00     0.047 C 
ATOM     10  C   UNL     1     146.742 136.595 151.675  1.00  0.00     0.014 C 
ATOM     11  C   UNL     1     145.651 138.850 151.955  1.00  0.00     0.014 C 
ENDBRANCH   1   9
TORSDOF 3
ENDMDL
MODEL 3
REMARK VINA RESULT:    -3.081      2.138      2.643
REMARK INTER + INTRA:          -3.577
REMARK INTER:                  -3.576
REMARK INTRA:                  -0.001
REMARK UNBOUND:                -0.047
REMARK SMILES CC(C)[C@@H]([NH3+])C(=O)[O-]
REMARK SMILES IDX 4 1 5 2 6 6 7 7 8 8 2 9 1 10 3 11
REMARK H PARENT 5 3 5 4 5 5
REMARK Flexibility Score: inf
ROOT
ATOM      1  C   UNL     1     148.601 138.611 154.157  1.00  0.00     0.230 C 
ENDROOT
BRANCH   1   2
ATOM      2  N   UNL     1     148.946 137.451 154.995  1.00  0.00    -0.350 N 
ATOM      3  H   UNL     1     149.544 136.792 154.446  1.00  0.00     0.345 HD
ATOM      4  H   UNL     1     149.496 137.754 155.830  1.00  0.00     0.345 HD
ATOM      5  H   UNL     1     148.091 136.938 155.310  1.00  0.00     0.345 HD
ENDBRANCH   1   2
BRANCH   1   6
ATOM      6  C   UNL     1     149.848 139.254 153.598  1.00  0.00     0.099 C 
ATOM      7  O   UNL     1     149.867 139.649 152.402  1.00  0.00    -0.544 OA
ATOM      8  O   UNL     1     150.994 139.375 154.375  1.00  0.00    -0.544 OA
ENDBRANCH   1   6
BRANCH   1   9
ATOM      9  C   UNL     1     147.599 138.262 153.016  1.00  0.00     0.047 C 
ATOM     10  C   UNL     1     146.920 136.894 153.188  1.00  0.00     0.014 C 
ATOM     11  C   UNL     1     146.540 139.360 152.830  1.00  0.00     0.014 C 
ENDBRANCH   1   9
TORSDOF 3
ENDMDL
MODEL 4
REMARK VINA RESULT:    -3.046      6.133      7.208
REMARK INTER + INTRA:          -3.537
REMARK INTER:                  -3.485
REMARK INTRA:                  -0.052
REMARK UNBOUND:                -0.047
REMARK SMILES CC(C)[C@@H]([NH3+])C(=O)[O-]
REMARK SMILES IDX 4 1 5 2 6 6 7 7 8 8 2 9 1 10 3 11
REMARK H PARENT 5 3 5 4 5 5
REMARK Flexibility Score: inf
ROOT
ATOM      1  C   UNL     1     141.000 139.199 155.185  1.00  0.00     0.230 C 
ENDROOT
BRANCH   1   2
ATOM      2  N   UNL     1     142.122 140.073 154.806  1.00  0.00    -0.350 N 
ATOM      3  H   UNL     1     142.761 140.192 155.626  1.00  0.00     0.345 HD
ATOM      4  H   UNL     1     142.677 139.641 154.034  1.00  0.00     0.345 HD
ATOM      5  H   UNL     1     141.789 141.018 154.508  1.00  0.00     0.345 HD
ENDBRANCH   1   2
BRANCH   1   6
ATOM      6  C   UNL     1     139.703 139.717 154.611  1.00  0.00     0.099 C 
ATOM      7  O   UNL     1     138.720 139.924 155.371  1.00  0.00    -0.544 OA
ATOM      8  O   UNL     1     139.564 139.924 153.244  1.00  0.00    -0.544 OA
ENDBRANCH   1   6
BRANCH   1   9
ATOM      9  C   UNL     1     141.227 137.709 154.785  1.00  0.00     0.047 C 
ATOM     10  C   UNL     1     142.698 137.364 154.501  1.00  0.00     0.014 C 
ATOM     11  C   UNL     1     140.647 136.743 155.829  1.00  0.00     0.014 C 
ENDBRANCH   1   9
TORSDOF 3
ENDMDL
MODEL 5
REMARK VINA RESULT:    -3.020      3.171      3.805
REMARK INTER + INTRA:          -3.508
REMARK INTER:                  -3.451
REMARK INTRA:                  -0.057
REMARK UNBOUND:                -0.047
REMARK SMILES CC(C)[C@@H]([NH3+])C(=O)[O-]
REMARK SMILES IDX 4 1 5 2 6 6 7 7 8 8 2 9 1 10 3 11
REMARK H PARENT 5 3 5 4 5 5
REMARK Flexibility Score: inf
ROOT
ATOM      1  C   UNL     1     147.417 136.601 153.692  1.00  0.00     0.230 C 
ENDROOT
BRANCH   1   2
ATOM      2  N   UNL     1     148.505 136.955 154.618  1.00  0.00    -0.350 N 
ATOM      3  H   UNL     1     148.401 136.405 155.501  1.00  0.00     0.345 HD
ATOM      4  H   UNL     1     149.432 136.710 154.202  1.00  0.00     0.345 HD
ATOM      5  H   UNL     1     148.490 137.972 154.857  1.00  0.00     0.345 HD
ENDBRANCH   1   2
BRANCH   1   6
ATOM      6  C   UNL     1     146.369 135.771 154.393  1.00  0.00     0.099 C 
ATOM      7  O   UNL     1     145.152 136.080 154.290  1.00  0.00    -0.544 OA
ATOM      8  O   UNL     1     146.733 134.692 155.190  1.00  0.00    -0.544 OA
ENDBRANCH   1   6
BRANCH   1   9
ATOM      9  C   UNL     1     146.772 137.844 153.007  1.00  0.00     0.047 C 
ATOM     10  C   UNL     1     147.501 139.163 153.310  1.00  0.00     0.014 C 
ATOM     11  C   UNL     1     146.632 137.652 151.489  1.00  0.00     0.014 C 
ENDBRANCH   1   9
TORSDOF 3
ENDMDL
MODEL 6
REMARK VINA RESULT:    -2.984      6.129      7.220
REMARK INTER + INTRA:          -3.467
REMARK INTER:                  -3.471
REMARK INTRA:                   0.004
REMARK UNBOUND:                -0.047
REMARK SMILES CC(C)[C@@H]([NH3+])C(=O)[O-]
REMARK SMILES IDX 4 1 5 2 6 6 7 7 8 8 2 9 1 10 3 11
REMARK H PARENT 5 3 5 4 5 5
REMARK Flexibility Score: inf
ROOT
ATOM      1  C   UNL     1     141.042 139.205 155.354  1.00  0.00     0.230 C 
ENDROOT
BRANCH   1   2
ATOM      2  N   UNL     1     142.053 140.069 154.725  1.00  0.00    -0.350 N 
ATOM      3  H   UNL     1     142.719 140.411 155.455  1.00  0.00     0.345 HD
ATOM      4  H   UNL     1     142.607 139.530 154.022  1.00  0.00     0.345 HD
ATOM      5  H   UNL     1     141.616 140.897 154.262  1.00  0.00     0.345 HD
ENDBRANCH   1   2
BRANCH   1   6
ATOM      6  C   UNL     1     139.768 139.197 154.543  1.00  0.00     0.099 C 
ATOM      7  O   UNL     1     139.817 138.997 153.301  1.00  0.00    -0.544 OA
ATOM      8  O   UNL     1     138.542 139.455 155.145  1.00  0.00    -0.544 OA
ENDBRANCH   1   6
BRANCH   1   9
ATOM      9  C   UNL     1     141.550 137.752 155.601  1.00  0.00     0.047 C 
ATOM     10  C   UNL     1     140.419 136.723 155.769  1.00  0.00     0.014 C 
ATOM     11  C   UNL     1     142.526 137.293 154.506  1.00  0.00     0.014 C 
ENDBRANCH   1   9
TORSDOF 3
ENDMDL
MODEL 7
REMARK VINA RESULT:    -2.885      5.377      6.218
REMARK INTER + INTRA:          -3.353
REMARK INTER:                  -3.282
REMARK INTRA:                  -0.071
REMARK UNBOUND:                -0.047
REMARK SMILES CC(C)[C@@H]([NH3+])C(=O)[O-]
REMARK SMILES IDX 4 1 5 2 6 6 7 7 8 8 2 9 1 10 3 11
REMARK H PARENT 5 3 5 4 5 5
REMARK Flexibility Score: inf
ROOT
ATOM      1  C   UNL     1     141.450 137.709 154.888  1.00  0.00     0.230 C 
ENDROOT
BRANCH   1   2
ATOM      2  N   UNL     1     141.280 136.792 156.026  1.00  0.00    -0.350 N 
ATOM      3  H   UNL     1     142.217 136.564 156.431  1.00  0.00     0.345 HD
ATOM      4  H   UNL     1     140.714 137.245 156.778  1.00  0.00     0.345 HD
ATOM      5  H   UNL     1     140.821 135.900 155.735  1.00  0.00     0.345 HD
ENDBRANCH   1   2
BRANCH   1   6
ATOM      6  C   UNL     1     141.030 139.110 155.264  1.00  0.00     0.099 C 
ATOM      7  O   UNL     1     140.020 139.629 154.721  1.00  0.00    -0.544 OA
ATOM      8  O   UNL     1     141.775 139.855 156.172  1.00  0.00    -0.544 OA
ENDBRANCH   1   6
BRANCH   1   9
ATOM      9  C   UNL     1     142.898 137.701 154.310  1.00  0.00     0.047 C 
ATOM     10  C   UNL     1     143.410 136.298 153.948  1.00  0.00     0.014 C 
ATOM     11  C   UNL     1     143.037 138.644 153.104  1.00  0.00     0.014 C 
ENDBRANCH   1   9
TORSDOF 3
ENDMDL
MODEL 8
REMARK VINA RESULT:    -2.835      1.906      2.091
REMARK INTER + INTRA:          -3.296
REMARK INTER:                  -3.271
REMARK INTRA:                  -0.024
REMARK UNBOUND:                -0.047
REMARK SMILES CC(C)[C@@H]([NH3+])C(=O)[O-]
REMARK SMILES IDX 4 1 5 2 6 6 7 7 8 8 2 9 1 10 3 11
REMARK H PARENT 5 3 5 4 5 5
REMARK Flexibility Score: inf
ROOT
ATOM      1  C   UNL     1     147.628 138.651 153.112  1.00  0.00     0.230 C 
ENDROOT
BRANCH   1   2
ATOM      2  N   UNL     1     147.510 139.973 153.747  1.00  0.00    -0.350 N 
ATOM      3  H   UNL     1     146.641 140.003 154.328  1.00  0.00     0.345 HD
ATOM      4  H   UNL     1     148.320 140.146 154.383  1.00  0.00     0.345 HD
ATOM      5  H   UNL     1     147.458 140.737 153.035  1.00  0.00     0.345 HD
ENDBRANCH   1   2
BRANCH   1   6
ATOM      6  C   UNL     1     148.142 137.630 154.098  1.00  0.00     0.099 C 
ATOM      7  O   UNL     1     147.475 136.585 154.325  1.00  0.00    -0.544 OA
ATOM      8  O   UNL     1     149.323 137.849 154.797  1.00  0.00    -0.544 OA
ENDBRANCH   1   6
BRANCH   1   9
ATOM      9  C   UNL     1     146.298 138.168 152.458  1.00  0.00     0.047 C 
ATOM     10  C   UNL     1     145.275 139.295 152.236  1.00  0.00     0.014 C 
ATOM     11  C   UNL     1     146.549 137.413 151.143  1.00  0.00     0.014 C 
ENDBRANCH   1   9
TORSDOF 3
ENDMDL
MODEL 9
REMARK VINA RESULT:    -2.784      7.683      8.502
REMARK INTER + INTRA:          -3.238
REMARK INTER:                  -3.181
REMARK INTRA:                  -0.057
REMARK UNBOUND:                -0.047
REMARK SMILES CC(C)[C@@H]([NH3+])C(=O)[O-]
REMARK SMILES IDX 4 1 5 2 6 6 7 7 8 8 2 9 1 10 3 11
REMARK H PARENT 5 3 5 4 5 5
REMARK Flexibility Score: inf
ROOT
ATOM      1  C   UNL     1     139.473 136.966 155.734  1.00  0.00     0.230 C 
ENDROOT
BRANCH   1   2
ATOM      2  N   UNL     1     140.812 136.525 156.156  1.00  0.00    -0.350 N 
ATOM      3  H   UNL     1     140.789 136.270 157.170  1.00  0.00     0.345 HD
ATOM      4  H   UNL     1     141.100 135.673 155.624  1.00  0.00     0.345 HD
ATOM      5  H   UNL     1     141.524 137.277 156.020  1.00  0.00     0.345 HD
ENDBRANCH   1   2
BRANCH   1   6
ATOM      6  C   UNL     1     139.542 138.316 155.062  1.00  0.00     0.099 C 
ATOM      7  O   UNL     1     140.661 138.856 154.855  1.00  0.00    -0.544 OA
ATOM      8  O   UNL     1     138.382 138.995 154.710  1.00  0.00    -0.544 OA
ENDBRANCH   1   6
BRANCH   1   9
ATOM      9  C   UNL     1     138.750 135.930 154.821  1.00  0.00     0.047 C 
ATOM     10  C   UNL     1     139.658 135.321 153.740  1.00  0.00     0.014 C 
ATOM     11  C   UNL     1     138.079 134.815 155.640  1.00  0.00     0.014 C 
ENDBRANCH   1   9
TORSDOF 3
ENDMDL
