MODEL 1
REMARK VINA RESULT:    -5.243      0.000      0.000
REMARK INTER + INTRA:          -7.069
REMARK INTER:                  -6.622
REMARK INTRA:                  -0.447
REMARK UNBOUND:                -0.447
REMARK SMILES Oc1ccc(CCc2cc(O)cc(O)c2)cc1
REMARK SMILES IDX 6 1 5 2 4 3 3 4 2 5 16 6 17 7 1 8 7 10 8 11 15 12 9 13 13 14
REMARK SMILES IDX 10 15 12 16 14 17 11 19
REMARK H PARENT 1 9 14 18 11 20
REMARK Flexibility Score: inf
ROOT
ATOM      1  C   UNL     1     128.171 140.634 107.389  1.00  0.00     0.040 C 
ENDROOT
BRANCH   1   2
ATOM      2  C   UNL     1     127.852 139.221 106.982  1.00  0.00    -0.047 A 
ATOM      3  C   UNL     1     127.857 138.856 105.626  1.00  0.00     0.007 A 
ATOM      4  C   UNL     1     127.593 137.535 105.250  1.00  0.00     0.046 A 
ATOM      5  C   UNL     1     127.333 136.565 106.224  1.00  0.00     0.115 A 
ATOM      6  C   UNL     1     127.604 138.242 107.958  1.00  0.00     0.007 A 
ATOM      7  C   UNL     1     127.340 136.922 107.581  1.00  0.00     0.046 A 
BRANCH   5   8
ATOM      8  O   UNL     1     127.070 135.253 105.837  1.00  0.00    -0.508 OA
ATOM      9  H   UNL     1     126.998 134.994 104.860  1.00  0.00     0.293 HD
ENDBRANCH   5   8
ENDBRANCH   1   2
BRANCH   1  10
ATOM     10  C   UNL     1     128.569 141.470 106.168  1.00  0.00     0.040 C 
BRANCH  10  11
ATOM     11  C   UNL     1     128.020 142.866 106.280  1.00  0.00    -0.040 A 
ATOM     12  C   UNL     1     127.754 143.619 105.124  1.00  0.00     0.050 A 
ATOM     13  C   UNL     1     127.715 143.407 107.540  1.00  0.00     0.050 A 
ATOM     14  C   UNL     1     127.213 144.905 105.226  1.00  0.00     0.119 A 
ATOM     15  C   UNL     1     127.173 144.696 107.644  1.00  0.00     0.119 A 
ATOM     16  C   UNL     1     126.926 145.443 106.488  1.00  0.00     0.092 A 
BRANCH  14  17
ATOM     17  O   UNL     1     126.962 145.637 104.068  1.00  0.00    -0.508 OA
ATOM     18  H   UNL     1     126.111 146.173 103.955  1.00  0.00     0.293 HD
ENDBRANCH  14  17
BRANCH  15  19
ATOM     19  O   UNL     1     126.875 145.242 108.890  1.00  0.00    -0.508 OA
ATOM     20  H   UNL     1     126.861 146.245 109.039  1.00  0.00     0.293 HD
ENDBRANCH  15  19
ENDBRANCH  10  11
ENDBRANCH   1  10
TORSDOF 6
ENDMDL
MODEL 2
REMARK VINA RESULT:    -5.224      0.128      2.353
REMARK INTER + INTRA:          -7.046
REMARK INTER:                  -6.612
REMARK INTRA:                  -0.433
REMARK UNBOUND:                -0.447
REMARK SMILES Oc1ccc(CCc2cc(O)cc(O)c2)cc1
REMARK SMILES IDX 6 1 5 2 4 3 3 4 2 5 16 6 17 7 1 8 7 10 8 11 15 12 9 13 13 14
REMARK SMILES IDX 10 15 12 16 14 17 11 19
REMARK H PARENT 1 9 14 18 11 20
REMARK Flexibility Score: inf
ROOT
ATOM      1  C   UNL     1     128.056 140.569 107.357  1.00  0.00     0.040 C 
ENDROOT
BRANCH   1   2
ATOM      2  C   UNL     1     127.856 139.125 106.987  1.00  0.00    -0.047 A 
ATOM      3  C   UNL     1     127.624 138.163 107.983  1.00  0.00     0.007 A 
ATOM      4  C   UNL     1     127.405 136.826 107.637  1.00  0.00     0.046 A 
ATOM      5  C   UNL     1     127.404 136.439 106.292  1.00  0.00     0.115 A 
ATOM      6  C   UNL     1     127.841 138.735 105.637  1.00  0.00     0.007 A 
ATOM      7  C   UNL     1     127.622 137.398 105.292  1.00  0.00     0.046 A 
BRANCH   5   8
ATOM      8  O   UNL     1     127.186 135.104 105.960  1.00  0.00    -0.508 OA
ATOM      9  H   UNL     1     126.303 134.792 105.575  1.00  0.00     0.293 HD
ENDBRANCH   5   8
ENDBRANCH   1   2
BRANCH   1  10
ATOM     10  C   UNL     1     128.463 141.389 106.128  1.00  0.00     0.040 C 
BRANCH  10  11
ATOM     11  C   UNL     1     127.913 142.787 106.219  1.00  0.00    -0.040 A 
ATOM     12  C   UNL     1     127.634 143.358 107.471  1.00  0.00     0.050 A 
ATOM     13  C   UNL     1     127.731 143.552 105.056  1.00  0.00     0.050 A 
ATOM     14  C   UNL     1     127.153 144.669 107.559  1.00  0.00     0.119 A 
ATOM     15  C   UNL     1     127.249 144.865 105.142  1.00  0.00     0.119 A 
ATOM     16  C   UNL     1     126.959 145.420 106.392  1.00  0.00     0.092 A 
BRANCH  14  17
ATOM     17  O   UNL     1     126.875 145.216 108.809  1.00  0.00    -0.508 OA
ATOM     18  H   UNL     1     126.159 145.922 108.931  1.00  0.00     0.293 HD
ENDBRANCH  14  17
BRANCH  15  19
ATOM     19  O   UNL     1     127.057 145.628 103.991  1.00  0.00    -0.508 OA
ATOM     20  H   UNL     1     127.384 146.586 103.930  1.00  0.00     0.293 HD
ENDBRANCH  15  19
ENDBRANCH  10  11
ENDBRANCH   1  10
TORSDOF 6
ENDMDL
MODEL 3
REMARK VINA RESULT:    -5.157      5.350      7.824
REMARK INTER + INTRA:          -6.961
REMARK INTER:                  -6.529
REMARK INTRA:                  -0.431
REMARK UNBOUND:                -0.447
REMARK SMILES Oc1ccc(CCc2cc(O)cc(O)c2)cc1
REMARK SMILES IDX 6 1 5 2 4 3 3 4 2 5 16 6 17 7 1 8 7 10 8 11 15 12 9 13 13 14
REMARK SMILES IDX 10 15 12 16 14 17 11 19
REMARK H PARENT 1 9 14 18 11 20
REMARK Flexibility Score: inf
ROOT
ATOM      1  C   UNL     1     131.546 146.371 106.188  1.00  0.00     0.040 C 
ENDROOT
BRANCH   1   2
ATOM      2  C   UNL     1     133.047 146.267 106.187  1.00  0.00    -0.047 A 
ATOM      3  C   UNL     1     133.755 146.220 107.400  1.00  0.00     0.007 A 
ATOM      4  C   UNL     1     135.147 146.091 107.399  1.00  0.00     0.046 A 
ATOM      5  C   UNL     1     135.845 145.997 106.190  1.00  0.00     0.115 A 
ATOM      6  C   UNL     1     133.750 146.160 104.976  1.00  0.00     0.007 A 
ATOM      7  C   UNL     1     135.142 146.032 104.977  1.00  0.00     0.046 A 
BRANCH   5   8
ATOM      8  O   UNL     1     137.232 145.870 106.203  1.00  0.00    -0.508 OA
ATOM      9  H   UNL     1     137.779 145.945 105.354  1.00  0.00     0.293 HD
ENDBRANCH   5   8
ENDBRANCH   1   2
BRANCH   1  10
ATOM     10  C   UNL     1     130.959 145.687 107.427  1.00  0.00     0.040 C 
BRANCH  10  11
ATOM     11  C   UNL     1     129.633 145.054 107.104  1.00  0.00    -0.040 A 
ATOM     12  C   UNL     1     129.003 145.316 105.876  1.00  0.00     0.050 A 
ATOM     13  C   UNL     1     129.043 144.151 108.003  1.00  0.00     0.050 A 
ATOM     14  C   UNL     1     127.787 144.703 105.560  1.00  0.00     0.119 A 
ATOM     15  C   UNL     1     127.823 143.535 107.688  1.00  0.00     0.119 A 
ATOM     16  C   UNL     1     127.196 143.815 106.470  1.00  0.00     0.092 A 
BRANCH  14  17
ATOM     17  O   UNL     1     127.174 144.981 104.341  1.00  0.00    -0.508 OA
ATOM     18  H   UNL     1     127.147 145.920 103.964  1.00  0.00     0.293 HD
ENDBRANCH  14  17
BRANCH  15  19
ATOM     19  O   UNL     1     127.227 142.644 108.578  1.00  0.00    -0.508 OA
ATOM     20  H   UNL     1     127.468 141.659 108.582  1.00  0.00     0.293 HD
ENDBRANCH  15  19
ENDBRANCH  10  11
ENDBRANCH   1  10
TORSDOF 6
ENDMDL
MODEL 4
REMARK VINA RESULT:    -5.148      5.334      7.958
REMARK INTER + INTRA:          -6.949
REMARK INTER:                  -6.517
REMARK INTRA:                  -0.432
REMARK UNBOUND:                -0.447
REMARK SMILES Oc1ccc(CCc2cc(O)cc(O)c2)cc1
REMARK SMILES IDX 6 1 5 2 4 3 3 4 2 5 16 6 17 7 1 8 7 10 8 11 15 12 9 13 13 14
REMARK SMILES IDX 10 15 12 16 14 17 11 19
REMARK H PARENT 1 9 14 18 11 20
REMARK Flexibility Score: inf
ROOT
ATOM      1  C   UNL     1     131.532 146.390 106.274  1.00  0.00     0.040 C 
ENDROOT
BRANCH   1   2
ATOM      2  C   UNL     1     133.027 146.219 106.251  1.00  0.00    -0.047 A 
ATOM      3  C   UNL     1     133.712 146.141 105.028  1.00  0.00     0.007 A 
ATOM      4  C   UNL     1     135.104 146.016 105.006  1.00  0.00     0.046 A 
ATOM      5  C   UNL     1     135.826 145.977 106.204  1.00  0.00     0.115 A 
ATOM      6  C   UNL     1     133.756 146.194 107.452  1.00  0.00     0.007 A 
ATOM      7  C   UNL     1     135.148 146.068 107.428  1.00  0.00     0.046 A 
BRANCH   5   8
ATOM      8  O   UNL     1     137.213 145.851 106.169  1.00  0.00    -0.508 OA
ATOM      9  H   UNL     1     137.666 144.953 106.290  1.00  0.00     0.293 HD
ENDBRANCH   5   8
ENDBRANCH   1   2
BRANCH   1  10
ATOM     10  C   UNL     1     130.924 145.654 107.473  1.00  0.00     0.040 C 
BRANCH  10  11
ATOM     11  C   UNL     1     129.638 144.979 107.082  1.00  0.00    -0.040 A 
ATOM     12  C   UNL     1     129.018 144.073 107.960  1.00  0.00     0.050 A 
ATOM     13  C   UNL     1     129.016 145.292 105.863  1.00  0.00     0.050 A 
ATOM     14  C   UNL     1     127.805 143.469 107.613  1.00  0.00     0.119 A 
ATOM     15  C   UNL     1     127.800 144.687 105.513  1.00  0.00     0.119 A 
ATOM     16  C   UNL     1     127.200 143.775 106.386  1.00  0.00     0.092 A 
BRANCH  14  17
ATOM     17  O   UNL     1     127.210 142.568 108.493  1.00  0.00    -0.508 OA
ATOM     18  H   UNL     1     126.385 142.041 108.233  1.00  0.00     0.293 HD
ENDBRANCH  14  17
BRANCH  15  19
ATOM     19  O   UNL     1     127.182 144.986 104.301  1.00  0.00    -0.508 OA
ATOM     20  H   UNL     1     127.228 145.916 103.899  1.00  0.00     0.293 HD
ENDBRANCH  15  19
ENDBRANCH  10  11
ENDBRANCH   1  10
TORSDOF 6
ENDMDL
MODEL 5
REMARK VINA RESULT:    -5.099      4.183      6.478
REMARK INTER + INTRA:          -6.888
REMARK INTER:                  -6.193
REMARK INTRA:                  -0.695
REMARK UNBOUND:                -0.447
REMARK SMILES Oc1ccc(CCc2cc(O)cc(O)c2)cc1
REMARK SMILES IDX 6 1 5 2 4 3 3 4 2 5 16 6 17 7 1 8 7 10 8 11 15 12 9 13 13 14
REMARK SMILES IDX 10 15 12 16 14 17 11 19
REMARK H PARENT 1 9 14 18 11 20
REMARK Flexibility Score: inf
ROOT
ATOM      1  C   UNL     1     131.348 142.993 105.517  1.00  0.00     0.040 C 
ENDROOT
BRANCH   1   2
ATOM      2  C   UNL     1     132.043 144.079 106.292  1.00  0.00    -0.047 A 
ATOM      3  C   UNL     1     131.798 145.430 105.995  1.00  0.00     0.007 A 
ATOM      4  C   UNL     1     132.418 146.439 106.738  1.00  0.00     0.046 A 
ATOM      5  C   UNL     1     133.280 146.110 107.790  1.00  0.00     0.115 A 
ATOM      6  C   UNL     1     132.897 143.753 107.359  1.00  0.00     0.007 A 
ATOM      7  C   UNL     1     133.517 144.763 108.100  1.00  0.00     0.046 A 
BRANCH   5   8
ATOM      8  O   UNL     1     133.892 147.125 108.522  1.00  0.00    -0.508 OA
ATOM      9  H   UNL     1     133.882 148.087 108.205  1.00  0.00     0.293 HD
ENDBRANCH   5   8
ENDBRANCH   1   2
BRANCH   1  10
ATOM     10  C   UNL     1     130.160 142.440 106.310  1.00  0.00     0.040 C 
BRANCH  10  11
ATOM     11  C   UNL     1     129.045 143.449 106.368  1.00  0.00    -0.040 A 
ATOM     12  C   UNL     1     128.512 143.983 105.183  1.00  0.00     0.050 A 
ATOM     13  C   UNL     1     128.491 143.822 107.602  1.00  0.00     0.050 A 
ATOM     14  C   UNL     1     127.453 144.897 105.233  1.00  0.00     0.119 A 
ATOM     15  C   UNL     1     127.431 144.737 107.655  1.00  0.00     0.119 A 
ATOM     16  C   UNL     1     126.917 145.275 106.471  1.00  0.00     0.092 A 
BRANCH  14  17
ATOM     17  O   UNL     1     126.942 145.420 104.048  1.00  0.00    -0.508 OA
ATOM     18  H   UNL     1     127.225 145.060 103.145  1.00  0.00     0.293 HD
ENDBRANCH  14  17
BRANCH  15  19
ATOM     19  O   UNL     1     126.881 145.118 108.877  1.00  0.00    -0.508 OA
ATOM     20  H   UNL     1     127.304 144.843 109.756  1.00  0.00     0.293 HD
ENDBRANCH  15  19
ENDBRANCH  10  11
ENDBRANCH   1  10
TORSDOF 6
ENDMDL
MODEL 6
REMARK VINA RESULT:    -5.086      3.120      7.056
REMARK INTER + INTRA:          -6.871
REMARK INTER:                  -6.154
REMARK INTRA:                  -0.717
REMARK UNBOUND:                -0.447
REMARK SMILES Oc1ccc(CCc2cc(O)cc(O)c2)cc1
REMARK SMILES IDX 6 1 5 2 4 3 3 4 2 5 16 6 17 7 1 8 7 10 8 11 15 12 9 13 13 14
REMARK SMILES IDX 10 15 12 16 14 17 11 19
REMARK H PARENT 1 9 14 18 11 20
REMARK Flexibility Score: inf
ROOT
ATOM      1  C   UNL     1     127.391 144.343 106.923  1.00  0.00     0.040 C 
ENDROOT
BRANCH   1   2
ATOM      2  C   UNL     1     128.738 144.996 107.077  1.00  0.00    -0.047 A 
ATOM      3  C   UNL     1     129.344 145.081 108.341  1.00  0.00     0.007 A 
ATOM      4  C   UNL     1     130.610 145.658 108.478  1.00  0.00     0.046 A 
ATOM      5  C   UNL     1     131.287 146.146 107.356  1.00  0.00     0.115 A 
ATOM      6  C   UNL     1     129.427 145.474 105.950  1.00  0.00     0.007 A 
ATOM      7  C   UNL     1     130.692 146.052 106.089  1.00  0.00     0.046 A 
BRANCH   5   8
ATOM      8  O   UNL     1     132.547 146.720 107.507  1.00  0.00    -0.508 OA
ATOM      9  H   UNL     1     133.394 146.175 107.397  1.00  0.00     0.293 HD
ENDBRANCH   5   8
ENDBRANCH   1   2
BRANCH   1  10
ATOM     10  C   UNL     1     127.404 143.351 105.755  1.00  0.00     0.040 C 
BRANCH  10  11
ATOM     11  C   UNL     1     128.015 142.042 106.178  1.00  0.00    -0.040 A 
ATOM     12  C   UNL     1     127.256 141.107 106.901  1.00  0.00     0.050 A 
ATOM     13  C   UNL     1     129.329 141.721 105.804  1.00  0.00     0.050 A 
ATOM     14  C   UNL     1     127.811 139.876 107.267  1.00  0.00     0.119 A 
ATOM     15  C   UNL     1     129.888 140.489 106.170  1.00  0.00     0.119 A 
ATOM     16  C   UNL     1     129.130 139.571 106.903  1.00  0.00     0.092 A 
BRANCH  14  17
ATOM     17  O   UNL     1     127.045 138.965 107.989  1.00  0.00    -0.508 OA
ATOM     18  H   UNL     1     126.314 139.271 108.620  1.00  0.00     0.293 HD
ENDBRANCH  14  17
BRANCH  15  19
ATOM     19  O   UNL     1     131.195 140.167 105.809  1.00  0.00    -0.508 OA
ATOM     20  H   UNL     1     131.578 139.243 105.978  1.00  0.00     0.293 HD
ENDBRANCH  15  19
ENDBRANCH  10  11
ENDBRANCH   1  10
TORSDOF 6
ENDMDL
MODEL 7
REMARK VINA RESULT:    -5.060      5.276      7.132
REMARK INTER + INTRA:          -6.838
REMARK INTER:                  -6.311
REMARK INTRA:                  -0.527
REMARK UNBOUND:                -0.447
REMARK SMILES Oc1ccc(CCc2cc(O)cc(O)c2)cc1
REMARK SMILES IDX 6 1 5 2 4 3 3 4 2 5 16 6 17 7 1 8 7 10 8 11 15 12 9 13 13 14
REMARK SMILES IDX 10 15 12 16 14 17 11 19
REMARK H PARENT 1 9 14 18 11 20
REMARK Flexibility Score: inf
ROOT
ATOM      1  C   UNL     1     131.939 146.471 106.171  1.00  0.00     0.040 C 
ENDROOT
BRANCH   1   2
ATOM      2  C   UNL     1     132.993 145.512 105.686  1.00  0.00    -0.047 A 
ATOM      3  C   UNL     1     132.822 144.127 105.851  1.00  0.00     0.007 A 
ATOM      4  C   UNL     1     133.785 143.236 105.372  1.00  0.00     0.046 A 
ATOM      5  C   UNL     1     134.923 143.715 104.714  1.00  0.00     0.115 A 
ATOM      6  C   UNL     1     134.130 145.989 105.014  1.00  0.00     0.007 A 
ATOM      7  C   UNL     1     135.093 145.096 104.536  1.00  0.00     0.046 A 
BRANCH   5   8
ATOM      8  O   UNL     1     135.876 142.816 104.242  1.00  0.00    -0.508 OA
ATOM      9  H   UNL     1     136.515 143.064 103.497  1.00  0.00     0.293 HD
ENDBRANCH   5   8
ENDBRANCH   1   2
BRANCH   1  10
ATOM     10  C   UNL     1     131.319 145.973 107.480  1.00  0.00     0.040 C 
BRANCH  10  11
ATOM     11  C   UNL     1     129.869 145.623 107.280  1.00  0.00    -0.040 A 
ATOM     12  C   UNL     1     129.038 145.388 108.387  1.00  0.00     0.050 A 
ATOM     13  C   UNL     1     129.322 145.586 105.987  1.00  0.00     0.050 A 
ATOM     14  C   UNL     1     127.682 145.095 108.204  1.00  0.00     0.119 A 
ATOM     15  C   UNL     1     127.964 145.293 105.802  1.00  0.00     0.119 A 
ATOM     16  C   UNL     1     127.148 145.045 106.910  1.00  0.00     0.092 A 
BRANCH  14  17
ATOM     17  O   UNL     1     126.875 144.858 109.314  1.00  0.00    -0.508 OA
ATOM     18  H   UNL     1     127.117 145.214 110.231  1.00  0.00     0.293 HD
ENDBRANCH  14  17
BRANCH  15  19
ATOM     19  O   UNL     1     127.417 145.246 104.522  1.00  0.00    -0.508 OA
ATOM     20  H   UNL     1     126.466 144.929 104.363  1.00  0.00     0.293 HD
ENDBRANCH  15  19
ENDBRANCH  10  11
ENDBRANCH   1  10
TORSDOF 6
ENDMDL
MODEL 8
REMARK VINA RESULT:    -5.048      3.121      6.908
REMARK INTER + INTRA:          -6.823
REMARK INTER:                  -6.117
REMARK INTRA:                  -0.706
REMARK UNBOUND:                -0.447
REMARK SMILES Oc1ccc(CCc2cc(O)cc(O)c2)cc1
REMARK SMILES IDX 6 1 5 2 4 3 3 4 2 5 16 6 17 7 1 8 7 10 8 11 15 12 9 13 13 14
REMARK SMILES IDX 10 15 12 16 14 17 11 19
REMARK H PARENT 1 9 14 18 11 20
REMARK Flexibility Score: inf
ROOT
ATOM      1  C   UNL     1     127.419 144.276 107.049  1.00  0.00     0.040 C 
ENDROOT
BRANCH   1   2
ATOM      2  C   UNL     1     128.760 144.949 107.161  1.00  0.00    -0.047 A 
ATOM      3  C   UNL     1     129.399 145.055 108.407  1.00  0.00     0.007 A 
ATOM      4  C   UNL     1     130.660 145.651 108.505  1.00  0.00     0.046 A 
ATOM      5  C   UNL     1     131.300 146.136 107.359  1.00  0.00     0.115 A 
ATOM      6  C   UNL     1     129.411 145.425 106.011  1.00  0.00     0.007 A 
ATOM      7  C   UNL     1     130.672 146.021 106.110  1.00  0.00     0.046 A 
BRANCH   5   8
ATOM      8  O   UNL     1     132.555 146.728 107.471  1.00  0.00    -0.508 OA
ATOM      9  H   UNL     1     133.406 146.194 107.343  1.00  0.00     0.293 HD
ENDBRANCH   5   8
ENDBRANCH   1   2
BRANCH   1  10
ATOM     10  C   UNL     1     127.385 143.339 105.838  1.00  0.00     0.040 C 
BRANCH  10  11
ATOM     11  C   UNL     1     127.978 142.001 106.187  1.00  0.00    -0.040 A 
ATOM     12  C   UNL     1     129.297 141.692 105.816  1.00  0.00     0.050 A 
ATOM     13  C   UNL     1     127.237 141.072 106.936  1.00  0.00     0.050 A 
ATOM     14  C   UNL     1     129.862 140.462 106.169  1.00  0.00     0.119 A 
ATOM     15  C   UNL     1     127.801 139.839 107.290  1.00  0.00     0.119 A 
ATOM     16  C   UNL     1     129.110 139.535 106.903  1.00  0.00     0.092 A 
BRANCH  14  17
ATOM     17  O   UNL     1     131.169 140.172 105.786  1.00  0.00    -0.508 OA
ATOM     18  H   UNL     1     131.574 140.566 104.946  1.00  0.00     0.293 HD
ENDBRANCH  14  17
BRANCH  15  19
ATOM     19  O   UNL     1     127.070 138.909 108.026  1.00  0.00    -0.508 OA
ATOM     20  H   UNL     1     126.967 138.992 109.031  1.00  0.00     0.293 HD
ENDBRANCH  15  19
ENDBRANCH  10  11
ENDBRANCH   1  10
TORSDOF 6
ENDMDL
MODEL 9
REMARK VINA RESULT:    -5.034     20.075     21.309
REMARK INTER + INTRA:          -6.805
REMARK INTER:                  -6.256
REMARK INTRA:                  -0.550
REMARK UNBOUND:                -0.447
REMARK SMILES Oc1ccc(CCc2cc(O)cc(O)c2)cc1
REMARK SMILES IDX 6 1 5 2 4 3 3 4 2 5 16 6 17 7 1 8 7 10 8 11 15 12 9 13 13 14
REMARK SMILES IDX 10 15 12 16 14 17 11 19
REMARK H PARENT 1 9 14 18 11 20
REMARK Flexibility Score: inf
ROOT
ATOM      1  C   UNL     1     144.129 146.058 115.274  1.00  0.00     0.040 C 
ENDROOT
BRANCH   1   2
ATOM      2  C   UNL     1     144.669 145.681 113.922  1.00  0.00    -0.047 A 
ATOM      3  C   UNL     1     146.002 145.970 113.584  1.00  0.00     0.007 A 
ATOM      4  C   UNL     1     146.513 145.590 112.340  1.00  0.00     0.046 A 
ATOM      5  C   UNL     1     145.703 144.908 111.425  1.00  0.00     0.115 A 
ATOM      6  C   UNL     1     143.863 144.984 113.006  1.00  0.00     0.007 A 
ATOM      7  C   UNL     1     144.375 144.606 111.762  1.00  0.00     0.046 A 
BRANCH   5   8
ATOM      8  O   UNL     1     146.224 144.536 110.188  1.00  0.00    -0.508 OA
ATOM      9  H   UNL     1     145.686 143.986 109.530  1.00  0.00     0.293 HD
ENDBRANCH   5   8
ENDBRANCH   1   2
BRANCH   1  10
ATOM     10  C   UNL     1     145.154 146.892 116.051  1.00  0.00     0.040 C 
BRANCH  10  11
ATOM     11  C   UNL     1     145.505 146.223 117.351  1.00  0.00    -0.040 A 
ATOM     12  C   UNL     1     145.677 144.830 117.407  1.00  0.00     0.050 A 
ATOM     13  C   UNL     1     145.720 146.990 118.507  1.00  0.00     0.050 A 
ATOM     14  C   UNL     1     146.036 144.209 118.608  1.00  0.00     0.119 A 
ATOM     15  C   UNL     1     146.079 146.370 119.712  1.00  0.00     0.119 A 
ATOM     16  C   UNL     1     146.233 144.982 119.761  1.00  0.00     0.092 A 
BRANCH  14  17
ATOM     17  O   UNL     1     146.196 142.826 118.645  1.00  0.00    -0.508 OA
ATOM     18  H   UNL     1     146.755 142.376 119.360  1.00  0.00     0.293 HD
ENDBRANCH  14  17
BRANCH  15  19
ATOM     19  O   UNL     1     146.286 147.125 120.864  1.00  0.00    -0.508 OA
ATOM     20  H   UNL     1     147.215 147.416 121.147  1.00  0.00     0.293 HD
ENDBRANCH  15  19
ENDBRANCH  10  11
ENDBRANCH   1  10
TORSDOF 6
ENDMDL
