MODEL 1
REMARK VINA RESULT:    -3.581      0.000      0.000
REMARK INTER + INTRA:          -7.445
REMARK INTER:                  -6.197
REMARK INTRA:                  -1.248
REMARK UNBOUND:                -1.248
REMARK SMILES CCCCCCCCCCCCCCO
REMARK SMILES IDX 8 1 7 2 6 3 5 4 4 5 3 6 2 7 1 8 9 9 10 10 11 11 12 12 13 13
REMARK SMILES IDX 14 14 15 15
REMARK H PARENT 15 16
REMARK Flexibility Score: inf
ROOT
ATOM      1  C   UNL     1     163.331 160.939 187.352  1.00  0.00     0.000 C 
ENDROOT
BRANCH   1   2
ATOM      2  C   UNL     1     164.472 160.027 187.826  1.00  0.00    -0.000 C 
BRANCH   2   3
ATOM      3  C   UNL     1     164.457 159.875 189.353  1.00  0.00    -0.000 C 
BRANCH   3   4
ATOM      4  C   UNL     1     165.786 160.287 190.009  1.00  0.00    -0.000 C 
BRANCH   4   5
ATOM      5  C   UNL     1     166.806 160.885 189.017  1.00  0.00    -0.000 C 
BRANCH   5   6
ATOM      6  C   UNL     1     167.129 162.356 189.334  1.00  0.00    -0.000 C 
BRANCH   6   7
ATOM      7  C   UNL     1     165.889 163.260 189.272  1.00  0.00    -0.003 C 
ATOM      8  C   UNL     1     165.659 163.855 187.883  1.00  0.00     0.004 C 
ENDBRANCH   6   7
ENDBRANCH   5   6
ENDBRANCH   4   5
ENDBRANCH   3   4
ENDBRANCH   2   3
ENDBRANCH   1   2
BRANCH   1   9
ATOM      9  C   UNL     1     162.648 161.685 188.510  1.00  0.00     0.000 C 
BRANCH   9  10
ATOM     10  C   UNL     1     161.119 161.749 188.353  1.00  0.00     0.000 C 
BRANCH  10  11
ATOM     11  C   UNL     1     160.537 163.067 188.896  1.00  0.00     0.000 C 
BRANCH  11  12
ATOM     12  C   UNL     1     159.992 163.996 187.787  1.00  0.00     0.002 C 
BRANCH  12  13
ATOM     13  C   UNL     1     160.762 165.323 187.666  1.00  0.00     0.028 C 
BRANCH  13  14
ATOM     14  C   UNL     1     160.129 166.312 186.678  1.00  0.00     0.156 C 
BRANCH  14  15
ATOM     15  O   UNL     1     160.179 165.818 185.367  1.00  0.00    -0.396 OA
ATOM     16  H   UNL     1     159.557 166.375 184.830  1.00  0.00     0.210 HD
ENDBRANCH  14  15
ENDBRANCH  13  14
ENDBRANCH  12  13
ENDBRANCH  11  12
ENDBRANCH  10  11
ENDBRANCH   9  10
ENDBRANCH   1   9
TORSDOF 13
ENDMDL
MODEL 2
REMARK VINA RESULT:    -3.565     17.691     19.629
REMARK INTER + INTRA:          -7.418
REMARK INTER:                  -6.444
REMARK INTRA:                  -0.974
REMARK UNBOUND:                -1.248
REMARK SMILES CCCCCCCCCCCCCCO
REMARK SMILES IDX 8 1 7 2 6 3 5 4 4 5 3 6 2 7 1 8 9 9 10 10 11 11 12 12 13 13
REMARK SMILES IDX 14 14 15 15
REMARK H PARENT 15 16
REMARK Flexibility Score: inf
ROOT
ATOM      1  C   UNL     1     175.162 175.555 187.761  1.00  0.00     0.000 C 
ENDROOT
BRANCH   1   2
ATOM      2  C   UNL     1     176.042 176.802 187.588  1.00  0.00    -0.000 C 
BRANCH   2   3
ATOM      3  C   UNL     1     175.231 177.973 187.018  1.00  0.00    -0.000 C 
BRANCH   3   4
ATOM      4  C   UNL     1     173.984 178.302 187.857  1.00  0.00    -0.000 C 
BRANCH   4   5
ATOM      5  C   UNL     1     173.911 179.778 188.303  1.00  0.00    -0.000 C 
BRANCH   5   6
ATOM      6  C   UNL     1     172.552 180.125 188.939  1.00  0.00    -0.000 C 
BRANCH   6   7
ATOM      7  C   UNL     1     171.517 179.004 188.768  1.00  0.00    -0.003 C 
ATOM      8  C   UNL     1     170.179 179.512 188.231  1.00  0.00     0.004 C 
ENDBRANCH   6   7
ENDBRANCH   5   6
ENDBRANCH   4   5
ENDBRANCH   3   4
ENDBRANCH   2   3
ENDBRANCH   1   2
BRANCH   1   9
ATOM      9  C   UNL     1     175.744 174.554 188.771  1.00  0.00     0.000 C 
BRANCH   9  10
ATOM     10  C   UNL     1     176.926 175.134 189.567  1.00  0.00     0.000 C 
BRANCH  10  11
ATOM     11  C   UNL     1     178.240 174.387 189.279  1.00  0.00     0.000 C 
BRANCH  11  12
ATOM     12  C   UNL     1     178.111 173.343 188.146  1.00  0.00     0.002 C 
BRANCH  12  13
ATOM     13  C   UNL     1     178.990 173.656 186.922  1.00  0.00     0.028 C 
BRANCH  13  14
ATOM     14  C   UNL     1     178.252 174.418 185.813  1.00  0.00     0.156 C 
BRANCH  14  15
ATOM     15  O   UNL     1     178.776 175.708 185.651  1.00  0.00    -0.396 OA
ATOM     16  H   UNL     1     178.098 176.228 185.144  1.00  0.00     0.210 HD
ENDBRANCH  14  15
ENDBRANCH  13  14
ENDBRANCH  12  13
ENDBRANCH  11  12
ENDBRANCH  10  11
ENDBRANCH   9  10
ENDBRANCH   1   9
TORSDOF 13
ENDMDL
MODEL 3
REMARK VINA RESULT:    -3.531      2.385      5.702
REMARK INTER + INTRA:          -7.359
REMARK INTER:                  -5.843
REMARK INTRA:                  -1.516
REMARK UNBOUND:                -1.248
REMARK SMILES CCCCCCCCCCCCCCO
REMARK SMILES IDX 8 1 7 2 6 3 5 4 4 5 3 6 2 7 1 8 9 9 10 10 11 11 12 12 13 13
REMARK SMILES IDX 14 14 15 15
REMARK H PARENT 15 16
REMARK Flexibility Score: inf
ROOT
ATOM      1  C   UNL     1     162.496 161.819 185.774  1.00  0.00     0.000 C 
ENDROOT
BRANCH   1   2
ATOM      2  C   UNL     1     161.203 160.992 185.705  1.00  0.00    -0.000 C 
BRANCH   2   3
ATOM      3  C   UNL     1     160.108 161.610 186.585  1.00  0.00    -0.000 C 
BRANCH   3   4
ATOM      4  C   UNL     1     160.346 161.378 188.087  1.00  0.00    -0.000 C 
BRANCH   4   5
ATOM      5  C   UNL     1     160.613 162.676 188.878  1.00  0.00    -0.000 C 
BRANCH   5   6
ATOM      6  C   UNL     1     159.875 163.885 188.274  1.00  0.00    -0.000 C 
BRANCH   6   7
ATOM      7  C   UNL     1     160.818 164.839 187.526  1.00  0.00    -0.003 C 
ATOM      8  C   UNL     1     162.262 164.748 188.015  1.00  0.00     0.004 C 
ENDBRANCH   6   7
ENDBRANCH   5   6
ENDBRANCH   4   5
ENDBRANCH   3   4
ENDBRANCH   2   3
ENDBRANCH   1   2
BRANCH   1   9
ATOM      9  C   UNL     1     163.677 161.025 186.356  1.00  0.00     0.000 C 
BRANCH   9  10
ATOM     10  C   UNL     1     164.210 161.631 187.666  1.00  0.00     0.000 C 
BRANCH  10  11
ATOM     11  C   UNL     1     164.195 160.614 188.821  1.00  0.00     0.000 C 
BRANCH  11  12
ATOM     12  C   UNL     1     165.583 160.405 189.467  1.00  0.00     0.002 C 
BRANCH  12  13
ATOM     13  C   UNL     1     166.532 161.602 189.281  1.00  0.00     0.028 C 
BRANCH  13  14
ATOM     14  C   UNL     1     166.572 162.548 190.489  1.00  0.00     0.156 C 
BRANCH  14  15
ATOM     15  O   UNL     1     165.681 163.616 190.324  1.00  0.00    -0.396 OA
ATOM     16  H   UNL     1     164.986 163.518 191.027  1.00  0.00     0.210 HD
ENDBRANCH  14  15
ENDBRANCH  13  14
ENDBRANCH  12  13
ENDBRANCH  11  12
ENDBRANCH  10  11
ENDBRANCH   9  10
ENDBRANCH   1   9
TORSDOF 13
ENDMDL
MODEL 4
REMARK VINA RESULT:    -3.525     15.840     18.376
REMARK INTER + INTRA:          -7.350
REMARK INTER:                  -5.880
REMARK INTRA:                  -1.469
REMARK UNBOUND:                -1.248
REMARK SMILES CCCCCCCCCCCCCCO
REMARK SMILES IDX 8 1 7 2 6 3 5 4 4 5 3 6 2 7 1 8 9 9 10 10 11 11 12 12 13 13
REMARK SMILES IDX 14 14 15 15
REMARK H PARENT 15 16
REMARK Flexibility Score: inf
ROOT
ATOM      1  C   UNL     1     170.249 177.127 188.006  1.00  0.00     0.000 C 
ENDROOT
BRANCH   1   2
ATOM      2  C   UNL     1     169.418 176.143 188.843  1.00  0.00    -0.000 C 
BRANCH   2   3
ATOM      3  C   UNL     1     168.881 176.818 190.112  1.00  0.00    -0.000 C 
BRANCH   3   4
ATOM      4  C   UNL     1     167.396 177.206 189.999  1.00  0.00    -0.000 C 
BRANCH   4   5
ATOM      5  C   UNL     1     167.171 178.648 189.498  1.00  0.00    -0.000 C 
BRANCH   5   6
ATOM      6  C   UNL     1     166.838 178.695 187.996  1.00  0.00    -0.000 C 
BRANCH   6   7
ATOM      7  C   UNL     1     167.639 179.769 187.246  1.00  0.00    -0.003 C 
ATOM      8  C   UNL     1     168.209 179.264 185.921  1.00  0.00     0.004 C 
ENDBRANCH   6   7
ENDBRANCH   5   6
ENDBRANCH   4   5
ENDBRANCH   3   4
ENDBRANCH   2   3
ENDBRANCH   1   2
BRANCH   1   9
ATOM      9  C   UNL     1     171.207 177.972 188.861  1.00  0.00     0.000 C 
BRANCH   9  10
ATOM     10  C   UNL     1     171.061 179.481 188.599  1.00  0.00     0.000 C 
BRANCH  10  11
ATOM     11  C   UNL     1     172.222 180.036 187.755  1.00  0.00     0.000 C 
BRANCH  11  12
ATOM     12  C   UNL     1     173.614 179.637 188.296  1.00  0.00     0.002 C 
BRANCH  12  13
ATOM     13  C   UNL     1     174.697 179.562 187.205  1.00  0.00     0.028 C 
BRANCH  13  14
ATOM     14  C   UNL     1     174.218 178.898 185.908  1.00  0.00     0.156 C 
BRANCH  14  15
ATOM     15  O   UNL     1     174.534 179.684 184.791  1.00  0.00    -0.396 OA
ATOM     16  H   UNL     1     175.067 179.110 184.181  1.00  0.00     0.210 HD
ENDBRANCH  14  15
ENDBRANCH  13  14
ENDBRANCH  12  13
ENDBRANCH  11  12
ENDBRANCH  10  11
ENDBRANCH   9  10
ENDBRANCH   1   9
TORSDOF 13
ENDMDL
MODEL 5
REMARK VINA RESULT:    -3.507      2.289      2.945
REMARK INTER + INTRA:          -7.319
REMARK INTER:                  -6.095
REMARK INTRA:                  -1.224
REMARK UNBOUND:                -1.248
REMARK SMILES CCCCCCCCCCCCCCO
REMARK SMILES IDX 8 1 7 2 6 3 5 4 4 5 3 6 2 7 1 8 9 9 10 10 11 11 12 12 13 13
REMARK SMILES IDX 14 14 15 15
REMARK H PARENT 15 16
REMARK Flexibility Score: inf
ROOT
ATOM      1  C   UNL     1     163.089 162.779 188.307  1.00  0.00     0.000 C 
ENDROOT
BRANCH   1   2
ATOM      2  C   UNL     1     163.324 161.274 188.497  1.00  0.00    -0.000 C 
BRANCH   2   3
ATOM      3  C   UNL     1     164.352 160.746 187.487  1.00  0.00    -0.000 C 
BRANCH   3   4
ATOM      4  C   UNL     1     165.761 160.600 188.088  1.00  0.00    -0.000 C 
BRANCH   4   5
ATOM      5  C   UNL     1     165.759 160.319 189.606  1.00  0.00    -0.000 C 
BRANCH   5   6
ATOM      6  C   UNL     1     166.637 161.318 190.382  1.00  0.00    -0.000 C 
BRANCH   6   7
ATOM      7  C   UNL     1     166.282 162.780 190.072  1.00  0.00    -0.003 C 
ATOM      8  C   UNL     1     167.373 163.498 189.278  1.00  0.00     0.004 C 
ENDBRANCH   6   7
ENDBRANCH   5   6
ENDBRANCH   4   5
ENDBRANCH   3   4
ENDBRANCH   2   3
ENDBRANCH   1   2
BRANCH   1   9
ATOM      9  C   UNL     1     161.736 163.243 188.870  1.00  0.00     0.000 C 
BRANCH   9  10
ATOM     10  C   UNL     1     160.635 162.178 188.721  1.00  0.00     0.000 C 
BRANCH  10  11
ATOM     11  C   UNL     1     159.875 162.315 187.390  1.00  0.00     0.000 C 
BRANCH  11  12
ATOM     12  C   UNL     1     160.282 161.251 186.344  1.00  0.00     0.002 C 
BRANCH  12  13
ATOM     13  C   UNL     1     160.493 161.829 184.933  1.00  0.00     0.028 C 
BRANCH  13  14
ATOM     14  C   UNL     1     161.873 161.515 184.341  1.00  0.00     0.156 C 
BRANCH  14  15
ATOM     15  O   UNL     1     162.320 160.250 184.746  1.00  0.00    -0.396 OA
ATOM     16  H   UNL     1     161.523 159.658 184.762  1.00  0.00     0.210 HD
ENDBRANCH  14  15
ENDBRANCH  13  14
ENDBRANCH  12  13
ENDBRANCH  11  12
ENDBRANCH  10  11
ENDBRANCH   9  10
ENDBRANCH   1   9
TORSDOF 13
ENDMDL
MODEL 6
REMARK VINA RESULT:    -3.497     16.792     18.389
REMARK INTER + INTRA:          -7.301
REMARK INTER:                  -5.819
REMARK INTRA:                  -1.482
REMARK UNBOUND:                -1.248
REMARK SMILES CCCCCCCCCCCCCCO
REMARK SMILES IDX 8 1 7 2 6 3 5 4 4 5 3 6 2 7 1 8 9 9 10 10 11 11 12 12 13 13
REMARK SMILES IDX 14 14 15 15
REMARK H PARENT 15 16
REMARK Flexibility Score: inf
ROOT
ATOM      1  C   UNL     1     176.442 174.021 189.974  1.00  0.00     0.000 C 
ENDROOT
BRANCH   1   2
ATOM      2  C   UNL     1     177.512 175.005 189.480  1.00  0.00    -0.000 C 
BRANCH   2   3
ATOM      3  C   UNL     1     178.859 174.298 189.278  1.00  0.00    -0.000 C 
BRANCH   3   4
ATOM      4  C   UNL     1     179.268 174.202 187.798  1.00  0.00    -0.000 C 
BRANCH   4   5
ATOM      5  C   UNL     1     179.638 172.772 187.350  1.00  0.00    -0.000 C 
BRANCH   5   6
ATOM      6  C   UNL     1     179.980 171.861 188.543  1.00  0.00    -0.000 C 
BRANCH   6   7
ATOM      7  C   UNL     1     179.188 170.546 188.529  1.00  0.00    -0.003 C 
ATOM      8  C   UNL     1     177.705 170.745 188.840  1.00  0.00     0.004 C 
ENDBRANCH   6   7
ENDBRANCH   5   6
ENDBRANCH   4   5
ENDBRANCH   3   4
ENDBRANCH   2   3
ENDBRANCH   1   2
BRANCH   1   9
ATOM      9  C   UNL     1     175.260 173.892 189.001  1.00  0.00     0.000 C 
BRANCH   9  10
ATOM     10  C   UNL     1     175.676 174.095 187.533  1.00  0.00     0.000 C 
BRANCH  10  11
ATOM     11  C   UNL     1     174.776 175.115 186.813  1.00  0.00     0.000 C 
BRANCH  11  12
ATOM     12  C   UNL     1     174.532 176.401 187.637  1.00  0.00     0.002 C 
BRANCH  12  13
ATOM     13  C   UNL     1     175.621 177.470 187.439  1.00  0.00     0.028 C 
BRANCH  13  14
ATOM     14  C   UNL     1     175.077 178.905 187.418  1.00  0.00     0.156 C 
BRANCH  14  15
ATOM     15  O   UNL     1     174.861 179.344 186.105  1.00  0.00    -0.396 OA
ATOM     16  H   UNL     1     174.388 178.610 185.633  1.00  0.00     0.210 HD
ENDBRANCH  14  15
ENDBRANCH  13  14
ENDBRANCH  12  13
ENDBRANCH  11  12
ENDBRANCH  10  11
ENDBRANCH   9  10
ENDBRANCH   1   9
TORSDOF 13
ENDMDL
MODEL 7
REMARK VINA RESULT:    -3.496     15.526     18.177
REMARK INTER + INTRA:          -7.298
REMARK INTER:                  -5.927
REMARK INTRA:                  -1.371
REMARK UNBOUND:                -1.248
REMARK SMILES CCCCCCCCCCCCCCO
REMARK SMILES IDX 8 1 7 2 6 3 5 4 4 5 3 6 2 7 1 8 9 9 10 10 11 11 12 12 13 13
REMARK SMILES IDX 14 14 15 15
REMARK H PARENT 15 16
REMARK Flexibility Score: inf
ROOT
ATOM      1  C   UNL     1     177.916 170.594 188.030  1.00  0.00     0.000 C 
ENDROOT
BRANCH   1   2
ATOM      2  C   UNL     1     177.876 171.803 187.084  1.00  0.00    -0.000 C 
BRANCH   2   3
ATOM      3  C   UNL     1     179.161 172.634 187.200  1.00  0.00    -0.000 C 
BRANCH   3   4
ATOM      4  C   UNL     1     178.904 174.065 187.704  1.00  0.00    -0.000 C 
BRANCH   4   5
ATOM      5  C   UNL     1     178.766 174.165 189.237  1.00  0.00    -0.000 C 
BRANCH   5   6
ATOM      6  C   UNL     1     177.501 174.936 189.657  1.00  0.00    -0.000 C 
BRANCH   6   7
ATOM      7  C   UNL     1     176.211 174.149 189.382  1.00  0.00    -0.003 C 
ATOM      8  C   UNL     1     176.047 172.941 190.303  1.00  0.00     0.004 C 
ENDBRANCH   6   7
ENDBRANCH   5   6
ENDBRANCH   4   5
ENDBRANCH   3   4
ENDBRANCH   2   3
ENDBRANCH   1   2
BRANCH   1   9
ATOM      9  C   UNL     1     179.253 170.469 188.778  1.00  0.00     0.000 C 
BRANCH   9  10
ATOM     10  C   UNL     1     179.972 169.140 188.490  1.00  0.00     0.000 C 
BRANCH  10  11
ATOM     11  C   UNL     1     180.089 168.861 186.981  1.00  0.00     0.000 C 
BRANCH  11  12
ATOM     12  C   UNL     1     179.358 167.571 186.541  1.00  0.00     0.002 C 
BRANCH  12  13
ATOM     13  C   UNL     1     179.097 166.591 187.698  1.00  0.00     0.028 C 
BRANCH  13  14
ATOM     14  C   UNL     1     178.102 165.476 187.346  1.00  0.00     0.156 C 
BRANCH  14  15
ATOM     15  O   UNL     1     178.542 164.739 186.238  1.00  0.00    -0.396 OA
ATOM     16  H   UNL     1     177.859 164.861 185.527  1.00  0.00     0.210 HD
ENDBRANCH  14  15
ENDBRANCH  13  14
ENDBRANCH  12  13
ENDBRANCH  11  12
ENDBRANCH  10  11
ENDBRANCH   9  10
ENDBRANCH   1   9
TORSDOF 13
ENDMDL
MODEL 8
REMARK VINA RESULT:    -3.484      1.356      2.278
REMARK INTER + INTRA:          -7.278
REMARK INTER:                  -6.232
REMARK INTRA:                  -1.046
REMARK UNBOUND:                -1.248
REMARK SMILES CCCCCCCCCCCCCCO
REMARK SMILES IDX 8 1 7 2 6 3 5 4 4 5 3 6 2 7 1 8 9 9 10 10 11 11 12 12 13 13
REMARK SMILES IDX 14 14 15 15
REMARK H PARENT 15 16
REMARK Flexibility Score: inf
ROOT
ATOM      1  C   UNL     1     162.289 163.407 188.845  1.00  0.00     0.000 C 
ENDROOT
BRANCH   1   2
ATOM      2  C   UNL     1     163.302 162.480 188.158  1.00  0.00    -0.000 C 
BRANCH   2   3
ATOM      3  C   UNL     1     162.874 161.011 188.278  1.00  0.00    -0.000 C 
BRANCH   3   4
ATOM      4  C   UNL     1     163.977 160.112 188.863  1.00  0.00    -0.000 C 
BRANCH   4   5
ATOM      5  C   UNL     1     165.403 160.651 188.626  1.00  0.00    -0.000 C 
BRANCH   5   6
ATOM      6  C   UNL     1     166.266 160.590 189.900  1.00  0.00    -0.000 C 
BRANCH   6   7
ATOM      7  C   UNL     1     166.645 161.982 190.424  1.00  0.00    -0.003 C 
ATOM      8  C   UNL     1     166.897 162.988 189.301  1.00  0.00     0.004 C 
ENDBRANCH   6   7
ENDBRANCH   5   6
ENDBRANCH   4   5
ENDBRANCH   3   4
ENDBRANCH   2   3
ENDBRANCH   1   2
BRANCH   1   9
ATOM      9  C   UNL     1     160.871 162.814 188.879  1.00  0.00     0.000 C 
BRANCH   9  10
ATOM     10  C   UNL     1     159.882 163.592 187.994  1.00  0.00     0.000 C 
BRANCH  10  11
ATOM     11  C   UNL     1     160.288 165.068 187.831  1.00  0.00     0.000 C 
BRANCH  11  12
ATOM     12  C   UNL     1     160.435 165.500 186.355  1.00  0.00     0.002 C 
BRANCH  12  13
ATOM     13  C   UNL     1     161.713 166.313 186.079  1.00  0.00     0.028 C 
BRANCH  13  14
ATOM     14  C   UNL     1     162.013 166.498 184.586  1.00  0.00     0.156 C 
BRANCH  14  15
ATOM     15  O   UNL     1     161.170 167.461 184.016  1.00  0.00    -0.396 OA
ATOM     16  H   UNL     1     161.079 168.190 184.684  1.00  0.00     0.210 HD
ENDBRANCH  14  15
ENDBRANCH  13  14
ENDBRANCH  12  13
ENDBRANCH  11  12
ENDBRANCH  10  11
ENDBRANCH   9  10
ENDBRANCH   1   9
TORSDOF 13
ENDMDL
MODEL 9
REMARK VINA RESULT:    -3.462     11.647     14.062
REMARK INTER + INTRA:          -7.240
REMARK INTER:                  -6.040
REMARK INTRA:                  -1.200
REMARK UNBOUND:                -1.248
REMARK SMILES CCCCCCCCCCCCCCO
REMARK SMILES IDX 8 1 7 2 6 3 5 4 4 5 3 6 2 7 1 8 9 9 10 10 11 11 12 12 13 13
REMARK SMILES IDX 14 14 15 15
REMARK H PARENT 15 16
REMARK Flexibility Score: inf
ROOT
ATOM      1  C   UNL     1     174.891 160.800 187.575  1.00  0.00     0.000 C 
ENDROOT
BRANCH   1   2
ATOM      2  C   UNL     1     176.134 161.228 188.369  1.00  0.00    -0.000 C 
BRANCH   2   3
ATOM      3  C   UNL     1     176.995 162.205 187.557  1.00  0.00    -0.000 C 
BRANCH   3   4
ATOM      4  C   UNL     1     177.124 163.585 188.224  1.00  0.00    -0.000 C 
BRANCH   4   5
ATOM      5  C   UNL     1     176.759 163.584 189.723  1.00  0.00    -0.000 C 
BRANCH   5   6
ATOM      6  C   UNL     1     175.616 164.565 190.042  1.00  0.00    -0.000 C 
BRANCH   6   7
ATOM      7  C   UNL     1     174.228 163.926 189.888  1.00  0.00    -0.003 C 
ATOM      8  C   UNL     1     173.539 164.316 188.580  1.00  0.00     0.004 C 
ENDBRANCH   6   7
ENDBRANCH   5   6
ENDBRANCH   4   5
ENDBRANCH   3   4
ENDBRANCH   2   3
ENDBRANCH   1   2
BRANCH   1   9
ATOM      9  C   UNL     1     175.241 159.985 186.320  1.00  0.00     0.000 C 
BRANCH   9  10
ATOM     10  C   UNL     1     174.886 160.722 185.017  1.00  0.00     0.000 C 
BRANCH  10  11
ATOM     11  C   UNL     1     176.041 160.686 184.000  1.00  0.00     0.000 C 
BRANCH  11  12
ATOM     12  C   UNL     1     176.766 162.043 183.852  1.00  0.00     0.002 C 
BRANCH  12  13
ATOM     13  C   UNL     1     177.901 162.022 182.814  1.00  0.00     0.028 C 
BRANCH  13  14
ATOM     14  C   UNL     1     178.496 160.626 182.582  1.00  0.00     0.156 C 
BRANCH  14  15
ATOM     15  O   UNL     1     179.740 160.496 183.214  1.00  0.00    -0.396 OA
ATOM     16  H   UNL     1     179.587 160.659 184.181  1.00  0.00     0.210 HD
ENDBRANCH  14  15
ENDBRANCH  13  14
ENDBRANCH  12  13
ENDBRANCH  11  12
ENDBRANCH  10  11
ENDBRANCH   9  10
ENDBRANCH   1   9
TORSDOF 13
ENDMDL
