MODEL 1
REMARK VINA RESULT:    -6.558      0.000      0.000
REMARK INTER + INTRA:          -7.828
REMARK INTER:                  -7.516
REMARK INTRA:                  -0.311
REMARK UNBOUND:                -0.311
REMARK SMILES O=C1C[C@@H](c2ccc(O)cc2)Oc2cc(O)cc(O)c21
REMARK SMILES IDX 3 1 4 2 12 3 13 4 14 5 15 6 17 7 18 8 20 9 2 10 1 11 5 12
REMARK SMILES IDX 6 13 11 14 7 15 10 16 8 17 9 18 19 20 16 22
REMARK H PARENT 9 19 19 21 16 23
REMARK Flexibility Score: inf
ROOT
ATOM      1  C   UNL     1      19.254  -0.182 -17.798  1.00  0.00     0.131 C 
ATOM      2  C   UNL     1      19.001  -0.916 -19.124  1.00  0.00     0.211 C 
ATOM      3  O   UNL     1      19.136  -2.330 -18.952  1.00  0.00    -0.484 OA
ATOM      4  C   UNL     1      18.609  -2.995 -17.838  1.00  0.00     0.138 A 
ATOM      5  C   UNL     1      18.485  -4.387 -17.865  1.00  0.00     0.093 A 
ATOM      6  C   UNL     1      17.937  -5.066 -16.771  1.00  0.00     0.123 A 
ATOM      7  C   UNL     1      17.522  -4.350 -15.645  1.00  0.00     0.093 A 
ATOM      8  C   UNL     1      17.659  -2.954 -15.597  1.00  0.00     0.133 A 
ATOM      9  C   UNL     1      18.213  -2.269 -16.698  1.00  0.00     0.102 A 
ATOM     10  C   UNL     1      18.436  -0.803 -16.701  1.00  0.00     0.174 C 
ATOM     11  O   UNL     1      17.997  -0.074 -15.772  1.00  0.00    -0.294 OA
ENDROOT
BRANCH   2  12
ATOM     12  C   UNL     1      19.950  -0.432 -20.193  1.00  0.00    -0.007 A 
ATOM     13  C   UNL     1      20.623   0.792 -20.039  1.00  0.00     0.011 A 
ATOM     14  C   UNL     1      20.214  -1.222 -21.326  1.00  0.00     0.011 A 
ATOM     15  C   UNL     1      21.526   1.229 -21.014  1.00  0.00     0.046 A 
ATOM     16  C   UNL     1      21.118  -0.782 -22.298  1.00  0.00     0.046 A 
ATOM     17  C   UNL     1      21.774   0.443 -22.146  1.00  0.00     0.115 A 
BRANCH  17  18
ATOM     18  O   UNL     1      22.671   0.868 -23.124  1.00  0.00    -0.508 OA
ATOM     19  H   UNL     1      22.792   0.354 -23.990  1.00  0.00     0.293 HD
ENDBRANCH  17  18
ENDBRANCH   2  12
BRANCH   8  20
ATOM     20  O   UNL     1      17.254  -2.262 -14.456  1.00  0.00    -0.507 OA
ATOM     21  H   UNL     1      17.871  -1.614 -13.980  1.00  0.00     0.293 HD
ENDBRANCH   8  20
BRANCH   6  22
ATOM     22  O   UNL     1      17.801  -6.453 -16.793  1.00  0.00    -0.508 OA
ATOM     23  H   UNL     1      17.180  -6.934 -16.153  1.00  0.00     0.293 HD
ENDBRANCH   6  22
TORSDOF 4
ENDMDL
MODEL 2
REMARK VINA RESULT:    -6.512      0.088      1.087
REMARK INTER + INTRA:          -7.776
REMARK INTER:                  -7.469
REMARK INTRA:                  -0.307
REMARK UNBOUND:                -0.311
REMARK SMILES O=C1C[C@@H](c2ccc(O)cc2)Oc2cc(O)cc(O)c21
REMARK SMILES IDX 3 1 4 2 12 3 13 4 14 5 15 6 17 7 18 8 20 9 2 10 1 11 5 12
REMARK SMILES IDX 6 13 11 14 7 15 10 16 8 17 9 18 19 20 16 22
REMARK H PARENT 9 19 19 21 16 23
REMARK Flexibility Score: inf
ROOT
ATOM      1  C   UNL     1      19.292  -0.183 -17.728  1.00  0.00     0.131 C 
ATOM      2  C   UNL     1      19.019  -0.899 -19.060  1.00  0.00     0.211 C 
ATOM      3  O   UNL     1      19.106  -2.317 -18.896  1.00  0.00    -0.484 OA
ATOM      4  C   UNL     1      18.552  -2.972 -17.789  1.00  0.00     0.138 A 
ATOM      5  C   UNL     1      18.380  -4.358 -17.826  1.00  0.00     0.093 A 
ATOM      6  C   UNL     1      17.804  -5.025 -16.739  1.00  0.00     0.123 A 
ATOM      7  C   UNL     1      17.409  -4.303 -15.610  1.00  0.00     0.093 A 
ATOM      8  C   UNL     1      17.593  -2.913 -15.552  1.00  0.00     0.133 A 
ATOM      9  C   UNL     1      18.175  -2.240 -16.646  1.00  0.00     0.102 A 
ATOM     10  C   UNL     1      18.447  -0.782 -16.639  1.00  0.00     0.174 C 
ATOM     11  O   UNL     1      18.030  -0.045 -15.706  1.00  0.00    -0.294 OA
ENDROOT
BRANCH   2  12
ATOM     12  C   UNL     1      19.989  -0.440 -20.121  1.00  0.00    -0.007 A 
ATOM     13  C   UNL     1      20.207  -1.224 -21.267  1.00  0.00     0.011 A 
ATOM     14  C   UNL     1      20.644   0.800 -20.004  1.00  0.00     0.011 A 
ATOM     15  C   UNL     1      21.082  -0.787 -22.267  1.00  0.00     0.046 A 
ATOM     16  C   UNL     1      21.518   1.233 -21.005  1.00  0.00     0.046 A 
ATOM     17  C   UNL     1      21.741   0.443 -22.136  1.00  0.00     0.115 A 
BRANCH  17  18
ATOM     18  O   UNL     1      22.615   0.889 -23.125  1.00  0.00    -0.508 OA
ATOM     19  H   UNL     1      22.327   0.957 -24.095  1.00  0.00     0.293 HD
ENDBRANCH  17  18
ENDBRANCH   2  12
BRANCH   8  20
ATOM     20  O   UNL     1      17.207  -2.214 -14.408  1.00  0.00    -0.507 OA
ATOM     21  H   UNL     1      17.570  -2.450 -13.492  1.00  0.00     0.293 HD
ENDBRANCH   8  20
BRANCH   6  22
ATOM     22  O   UNL     1      17.621  -6.407 -16.770  1.00  0.00    -0.508 OA
ATOM     23  H   UNL     1      18.096  -6.988 -17.449  1.00  0.00     0.293 HD
ENDBRANCH   6  22
TORSDOF 4
ENDMDL
MODEL 3
REMARK VINA RESULT:    -5.833      9.415     12.858
REMARK INTER + INTRA:          -6.997
REMARK INTER:                  -6.708
REMARK INTRA:                  -0.290
REMARK UNBOUND:                -0.311
REMARK SMILES O=C1C[C@@H](c2ccc(O)cc2)Oc2cc(O)cc(O)c21
REMARK SMILES IDX 3 1 4 2 12 3 13 4 14 5 15 6 17 7 18 8 20 9 2 10 1 11 5 12
REMARK SMILES IDX 6 13 11 14 7 15 10 16 8 17 9 18 19 20 16 22
REMARK H PARENT 9 19 19 21 16 23
REMARK Flexibility Score: inf
ROOT
ATOM      1  C   UNL     1      11.113  -6.522  -9.298  1.00  0.00     0.131 C 
ATOM      2  C   UNL     1      10.876  -5.564 -10.475  1.00  0.00     0.211 C 
ATOM      3  O   UNL     1      10.236  -6.244 -11.558  1.00  0.00    -0.484 OA
ATOM      4  C   UNL     1       9.181  -7.142 -11.351  1.00  0.00     0.138 A 
ATOM      5  C   UNL     1       8.388  -7.531 -12.434  1.00  0.00     0.093 A 
ATOM      6  C   UNL     1       7.314  -8.407 -12.241  1.00  0.00     0.123 A 
ATOM      7  C   UNL     1       7.041  -8.901 -10.963  1.00  0.00     0.093 A 
ATOM      8  C   UNL     1       7.840  -8.533  -9.869  1.00  0.00     0.133 A 
ATOM      9  C   UNL     1       8.925  -7.652 -10.064  1.00  0.00     0.102 A 
ATOM     10  C   UNL     1       9.844  -7.257  -8.968  1.00  0.00     0.174 C 
ATOM     11  O   UNL     1       9.607  -7.574  -7.772  1.00  0.00    -0.294 OA
ENDROOT
BRANCH   2  12
ATOM     12  C   UNL     1      12.178  -4.958 -10.941  1.00  0.00    -0.007 A 
ATOM     13  C   UNL     1      12.177  -3.927 -11.894  1.00  0.00     0.011 A 
ATOM     14  C   UNL     1      13.400  -5.380 -10.387  1.00  0.00     0.011 A 
ATOM     15  C   UNL     1      13.379  -3.342 -12.306  1.00  0.00     0.046 A 
ATOM     16  C   UNL     1      14.601  -4.794 -10.801  1.00  0.00     0.046 A 
ATOM     17  C   UNL     1      14.594  -3.776 -11.760  1.00  0.00     0.115 A 
BRANCH  17  18
ATOM     18  O   UNL     1      15.799  -3.203 -12.162  1.00  0.00    -0.508 OA
ATOM     19  H   UNL     1      16.404  -3.661 -12.835  1.00  0.00     0.293 HD
ENDBRANCH  17  18
ENDBRANCH   2  12
BRANCH   8  20
ATOM     20  O   UNL     1       7.560  -9.051  -8.605  1.00  0.00    -0.507 OA
ATOM     21  H   UNL     1       8.089  -9.823  -8.217  1.00  0.00     0.293 HD
ENDBRANCH   8  20
BRANCH   6  22
ATOM     22  O   UNL     1       6.512  -8.795 -13.313  1.00  0.00    -0.508 OA
ATOM     23  H   UNL     1       6.897  -9.284 -14.112  1.00  0.00     0.293 HD
ENDBRANCH   6  22
TORSDOF 4
ENDMDL
MODEL 4
REMARK VINA RESULT:    -5.788     10.103     13.674
REMARK INTER + INTRA:          -6.946
REMARK INTER:                  -6.660
REMARK INTRA:                  -0.286
REMARK UNBOUND:                -0.311
REMARK SMILES O=C1C[C@@H](c2ccc(O)cc2)Oc2cc(O)cc(O)c21
REMARK SMILES IDX 3 1 4 2 12 3 13 4 14 5 15 6 17 7 18 8 20 9 2 10 1 11 5 12
REMARK SMILES IDX 6 13 11 14 7 15 10 16 8 17 9 18 19 20 16 22
REMARK H PARENT 9 19 19 21 16 23
REMARK Flexibility Score: inf
ROOT
ATOM      1  C   UNL     1      10.409  -7.011 -10.739  1.00  0.00     0.131 C 
ATOM      2  C   UNL     1      11.460  -6.400  -9.800  1.00  0.00     0.211 C 
ATOM      3  O   UNL     1      10.830  -5.733  -8.703  1.00  0.00    -0.484 OA
ATOM      4  C   UNL     1       9.736  -6.288  -8.027  1.00  0.00     0.138 A 
ATOM      5  C   UNL     1       9.361  -5.768  -6.785  1.00  0.00     0.093 A 
ATOM      6  C   UNL     1       8.287  -6.327  -6.084  1.00  0.00     0.123 A 
ATOM      7  C   UNL     1       7.582  -7.401  -6.632  1.00  0.00     0.093 A 
ATOM      8  C   UNL     1       7.936  -7.921  -7.887  1.00  0.00     0.133 A 
ATOM      9  C   UNL     1       9.017  -7.356  -8.596  1.00  0.00     0.102 A 
ATOM     10  C   UNL     1       9.418  -7.818  -9.947  1.00  0.00     0.174 C 
ATOM     11  O   UNL     1       8.904  -8.844 -10.467  1.00  0.00    -0.294 OA
ENDROOT
BRANCH   2  12
ATOM     12  C   UNL     1      12.350  -5.437 -10.549  1.00  0.00    -0.007 A 
ATOM     13  C   UNL     1      11.794  -4.523 -11.459  1.00  0.00     0.011 A 
ATOM     14  C   UNL     1      13.735  -5.407 -10.305  1.00  0.00     0.011 A 
ATOM     15  C   UNL     1      12.612  -3.609 -12.132  1.00  0.00     0.046 A 
ATOM     16  C   UNL     1      14.550  -4.492 -10.979  1.00  0.00     0.046 A 
ATOM     17  C   UNL     1      13.992  -3.593 -11.894  1.00  0.00     0.115 A 
BRANCH  17  18
ATOM     18  O   UNL     1      14.818  -2.689 -12.558  1.00  0.00    -0.508 OA
ATOM     19  H   UNL     1      15.337  -2.956 -13.388  1.00  0.00     0.293 HD
ENDBRANCH  17  18
ENDBRANCH   2  12
BRANCH   8  20
ATOM     20  O   UNL     1       7.207  -8.982  -8.424  1.00  0.00    -0.507 OA
ATOM     21  H   UNL     1       6.464  -9.434  -7.905  1.00  0.00     0.293 HD
ENDBRANCH   8  20
BRANCH   6  22
ATOM     22  O   UNL     1       7.911  -5.821  -4.841  1.00  0.00    -0.508 OA
ATOM     23  H   UNL     1       8.512  -5.908  -4.030  1.00  0.00     0.293 HD
ENDBRANCH   6  22
TORSDOF 4
ENDMDL
MODEL 5
REMARK VINA RESULT:    -5.655      9.148     14.033
REMARK INTER + INTRA:          -6.793
REMARK INTER:                  -6.501
REMARK INTRA:                  -0.293
REMARK UNBOUND:                -0.311
REMARK SMILES O=C1C[C@@H](c2ccc(O)cc2)Oc2cc(O)cc(O)c21
REMARK SMILES IDX 3 1 4 2 12 3 13 4 14 5 15 6 17 7 18 8 20 9 2 10 1 11 5 12
REMARK SMILES IDX 6 13 11 14 7 15 10 16 8 17 9 18 19 20 16 22
REMARK H PARENT 9 19 19 21 16 23
REMARK Flexibility Score: inf
ROOT
ATOM      1  C   UNL     1      10.795  -7.819 -10.232  1.00  0.00     0.131 C 
ATOM      2  C   UNL     1      10.529  -6.313 -10.095  1.00  0.00     0.211 C 
ATOM      3  O   UNL     1      11.760  -5.586 -10.036  1.00  0.00    -0.484 OA
ATOM      4  C   UNL     1      12.839  -5.886 -10.876  1.00  0.00     0.138 A 
ATOM      5  C   UNL     1      13.883  -4.967 -11.007  1.00  0.00     0.093 A 
ATOM      6  C   UNL     1      14.957  -5.239 -11.862  1.00  0.00     0.123 A 
ATOM      7  C   UNL     1      14.988  -6.437 -12.580  1.00  0.00     0.093 A 
ATOM      8  C   UNL     1      13.956  -7.378 -12.444  1.00  0.00     0.133 A 
ATOM      9  C   UNL     1      12.874  -7.106 -11.580  1.00  0.00     0.102 A 
ATOM     10  C   UNL     1      11.772  -8.071 -11.346  1.00  0.00     0.174 C 
ATOM     11  O   UNL     1      11.671  -9.125 -12.029  1.00  0.00    -0.294 OA
ENDROOT
BRANCH   2  12
ATOM     12  C   UNL     1       9.700  -6.027  -8.866  1.00  0.00    -0.007 A 
ATOM     13  C   UNL     1      10.289  -6.061  -7.591  1.00  0.00     0.011 A 
ATOM     14  C   UNL     1       8.344  -5.669  -8.986  1.00  0.00     0.011 A 
ATOM     15  C   UNL     1       9.531  -5.767  -6.453  1.00  0.00     0.046 A 
ATOM     16  C   UNL     1       7.589  -5.375  -7.846  1.00  0.00     0.046 A 
ATOM     17  C   UNL     1       8.178  -5.425  -6.579  1.00  0.00     0.115 A 
BRANCH  17  18
ATOM     18  O   UNL     1       7.412  -5.130  -5.453  1.00  0.00    -0.508 OA
ATOM     19  H   UNL     1       6.976  -4.222  -5.333  1.00  0.00     0.293 HD
ENDBRANCH  17  18
ENDBRANCH   2  12
BRANCH   8  20
ATOM     20  O   UNL     1      14.015  -8.575 -13.157  1.00  0.00    -0.507 OA
ATOM     21  H   UNL     1      13.794  -9.464 -12.724  1.00  0.00     0.293 HD
ENDBRANCH   8  20
BRANCH   6  22
ATOM     22  O   UNL     1      15.999  -4.325 -12.005  1.00  0.00    -0.508 OA
ATOM     23  H   UNL     1      15.851  -3.414 -12.423  1.00  0.00     0.293 HD
ENDBRANCH   6  22
TORSDOF 4
ENDMDL
MODEL 6
REMARK VINA RESULT:    -5.576      9.834     11.504
REMARK INTER + INTRA:          -6.702
REMARK INTER:                  -6.394
REMARK INTRA:                  -0.308
REMARK UNBOUND:                -0.311
REMARK SMILES O=C1C[C@@H](c2ccc(O)cc2)Oc2cc(O)cc(O)c21
REMARK SMILES IDX 3 1 4 2 12 3 13 4 14 5 15 6 17 7 18 8 20 9 2 10 1 11 5 12
REMARK SMILES IDX 6 13 11 14 7 15 10 16 8 17 9 18 19 20 16 22
REMARK H PARENT 9 19 19 21 16 23
REMARK Flexibility Score: inf
ROOT
ATOM      1  C   UNL     1      20.426  -0.347  -6.947  1.00  0.00     0.131 C 
ATOM      2  C   UNL     1      19.593   0.937  -7.081  1.00  0.00     0.211 C 
ATOM      3  O   UNL     1      18.730   0.861  -8.220  1.00  0.00    -0.484 OA
ATOM      4  C   UNL     1      18.015  -0.302  -8.532  1.00  0.00     0.138 A 
ATOM      5  C   UNL     1      16.959  -0.234  -9.446  1.00  0.00     0.093 A 
ATOM      6  C   UNL     1      16.218  -1.380  -9.751  1.00  0.00     0.123 A 
ATOM      7  C   UNL     1      16.539  -2.598  -9.146  1.00  0.00     0.093 A 
ATOM      8  C   UNL     1      17.608  -2.685  -8.241  1.00  0.00     0.133 A 
ATOM      9  C   UNL     1      18.359  -1.530  -7.935  1.00  0.00     0.102 A 
ATOM     10  C   UNL     1      19.532  -1.553  -7.028  1.00  0.00     0.174 C 
ATOM     11  O   UNL     1      19.824  -2.583  -6.364  1.00  0.00    -0.294 OA
ENDROOT
BRANCH   2  12
ATOM     12  C   UNL     1      20.489   2.146  -7.191  1.00  0.00    -0.007 A 
ATOM     13  C   UNL     1      20.005   3.336  -7.760  1.00  0.00     0.011 A 
ATOM     14  C   UNL     1      21.798   2.115  -6.676  1.00  0.00     0.011 A 
ATOM     15  C   UNL     1      20.824   4.468  -7.835  1.00  0.00     0.046 A 
ATOM     16  C   UNL     1      22.613   3.248  -6.753  1.00  0.00     0.046 A 
ATOM     17  C   UNL     1      22.131   4.425  -7.333  1.00  0.00     0.115 A 
BRANCH  17  18
ATOM     18  O   UNL     1      22.956   5.545  -7.402  1.00  0.00    -0.508 OA
ATOM     19  H   UNL     1      23.146   6.009  -8.284  1.00  0.00     0.293 HD
ENDBRANCH  17  18
ENDBRANCH   2  12
BRANCH   8  20
ATOM     20  O   UNL     1      17.923  -3.914  -7.662  1.00  0.00    -0.507 OA
ATOM     21  H   UNL     1      17.250  -4.669  -7.616  1.00  0.00     0.293 HD
ENDBRANCH   8  20
BRANCH   6  22
ATOM     22  O   UNL     1      15.158  -1.321 -10.655  1.00  0.00    -0.508 OA
ATOM     23  H   UNL     1      14.774  -0.436 -10.963  1.00  0.00     0.293 HD
ENDBRANCH   6  22
TORSDOF 4
ENDMDL
MODEL 7
REMARK VINA RESULT:    -5.506      2.164      7.151
REMARK INTER + INTRA:          -6.622
REMARK INTER:                  -6.327
REMARK INTRA:                  -0.295
REMARK UNBOUND:                -0.311
REMARK SMILES O=C1C[C@@H](c2ccc(O)cc2)Oc2cc(O)cc(O)c21
REMARK SMILES IDX 3 1 4 2 12 3 13 4 14 5 15 6 17 7 18 8 20 9 2 10 1 11 5 12
REMARK SMILES IDX 6 13 11 14 7 15 10 16 8 17 9 18 19 20 16 22
REMARK H PARENT 9 19 19 21 16 23
REMARK Flexibility Score: inf
ROOT
ATOM      1  C   UNL     1      17.004  -3.187 -15.348  1.00  0.00     0.131 C 
ATOM      2  C   UNL     1      17.778  -4.376 -15.939  1.00  0.00     0.211 C 
ATOM      3  O   UNL     1      18.131  -4.120 -17.301  1.00  0.00    -0.484 OA
ATOM      4  C   UNL     1      18.617  -2.876 -17.721  1.00  0.00     0.138 A 
ATOM      5  C   UNL     1      19.241  -2.767 -18.967  1.00  0.00     0.093 A 
ATOM      6  C   UNL     1      19.755  -1.537 -19.392  1.00  0.00     0.123 A 
ATOM      7  C   UNL     1      19.637  -0.413 -18.570  1.00  0.00     0.093 A 
ATOM      8  C   UNL     1      18.997  -0.503 -17.325  1.00  0.00     0.133 A 
ATOM      9  C   UNL     1      18.475  -1.743 -16.897  1.00  0.00     0.102 A 
ATOM     10  C   UNL     1      17.743  -1.906 -15.618  1.00  0.00     0.174 C 
ATOM     11  O   UNL     1      17.683  -0.971 -14.775  1.00  0.00    -0.294 OA
ENDROOT
BRANCH   2  12
ATOM     12  C   UNL     1      16.964  -5.643 -15.844  1.00  0.00    -0.007 A 
ATOM     13  C   UNL     1      17.217  -6.571 -14.820  1.00  0.00     0.011 A 
ATOM     14  C   UNL     1      15.909  -5.884 -16.743  1.00  0.00     0.011 A 
ATOM     15  C   UNL     1      16.445  -7.732 -14.711  1.00  0.00     0.046 A 
ATOM     16  C   UNL     1      15.139  -7.046 -16.631  1.00  0.00     0.046 A 
ATOM     17  C   UNL     1      15.405  -7.972 -15.618  1.00  0.00     0.115 A 
BRANCH  17  18
ATOM     18  O   UNL     1      14.628  -9.125 -15.520  1.00  0.00    -0.508 OA
ATOM     19  H   UNL     1      14.398  -9.533 -14.621  1.00  0.00     0.293 HD
ENDBRANCH  17  18
ENDBRANCH   2  12
BRANCH   8  20
ATOM     20  O   UNL     1      18.874   0.635 -16.528  1.00  0.00    -0.507 OA
ATOM     21  H   UNL     1      17.969   1.012 -16.274  1.00  0.00     0.293 HD
ENDBRANCH   8  20
BRANCH   6  22
ATOM     22  O   UNL     1      20.386  -1.420 -20.629  1.00  0.00    -0.508 OA
ATOM     23  H   UNL     1      20.870  -2.203 -21.052  1.00  0.00     0.293 HD
ENDBRANCH   6  22
TORSDOF 4
ENDMDL
MODEL 8
REMARK VINA RESULT:    -5.439      2.380      4.198
REMARK INTER + INTRA:          -6.546
REMARK INTER:                  -6.262
REMARK INTRA:                  -0.284
REMARK UNBOUND:                -0.311
REMARK SMILES O=C1C[C@@H](c2ccc(O)cc2)Oc2cc(O)cc(O)c21
REMARK SMILES IDX 3 1 4 2 12 3 13 4 14 5 15 6 17 7 18 8 20 9 2 10 1 11 5 12
REMARK SMILES IDX 6 13 11 14 7 15 10 16 8 17 9 18 19 20 16 22
REMARK H PARENT 9 19 19 21 16 23
REMARK Flexibility Score: inf
ROOT
ATOM      1  C   UNL     1      18.223  -2.464 -16.492  1.00  0.00     0.131 C 
ATOM      2  C   UNL     1      18.726  -1.013 -16.546  1.00  0.00     0.211 C 
ATOM      3  O   UNL     1      17.655  -0.098 -16.301  1.00  0.00    -0.484 OA
ATOM      4  C   UNL     1      16.705  -0.320 -15.297  1.00  0.00     0.138 A 
ATOM      5  C   UNL     1      15.882   0.733 -14.886  1.00  0.00     0.093 A 
ATOM      6  C   UNL     1      14.944   0.536 -13.866  1.00  0.00     0.123 A 
ATOM      7  C   UNL     1      14.825  -0.719 -13.263  1.00  0.00     0.093 A 
ATOM      8  C   UNL     1      15.632  -1.790 -13.679  1.00  0.00     0.133 A 
ATOM      9  C   UNL     1      16.576  -1.593 -14.709  1.00  0.00     0.102 A 
ATOM     10  C   UNL     1      17.428  -2.687 -15.236  1.00  0.00     0.174 C 
ATOM     11  O   UNL     1      17.457  -3.818 -14.681  1.00  0.00    -0.294 OA
ENDROOT
BRANCH   2  12
ATOM     12  C   UNL     1      19.364  -0.719 -17.882  1.00  0.00    -0.007 A 
ATOM     13  C   UNL     1      18.638  -0.911 -19.069  1.00  0.00     0.011 A 
ATOM     14  C   UNL     1      20.669  -0.197 -17.952  1.00  0.00     0.011 A 
ATOM     15  C   UNL     1      19.216  -0.611 -20.308  1.00  0.00     0.046 A 
ATOM     16  C   UNL     1      21.242   0.102 -19.191  1.00  0.00     0.046 A 
ATOM     17  C   UNL     1      20.520  -0.104 -20.371  1.00  0.00     0.115 A 
BRANCH  17  18
ATOM     18  O   UNL     1      21.107   0.199 -21.597  1.00  0.00    -0.508 OA
ATOM     19  H   UNL     1      20.552   0.283 -22.443  1.00  0.00     0.293 HD
ENDBRANCH  17  18
ENDBRANCH   2  12
BRANCH   8  20
ATOM     20  O   UNL     1      15.485  -3.039 -13.076  1.00  0.00    -0.507 OA
ATOM     21  H   UNL     1      15.935  -3.262 -12.197  1.00  0.00     0.293 HD
ENDBRANCH   8  20
BRANCH   6  22
ATOM     22  O   UNL     1      14.125   1.581 -13.444  1.00  0.00    -0.508 OA
ATOM     23  H   UNL     1      13.163   1.422 -13.169  1.00  0.00     0.293 HD
ENDBRANCH   6  22
TORSDOF 4
ENDMDL
