MODEL 1
REMARK VINA RESULT:    -3.858      0.000      0.000
REMARK INTER + INTRA:          -8.795
REMARK INTER:                  -6.791
REMARK INTRA:                  -2.004
REMARK UNBOUND:                -2.004
REMARK SMILES CCCCCCCCCCCCCCC(=O)[O-]
REMARK SMILES IDX 9 1 10 2 11 3 12 4 13 5 14 6 15 7 16 8 17 9 8 10 7 11 6 12
REMARK SMILES IDX 5 13 4 14 3 15 2 16 1 17
REMARK H PARENT
REMARK Flexibility Score: inf
ROOT
ATOM      1  C   UNL     1     -14.804  -3.853 -33.295  1.00  0.00     0.000 C 
ENDROOT
BRANCH   1   2
ATOM      2  C   UNL     1     -16.004  -3.897 -32.335  1.00  0.00     0.000 C 
BRANCH   2   3
ATOM      3  C   UNL     1     -15.770  -4.816 -31.121  1.00  0.00     0.000 C 
BRANCH   3   4
ATOM      4  C   UNL     1     -15.775  -6.324 -31.430  1.00  0.00     0.000 C 
BRANCH   4   5
ATOM      5  C   UNL     1     -14.706  -7.103 -30.649  1.00  0.00     0.006 C 
BRANCH   5   6
ATOM      6  C   UNL     1     -13.645  -6.159 -30.079  1.00  0.00     0.053 C 
BRANCH   6   7
ATOM      7  C   UNL     1     -12.578  -6.933 -29.372  1.00  0.00     0.041 C 
ATOM      8  O   UNL     1     -11.416  -6.460 -29.267  1.00  0.00    -0.550 OA
ATOM      9  O   UNL     1     -12.880  -8.155 -28.785  1.00  0.00    -0.550 OA
ENDBRANCH   6   7
ENDBRANCH   5   6
ENDBRANCH   4   5
ENDBRANCH   3   4
ENDBRANCH   2   3
ENDBRANCH   1   2
BRANCH   1  10
ATOM     10  C   UNL     1     -14.614  -2.476 -33.958  1.00  0.00     0.000 C 
BRANCH  10  11
ATOM     11  C   UNL     1     -15.602  -1.385 -33.505  1.00  0.00    -0.000 C 
BRANCH  11  12
ATOM     12  C   UNL     1     -14.970  -0.358 -32.553  1.00  0.00    -0.000 C 
BRANCH  12  13
ATOM     13  C   UNL     1     -15.521  -0.517 -31.129  1.00  0.00    -0.000 C 
BRANCH  13  14
ATOM     14  C   UNL     1     -14.508  -1.165 -30.170  1.00  0.00    -0.000 C 
BRANCH  14  15
ATOM     15  C   UNL     1     -13.160  -1.462 -30.847  1.00  0.00    -0.000 C 
BRANCH  15  16
ATOM     16  C   UNL     1     -12.462  -2.651 -30.175  1.00  0.00    -0.003 C 
ATOM     17  C   UNL     1     -11.534  -3.369 -31.151  1.00  0.00     0.004 C 
ENDBRANCH  15  16
ENDBRANCH  14  15
ENDBRANCH  13  14
ENDBRANCH  12  13
ENDBRANCH  11  12
ENDBRANCH  10  11
ENDBRANCH   1  10
TORSDOF 13
ENDMDL
MODEL 2
REMARK VINA RESULT:    -3.841      2.838      5.948
REMARK INTER + INTRA:          -8.764
REMARK INTER:                  -7.000
REMARK INTRA:                  -1.764
REMARK UNBOUND:                -2.004
REMARK SMILES CCCCCCCCCCCCCCC(=O)[O-]
REMARK SMILES IDX 9 1 10 2 11 3 12 4 13 5 14 6 15 7 16 8 17 9 8 10 7 11 6 12
REMARK SMILES IDX 5 13 4 14 3 15 2 16 1 17
REMARK H PARENT
REMARK Flexibility Score: inf
ROOT
ATOM      1  C   UNL     1     -11.516  -6.231 -29.666  1.00  0.00     0.000 C 
ENDROOT
BRANCH   1   2
ATOM      2  C   UNL     1     -11.088  -5.105 -30.623  1.00  0.00     0.000 C 
BRANCH   2   3
ATOM      3  C   UNL     1     -12.280  -4.303 -31.179  1.00  0.00     0.000 C 
BRANCH   3   4
ATOM      4  C   UNL     1     -12.129  -2.772 -31.110  1.00  0.00     0.000 C 
BRANCH   4   5
ATOM      5  C   UNL     1     -13.270  -2.089 -30.341  1.00  0.00     0.006 C 
BRANCH   5   6
ATOM      6  C   UNL     1     -13.388  -0.613 -30.731  1.00  0.00     0.053 C 
BRANCH   6   7
ATOM      7  C   UNL     1     -14.825  -0.206 -30.815  1.00  0.00     0.041 C 
ATOM      8  O   UNL     1     -15.140   0.912 -31.300  1.00  0.00    -0.550 OA
ATOM      9  O   UNL     1     -15.821  -1.082 -30.402  1.00  0.00    -0.550 OA
ENDBRANCH   6   7
ENDBRANCH   5   6
ENDBRANCH   4   5
ENDBRANCH   3   4
ENDBRANCH   2   3
ENDBRANCH   1   2
BRANCH   1  10
ATOM     10  C   UNL     1     -13.041  -6.308 -29.473  1.00  0.00     0.000 C 
BRANCH  10  11
ATOM     11  C   UNL     1     -13.692  -7.639 -29.894  1.00  0.00    -0.000 C 
BRANCH  11  12
ATOM     12  C   UNL     1     -14.995  -7.449 -30.683  1.00  0.00    -0.000 C 
BRANCH  12  13
ATOM     13  C   UNL     1     -15.421  -5.974 -30.696  1.00  0.00    -0.000 C 
BRANCH  13  14
ATOM     14  C   UNL     1     -16.090  -5.561 -32.018  1.00  0.00    -0.000 C 
BRANCH  14  15
ATOM     15  C   UNL     1     -16.125  -4.037 -32.213  1.00  0.00    -0.000 C 
BRANCH  15  16
ATOM     16  C   UNL     1     -15.111  -3.599 -33.276  1.00  0.00    -0.003 C 
ATOM     17  C   UNL     1     -15.416  -2.191 -33.781  1.00  0.00     0.004 C 
ENDBRANCH  15  16
ENDBRANCH  14  15
ENDBRANCH  13  14
ENDBRANCH  12  13
ENDBRANCH  11  12
ENDBRANCH  10  11
ENDBRANCH   1  10
TORSDOF 13
ENDMDL
MODEL 3
REMARK VINA RESULT:    -3.814      3.095      5.736
REMARK INTER + INTRA:          -8.716
REMARK INTER:                  -6.757
REMARK INTRA:                  -1.959
REMARK UNBOUND:                -2.004
REMARK SMILES CCCCCCCCCCCCCCC(=O)[O-]
REMARK SMILES IDX 9 1 10 2 11 3 12 4 13 5 14 6 15 7 16 8 17 9 8 10 7 11 6 12
REMARK SMILES IDX 5 13 4 14 3 15 2 16 1 17
REMARK H PARENT
REMARK Flexibility Score: inf
ROOT
ATOM      1  C   UNL     1     -15.581  -5.857 -30.747  1.00  0.00     0.000 C 
ENDROOT
BRANCH   1   2
ATOM      2  C   UNL     1     -15.778  -5.319 -32.174  1.00  0.00     0.000 C 
BRANCH   2   3
ATOM      3  C   UNL     1     -15.955  -3.790 -32.221  1.00  0.00     0.000 C 
BRANCH   3   4
ATOM      4  C   UNL     1     -15.187  -3.075 -33.348  1.00  0.00     0.000 C 
BRANCH   4   5
ATOM      5  C   UNL     1     -15.385  -1.552 -33.340  1.00  0.00     0.006 C 
BRANCH   5   6
ATOM      6  C   UNL     1     -15.610  -1.035 -31.917  1.00  0.00     0.053 C 
BRANCH   6   7
ATOM      7  C   UNL     1     -15.029   0.334 -31.759  1.00  0.00     0.041 C 
ATOM      8  O   UNL     1     -13.806   0.533 -31.983  1.00  0.00    -0.550 OA
ATOM      9  O   UNL     1     -15.849   1.401 -31.413  1.00  0.00    -0.550 OA
ENDBRANCH   6   7
ENDBRANCH   5   6
ENDBRANCH   4   5
ENDBRANCH   3   4
ENDBRANCH   2   3
ENDBRANCH   1   2
BRANCH   1  10
ATOM     10  C   UNL     1     -15.056  -7.304 -30.717  1.00  0.00     0.000 C 
BRANCH  10  11
ATOM     11  C   UNL     1     -13.793  -7.529 -29.864  1.00  0.00    -0.000 C 
BRANCH  11  12
ATOM     12  C   UNL     1     -13.075  -6.223 -29.494  1.00  0.00    -0.000 C 
BRANCH  12  13
ATOM     13  C   UNL     1     -11.636  -6.215 -30.029  1.00  0.00    -0.000 C 
BRANCH  13  14
ATOM     14  C   UNL     1     -11.193  -4.826 -30.519  1.00  0.00    -0.000 C 
BRANCH  14  15
ATOM     15  C   UNL     1     -12.298  -4.092 -31.296  1.00  0.00    -0.000 C 
BRANCH  15  16
ATOM     16  C   UNL     1     -12.448  -2.649 -30.800  1.00  0.00    -0.003 C 
ATOM     17  C   UNL     1     -13.454  -2.561 -29.655  1.00  0.00     0.004 C 
ENDBRANCH  15  16
ENDBRANCH  14  15
ENDBRANCH  13  14
ENDBRANCH  12  13
ENDBRANCH  11  12
ENDBRANCH  10  11
ENDBRANCH   1  10
TORSDOF 13
ENDMDL
MODEL 4
REMARK VINA RESULT:    -3.811      3.147      6.423
REMARK INTER + INTRA:          -8.712
REMARK INTER:                  -7.322
REMARK INTRA:                  -1.390
REMARK UNBOUND:                -2.004
REMARK SMILES CCCCCCCCCCCCCCC(=O)[O-]
REMARK SMILES IDX 9 1 10 2 11 3 12 4 13 5 14 6 15 7 16 8 17 9 8 10 7 11 6 12
REMARK SMILES IDX 5 13 4 14 3 15 2 16 1 17
REMARK H PARENT
REMARK Flexibility Score: inf
ROOT
ATOM      1  C   UNL     1     -13.680  -7.628 -29.845  1.00  0.00     0.000 C 
ENDROOT
BRANCH   1   2
ATOM      2  C   UNL     1     -15.001  -7.616 -30.632  1.00  0.00     0.000 C 
BRANCH   2   3
ATOM      3  C   UNL     1     -15.403  -6.208 -31.111  1.00  0.00     0.000 C 
BRANCH   3   4
ATOM      4  C   UNL     1     -14.324  -5.123 -30.938  1.00  0.00     0.000 C 
BRANCH   4   5
ATOM      5  C   UNL     1     -13.884  -4.494 -32.268  1.00  0.00     0.006 C 
BRANCH   5   6
ATOM      6  C   UNL     1     -15.095  -4.036 -33.086  1.00  0.00     0.053 C 
BRANCH   6   7
ATOM      7  C   UNL     1     -15.149  -2.543 -33.153  1.00  0.00     0.041 C 
ATOM      8  O   UNL     1     -14.872  -1.947 -34.227  1.00  0.00    -0.550 OA
ATOM      9  O   UNL     1     -15.555  -1.811 -32.045  1.00  0.00    -0.550 OA
ENDBRANCH   6   7
ENDBRANCH   5   6
ENDBRANCH   4   5
ENDBRANCH   3   4
ENDBRANCH   2   3
ENDBRANCH   1   2
BRANCH   1  10
ATOM     10  C   UNL     1     -13.254  -9.041 -29.408  1.00  0.00     0.000 C 
BRANCH  10  11
ATOM     11  C   UNL     1     -12.515  -9.119 -28.059  1.00  0.00    -0.000 C 
BRANCH  11  12
ATOM     12  C   UNL     1     -11.444  -8.031 -27.895  1.00  0.00    -0.000 C 
BRANCH  12  13
ATOM     13  C   UNL     1     -10.273  -8.262 -28.862  1.00  0.00    -0.000 C 
BRANCH  13  14
ATOM     14  C   UNL     1      -9.337  -7.046 -28.959  1.00  0.00    -0.000 C 
BRANCH  14  15
ATOM     15  C   UNL     1      -9.345  -6.403 -30.356  1.00  0.00    -0.000 C 
BRANCH  15  16
ATOM     16  C   UNL     1     -10.647  -5.629 -30.593  1.00  0.00    -0.003 C 
ATOM     17  C   UNL     1     -10.908  -4.632 -29.468  1.00  0.00     0.004 C 
ENDBRANCH  15  16
ENDBRANCH  14  15
ENDBRANCH  13  14
ENDBRANCH  12  13
ENDBRANCH  11  12
ENDBRANCH  10  11
ENDBRANCH   1  10
TORSDOF 13
ENDMDL
MODEL 5
REMARK VINA RESULT:    -3.810     21.595     23.892
REMARK INTER + INTRA:          -8.709
REMARK INTER:                  -6.969
REMARK INTRA:                  -1.740
REMARK UNBOUND:                -2.004
REMARK SMILES CCCCCCCCCCCCCCC(=O)[O-]
REMARK SMILES IDX 9 1 10 2 11 3 12 4 13 5 14 6 15 7 16 8 17 9 8 10 7 11 6 12
REMARK SMILES IDX 5 13 4 14 3 15 2 16 1 17
REMARK H PARENT
REMARK Flexibility Score: inf
ROOT
ATOM      1  C   UNL     1       4.009   9.407 -19.130  1.00  0.00     0.000 C 
ENDROOT
BRANCH   1   2
ATOM      2  C   UNL     1       2.990   8.802 -20.110  1.00  0.00     0.000 C 
BRANCH   2   3
ATOM      3  C   UNL     1       3.642   8.255 -21.394  1.00  0.00     0.000 C 
BRANCH   3   4
ATOM      4  C   UNL     1       3.728   6.721 -21.483  1.00  0.00     0.000 C 
BRANCH   4   5
ATOM      5  C   UNL     1       3.040   6.009 -20.309  1.00  0.00     0.006 C 
BRANCH   5   6
ATOM      6  C   UNL     1       3.657   4.629 -20.066  1.00  0.00     0.053 C 
BRANCH   6   7
ATOM      7  C   UNL     1       2.637   3.555 -20.272  1.00  0.00     0.041 C 
ATOM      8  O   UNL     1       2.586   2.571 -19.487  1.00  0.00    -0.550 OA
ATOM      9  O   UNL     1       1.710   3.664 -21.300  1.00  0.00    -0.550 OA
ENDBRANCH   6   7
ENDBRANCH   5   6
ENDBRANCH   4   5
ENDBRANCH   3   4
ENDBRANCH   2   3
ENDBRANCH   1   2
BRANCH   1  10
ATOM     10  C   UNL     1       3.346  10.099 -17.925  1.00  0.00     0.000 C 
BRANCH  10  11
ATOM     11  C   UNL     1       1.884  10.533 -18.136  1.00  0.00    -0.000 C 
BRANCH  11  12
ATOM     12  C   UNL     1       1.136  10.790 -16.820  1.00  0.00    -0.000 C 
BRANCH  12  13
ATOM     13  C   UNL     1       1.787  10.026 -15.658  1.00  0.00    -0.000 C 
BRANCH  13  14
ATOM     14  C   UNL     1       1.064   8.709 -15.335  1.00  0.00    -0.000 C 
BRANCH  14  15
ATOM     15  C   UNL     1       1.902   7.470 -15.691  1.00  0.00    -0.000 C 
BRANCH  15  16
ATOM     16  C   UNL     1       1.545   6.953 -17.089  1.00  0.00    -0.003 C 
ATOM     17  C   UNL     1       0.079   7.221 -17.419  1.00  0.00     0.004 C 
ENDBRANCH  15  16
ENDBRANCH  14  15
ENDBRANCH  13  14
ENDBRANCH  12  13
ENDBRANCH  11  12
ENDBRANCH  10  11
ENDBRANCH   1  10
TORSDOF 13
ENDMDL
MODEL 6
REMARK VINA RESULT:    -3.789     21.751     24.057
REMARK INTER + INTRA:          -8.672
REMARK INTER:                  -6.297
REMARK INTRA:                  -2.375
REMARK UNBOUND:                -2.004
REMARK SMILES CCCCCCCCCCCCCCC(=O)[O-]
REMARK SMILES IDX 9 1 10 2 11 3 12 4 13 5 14 6 15 7 16 8 17 9 8 10 7 11 6 12
REMARK SMILES IDX 5 13 4 14 3 15 2 16 1 17
REMARK H PARENT
REMARK Flexibility Score: inf
ROOT
ATOM      1  C   UNL     1       1.958  10.430 -18.190  1.00  0.00     0.000 C 
ENDROOT
BRANCH   1   2
ATOM      2  C   UNL     1       3.438  10.072 -17.974  1.00  0.00     0.000 C 
BRANCH   2   3
ATOM      3  C   UNL     1       4.070   9.368 -19.189  1.00  0.00     0.000 C 
BRANCH   3   4
ATOM      4  C   UNL     1       3.073   8.874 -20.253  1.00  0.00     0.000 C 
BRANCH   4   5
ATOM      5  C   UNL     1       3.525   7.581 -20.948  1.00  0.00     0.006 C 
BRANCH   5   6
ATOM      6  C   UNL     1       2.333   6.662 -21.228  1.00  0.00     0.053 C 
BRANCH   6   7
ATOM      7  C   UNL     1       2.453   5.394 -20.443  1.00  0.00     0.041 C 
ATOM      8  O   UNL     1       3.524   5.121 -19.840  1.00  0.00    -0.550 OA
ATOM      9  O   UNL     1       1.365   4.537 -20.336  1.00  0.00    -0.550 OA
ENDBRANCH   6   7
ENDBRANCH   5   6
ENDBRANCH   4   5
ENDBRANCH   3   4
ENDBRANCH   2   3
ENDBRANCH   1   2
BRANCH   1  10
ATOM     10  C   UNL     1       1.205  10.694 -16.873  1.00  0.00     0.000 C 
BRANCH  10  11
ATOM     11  C   UNL     1       1.779   9.986 -15.632  1.00  0.00    -0.000 C 
BRANCH  11  12
ATOM     12  C   UNL     1       1.076   8.656 -15.319  1.00  0.00    -0.000 C 
BRANCH  12  13
ATOM     13  C   UNL     1       1.951   7.462 -15.729  1.00  0.00    -0.000 C 
BRANCH  13  14
ATOM     14  C   UNL     1       1.601   6.924 -17.126  1.00  0.00    -0.000 C 
BRANCH  14  15
ATOM     15  C   UNL     1       0.088   6.911 -17.394  1.00  0.00    -0.000 C 
BRANCH  15  16
ATOM     16  C   UNL     1      -0.239   7.623 -18.712  1.00  0.00    -0.003 C 
ATOM     17  C   UNL     1      -1.446   8.545 -18.555  1.00  0.00     0.004 C 
ENDBRANCH  15  16
ENDBRANCH  14  15
ENDBRANCH  13  14
ENDBRANCH  12  13
ENDBRANCH  11  12
ENDBRANCH  10  11
ENDBRANCH   1  10
TORSDOF 13
ENDMDL
MODEL 7
REMARK VINA RESULT:    -3.763     21.701     23.994
REMARK INTER + INTRA:          -8.627
REMARK INTER:                  -6.526
REMARK INTRA:                  -2.101
REMARK UNBOUND:                -2.004
REMARK SMILES CCCCCCCCCCCCCCC(=O)[O-]
REMARK SMILES IDX 9 1 10 2 11 3 12 4 13 5 14 6 15 7 16 8 17 9 8 10 7 11 6 12
REMARK SMILES IDX 5 13 4 14 3 15 2 16 1 17
REMARK H PARENT
REMARK Flexibility Score: inf
ROOT
ATOM      1  C   UNL     1       1.870   7.399 -15.561  1.00  0.00     0.000 C 
ENDROOT
BRANCH   1   2
ATOM      2  C   UNL     1       1.760   7.064 -17.058  1.00  0.00     0.000 C 
BRANCH   2   3
ATOM      3  C   UNL     1       0.342   6.629 -17.474  1.00  0.00     0.000 C 
BRANCH   3   4
ATOM      4  C   UNL     1      -0.439   7.656 -18.314  1.00  0.00     0.000 C 
BRANCH   4   5
ATOM      5  C   UNL     1      -1.681   8.204 -17.595  1.00  0.00     0.006 C 
BRANCH   5   6
ATOM      6  C   UNL     1      -2.020   7.359 -16.364  1.00  0.00     0.053 C 
BRANCH   6   7
ATOM      7  C   UNL     1      -3.502   7.241 -16.201  1.00  0.00     0.041 C 
ATOM      8  O   UNL     1      -4.201   6.721 -17.110  1.00  0.00    -0.550 OA
ATOM      9  O   UNL     1      -4.107   7.659 -15.022  1.00  0.00    -0.550 OA
ENDBRANCH   6   7
ENDBRANCH   5   6
ENDBRANCH   4   5
ENDBRANCH   3   4
ENDBRANCH   2   3
ENDBRANCH   1   2
BRANCH   1  10
ATOM     10  C   UNL     1       1.164   8.715 -15.187  1.00  0.00     0.000 C 
BRANCH  10  11
ATOM     11  C   UNL     1       1.884  10.000 -15.636  1.00  0.00    -0.000 C 
BRANCH  11  12
ATOM     12  C   UNL     1       1.163  10.724 -16.783  1.00  0.00    -0.000 C 
BRANCH  12  13
ATOM     13  C   UNL     1       1.900  10.516 -18.114  1.00  0.00    -0.000 C 
BRANCH  13  14
ATOM     14  C   UNL     1       3.383  10.160 -17.921  1.00  0.00    -0.000 C 
BRANCH  14  15
ATOM     15  C   UNL     1       3.984   9.443 -19.141  1.00  0.00    -0.000 C 
BRANCH  15  16
ATOM     16  C   UNL     1       2.879   8.932 -20.073  1.00  0.00    -0.003 C 
ATOM     17  C   UNL     1       3.350   8.907 -21.525  1.00  0.00     0.004 C 
ENDBRANCH  15  16
ENDBRANCH  14  15
ENDBRANCH  13  14
ENDBRANCH  12  13
ENDBRANCH  11  12
ENDBRANCH  10  11
ENDBRANCH   1  10
TORSDOF 13
ENDMDL
MODEL 8
REMARK VINA RESULT:    -3.739      3.442      6.508
REMARK INTER + INTRA:          -8.584
REMARK INTER:                  -7.675
REMARK INTRA:                  -0.909
REMARK UNBOUND:                -2.004
REMARK SMILES CCCCCCCCCCCCCCC(=O)[O-]
REMARK SMILES IDX 9 1 10 2 11 3 12 4 13 5 14 6 15 7 16 8 17 9 8 10 7 11 6 12
REMARK SMILES IDX 5 13 4 14 3 15 2 16 1 17
REMARK H PARENT
REMARK Flexibility Score: inf
ROOT
ATOM      1  C   UNL     1     -15.004  -7.617 -30.630  1.00  0.00     0.000 C 
ENDROOT
BRANCH   1   2
ATOM      2  C   UNL     1     -15.303  -6.235 -31.234  1.00  0.00     0.000 C 
BRANCH   2   3
ATOM      3  C   UNL     1     -14.077  -5.303 -31.239  1.00  0.00     0.000 C 
BRANCH   3   4
ATOM      4  C   UNL     1     -13.934  -4.415 -32.489  1.00  0.00     0.000 C 
BRANCH   4   5
ATOM      5  C   UNL     1     -15.273  -3.842 -32.977  1.00  0.00     0.006 C 
BRANCH   5   6
ATOM      6  C   UNL     1     -15.540  -2.467 -32.359  1.00  0.00     0.053 C 
BRANCH   6   7
ATOM      7  C   UNL     1     -15.255  -1.382 -33.348  1.00  0.00     0.041 C 
ATOM      8  O   UNL     1     -14.992  -0.217 -32.952  1.00  0.00    -0.550 OA
ATOM      9  O   UNL     1     -15.229  -1.670 -34.707  1.00  0.00    -0.550 OA
ENDBRANCH   6   7
ENDBRANCH   5   6
ENDBRANCH   4   5
ENDBRANCH   3   4
ENDBRANCH   2   3
ENDBRANCH   1   2
BRANCH   1  10
ATOM     10  C   UNL     1     -13.668  -7.663 -29.866  1.00  0.00     0.000 C 
BRANCH  10  11
ATOM     11  C   UNL     1     -13.241  -9.057 -29.369  1.00  0.00    -0.000 C 
BRANCH  11  12
ATOM     12  C   UNL     1     -12.216  -9.000 -28.226  1.00  0.00    -0.000 C 
BRANCH  12  13
ATOM     13  C   UNL     1     -11.965  -7.552 -27.783  1.00  0.00    -0.000 C 
BRANCH  13  14
ATOM     14  C   UNL     1     -10.495  -7.130 -27.939  1.00  0.00    -0.000 C 
BRANCH  14  15
ATOM     15  C   UNL     1      -9.963  -7.354 -29.364  1.00  0.00    -0.000 C 
BRANCH  15  16
ATOM     16  C   UNL     1      -8.946  -6.272 -29.744  1.00  0.00    -0.003 C 
ATOM     17  C   UNL     1      -9.331  -5.589 -31.053  1.00  0.00     0.004 C 
ENDBRANCH  15  16
ENDBRANCH  14  15
ENDBRANCH  13  14
ENDBRANCH  12  13
ENDBRANCH  11  12
ENDBRANCH  10  11
ENDBRANCH   1  10
TORSDOF 13
ENDMDL
MODEL 9
REMARK VINA RESULT:    -3.681      1.940      4.855
REMARK INTER + INTRA:          -8.483
REMARK INTER:                  -7.567
REMARK INTRA:                  -0.917
REMARK UNBOUND:                -2.004
REMARK SMILES CCCCCCCCCCCCCCC(=O)[O-]
REMARK SMILES IDX 9 1 10 2 11 3 12 4 13 5 14 6 15 7 16 8 17 9 8 10 7 11 6 12
REMARK SMILES IDX 5 13 4 14 3 15 2 16 1 17
REMARK H PARENT
REMARK Flexibility Score: inf
ROOT
ATOM      1  C   UNL     1     -13.588  -7.684 -29.868  1.00  0.00     0.000 C 
ENDROOT
BRANCH   1   2
ATOM      2  C   UNL     1     -13.230  -9.105 -29.401  1.00  0.00     0.000 C 
BRANCH   2   3
ATOM      3  C   UNL     1     -12.126  -9.125 -28.328  1.00  0.00     0.000 C 
BRANCH   3   4
ATOM      4  C   UNL     1     -11.706  -7.744 -27.792  1.00  0.00     0.000 C 
BRANCH   4   5
ATOM      5  C   UNL     1     -10.225  -7.423 -28.045  1.00  0.00     0.006 C 
BRANCH   5   6
ATOM      6  C   UNL     1     -10.064  -6.040 -28.680  1.00  0.00     0.053 C 
BRANCH   6   7
ATOM      7  C   UNL     1      -9.811  -6.163 -30.149  1.00  0.00     0.041 C 
ATOM      8  O   UNL     1     -10.496  -5.497 -30.969  1.00  0.00    -0.550 OA
ATOM      9  O   UNL     1      -8.783  -6.975 -30.612  1.00  0.00    -0.550 OA
ENDBRANCH   6   7
ENDBRANCH   5   6
ENDBRANCH   4   5
ENDBRANCH   3   4
ENDBRANCH   2   3
ENDBRANCH   1   2
BRANCH   1  10
ATOM     10  C   UNL     1     -14.925  -7.620 -30.628  1.00  0.00     0.000 C 
BRANCH  10  11
ATOM     11  C   UNL     1     -15.366  -6.212 -31.069  1.00  0.00    -0.000 C 
BRANCH  11  12
ATOM     12  C   UNL     1     -14.356  -5.118 -30.689  1.00  0.00    -0.000 C 
BRANCH  12  13
ATOM     13  C   UNL     1     -13.640  -4.575 -31.934  1.00  0.00    -0.000 C 
BRANCH  13  14
ATOM     14  C   UNL     1     -14.082  -3.147 -32.296  1.00  0.00    -0.000 C 
BRANCH  14  15
ATOM     15  C   UNL     1     -14.771  -3.071 -33.668  1.00  0.00    -0.000 C 
BRANCH  15  16
ATOM     16  C   UNL     1     -15.319  -1.663 -33.926  1.00  0.00    -0.003 C 
ATOM     17  C   UNL     1     -15.095  -0.755 -32.720  1.00  0.00     0.004 C 
ENDBRANCH  15  16
ENDBRANCH  14  15
ENDBRANCH  13  14
ENDBRANCH  12  13
ENDBRANCH  11  12
ENDBRANCH  10  11
ENDBRANCH   1  10
TORSDOF 13
ENDMDL
