MODEL 1
REMARK VINA RESULT:    -5.003      0.000      0.000
REMARK INTER + INTRA:         -11.824
REMARK INTER:                  -9.098
REMARK INTRA:                  -2.726
REMARK UNBOUND:                -2.726
REMARK SMILES CCCCCCCCCCCCCCCC(=O)[O-]
REMARK SMILES IDX 9 1 10 2 11 3 12 4 13 5 14 6 15 7 16 8 17 9 18 10 8 11 7 12
REMARK SMILES IDX 6 13 5 14 4 15 3 16 2 17 1 18
REMARK H PARENT
REMARK Flexibility Score: inf
ROOT
ATOM      1  C   UNL     1     138.276 131.043 128.058  1.00  0.00     0.000 C 
ENDROOT
BRANCH   1   2
ATOM      2  C   UNL     1     138.066 130.218 129.334  1.00  0.00     0.000 C 
BRANCH   2   3
ATOM      3  C   UNL     1     138.755 130.880 130.536  1.00  0.00     0.000 C 
BRANCH   3   4
ATOM      4  C   UNL     1     139.778 131.947 130.119  1.00  0.00     0.000 C 
BRANCH   4   5
ATOM      5  C   UNL     1     139.668 133.232 130.958  1.00  0.00     0.000 C 
BRANCH   5   6
ATOM      6  C   UNL     1     139.905 134.502 130.126  1.00  0.00     0.006 C 
BRANCH   6   7
ATOM      7  C   UNL     1     140.113 135.748 130.997  1.00  0.00     0.053 C 
BRANCH   7   8
ATOM      8  C   UNL     1     139.086 136.787 130.675  1.00  0.00     0.041 C 
ATOM      9  O   UNL     1     139.418 137.845 130.080  1.00  0.00    -0.550 OA
ATOM     10  O   UNL     1     137.750 136.560 130.981  1.00  0.00    -0.550 OA
ENDBRANCH   7   8
ENDBRANCH   6   7
ENDBRANCH   5   6
ENDBRANCH   4   5
ENDBRANCH   3   4
ENDBRANCH   2   3
ENDBRANCH   1   2
BRANCH   1  11
ATOM     11  C   UNL     1     136.947 131.260 127.317  1.00  0.00     0.000 C 
BRANCH  11  12
ATOM     12  C   UNL     1     136.672 132.739 127.007  1.00  0.00    -0.000 C 
BRANCH  12  13
ATOM     13  C   UNL     1     137.079 133.672 128.162  1.00  0.00    -0.000 C 
BRANCH  13  14
ATOM     14  C   UNL     1     135.914 133.988 129.118  1.00  0.00    -0.000 C 
BRANCH  14  15
ATOM     15  C   UNL     1     136.136 133.572 130.584  1.00  0.00    -0.000 C 
BRANCH  15  16
ATOM     16  C   UNL     1     135.378 132.288 130.962  1.00  0.00    -0.000 C 
BRANCH  16  17
ATOM     17  C   UNL     1     134.337 131.884 129.906  1.00  0.00    -0.003 C 
ATOM     18  C   UNL     1     134.224 130.370 129.733  1.00  0.00     0.004 C 
ENDBRANCH  16  17
ENDBRANCH  15  16
ENDBRANCH  14  15
ENDBRANCH  13  14
ENDBRANCH  12  13
ENDBRANCH  11  12
ENDBRANCH   1  11
TORSDOF 14
ENDMDL
MODEL 2
REMARK VINA RESULT:    -4.862      0.878      1.278
REMARK INTER + INTRA:         -11.566
REMARK INTER:                  -9.130
REMARK INTRA:                  -2.437
REMARK UNBOUND:                -2.726
REMARK SMILES CCCCCCCCCCCCCCCC(=O)[O-]
REMARK SMILES IDX 9 1 10 2 11 3 12 4 13 5 14 6 15 7 16 8 17 9 18 10 8 11 7 12
REMARK SMILES IDX 6 13 5 14 4 15 3 16 2 17 1 18
REMARK H PARENT
REMARK Flexibility Score: inf
ROOT
ATOM      1  C   UNL     1     137.825 130.342 129.460  1.00  0.00     0.000 C 
ENDROOT
BRANCH   1   2
ATOM      2  C   UNL     1     138.867 130.874 130.451  1.00  0.00     0.000 C 
BRANCH   2   3
ATOM      3  C   UNL     1     138.236 131.881 131.425  1.00  0.00     0.000 C 
BRANCH   3   4
ATOM      4  C   UNL     1     138.483 133.340 131.011  1.00  0.00     0.000 C 
BRANCH   4   5
ATOM      5  C   UNL     1     139.960 133.619 130.681  1.00  0.00     0.000 C 
BRANCH   5   6
ATOM      6  C   UNL     1     140.168 134.990 130.019  1.00  0.00     0.006 C 
BRANCH   6   7
ATOM      7  C   UNL     1     138.863 135.592 129.486  1.00  0.00     0.053 C 
BRANCH   7   8
ATOM      8  C   UNL     1     138.557 136.879 130.186  1.00  0.00     0.041 C 
ATOM      9  O   UNL     1     139.423 137.791 130.243  1.00  0.00    -0.550 OA
ATOM     10  O   UNL     1     137.295 137.092 130.726  1.00  0.00    -0.550 OA
ENDBRANCH   7   8
ENDBRANCH   6   7
ENDBRANCH   5   6
ENDBRANCH   4   5
ENDBRANCH   3   4
ENDBRANCH   2   3
ENDBRANCH   1   2
BRANCH   1  11
ATOM     11  C   UNL     1     138.131 130.816 128.031  1.00  0.00     0.000 C 
BRANCH  11  12
ATOM     12  C   UNL     1     136.966 131.593 127.398  1.00  0.00    -0.000 C 
BRANCH  12  13
ATOM     13  C   UNL     1     137.042 133.105 127.673  1.00  0.00    -0.000 C 
BRANCH  13  14
ATOM     14  C   UNL     1     135.664 133.738 127.938  1.00  0.00    -0.000 C 
BRANCH  14  15
ATOM     15  C   UNL     1     135.407 134.168 129.394  1.00  0.00    -0.000 C 
BRANCH  15  16
ATOM     16  C   UNL     1     134.232 133.416 130.042  1.00  0.00    -0.000 C 
BRANCH  16  17
ATOM     17  C   UNL     1     134.629 132.015 130.535  1.00  0.00    -0.003 C 
ATOM     18  C   UNL     1     133.963 130.894 129.736  1.00  0.00     0.004 C 
ENDBRANCH  16  17
ENDBRANCH  15  16
ENDBRANCH  14  15
ENDBRANCH  13  14
ENDBRANCH  12  13
ENDBRANCH  11  12
ENDBRANCH   1  11
TORSDOF 14
ENDMDL
MODEL 3
REMARK VINA RESULT:    -4.840      2.354      4.995
REMARK INTER + INTRA:         -11.528
REMARK INTER:                  -9.421
REMARK INTRA:                  -2.107
REMARK UNBOUND:                -2.726
REMARK SMILES CCCCCCCCCCCCCCCC(=O)[O-]
REMARK SMILES IDX 9 1 10 2 11 3 12 4 13 5 14 6 15 7 16 8 17 9 18 10 8 11 7 12
REMARK SMILES IDX 6 13 5 14 4 15 3 16 2 17 1 18
REMARK H PARENT
REMARK Flexibility Score: inf
ROOT
ATOM      1  C   UNL     1     138.273 130.052 129.367  1.00  0.00     0.000 C 
ENDROOT
BRANCH   1   2
ATOM      2  C   UNL     1     138.211 130.857 128.063  1.00  0.00     0.000 C 
BRANCH   2   3
ATOM      3  C   UNL     1     136.766 131.264 127.736  1.00  0.00     0.000 C 
BRANCH   3   4
ATOM      4  C   UNL     1     136.661 132.704 127.211  1.00  0.00     0.000 C 
BRANCH   4   5
ATOM      5  C   UNL     1     136.961 133.752 128.296  1.00  0.00     0.000 C 
BRANCH   5   6
ATOM      6  C   UNL     1     135.768 133.986 129.237  1.00  0.00     0.006 C 
BRANCH   6   7
ATOM      7  C   UNL     1     136.015 133.440 130.649  1.00  0.00     0.053 C 
BRANCH   7   8
ATOM      8  C   UNL     1     134.885 132.555 131.071  1.00  0.00     0.041 C 
ATOM      9  O   UNL     1     134.333 131.790 130.238  1.00  0.00    -0.550 OA
ATOM     10  O   UNL     1     134.479 132.534 132.400  1.00  0.00    -0.550 OA
ENDBRANCH   7   8
ENDBRANCH   6   7
ENDBRANCH   5   6
ENDBRANCH   4   5
ENDBRANCH   3   4
ENDBRANCH   2   3
ENDBRANCH   1   2
BRANCH   1  11
ATOM     11  C   UNL     1     139.232 130.706 130.373  1.00  0.00     0.000 C 
BRANCH  11  12
ATOM     12  C   UNL     1     139.634 132.134 129.972  1.00  0.00    -0.000 C 
BRANCH  12  13
ATOM     13  C   UNL     1     139.522 133.131 131.139  1.00  0.00    -0.000 C 
BRANCH  13  14
ATOM     14  C   UNL     1     140.411 134.374 130.954  1.00  0.00    -0.000 C 
BRANCH  14  15
ATOM     15  C   UNL     1     139.949 135.356 129.862  1.00  0.00    -0.000 C 
BRANCH  15  16
ATOM     16  C   UNL     1     139.453 136.696 130.431  1.00  0.00    -0.000 C 
BRANCH  16  17
ATOM     17  C   UNL     1     137.947 136.683 130.742  1.00  0.00    -0.003 C 
ATOM     18  C   UNL     1     137.269 138.022 130.449  1.00  0.00     0.004 C 
ENDBRANCH  16  17
ENDBRANCH  15  16
ENDBRANCH  14  15
ENDBRANCH  13  14
ENDBRANCH  12  13
ENDBRANCH  11  12
ENDBRANCH   1  11
TORSDOF 14
ENDMDL
MODEL 4
REMARK VINA RESULT:    -4.835      1.131      2.157
REMARK INTER + INTRA:         -11.518
REMARK INTER:                  -9.430
REMARK INTRA:                  -2.088
REMARK UNBOUND:                -2.726
REMARK SMILES CCCCCCCCCCCCCCCC(=O)[O-]
REMARK SMILES IDX 9 1 10 2 11 3 12 4 13 5 14 6 15 7 16 8 17 9 18 10 8 11 7 12
REMARK SMILES IDX 6 13 5 14 4 15 3 16 2 17 1 18
REMARK H PARENT
REMARK Flexibility Score: inf
ROOT
ATOM      1  C   UNL     1     138.519 130.467 129.234  1.00  0.00     0.000 C 
ENDROOT
BRANCH   1   2
ATOM      2  C   UNL     1     139.496 131.487 129.831  1.00  0.00     0.000 C 
BRANCH   2   3
ATOM      3  C   UNL     1     138.874 132.203 131.039  1.00  0.00     0.000 C 
BRANCH   3   4
ATOM      4  C   UNL     1     138.287 133.576 130.676  1.00  0.00     0.000 C 
BRANCH   4   5
ATOM      5  C   UNL     1     139.014 134.235 129.490  1.00  0.00     0.000 C 
BRANCH   5   6
ATOM      6  C   UNL     1     140.147 135.171 129.938  1.00  0.00     0.006 C 
BRANCH   6   7
ATOM      7  C   UNL     1     139.740 136.068 131.114  1.00  0.00     0.053 C 
BRANCH   7   8
ATOM      8  C   UNL     1     138.904 137.212 130.632  1.00  0.00     0.041 C 
ATOM      9  O   UNL     1     139.439 138.180 130.031  1.00  0.00    -0.550 OA
ATOM     10  O   UNL     1     137.525 137.182 130.798  1.00  0.00    -0.550 OA
ENDBRANCH   7   8
ENDBRANCH   6   7
ENDBRANCH   5   6
ENDBRANCH   4   5
ENDBRANCH   3   4
ENDBRANCH   2   3
ENDBRANCH   1   2
BRANCH   1  11
ATOM     11  C   UNL     1     137.820 131.036 127.990  1.00  0.00     0.000 C 
BRANCH  11  12
ATOM     12  C   UNL     1     136.314 131.261 128.202  1.00  0.00    -0.000 C 
BRANCH  12  13
ATOM     13  C   UNL     1     135.789 130.585 129.481  1.00  0.00    -0.000 C 
BRANCH  13  14
ATOM     14  C   UNL     1     134.269 130.751 129.667  1.00  0.00    -0.000 C 
BRANCH  14  15
ATOM     15  C   UNL     1     133.843 131.561 130.906  1.00  0.00    -0.000 C 
BRANCH  15  16
ATOM     16  C   UNL     1     134.573 132.910 131.019  1.00  0.00    -0.000 C 
BRANCH  16  17
ATOM     17  C   UNL     1     134.015 133.966 130.052  1.00  0.00    -0.003 C 
ATOM     18  C   UNL     1     135.105 134.653 129.229  1.00  0.00     0.004 C 
ENDBRANCH  16  17
ENDBRANCH  15  16
ENDBRANCH  14  15
ENDBRANCH  13  14
ENDBRANCH  12  13
ENDBRANCH  11  12
ENDBRANCH   1  11
TORSDOF 14
ENDMDL
MODEL 5
REMARK VINA RESULT:    -4.732      1.142      2.007
REMARK INTER + INTRA:         -11.330
REMARK INTER:                  -9.541
REMARK INTRA:                  -1.789
REMARK UNBOUND:                -2.726
REMARK SMILES CCCCCCCCCCCCCCCC(=O)[O-]
REMARK SMILES IDX 9 1 10 2 11 3 12 4 13 5 14 6 15 7 16 8 17 9 18 10 8 11 7 12
REMARK SMILES IDX 6 13 5 14 4 15 3 16 2 17 1 18
REMARK H PARENT
REMARK Flexibility Score: inf
ROOT
ATOM      1  C   UNL     1     139.537 131.212 129.508  1.00  0.00     0.000 C 
ENDROOT
BRANCH   1   2
ATOM      2  C   UNL     1     138.864 131.768 130.770  1.00  0.00     0.000 C 
BRANCH   2   3
ATOM      3  C   UNL     1     139.490 133.109 131.181  1.00  0.00     0.000 C 
BRANCH   3   4
ATOM      4  C   UNL     1     139.401 134.169 130.072  1.00  0.00     0.000 C 
BRANCH   4   5
ATOM      5  C   UNL     1     140.342 135.361 130.316  1.00  0.00     0.000 C 
BRANCH   5   6
ATOM      6  C   UNL     1     139.648 136.520 131.049  1.00  0.00     0.006 C 
BRANCH   6   7
ATOM      7  C   UNL     1     139.063 137.561 130.086  1.00  0.00     0.053 C 
BRANCH   7   8
ATOM      8  C   UNL     1     137.604 137.755 130.350  1.00  0.00     0.041 C 
ATOM      9  O   UNL     1     136.883 136.776 130.679  1.00  0.00    -0.550 OA
ATOM     10  O   UNL     1     137.050 139.027 130.289  1.00  0.00    -0.550 OA
ENDBRANCH   7   8
ENDBRANCH   6   7
ENDBRANCH   5   6
ENDBRANCH   4   5
ENDBRANCH   3   4
ENDBRANCH   2   3
ENDBRANCH   1   2
BRANCH   1  11
ATOM     11  C   UNL     1     138.494 130.647 128.531  1.00  0.00     0.000 C 
BRANCH  11  12
ATOM     12  C   UNL     1     137.091 131.235 128.751  1.00  0.00    -0.000 C 
BRANCH  12  13
ATOM     13  C   UNL     1     136.665 132.190 127.622  1.00  0.00    -0.000 C 
BRANCH  13  14
ATOM     14  C   UNL     1     136.090 133.519 128.144  1.00  0.00    -0.000 C 
BRANCH  14  15
ATOM     15  C   UNL     1     135.819 133.568 129.659  1.00  0.00    -0.000 C 
BRANCH  15  16
ATOM     16  C   UNL     1     134.347 133.298 130.013  1.00  0.00    -0.000 C 
BRANCH  16  17
ATOM     17  C   UNL     1     134.149 131.950 130.724  1.00  0.00    -0.003 C 
ATOM     18  C   UNL     1     133.609 130.862 129.796  1.00  0.00     0.004 C 
ENDBRANCH  16  17
ENDBRANCH  15  16
ENDBRANCH  14  15
ENDBRANCH  13  14
ENDBRANCH  12  13
ENDBRANCH  11  12
ENDBRANCH   1  11
TORSDOF 14
ENDMDL
MODEL 6
REMARK VINA RESULT:    -4.621      1.472      3.877
REMARK INTER + INTRA:         -11.129
REMARK INTER:                  -8.936
REMARK INTRA:                  -2.193
REMARK UNBOUND:                -2.726
REMARK SMILES CCCCCCCCCCCCCCCC(=O)[O-]
REMARK SMILES IDX 9 1 10 2 11 3 12 4 13 5 14 6 15 7 16 8 17 9 18 10 8 11 7 12
REMARK SMILES IDX 6 13 5 14 4 15 3 16 2 17 1 18
REMARK H PARENT
REMARK Flexibility Score: inf
ROOT
ATOM      1  C   UNL     1     134.812 132.698 130.553  1.00  0.00     0.000 C 
ENDROOT
BRANCH   1   2
ATOM      2  C   UNL     1     134.229 133.813 129.677  1.00  0.00     0.000 C 
BRANCH   2   3
ATOM      3  C   UNL     1     135.239 134.957 129.498  1.00  0.00     0.000 C 
BRANCH   3   4
ATOM      4  C   UNL     1     136.624 134.619 130.070  1.00  0.00     0.000 C 
BRANCH   4   5
ATOM      5  C   UNL     1     137.677 134.390 128.972  1.00  0.00     0.000 C 
BRANCH   5   6
ATOM      6  C   UNL     1     138.791 135.448 128.992  1.00  0.00     0.006 C 
BRANCH   6   7
ATOM      7  C   UNL     1     140.094 134.922 129.608  1.00  0.00     0.053 C 
BRANCH   7   8
ATOM      8  C   UNL     1     140.253 135.430 131.006  1.00  0.00     0.041 C 
ATOM      9  O   UNL     1     140.937 134.784 131.842  1.00  0.00    -0.550 OA
ATOM     10  O   UNL     1     139.693 136.648 131.369  1.00  0.00    -0.550 OA
ENDBRANCH   7   8
ENDBRANCH   6   7
ENDBRANCH   5   6
ENDBRANCH   4   5
ENDBRANCH   3   4
ENDBRANCH   2   3
ENDBRANCH   1   2
BRANCH   1  11
ATOM     11  C   UNL     1     134.453 131.313 129.993  1.00  0.00     0.000 C 
BRANCH  11  12
ATOM     12  C   UNL     1     135.686 130.514 129.542  1.00  0.00    -0.000 C 
BRANCH  12  13
ATOM     13  C   UNL     1     136.383 131.140 128.321  1.00  0.00    -0.000 C 
BRANCH  13  14
ATOM     14  C   UNL     1     137.902 130.889 128.302  1.00  0.00    -0.000 C 
BRANCH  14  15
ATOM     15  C   UNL     1     138.384 129.711 129.168  1.00  0.00    -0.000 C 
BRANCH  15  16
ATOM     16  C   UNL     1     139.217 130.161 130.380  1.00  0.00    -0.000 C 
BRANCH  16  17
ATOM     17  C   UNL     1     139.167 131.681 130.598  1.00  0.00    -0.003 C 
ATOM     18  C   UNL     1     138.420 132.075 131.873  1.00  0.00     0.004 C 
ENDBRANCH  16  17
ENDBRANCH  15  16
ENDBRANCH  14  15
ENDBRANCH  13  14
ENDBRANCH  12  13
ENDBRANCH  11  12
ENDBRANCH   1  11
TORSDOF 14
ENDMDL
MODEL 7
REMARK VINA RESULT:    -4.527      1.958      4.978
REMARK INTER + INTRA:         -10.958
REMARK INTER:                  -8.993
REMARK INTRA:                  -1.965
REMARK UNBOUND:                -2.726
REMARK SMILES CCCCCCCCCCCCCCCC(=O)[O-]
REMARK SMILES IDX 9 1 10 2 11 3 12 4 13 5 14 6 15 7 16 8 17 9 18 10 8 11 7 12
REMARK SMILES IDX 6 13 5 14 4 15 3 16 2 17 1 18
REMARK H PARENT
REMARK Flexibility Score: inf
ROOT
ATOM      1  C   UNL     1     139.569 131.317 129.901  1.00  0.00     0.000 C 
ENDROOT
BRANCH   1   2
ATOM      2  C   UNL     1     138.644 130.279 129.254  1.00  0.00     0.000 C 
BRANCH   2   3
ATOM      3  C   UNL     1     138.013 130.831 127.967  1.00  0.00     0.000 C 
BRANCH   3   4
ATOM      4  C   UNL     1     136.536 131.214 128.148  1.00  0.00     0.000 C 
BRANCH   4   5
ATOM      5  C   UNL     1     135.915 130.596 129.413  1.00  0.00     0.000 C 
BRANCH   5   6
ATOM      6  C   UNL     1     134.630 131.315 129.852  1.00  0.00     0.006 C 
BRANCH   6   7
ATOM      7  C   UNL     1     134.911 132.545 130.724  1.00  0.00     0.053 C 
BRANCH   7   8
ATOM      8  C   UNL     1     134.541 133.798 129.994  1.00  0.00     0.041 C 
ATOM      9  O   UNL     1     133.519 134.451 130.332  1.00  0.00    -0.550 OA
ATOM     10  O   UNL     1     135.357 134.274 128.976  1.00  0.00    -0.550 OA
ENDBRANCH   7   8
ENDBRANCH   6   7
ENDBRANCH   5   6
ENDBRANCH   4   5
ENDBRANCH   3   4
ENDBRANCH   2   3
ENDBRANCH   1   2
BRANCH   1  11
ATOM     11  C   UNL     1     138.855 132.056 131.043  1.00  0.00     0.000 C 
BRANCH  11  12
ATOM     12  C   UNL     1     138.447 133.488 130.664  1.00  0.00    -0.000 C 
BRANCH  12  13
ATOM     13  C   UNL     1     139.260 134.042 129.481  1.00  0.00    -0.000 C 
BRANCH  13  14
ATOM     14  C   UNL     1     140.181 135.211 129.879  1.00  0.00    -0.000 C 
BRANCH  14  15
ATOM     15  C   UNL     1     139.570 136.220 130.868  1.00  0.00    -0.000 C 
BRANCH  15  16
ATOM     16  C   UNL     1     139.365 137.614 130.251  1.00  0.00    -0.000 C 
BRANCH  16  17
ATOM     17  C   UNL     1     137.895 138.062 130.281  1.00  0.00    -0.003 C 
ATOM     18  C   UNL     1     136.939 136.938 130.679  1.00  0.00     0.004 C 
ENDBRANCH  16  17
ENDBRANCH  15  16
ENDBRANCH  14  15
ENDBRANCH  13  14
ENDBRANCH  12  13
ENDBRANCH  11  12
ENDBRANCH   1  11
TORSDOF 14
ENDMDL
MODEL 8
REMARK VINA RESULT:    -4.480      1.275      2.975
REMARK INTER + INTRA:         -10.873
REMARK INTER:                  -8.661
REMARK INTRA:                  -2.212
REMARK UNBOUND:                -2.726
REMARK SMILES CCCCCCCCCCCCCCCC(=O)[O-]
REMARK SMILES IDX 9 1 10 2 11 3 12 4 13 5 14 6 15 7 16 8 17 9 18 10 8 11 7 12
REMARK SMILES IDX 6 13 5 14 4 15 3 16 2 17 1 18
REMARK H PARENT
REMARK Flexibility Score: inf
ROOT
ATOM      1  C   UNL     1     136.999 131.572 131.367  1.00  0.00     0.000 C 
ENDROOT
BRANCH   1   2
ATOM      2  C   UNL     1     138.453 132.051 131.471  1.00  0.00     0.000 C 
BRANCH   2   3
ATOM      3  C   UNL     1     138.598 133.487 130.945  1.00  0.00     0.000 C 
BRANCH   3   4
ATOM      4  C   UNL     1     140.034 134.019 131.062  1.00  0.00     0.000 C 
BRANCH   4   5
ATOM      5  C   UNL     1     140.381 135.032 129.958  1.00  0.00     0.000 C 
BRANCH   5   6
ATOM      6  C   UNL     1     139.153 135.818 129.471  1.00  0.00     0.006 C 
BRANCH   6   7
ATOM      7  C   UNL     1     139.113 137.250 130.020  1.00  0.00     0.053 C 
BRANCH   7   8
ATOM      8  C   UNL     1     137.720 137.614 130.425  1.00  0.00     0.041 C 
ATOM      9  O   UNL     1     137.285 138.778 130.227  1.00  0.00    -0.550 OA
ATOM     10  O   UNL     1     136.882 136.650 130.971  1.00  0.00    -0.550 OA
ENDBRANCH   7   8
ENDBRANCH   6   7
ENDBRANCH   5   6
ENDBRANCH   4   5
ENDBRANCH   3   4
ENDBRANCH   2   3
ENDBRANCH   1   2
BRANCH   1  11
ATOM     11  C   UNL     1     136.020 132.745 131.529  1.00  0.00     0.000 C 
BRANCH  11  12
ATOM     12  C   UNL     1     134.618 132.430 130.985  1.00  0.00    -0.000 C 
BRANCH  12  13
ATOM     13  C   UNL     1     134.236 133.312 129.784  1.00  0.00    -0.000 C 
BRANCH  13  14
ATOM     14  C   UNL     1     135.432 134.092 129.206  1.00  0.00    -0.000 C 
BRANCH  14  15
ATOM     15  C   UNL     1     135.784 133.766 127.743  1.00  0.00    -0.000 C 
BRANCH  15  16
ATOM     16  C   UNL     1     137.110 132.999 127.602  1.00  0.00    -0.000 C 
BRANCH  16  17
ATOM     17  C   UNL     1     136.916 131.475 127.632  1.00  0.00    -0.003 C 
ATOM     18  C   UNL     1     138.180 130.723 128.051  1.00  0.00     0.004 C 
ENDBRANCH  16  17
ENDBRANCH  15  16
ENDBRANCH  14  15
ENDBRANCH  13  14
ENDBRANCH  12  13
ENDBRANCH  11  12
ENDBRANCH   1  11
TORSDOF 14
ENDMDL
MODEL 9
REMARK VINA RESULT:    -4.459      2.701      5.706
REMARK INTER + INTRA:         -10.834
REMARK INTER:                  -8.760
REMARK INTRA:                  -2.074
REMARK UNBOUND:                -2.726
REMARK SMILES CCCCCCCCCCCCCCCC(=O)[O-]
REMARK SMILES IDX 9 1 10 2 11 3 12 4 13 5 14 6 15 7 16 8 17 9 18 10 8 11 7 12
REMARK SMILES IDX 6 13 5 14 4 15 3 16 2 17 1 18
REMARK H PARENT
REMARK Flexibility Score: inf
ROOT
ATOM      1  C   UNL     1     135.798 134.584 129.859  1.00  0.00     0.000 C 
ENDROOT
BRANCH   1   2
ATOM      2  C   UNL     1     134.383 134.000 129.943  1.00  0.00     0.000 C 
BRANCH   2   3
ATOM      3  C   UNL     1     134.389 132.648 130.674  1.00  0.00     0.000 C 
BRANCH   3   4
ATOM      4  C   UNL     1     133.729 131.528 129.854  1.00  0.00     0.000 C 
BRANCH   4   5
ATOM      5  C   UNL     1     134.591 130.255 129.793  1.00  0.00     0.000 C 
BRANCH   5   6
ATOM      6  C   UNL     1     136.012 130.529 129.277  1.00  0.00     0.006 C 
BRANCH   6   7
ATOM      7  C   UNL     1     137.089 130.225 130.326  1.00  0.00     0.053 C 
BRANCH   7   8
ATOM      8  C   UNL     1     138.441 130.180 129.687  1.00  0.00     0.041 C 
ATOM      9  O   UNL     1     139.459 129.907 130.375  1.00  0.00    -0.550 OA
ATOM     10  O   UNL     1     138.569 130.384 128.319  1.00  0.00    -0.550 OA
ENDBRANCH   7   8
ENDBRANCH   6   7
ENDBRANCH   5   6
ENDBRANCH   4   5
ENDBRANCH   3   4
ENDBRANCH   2   3
ENDBRANCH   1   2
BRANCH   1  11
ATOM     11  C   UNL     1     136.569 133.992 128.669  1.00  0.00     0.000 C 
BRANCH  11  12
ATOM     12  C   UNL     1     138.063 133.789 128.967  1.00  0.00    -0.000 C 
BRANCH  12  13
ATOM     13  C   UNL     1     138.354 133.663 130.473  1.00  0.00    -0.000 C 
BRANCH  13  14
ATOM     14  C   UNL     1     139.835 133.904 130.820  1.00  0.00    -0.000 C 
BRANCH  14  15
ATOM     15  C   UNL     1     140.365 135.312 130.495  1.00  0.00    -0.000 C 
BRANCH  15  16
ATOM     16  C   UNL     1     139.483 136.433 131.072  1.00  0.00    -0.000 C 
BRANCH  16  17
ATOM     17  C   UNL     1     138.846 137.304 129.978  1.00  0.00    -0.003 C 
ATOM     18  C   UNL     1     137.529 137.944 130.420  1.00  0.00     0.004 C 
ENDBRANCH  16  17
ENDBRANCH  15  16
ENDBRANCH  14  15
ENDBRANCH  13  14
ENDBRANCH  12  13
ENDBRANCH  11  12
ENDBRANCH   1  11
TORSDOF 14
ENDMDL
