MODEL 1
REMARK VINA RESULT:    -4.552      0.000      0.000
REMARK INTER + INTRA:          -7.896
REMARK INTER:                  -6.947
REMARK INTRA:                  -0.950
REMARK UNBOUND:                -0.950
REMARK SMILES CCCCCCCCCCC(=O)[O-]
REMARK SMILES IDX 7 1 8 2 9 3 10 4 11 5 12 6 13 7 6 8 5 9 4 10 3 11 2 12 1 13
REMARK H PARENT
REMARK Flexibility Score: inf
ROOT
ATOM      1  C   UNL     1      -8.038  37.825   6.019  1.00  0.00     0.000 C 
ENDROOT
BRANCH   1   2
ATOM      2  C   UNL     1      -8.785  36.624   5.412  1.00  0.00     0.000 C 
BRANCH   2   3
ATOM      3  C   UNL     1      -8.831  35.365   6.301  1.00  0.00     0.006 C 
BRANCH   3   4
ATOM      4  C   UNL     1      -8.573  34.047   5.556  1.00  0.00     0.053 C 
BRANCH   4   5
ATOM      5  C   UNL     1      -7.380  33.321   6.096  1.00  0.00     0.041 C 
ATOM      6  O   UNL     1      -6.218  33.716   5.816  1.00  0.00    -0.550 OA
ATOM      7  O   UNL     1      -7.551  32.228   6.937  1.00  0.00    -0.550 OA
ENDBRANCH   4   5
ENDBRANCH   3   4
ENDBRANCH   2   3
ENDBRANCH   1   2
BRANCH   1   8
ATOM      8  C   UNL     1      -8.979  38.954   6.465  1.00  0.00     0.000 C 
BRANCH   8   9
ATOM      9  C   UNL     1     -10.334  38.854   5.749  1.00  0.00    -0.000 C 
BRANCH   9  10
ATOM     10  C   UNL     1     -11.508  39.296   6.637  1.00  0.00    -0.000 C 
BRANCH  10  11
ATOM     11  C   UNL     1     -11.276  38.986   8.123  1.00  0.00    -0.000 C 
BRANCH  11  12
ATOM     12  C   UNL     1     -11.679  37.543   8.451  1.00  0.00    -0.003 C 
ATOM     13  C   UNL     1     -10.561  36.811   9.187  1.00  0.00     0.004 C 
ENDBRANCH  11  12
ENDBRANCH  10  11
ENDBRANCH   9  10
ENDBRANCH   8   9
ENDBRANCH   1   8
TORSDOF 9
ENDMDL
MODEL 2
REMARK VINA RESULT:    -4.540      3.487      6.219
REMARK INTER + INTRA:          -7.878
REMARK INTER:                  -7.407
REMARK INTRA:                  -0.471
REMARK UNBOUND:                -0.950
REMARK SMILES CCCCCCCCCCC(=O)[O-]
REMARK SMILES IDX 7 1 8 2 9 3 10 4 11 5 12 6 13 7 6 8 5 9 4 10 3 11 2 12 1 13
REMARK H PARENT
REMARK Flexibility Score: inf
ROOT
ATOM      1  C   UNL     1      -8.547  36.719   5.501  1.00  0.00     0.000 C 
ENDROOT
BRANCH   1   2
ATOM      2  C   UNL     1      -8.098  38.064   6.098  1.00  0.00     0.000 C 
BRANCH   2   3
ATOM      3  C   UNL     1      -9.241  38.972   6.596  1.00  0.00     0.006 C 
BRANCH   3   4
ATOM      4  C   UNL     1     -10.462  39.030   5.665  1.00  0.00     0.053 C 
BRANCH   4   5
ATOM      5  C   UNL     1     -11.708  39.423   6.397  1.00  0.00     0.041 C 
ATOM      6  O   UNL     1     -12.458  40.321   5.933  1.00  0.00    -0.550 OA
ATOM      7  O   UNL     1     -12.058  38.776   7.576  1.00  0.00    -0.550 OA
ENDBRANCH   4   5
ENDBRANCH   3   4
ENDBRANCH   2   3
ENDBRANCH   1   2
BRANCH   1   8
ATOM      8  C   UNL     1      -9.055  35.731   6.561  1.00  0.00     0.000 C 
BRANCH   8   9
ATOM      9  C   UNL     1      -8.886  34.280   6.085  1.00  0.00    -0.000 C 
BRANCH   9  10
ATOM     10  C   UNL     1      -7.732  34.116   5.083  1.00  0.00    -0.000 C 
BRANCH  10  11
ATOM     11  C   UNL     1      -6.423  33.675   5.754  1.00  0.00    -0.000 C 
BRANCH  11  12
ATOM     12  C   UNL     1      -6.593  32.317   6.446  1.00  0.00    -0.003 C 
ATOM     13  C   UNL     1      -5.262  31.576   6.540  1.00  0.00     0.004 C 
ENDBRANCH  11  12
ENDBRANCH  10  11
ENDBRANCH   9  10
ENDBRANCH   8   9
ENDBRANCH   1   8
TORSDOF 9
ENDMDL
MODEL 3
REMARK VINA RESULT:    -4.416      1.014      1.712
REMARK INTER + INTRA:          -7.688
REMARK INTER:                  -7.096
REMARK INTRA:                  -0.593
REMARK UNBOUND:                -0.950
REMARK SMILES CCCCCCCCCCC(=O)[O-]
REMARK SMILES IDX 7 1 8 2 9 3 10 4 11 5 12 6 13 7 6 8 5 9 4 10 3 11 2 12 1 13
REMARK H PARENT
REMARK Flexibility Score: inf
ROOT
ATOM      1  C   UNL     1      -9.142  36.624   5.377  1.00  0.00     0.000 C 
ENDROOT
BRANCH   1   2
ATOM      2  C   UNL     1      -9.123  35.318   6.191  1.00  0.00     0.000 C 
BRANCH   2   3
ATOM      3  C   UNL     1      -8.553  34.093   5.448  1.00  0.00     0.006 C 
BRANCH   3   4
ATOM      4  C   UNL     1      -7.025  33.950   5.530  1.00  0.00     0.053 C 
BRANCH   4   5
ATOM      5  C   UNL     1      -6.617  32.707   6.257  1.00  0.00     0.041 C 
ATOM      6  O   UNL     1      -5.451  32.250   6.126  1.00  0.00    -0.550 OA
ATOM      7  O   UNL     1      -7.513  32.070   7.108  1.00  0.00    -0.550 OA
ENDBRANCH   4   5
ENDBRANCH   3   4
ENDBRANCH   2   3
ENDBRANCH   1   2
BRANCH   1   8
ATOM      8  C   UNL     1      -8.257  37.722   5.984  1.00  0.00     0.000 C 
BRANCH   8   9
ATOM      9  C   UNL     1      -9.105  38.914   6.450  1.00  0.00    -0.000 C 
BRANCH   9  10
ATOM     10  C   UNL     1     -10.400  39.075   5.639  1.00  0.00    -0.000 C 
BRANCH  10  11
ATOM     11  C   UNL     1     -11.631  39.303   6.528  1.00  0.00    -0.000 C 
BRANCH  11  12
ATOM     12  C   UNL     1     -11.312  38.996   7.995  1.00  0.00    -0.003 C 
ATOM     13  C   UNL     1     -12.045  39.953   8.932  1.00  0.00     0.004 C 
ENDBRANCH  11  12
ENDBRANCH  10  11
ENDBRANCH   9  10
ENDBRANCH   8   9
ENDBRANCH   1   8
TORSDOF 9
ENDMDL
MODEL 4
REMARK VINA RESULT:    -4.393      2.230      4.688
REMARK INTER + INTRA:          -7.655
REMARK INTER:                  -6.690
REMARK INTRA:                  -0.964
REMARK UNBOUND:                -0.950
REMARK SMILES CCCCCCCCCCC(=O)[O-]
REMARK SMILES IDX 7 1 8 2 9 3 10 4 11 5 12 6 13 7 6 8 5 9 4 10 3 11 2 12 1 13
REMARK H PARENT
REMARK Flexibility Score: inf
ROOT
ATOM      1  C   UNL     1     -10.398  38.957   5.666  1.00  0.00     0.000 C 
ENDROOT
BRANCH   1   2
ATOM      2  C   UNL     1     -11.575  39.302   6.596  1.00  0.00     0.000 C 
BRANCH   2   3
ATOM      3  C   UNL     1     -11.460  38.743   8.029  1.00  0.00     0.006 C 
BRANCH   3   4
ATOM      4  C   UNL     1     -12.152  37.388   8.244  1.00  0.00     0.053 C 
BRANCH   4   5
ATOM      5  C   UNL     1     -11.195  36.338   8.714  1.00  0.00     0.041 C 
ATOM      6  O   UNL     1     -10.056  36.663   9.140  1.00  0.00    -0.550 OA
ATOM      7  O   UNL     1     -11.573  35.000   8.715  1.00  0.00    -0.550 OA
ENDBRANCH   4   5
ENDBRANCH   3   4
ENDBRANCH   2   3
ENDBRANCH   1   2
BRANCH   1   8
ATOM      8  C   UNL     1      -9.051  38.890   6.401  1.00  0.00     0.000 C 
BRANCH   8   9
ATOM      9  C   UNL     1      -8.283  37.616   6.023  1.00  0.00    -0.000 C 
BRANCH   9  10
ATOM     10  C   UNL     1      -9.212  36.461   5.618  1.00  0.00    -0.000 C 
BRANCH  10  11
ATOM     11  C   UNL     1      -8.726  35.100   6.136  1.00  0.00    -0.000 C 
BRANCH  11  12
ATOM     12  C   UNL     1      -7.707  34.479   5.173  1.00  0.00    -0.003 C 
ATOM     13  C   UNL     1      -6.869  33.410   5.869  1.00  0.00     0.004 C 
ENDBRANCH  11  12
ENDBRANCH  10  11
ENDBRANCH   9  10
ENDBRANCH   8   9
ENDBRANCH   1   8
TORSDOF 9
ENDMDL
MODEL 5
REMARK VINA RESULT:    -4.363      4.027      5.769
REMARK INTER + INTRA:          -7.608
REMARK INTER:                  -6.523
REMARK INTRA:                  -1.084
REMARK UNBOUND:                -0.950
REMARK SMILES CCCCCCCCCCC(=O)[O-]
REMARK SMILES IDX 7 1 8 2 9 3 10 4 11 5 12 6 13 7 6 8 5 9 4 10 3 11 2 12 1 13
REMARK H PARENT
REMARK Flexibility Score: inf
ROOT
ATOM      1  C   UNL     1      -8.945  38.915   6.531  1.00  0.00     0.000 C 
ENDROOT
BRANCH   1   2
ATOM      2  C   UNL     1     -10.270  38.907   5.747  1.00  0.00     0.000 C 
BRANCH   2   3
ATOM      3  C   UNL     1     -11.519  39.274   6.572  1.00  0.00     0.006 C 
BRANCH   3   4
ATOM      4  C   UNL     1     -11.336  39.157   8.094  1.00  0.00     0.053 C 
BRANCH   4   5
ATOM      5  C   UNL     1     -12.165  40.160   8.836  1.00  0.00     0.041 C 
ATOM      6  O   UNL     1     -12.366  40.025  10.071  1.00  0.00    -0.550 OA
ATOM      7  O   UNL     1     -12.688  41.262   8.170  1.00  0.00    -0.550 OA
ENDBRANCH   4   5
ENDBRANCH   3   4
ENDBRANCH   2   3
ENDBRANCH   1   2
BRANCH   1   8
ATOM      8  C   UNL     1      -7.967  37.825   6.069  1.00  0.00     0.000 C 
BRANCH   8   9
ATOM      9  C   UNL     1      -8.703  36.719   5.297  1.00  0.00    -0.000 C 
BRANCH   9  10
ATOM     10  C   UNL     1      -8.291  35.308   5.745  1.00  0.00    -0.000 C 
BRANCH  10  11
ATOM     11  C   UNL     1      -9.386  34.601   6.556  1.00  0.00    -0.000 C 
BRANCH  11  12
ATOM     12  C   UNL     1     -10.753  35.251   6.315  1.00  0.00    -0.003 C 
ATOM     13  C   UNL     1     -11.460  35.556   7.633  1.00  0.00     0.004 C 
ENDBRANCH  11  12
ENDBRANCH  10  11
ENDBRANCH   9  10
ENDBRANCH   8   9
ENDBRANCH   1   8
TORSDOF 9
ENDMDL
MODEL 6
REMARK VINA RESULT:    -4.283      2.680      3.555
REMARK INTER + INTRA:          -7.485
REMARK INTER:                  -6.600
REMARK INTRA:                  -0.885
REMARK UNBOUND:                -0.950
REMARK SMILES CCCCCCCCCCC(=O)[O-]
REMARK SMILES IDX 7 1 8 2 9 3 10 4 11 5 12 6 13 7 6 8 5 9 4 10 3 11 2 12 1 13
REMARK H PARENT
REMARK Flexibility Score: inf
ROOT
ATOM      1  C   UNL     1      -8.216  37.802   6.022  1.00  0.00     0.000 C 
ENDROOT
BRANCH   1   2
ATOM      2  C   UNL     1      -8.963  36.518   5.620  1.00  0.00     0.000 C 
BRANCH   2   3
ATOM      3  C   UNL     1      -9.302  35.567   6.785  1.00  0.00     0.006 C 
BRANCH   3   4
ATOM      4  C   UNL     1     -10.804  35.432   7.083  1.00  0.00     0.053 C 
BRANCH   4   5
ATOM      5  C   UNL     1     -11.176  36.074   8.384  1.00  0.00     0.041 C 
ATOM      6  O   UNL     1     -12.381  36.115   8.748  1.00  0.00    -0.550 OA
ATOM      7  O   UNL     1     -10.190  36.596   9.212  1.00  0.00    -0.550 OA
ENDBRANCH   4   5
ENDBRANCH   3   4
ENDBRANCH   2   3
ENDBRANCH   1   2
BRANCH   1   8
ATOM      8  C   UNL     1      -9.150  38.897   6.556  1.00  0.00     0.000 C 
BRANCH   8   9
ATOM      9  C   UNL     1     -10.438  38.974   5.724  1.00  0.00    -0.000 C 
BRANCH   9  10
ATOM     10  C   UNL     1     -11.689  39.204   6.586  1.00  0.00    -0.000 C 
BRANCH  10  11
ATOM     11  C   UNL     1     -12.531  40.393   6.104  1.00  0.00    -0.000 C 
BRANCH  11  12
ATOM     12  C   UNL     1     -13.064  41.204   7.290  1.00  0.00    -0.003 C 
ATOM     13  C   UNL     1     -12.445  40.734   8.604  1.00  0.00     0.004 C 
ENDBRANCH  11  12
ENDBRANCH  10  11
ENDBRANCH   9  10
ENDBRANCH   8   9
ENDBRANCH   1   8
TORSDOF 9
ENDMDL
MODEL 7
REMARK VINA RESULT:    -4.258      1.142      2.742
REMARK INTER + INTRA:          -7.448
REMARK INTER:                  -6.357
REMARK INTRA:                  -1.091
REMARK UNBOUND:                -0.950
REMARK SMILES CCCCCCCCCCC(=O)[O-]
REMARK SMILES IDX 7 1 8 2 9 3 10 4 11 5 12 6 13 7 6 8 5 9 4 10 3 11 2 12 1 13
REMARK H PARENT
REMARK Flexibility Score: inf
ROOT
ATOM      1  C   UNL     1     -11.073  35.278   8.173  1.00  0.00     0.000 C 
ENDROOT
BRANCH   1   2
ATOM      2  C   UNL     1     -10.090  34.519   7.264  1.00  0.00     0.000 C 
BRANCH   2   3
ATOM      3  C   UNL     1      -9.800  35.195   5.908  1.00  0.00     0.006 C 
BRANCH   3   4
ATOM      4  C   UNL     1      -8.308  35.329   5.569  1.00  0.00     0.053 C 
BRANCH   4   5
ATOM      5  C   UNL     1      -7.662  33.998   5.343  1.00  0.00     0.041 C 
ATOM      6  O   UNL     1      -6.510  33.767   5.796  1.00  0.00    -0.550 OA
ATOM      7  O   UNL     1      -8.345  32.998   4.661  1.00  0.00    -0.550 OA
ENDBRANCH   4   5
ENDBRANCH   3   4
ENDBRANCH   2   3
ENDBRANCH   1   2
BRANCH   1   8
ATOM      8  C   UNL     1     -10.447  36.514   8.834  1.00  0.00     0.000 C 
BRANCH   8   9
ATOM      9  C   UNL     1     -11.431  37.693   8.835  1.00  0.00    -0.000 C 
BRANCH   9  10
ATOM     10  C   UNL     1     -10.894  38.916   8.075  1.00  0.00    -0.000 C 
BRANCH  10  11
ATOM     11  C   UNL     1     -11.361  38.957   6.613  1.00  0.00    -0.000 C 
BRANCH  11  12
ATOM     12  C   UNL     1     -10.173  38.826   5.653  1.00  0.00    -0.003 C 
ATOM     13  C   UNL     1      -8.846  38.880   6.406  1.00  0.00     0.004 C 
ENDBRANCH  11  12
ENDBRANCH  10  11
ENDBRANCH   9  10
ENDBRANCH   8   9
ENDBRANCH   1   8
TORSDOF 9
ENDMDL
MODEL 8
REMARK VINA RESULT:    -4.225      2.247      4.322
REMARK INTER + INTRA:          -7.398
REMARK INTER:                  -6.312
REMARK INTRA:                  -1.086
REMARK UNBOUND:                -0.950
REMARK SMILES CCCCCCCCCCC(=O)[O-]
REMARK SMILES IDX 7 1 8 2 9 3 10 4 11 5 12 6 13 7 6 8 5 9 4 10 3 11 2 12 1 13
REMARK H PARENT
REMARK Flexibility Score: inf
ROOT
ATOM      1  C   UNL     1     -11.045  39.249   8.024  1.00  0.00     0.000 C 
ENDROOT
BRANCH   1   2
ATOM      2  C   UNL     1     -12.072  38.834   9.092  1.00  0.00     0.000 C 
BRANCH   2   3
ATOM      3  C   UNL     1     -11.673  37.610   9.941  1.00  0.00     0.006 C 
BRANCH   3   4
ATOM      4  C   UNL     1     -10.593  36.719   9.309  1.00  0.00     0.053 C 
BRANCH   4   5
ATOM      5  C   UNL     1     -11.156  35.420   8.819  1.00  0.00     0.041 C 
ATOM      6  O   UNL     1     -11.879  35.391   7.789  1.00  0.00    -0.550 OA
ATOM      7  O   UNL     1     -10.853  34.236   9.480  1.00  0.00    -0.550 OA
ENDBRANCH   4   5
ENDBRANCH   3   4
ENDBRANCH   2   3
ENDBRANCH   1   2
BRANCH   1   8
ATOM      8  C   UNL     1     -11.614  39.215   6.598  1.00  0.00     0.000 C 
BRANCH   8   9
ATOM      9  C   UNL     1     -10.534  38.807   5.586  1.00  0.00    -0.000 C 
BRANCH   9  10
ATOM     10  C   UNL     1      -9.121  38.810   6.192  1.00  0.00    -0.000 C 
BRANCH  10  11
ATOM     11  C   UNL     1      -8.345  37.521   5.889  1.00  0.00    -0.000 C 
BRANCH  11  12
ATOM     12  C   UNL     1      -9.301  36.340   5.686  1.00  0.00    -0.003 C 
ATOM     13  C   UNL     1      -8.624  35.016   6.032  1.00  0.00     0.004 C 
ENDBRANCH  11  12
ENDBRANCH  10  11
ENDBRANCH   9  10
ENDBRANCH   8   9
ENDBRANCH   1   8
TORSDOF 9
ENDMDL
MODEL 9
REMARK VINA RESULT:    -4.085      1.142      1.934
REMARK INTER + INTRA:          -7.183
REMARK INTER:                  -6.243
REMARK INTRA:                  -0.940
REMARK UNBOUND:                -0.950
REMARK SMILES CCCCCCCCCCC(=O)[O-]
REMARK SMILES IDX 7 1 8 2 9 3 10 4 11 5 12 6 13 7 6 8 5 9 4 10 3 11 2 12 1 13
REMARK H PARENT
REMARK Flexibility Score: inf
ROOT
ATOM      1  C   UNL     1     -10.218  38.761   6.195  1.00  0.00     0.000 C 
ENDROOT
BRANCH   1   2
ATOM      2  C   UNL     1     -10.051  37.517   5.304  1.00  0.00     0.000 C 
BRANCH   2   3
ATOM      3  C   UNL     1      -8.978  36.515   5.777  1.00  0.00     0.006 C 
BRANCH   3   4
ATOM      4  C   UNL     1      -9.460  35.060   5.872  1.00  0.00     0.053 C 
BRANCH   4   5
ATOM      5  C   UNL     1      -8.434  34.094   5.366  1.00  0.00     0.041 C 
ATOM      6  O   UNL     1      -8.775  33.145   4.613  1.00  0.00    -0.550 OA
ATOM      7  O   UNL     1      -7.095  34.263   5.698  1.00  0.00    -0.550 OA
ENDBRANCH   4   5
ENDBRANCH   3   4
ENDBRANCH   2   3
ENDBRANCH   1   2
BRANCH   1   8
ATOM      8  C   UNL     1     -11.509  39.540   5.901  1.00  0.00     0.000 C 
BRANCH   8   9
ATOM      9  C   UNL     1     -12.352  39.704   7.175  1.00  0.00    -0.000 C 
BRANCH   9  10
ATOM     10  C   UNL     1     -11.529  39.519   8.459  1.00  0.00    -0.000 C 
BRANCH  10  11
ATOM     11  C   UNL     1     -12.161  38.509   9.427  1.00  0.00    -0.000 C 
BRANCH  11  12
ATOM     12  C   UNL     1     -11.886  37.070   8.975  1.00  0.00    -0.003 C 
ATOM     13  C   UNL     1     -10.462  36.644   9.323  1.00  0.00     0.004 C 
ENDBRANCH  11  12
ENDBRANCH  10  11
ENDBRANCH   9  10
ENDBRANCH   8   9
ENDBRANCH   1   8
TORSDOF 9
ENDMDL
