MODEL 1
REMARK VINA RESULT:    -4.564      0.000      0.000
REMARK INTER + INTRA:          -7.992
REMARK INTER:                  -6.965
REMARK INTRA:                  -1.027
REMARK UNBOUND:                -1.027
REMARK SMILES O=C([O-])CCCCCCCCC(=O)[O-]
REMARK SMILES IDX 7 1 6 2 5 3 4 4 2 5 1 6 3 7 8 8 9 9 10 10 11 11 12 12 13 13
REMARK SMILES IDX 14 14
REMARK H PARENT
REMARK Flexibility Score: inf
ROOT
ATOM      1  C   UNL     1     -23.711  -9.606  16.980  1.00  0.00     0.000 C 
ENDROOT
BRANCH   1   2
ATOM      2  C   UNL     1     -24.592  -8.385  17.282  1.00  0.00     0.000 C 
BRANCH   2   3
ATOM      3  C   UNL     1     -24.169  -7.652  18.564  1.00  0.00     0.006 C 
BRANCH   3   4
ATOM      4  C   UNL     1     -23.647  -6.235  18.290  1.00  0.00     0.053 C 
BRANCH   4   5
ATOM      5  C   UNL     1     -22.181  -6.269  17.991  1.00  0.00     0.041 C 
ATOM      6  O   UNL     1     -21.493  -7.272  18.310  1.00  0.00    -0.550 OA
ATOM      7  O   UNL     1     -21.586  -5.212  17.314  1.00  0.00    -0.550 OA
ENDBRANCH   4   5
ENDBRANCH   3   4
ENDBRANCH   2   3
ENDBRANCH   1   2
BRANCH   1   8
ATOM      8  C   UNL     1     -22.862  -9.375  15.724  1.00  0.00     0.000 C 
BRANCH   8   9
ATOM      9  C   UNL     1     -23.305  -8.103  14.986  1.00  0.00     0.000 C 
BRANCH   9  10
ATOM     10  C   UNL     1     -22.122  -7.212  14.579  1.00  0.00     0.006 C 
BRANCH  10  11
ATOM     11  C   UNL     1     -20.836  -8.013  14.334  1.00  0.00     0.053 C 
BRANCH  11  12
ATOM     12  C   UNL     1     -19.706  -7.444  15.135  1.00  0.00     0.041 C 
ATOM     13  O   UNL     1     -19.379  -6.236  15.000  1.00  0.00    -0.550 OA
ATOM     14  O   UNL     1     -18.982  -8.262  15.992  1.00  0.00    -0.550 OA
ENDBRANCH  11  12
ENDBRANCH  10  11
ENDBRANCH   9  10
ENDBRANCH   8   9
ENDBRANCH   1   8
TORSDOF 9
ENDMDL
MODEL 2
REMARK VINA RESULT:    -4.548      0.392      3.928
REMARK INTER + INTRA:          -7.967
REMARK INTER:                  -7.074
REMARK INTRA:                  -0.893
REMARK UNBOUND:                -1.027
REMARK SMILES O=C([O-])CCCCCCCCC(=O)[O-]
REMARK SMILES IDX 7 1 6 2 5 3 4 4 2 5 1 6 3 7 8 8 9 9 10 10 11 11 12 12 13 13
REMARK SMILES IDX 14 14
REMARK H PARENT
REMARK Flexibility Score: inf
ROOT
ATOM      1  C   UNL     1     -22.500  -9.327  15.940  1.00  0.00     0.000 C 
ENDROOT
BRANCH   1   2
ATOM      2  C   UNL     1     -22.852  -8.323  14.833  1.00  0.00     0.000 C 
BRANCH   2   3
ATOM      3  C   UNL     1     -21.729  -7.307  14.575  1.00  0.00     0.006 C 
BRANCH   3   4
ATOM      4  C   UNL     1     -20.421  -7.972  14.128  1.00  0.00     0.053 C 
BRANCH   4   5
ATOM      5  C   UNL     1     -19.307  -7.611  15.059  1.00  0.00     0.041 C 
ATOM      6  O   UNL     1     -19.079  -8.315  16.077  1.00  0.00    -0.550 OA
ATOM      7  O   UNL     1     -18.489  -6.525  14.775  1.00  0.00    -0.550 OA
ENDBRANCH   4   5
ENDBRANCH   3   4
ENDBRANCH   2   3
ENDBRANCH   1   2
BRANCH   1   8
ATOM      8  C   UNL     1     -23.742  -9.702  16.758  1.00  0.00     0.000 C 
BRANCH   8   9
ATOM      9  C   UNL     1     -24.572  -8.456  17.102  1.00  0.00     0.000 C 
BRANCH   9  10
ATOM     10  C   UNL     1     -24.119  -7.785  18.407  1.00  0.00     0.006 C 
BRANCH  10  11
ATOM     11  C   UNL     1     -23.671  -6.332  18.200  1.00  0.00     0.053 C 
BRANCH  11  12
ATOM     12  C   UNL     1     -22.198  -6.270  17.947  1.00  0.00     0.041 C 
ATOM     13  O   UNL     1     -21.449  -7.206  18.332  1.00  0.00    -0.550 OA
ATOM     14  O   UNL     1     -21.645  -5.155  17.331  1.00  0.00    -0.550 OA
ENDBRANCH  11  12
ENDBRANCH  10  11
ENDBRANCH   9  10
ENDBRANCH   8   9
ENDBRANCH   1   8
TORSDOF 9
ENDMDL
MODEL 3
REMARK VINA RESULT:    -4.446      2.062      4.656
REMARK INTER + INTRA:          -7.812
REMARK INTER:                  -6.989
REMARK INTRA:                  -0.823
REMARK UNBOUND:                -1.027
REMARK SMILES O=C([O-])CCCCCCCCC(=O)[O-]
REMARK SMILES IDX 7 1 6 2 5 3 4 4 2 5 1 6 3 7 8 8 9 9 10 10 11 11 12 12 13 13
REMARK SMILES IDX 14 14
REMARK H PARENT
REMARK Flexibility Score: inf
ROOT
ATOM      1  C   UNL     1     -21.348  -5.451  15.508  1.00  0.00     0.000 C 
ENDROOT
BRANCH   1   2
ATOM      2  C   UNL     1     -19.952  -5.885  15.040  1.00  0.00     0.000 C 
BRANCH   2   3
ATOM      3  C   UNL     1     -19.834  -7.406  14.859  1.00  0.00     0.006 C 
BRANCH   3   4
ATOM      4  C   UNL     1     -18.568  -7.982  15.507  1.00  0.00     0.053 C 
BRANCH   4   5
ATOM      5  C   UNL     1     -18.910  -8.688  16.782  1.00  0.00     0.041 C 
ATOM      6  O   UNL     1     -20.101  -9.011  17.026  1.00  0.00    -0.550 OA
ATOM      7  O   UNL     1     -17.905  -9.032  17.676  1.00  0.00    -0.550 OA
ENDBRANCH   4   5
ENDBRANCH   3   4
ENDBRANCH   2   3
ENDBRANCH   1   2
BRANCH   1   8
ATOM      8  C   UNL     1     -21.345  -5.109  17.003  1.00  0.00     0.000 C 
BRANCH   8   9
ATOM      9  C   UNL     1     -22.024  -6.217  17.822  1.00  0.00     0.000 C 
BRANCH   9  10
ATOM     10  C   UNL     1     -23.251  -6.811  17.114  1.00  0.00     0.006 C 
BRANCH  10  11
ATOM     11  C   UNL     1     -23.539  -8.256  17.541  1.00  0.00     0.053 C 
BRANCH  11  12
ATOM     12  C   UNL     1     -23.313  -9.194  16.397  1.00  0.00     0.041 C 
ATOM     13  O   UNL     1     -23.215  -8.750  15.223  1.00  0.00    -0.550 OA
ATOM     14  O   UNL     1     -23.260 -10.563  16.622  1.00  0.00    -0.550 OA
ENDBRANCH  11  12
ENDBRANCH  10  11
ENDBRANCH   9  10
ENDBRANCH   8   9
ENDBRANCH   1   8
TORSDOF 9
ENDMDL
MODEL 4
REMARK VINA RESULT:    -4.440      2.262      2.837
REMARK INTER + INTRA:          -7.803
REMARK INTER:                  -6.991
REMARK INTRA:                  -0.812
REMARK UNBOUND:                -1.027
REMARK SMILES O=C([O-])CCCCCCCCC(=O)[O-]
REMARK SMILES IDX 7 1 6 2 5 3 4 4 2 5 1 6 3 7 8 8 9 9 10 10 11 11 12 12 13 13
REMARK SMILES IDX 14 14
REMARK H PARENT
REMARK Flexibility Score: inf
ROOT
ATOM      1  C   UNL     1     -21.943  -7.499  17.890  1.00  0.00     0.000 C 
ENDROOT
BRANCH   1   2
ATOM      2  C   UNL     1     -22.921  -6.336  18.112  1.00  0.00     0.000 C 
BRANCH   2   3
ATOM      3  C   UNL     1     -24.252  -6.792  18.730  1.00  0.00     0.006 C 
BRANCH   3   4
ATOM      4  C   UNL     1     -25.452  -6.526  17.812  1.00  0.00     0.053 C 
BRANCH   4   5
ATOM      5  C   UNL     1     -26.010  -7.816  17.296  1.00  0.00     0.041 C 
ATOM      6  O   UNL     1     -25.473  -8.909  17.614  1.00  0.00    -0.550 OA
ATOM      7  O   UNL     1     -27.152  -7.813  16.506  1.00  0.00    -0.550 OA
ENDBRANCH   4   5
ENDBRANCH   3   4
ENDBRANCH   2   3
ENDBRANCH   1   2
BRANCH   1   8
ATOM      8  C   UNL     1     -22.261  -8.245  16.589  1.00  0.00     0.000 C 
BRANCH   8   9
ATOM      9  C   UNL     1     -22.539  -7.260  15.444  1.00  0.00     0.000 C 
BRANCH   9  10
ATOM     10  C   UNL     1     -21.253  -6.745  14.780  1.00  0.00     0.006 C 
BRANCH  10  11
ATOM     11  C   UNL     1     -20.348  -7.880  14.284  1.00  0.00     0.053 C 
BRANCH  11  12
ATOM     12  C   UNL     1     -18.972  -7.738  14.853  1.00  0.00     0.041 C 
ATOM     13  O   UNL     1     -18.677  -8.293  15.944  1.00  0.00    -0.550 OA
ATOM     14  O   UNL     1     -18.030  -6.950  14.205  1.00  0.00    -0.550 OA
ENDBRANCH  11  12
ENDBRANCH  10  11
ENDBRANCH   9  10
ENDBRANCH   8   9
ENDBRANCH   1   8
TORSDOF 9
ENDMDL
MODEL 5
REMARK VINA RESULT:    -4.414      2.202      4.819
REMARK INTER + INTRA:          -7.763
REMARK INTER:                  -6.967
REMARK INTRA:                  -0.796
REMARK UNBOUND:                -1.027
REMARK SMILES O=C([O-])CCCCCCCCC(=O)[O-]
REMARK SMILES IDX 7 1 6 2 5 3 4 4 2 5 1 6 3 7 8 8 9 9 10 10 11 11 12 12 13 13
REMARK SMILES IDX 14 14
REMARK H PARENT
REMARK Flexibility Score: inf
ROOT
ATOM      1  C   UNL     1     -19.874  -6.472  15.139  1.00  0.00     0.000 C 
ENDROOT
BRANCH   1   2
ATOM      2  C   UNL     1     -19.301  -7.893  15.035  1.00  0.00     0.000 C 
BRANCH   2   3
ATOM      3  C   UNL     1     -18.397  -8.255  16.223  1.00  0.00     0.006 C 
BRANCH   3   4
ATOM      4  C   UNL     1     -19.121  -9.097  17.281  1.00  0.00     0.053 C 
BRANCH   4   5
ATOM      5  C   UNL     1     -18.139  -9.921  18.054  1.00  0.00     0.041 C 
ATOM      6  O   UNL     1     -17.145  -9.375  18.599  1.00  0.00    -0.550 OA
ATOM      7  O   UNL     1     -18.350 -11.285  18.213  1.00  0.00    -0.550 OA
ENDBRANCH   4   5
ENDBRANCH   3   4
ENDBRANCH   2   3
ENDBRANCH   1   2
BRANCH   1   8
ATOM      8  C   UNL     1     -21.382  -6.466  14.860  1.00  0.00     0.000 C 
BRANCH   8   9
ATOM      9  C   UNL     1     -21.902  -7.890  14.610  1.00  0.00     0.000 C 
BRANCH   9  10
ATOM     10  C   UNL     1     -23.156  -8.216  15.435  1.00  0.00     0.006 C 
BRANCH  10  11
ATOM     11  C   UNL     1     -22.822  -8.706  16.850  1.00  0.00     0.053 C 
BRANCH  11  12
ATOM     12  C   UNL     1     -22.828  -7.562  17.814  1.00  0.00     0.041 C 
ATOM     13  O   UNL     1     -21.757  -7.184  18.357  1.00  0.00    -0.550 OA
ATOM     14  O   UNL     1     -24.026  -6.945  18.153  1.00  0.00    -0.550 OA
ENDBRANCH  11  12
ENDBRANCH  10  11
ENDBRANCH   9  10
ENDBRANCH   8   9
ENDBRANCH   1   8
TORSDOF 9
ENDMDL
MODEL 6
REMARK VINA RESULT:    -4.405      2.344      3.253
REMARK INTER + INTRA:          -7.749
REMARK INTER:                  -6.852
REMARK INTRA:                  -0.896
REMARK UNBOUND:                -1.027
REMARK SMILES O=C([O-])CCCCCCCCC(=O)[O-]
REMARK SMILES IDX 7 1 6 2 5 3 4 4 2 5 1 6 3 7 8 8 9 9 10 10 11 11 12 12 13 13
REMARK SMILES IDX 14 14
REMARK H PARENT
REMARK Flexibility Score: inf
ROOT
ATOM      1  C   UNL     1     -21.638  -7.317  17.959  1.00  0.00     0.000 C 
ENDROOT
BRANCH   1   2
ATOM      2  C   UNL     1     -22.223  -8.529  17.219  1.00  0.00     0.000 C 
BRANCH   2   3
ATOM      3  C   UNL     1     -23.590  -8.230  16.581  1.00  0.00     0.006 C 
BRANCH   3   4
ATOM      4  C   UNL     1     -24.761  -8.749  17.425  1.00  0.00     0.053 C 
BRANCH   4   5
ATOM      5  C   UNL     1     -25.852  -7.727  17.487  1.00  0.00     0.041 C 
ATOM      6  O   UNL     1     -25.739  -6.725  18.240  1.00  0.00    -0.550 OA
ATOM      7  O   UNL     1     -26.972  -7.855  16.675  1.00  0.00    -0.550 OA
ENDBRANCH   4   5
ENDBRANCH   3   4
ENDBRANCH   2   3
ENDBRANCH   1   2
BRANCH   1   8
ATOM      8  C   UNL     1     -22.305  -6.016  17.497  1.00  0.00     0.000 C 
BRANCH   8   9
ATOM      9  C   UNL     1     -21.281  -5.073  16.848  1.00  0.00     0.000 C 
BRANCH   9  10
ATOM     10  C   UNL     1     -21.108  -5.331  15.343  1.00  0.00     0.006 C 
BRANCH  10  11
ATOM     11  C   UNL     1     -19.699  -5.822  14.986  1.00  0.00     0.053 C 
BRANCH  11  12
ATOM     12  C   UNL     1     -19.692  -7.308  14.812  1.00  0.00     0.041 C 
ATOM     13  O   UNL     1     -20.574  -7.868  14.109  1.00  0.00    -0.550 OA
ATOM     14  O   UNL     1     -18.742  -8.080  15.467  1.00  0.00    -0.550 OA
ENDBRANCH  11  12
ENDBRANCH  10  11
ENDBRANCH   9  10
ENDBRANCH   8   9
ENDBRANCH   1   8
TORSDOF 9
ENDMDL
MODEL 7
REMARK VINA RESULT:    -4.397      2.606      3.810
REMARK INTER + INTRA:          -7.737
REMARK INTER:                  -7.013
REMARK INTRA:                  -0.724
REMARK UNBOUND:                -1.027
REMARK SMILES O=C([O-])CCCCCCCCC(=O)[O-]
REMARK SMILES IDX 7 1 6 2 5 3 4 4 2 5 1 6 3 7 8 8 9 9 10 10 11 11 12 12 13 13
REMARK SMILES IDX 14 14
REMARK H PARENT
REMARK Flexibility Score: inf
ROOT
ATOM      1  C   UNL     1     -21.019  -6.099  15.900  1.00  0.00     0.000 C 
ENDROOT
BRANCH   1   2
ATOM      2  C   UNL     1     -21.731  -5.722  17.207  1.00  0.00     0.000 C 
BRANCH   2   3
ATOM      3  C   UNL     1     -22.058  -6.946  18.078  1.00  0.00     0.006 C 
BRANCH   3   4
ATOM      4  C   UNL     1     -23.565  -7.120  18.310  1.00  0.00     0.053 C 
BRANCH   4   5
ATOM      5  C   UNL     1     -24.155  -8.004  17.256  1.00  0.00     0.041 C 
ATOM      6  O   UNL     1     -23.820  -9.215  17.185  1.00  0.00    -0.550 OA
ATOM      7  O   UNL     1     -25.113  -7.502  16.385  1.00  0.00    -0.550 OA
ENDBRANCH   4   5
ENDBRANCH   3   4
ENDBRANCH   2   3
ENDBRANCH   1   2
BRANCH   1   8
ATOM      8  C   UNL     1     -20.757  -7.609  15.832  1.00  0.00     0.000 C 
BRANCH   8   9
ATOM      9  C   UNL     1     -19.367  -7.901  15.248  1.00  0.00     0.000 C 
BRANCH   9  10
ATOM     10  C   UNL     1     -18.335  -8.265  16.327  1.00  0.00     0.006 C 
BRANCH  10  11
ATOM     11  C   UNL     1     -18.944  -9.080  17.475  1.00  0.00     0.053 C 
BRANCH  11  12
ATOM     12  C   UNL     1     -17.866  -9.740  18.277  1.00  0.00     0.041 C 
ATOM     13  O   UNL     1     -18.038 -10.898  18.739  1.00  0.00    -0.550 OA
ATOM     14  O   UNL     1     -16.691  -9.055  18.557  1.00  0.00    -0.550 OA
ENDBRANCH  11  12
ENDBRANCH  10  11
ENDBRANCH   9  10
ENDBRANCH   8   9
ENDBRANCH   1   8
TORSDOF 9
ENDMDL
MODEL 8
REMARK VINA RESULT:    -4.391      2.061      3.297
REMARK INTER + INTRA:          -7.728
REMARK INTER:                  -6.958
REMARK INTRA:                  -0.770
REMARK UNBOUND:                -1.027
REMARK SMILES O=C([O-])CCCCCCCCC(=O)[O-]
REMARK SMILES IDX 7 1 6 2 5 3 4 4 2 5 1 6 3 7 8 8 9 9 10 10 11 11 12 12 13 13
REMARK SMILES IDX 14 14
REMARK H PARENT
REMARK Flexibility Score: inf
ROOT
ATOM      1  C   UNL     1     -22.106  -5.726  17.823  1.00  0.00     0.000 C 
ENDROOT
BRANCH   1   2
ATOM      2  C   UNL     1     -21.875  -7.231  17.616  1.00  0.00     0.000 C 
BRANCH   2   3
ATOM      3  C   UNL     1     -23.155  -8.059  17.813  1.00  0.00     0.006 C 
BRANCH   3   4
ATOM      4  C   UNL     1     -23.373  -9.085  16.694  1.00  0.00     0.053 C 
BRANCH   4   5
ATOM      5  C   UNL     1     -23.449  -8.399  15.366  1.00  0.00     0.041 C 
ATOM      6  O   UNL     1     -22.695  -8.759  14.425  1.00  0.00    -0.550 OA
ATOM      7  O   UNL     1     -24.386  -7.397  15.153  1.00  0.00    -0.550 OA
ENDBRANCH   4   5
ENDBRANCH   3   4
ENDBRANCH   2   3
ENDBRANCH   1   2
BRANCH   1   8
ATOM      8  C   UNL     1     -21.326  -4.904  16.790  1.00  0.00     0.000 C 
BRANCH   8   9
ATOM      9  C   UNL     1     -21.103  -5.708  15.500  1.00  0.00     0.000 C 
BRANCH   9  10
ATOM     10  C   UNL     1     -19.854  -5.254  14.729  1.00  0.00     0.006 C 
BRANCH  10  11
ATOM     11  C   UNL     1     -18.641  -6.160  14.982  1.00  0.00     0.053 C 
BRANCH  11  12
ATOM     12  C   UNL     1     -19.043  -7.600  14.921  1.00  0.00     0.041 C 
ATOM     13  O   UNL     1     -18.890  -8.344  15.925  1.00  0.00    -0.550 OA
ATOM     14  O   UNL     1     -19.539  -8.133  13.738  1.00  0.00    -0.550 OA
ENDBRANCH  11  12
ENDBRANCH  10  11
ENDBRANCH   9  10
ENDBRANCH   8   9
ENDBRANCH   1   8
TORSDOF 9
ENDMDL
MODEL 9
REMARK VINA RESULT:    -4.360      2.300      5.018
REMARK INTER + INTRA:          -7.681
REMARK INTER:                  -6.830
REMARK INTRA:                  -0.851
REMARK UNBOUND:                -1.027
REMARK SMILES O=C([O-])CCCCCCCCC(=O)[O-]
REMARK SMILES IDX 7 1 6 2 5 3 4 4 2 5 1 6 3 7 8 8 9 9 10 10 11 11 12 12 13 13
REMARK SMILES IDX 14 14
REMARK H PARENT
REMARK Flexibility Score: inf
ROOT
ATOM      1  C   UNL     1     -22.346  -6.051  17.308  1.00  0.00     0.000 C 
ENDROOT
BRANCH   1   2
ATOM      2  C   UNL     1     -21.200  -5.185  16.765  1.00  0.00     0.000 C 
BRANCH   2   3
ATOM      3  C   UNL     1     -20.966  -5.387  15.260  1.00  0.00     0.006 C 
BRANCH   3   4
ATOM      4  C   UNL     1     -19.565  -5.928  14.947  1.00  0.00     0.053 C 
BRANCH   4   5
ATOM      5  C   UNL     1     -19.588  -7.422  14.871  1.00  0.00     0.041 C 
ATOM      6  O   UNL     1     -20.206  -7.999  13.940  1.00  0.00    -0.550 OA
ATOM      7  O   UNL     1     -18.884  -8.176  15.801  1.00  0.00    -0.550 OA
ENDBRANCH   4   5
ENDBRANCH   3   4
ENDBRANCH   2   3
ENDBRANCH   1   2
BRANCH   1   8
ATOM      8  C   UNL     1     -21.810  -7.348  17.925  1.00  0.00     0.000 C 
BRANCH   8   9
ATOM      9  C   UNL     1     -22.186  -8.564  17.065  1.00  0.00     0.000 C 
BRANCH   9  10
ATOM     10  C   UNL     1     -23.597  -8.454  16.468  1.00  0.00     0.006 C 
BRANCH  10  11
ATOM     11  C   UNL     1     -24.695  -8.818  17.476  1.00  0.00     0.053 C 
BRANCH  11  12
ATOM     12  C   UNL     1     -25.753  -7.759  17.502  1.00  0.00     0.041 C 
ATOM     13  O   UNL     1     -25.652  -6.781  18.289  1.00  0.00    -0.550 OA
ATOM     14  O   UNL     1     -26.875  -7.879  16.694  1.00  0.00    -0.550 OA
ENDBRANCH  11  12
ENDBRANCH  10  11
ENDBRANCH   9  10
ENDBRANCH   8   9
ENDBRANCH   1   8
TORSDOF 9
ENDMDL
