MODEL 1
REMARK VINA RESULT:     8.317      0.000      0.000
REMARK INTER + INTRA:          13.328
REMARK INTER:                  14.151
REMARK INTRA:                  -0.823
REMARK UNBOUND:                -0.823
REMARK SMILES CCCCCCCCCCCCCC(=O)[O-]
REMARK SMILES IDX 8 1 9 2 10 3 11 4 12 5 13 6 14 7 15 8 16 9 7 10 6 11 5 12
REMARK SMILES IDX 4 13 3 14 2 15 1 16
REMARK H PARENT
REMARK Flexibility Score: inf
ROOT
ATOM      1  C   UNL     1      19.066 -59.765  -2.933  1.00  0.00     0.000 C 
ENDROOT
BRANCH   1   2
ATOM      2  C   UNL     1      19.100 -58.230  -3.020  1.00  0.00     0.000 C 
BRANCH   2   3
ATOM      3  C   UNL     1      19.093 -57.558  -1.637  1.00  0.00     0.000 C 
BRANCH   3   4
ATOM      4  C   UNL     1      17.718 -56.945  -1.291  1.00  0.00     0.000 C 
BRANCH   4   5
ATOM      5  C   UNL     1      16.982 -56.359  -2.512  1.00  0.00     0.006 C 
BRANCH   5   6
ATOM      6  C   UNL     1      17.316 -54.888  -2.797  1.00  0.00     0.053 C 
BRANCH   6   7
ATOM      7  C   UNL     1      17.618 -54.654  -4.246  1.00  0.00     0.041 C 
ATOM      8  O   UNL     1      17.534 -55.601  -5.071  1.00  0.00    -0.550 OA
ATOM      9  O   UNL     1      18.013 -53.396  -4.682  1.00  0.00    -0.550 OA
ENDBRANCH   6   7
ENDBRANCH   5   6
ENDBRANCH   4   5
ENDBRANCH   3   4
ENDBRANCH   2   3
ENDBRANCH   1   2
BRANCH   1  10
ATOM     10  C   UNL     1      17.692 -60.347  -3.315  1.00  0.00     0.000 C 
BRANCH  10  11
ATOM     11  C   UNL     1      16.534 -59.673  -2.564  1.00  0.00    -0.000 C 
BRANCH  11  12
ATOM     12  C   UNL     1      15.178 -59.881  -3.262  1.00  0.00    -0.000 C 
BRANCH  12  13
ATOM     13  C   UNL     1      14.945 -58.885  -4.410  1.00  0.00    -0.000 C 
BRANCH  13  14
ATOM     14  C   UNL     1      14.023 -57.722  -4.005  1.00  0.00    -0.000 C 
BRANCH  14  15
ATOM     15  C   UNL     1      12.833 -58.186  -3.149  1.00  0.00    -0.003 C 
ATOM     16  C   UNL     1      11.605 -57.290  -3.306  1.00  0.00     0.004 C 
ENDBRANCH  14  15
ENDBRANCH  13  14
ENDBRANCH  12  13
ENDBRANCH  11  12
ENDBRANCH  10  11
ENDBRANCH   1  10
TORSDOF 12
ENDMDL
MODEL 2
REMARK VINA RESULT:     8.626      2.453      4.839
REMARK INTER + INTRA:          13.854
REMARK INTER:                  13.782
REMARK INTRA:                   0.072
REMARK UNBOUND:                -0.823
REMARK SMILES CCCCCCCCCCCCCC(=O)[O-]
REMARK SMILES IDX 8 1 9 2 10 3 11 4 12 5 13 6 14 7 15 8 16 9 7 10 6 11 5 12
REMARK SMILES IDX 4 13 3 14 2 15 1 16
REMARK H PARENT
REMARK Flexibility Score: inf
ROOT
ATOM      1  C   UNL     1      19.011 -59.579  -2.713  1.00  0.00     0.000 C 
ENDROOT
BRANCH   1   2
ATOM      2  C   UNL     1      17.773 -60.351  -3.198  1.00  0.00     0.000 C 
BRANCH   2   3
ATOM      3  C   UNL     1      16.456 -59.722  -2.716  1.00  0.00     0.000 C 
BRANCH   3   4
ATOM      4  C   UNL     1      15.597 -59.194  -3.887  1.00  0.00     0.000 C 
BRANCH   4   5
ATOM      5  C   UNL     1      14.107 -59.027  -3.530  1.00  0.00     0.006 C 
BRANCH   5   6
ATOM      6  C   UNL     1      13.502 -57.691  -3.985  1.00  0.00     0.053 C 
BRANCH   6   7
ATOM      7  C   UNL     1      12.137 -57.470  -3.407  1.00  0.00     0.041 C 
ATOM      8  O   UNL     1      11.554 -56.366  -3.566  1.00  0.00    -0.550 OA
ATOM      9  O   UNL     1      11.517 -58.475  -2.675  1.00  0.00    -0.550 OA
ENDBRANCH   6   7
ENDBRANCH   5   6
ENDBRANCH   4   5
ENDBRANCH   3   4
ENDBRANCH   2   3
ENDBRANCH   1   2
BRANCH   1  10
ATOM     10  C   UNL     1      18.807 -58.053  -2.753  1.00  0.00     0.000 C 
BRANCH  10  11
ATOM     11  C   UNL     1      18.989 -57.396  -1.376  1.00  0.00    -0.000 C 
BRANCH  11  12
ATOM     12  C   UNL     1      17.649 -57.043  -0.708  1.00  0.00    -0.000 C 
BRANCH  12  13
ATOM     13  C   UNL     1      16.751 -56.175  -1.607  1.00  0.00    -0.000 C 
BRANCH  13  14
ATOM     14  C   UNL     1      17.205 -56.181  -3.076  1.00  0.00    -0.000 C 
BRANCH  14  15
ATOM     15  C   UNL     1      17.319 -54.764  -3.662  1.00  0.00    -0.003 C 
ATOM     16  C   UNL     1      17.589 -54.764  -5.167  1.00  0.00     0.004 C 
ENDBRANCH  14  15
ENDBRANCH  13  14
ENDBRANCH  12  13
ENDBRANCH  11  12
ENDBRANCH  10  11
ENDBRANCH   1  10
TORSDOF 12
ENDMDL
MODEL 3
REMARK VINA RESULT:     9.863      2.948      5.440
REMARK INTER + INTRA:          15.959
REMARK INTER:                  16.808
REMARK INTRA:                  -0.849
REMARK UNBOUND:                -0.823
REMARK SMILES CCCCCCCCCCCCCC(=O)[O-]
REMARK SMILES IDX 8 1 9 2 10 3 11 4 12 5 13 6 14 7 15 8 16 9 7 10 6 11 5 12
REMARK SMILES IDX 4 13 3 14 2 15 1 16
REMARK H PARENT
REMARK Flexibility Score: inf
ROOT
ATOM      1  C   UNL     1      17.893 -59.913  -3.204  1.00  0.00     0.000 C 
ENDROOT
BRANCH   1   2
ATOM      2  C   UNL     1      16.592 -59.536  -2.475  1.00  0.00     0.000 C 
BRANCH   2   3
ATOM      3  C   UNL     1      15.336 -60.013  -3.223  1.00  0.00     0.000 C 
BRANCH   3   4
ATOM      4  C   UNL     1      14.649 -58.868  -4.001  1.00  0.00     0.000 C 
BRANCH   4   5
ATOM      5  C   UNL     1      14.639 -59.081  -5.527  1.00  0.00     0.006 C 
BRANCH   5   6
ATOM      6  C   UNL     1      14.949 -60.522  -5.958  1.00  0.00     0.053 C 
BRANCH   6   7
ATOM      7  C   UNL     1      14.142 -60.934  -7.150  1.00  0.00     0.041 C 
ATOM      8  O   UNL     1      14.127 -60.216  -8.184  1.00  0.00    -0.550 OA
ATOM      9  O   UNL     1      13.387 -62.100  -7.114  1.00  0.00    -0.550 OA
ENDBRANCH   6   7
ENDBRANCH   5   6
ENDBRANCH   4   5
ENDBRANCH   3   4
ENDBRANCH   2   3
ENDBRANCH   1   2
BRANCH   1  10
ATOM     10  C   UNL     1      19.125 -59.197  -2.620  1.00  0.00     0.000 C 
BRANCH  10  11
ATOM     11  C   UNL     1      18.955 -57.671  -2.572  1.00  0.00    -0.000 C 
BRANCH  11  12
ATOM     12  C   UNL     1      18.452 -57.176  -1.204  1.00  0.00    -0.000 C 
BRANCH  12  13
ATOM     13  C   UNL     1      17.272 -56.198  -1.327  1.00  0.00    -0.000 C 
BRANCH  13  14
ATOM     14  C   UNL     1      16.754 -56.076  -2.770  1.00  0.00    -0.000 C 
BRANCH  14  15
ATOM     15  C   UNL     1      17.274 -54.814  -3.476  1.00  0.00    -0.003 C 
ATOM     16  C   UNL     1      17.696 -55.075  -4.922  1.00  0.00     0.004 C 
ENDBRANCH  14  15
ENDBRANCH  13  14
ENDBRANCH  12  13
ENDBRANCH  11  12
ENDBRANCH  10  11
ENDBRANCH   1  10
TORSDOF 12
ENDMDL
MODEL 4
REMARK VINA RESULT:    10.246      1.146      2.532
REMARK INTER + INTRA:          16.611
REMARK INTER:                  16.871
REMARK INTRA:                  -0.260
REMARK UNBOUND:                -0.823
REMARK SMILES CCCCCCCCCCCCCC(=O)[O-]
REMARK SMILES IDX 8 1 9 2 10 3 11 4 12 5 13 6 14 7 15 8 16 9 7 10 6 11 5 12
REMARK SMILES IDX 4 13 3 14 2 15 1 16
REMARK H PARENT
REMARK Flexibility Score: inf
ROOT
ATOM      1  C   UNL     1      16.528 -59.571  -2.665  1.00  0.00     0.000 C 
ENDROOT
BRANCH   1   2
ATOM      2  C   UNL     1      17.717 -60.452  -3.084  1.00  0.00     0.000 C 
BRANCH   2   3
ATOM      3  C   UNL     1      19.071 -59.748  -2.896  1.00  0.00     0.000 C 
BRANCH   3   4
ATOM      4  C   UNL     1      19.012 -58.253  -3.282  1.00  0.00     0.000 C 
BRANCH   4   5
ATOM      5  C   UNL     1      18.997 -57.305  -2.068  1.00  0.00     0.006 C 
BRANCH   5   6
ATOM      6  C   UNL     1      17.597 -56.812  -1.677  1.00  0.00     0.053 C 
BRANCH   6   7
ATOM      7  C   UNL     1      17.049 -55.838  -2.675  1.00  0.00     0.041 C 
ATOM      8  O   UNL     1      17.629 -55.668  -3.779  1.00  0.00    -0.550 OA
ATOM      9  O   UNL     1      15.909 -55.100  -2.378  1.00  0.00    -0.550 OA
ENDBRANCH   6   7
ENDBRANCH   5   6
ENDBRANCH   4   5
ENDBRANCH   3   4
ENDBRANCH   2   3
ENDBRANCH   1   2
BRANCH   1  10
ATOM     10  C   UNL     1      15.258 -59.865  -3.484  1.00  0.00     0.000 C 
BRANCH  10  11
ATOM     11  C   UNL     1      14.888 -58.716  -4.435  1.00  0.00    -0.000 C 
BRANCH  11  12
ATOM     12  C   UNL     1      13.975 -57.671  -3.770  1.00  0.00    -0.000 C 
BRANCH  12  13
ATOM     13  C   UNL     1      12.707 -58.294  -3.163  1.00  0.00    -0.000 C 
BRANCH  13  14
ATOM     14  C   UNL     1      11.534 -57.301  -3.099  1.00  0.00    -0.000 C 
BRANCH  14  15
ATOM     15  C   UNL     1      11.447 -56.413  -4.351  1.00  0.00    -0.003 C 
ATOM     16  C   UNL     1      11.219 -54.938  -4.017  1.00  0.00     0.004 C 
ENDBRANCH  14  15
ENDBRANCH  13  14
ENDBRANCH  12  13
ENDBRANCH  11  12
ENDBRANCH  10  11
ENDBRANCH   1  10
TORSDOF 12
ENDMDL
MODEL 5
REMARK VINA RESULT:    10.261      2.499      4.909
REMARK INTER + INTRA:          16.636
REMARK INTER:                  17.962
REMARK INTRA:                  -1.326
REMARK UNBOUND:                -0.823
REMARK SMILES CCCCCCCCCCCCCC(=O)[O-]
REMARK SMILES IDX 8 1 9 2 10 3 11 4 12 5 13 6 14 7 15 8 16 9 7 10 6 11 5 12
REMARK SMILES IDX 4 13 3 14 2 15 1 16
REMARK H PARENT
REMARK Flexibility Score: inf
ROOT
ATOM      1  C   UNL     1      17.728 -60.450  -3.135  1.00  0.00     0.000 C 
ENDROOT
BRANCH   1   2
ATOM      2  C   UNL     1      16.492 -59.811  -2.480  1.00  0.00     0.000 C 
BRANCH   2   3
ATOM      3  C   UNL     1      15.234 -59.920  -3.357  1.00  0.00     0.000 C 
BRANCH   3   4
ATOM      4  C   UNL     1      15.264 -58.936  -4.548  1.00  0.00     0.000 C 
BRANCH   4   5
ATOM      5  C   UNL     1      14.076 -57.955  -4.566  1.00  0.00     0.006 C 
BRANCH   5   6
ATOM      6  C   UNL     1      13.418 -57.746  -3.195  1.00  0.00     0.053 C 
BRANCH   6   7
ATOM      7  C   UNL     1      11.968 -57.392  -3.318  1.00  0.00     0.041 C 
ATOM      8  O   UNL     1      11.091 -58.120  -2.784  1.00  0.00    -0.550 OA
ATOM      9  O   UNL     1      11.582 -56.271  -4.042  1.00  0.00    -0.550 OA
ENDBRANCH   6   7
ENDBRANCH   5   6
ENDBRANCH   4   5
ENDBRANCH   3   4
ENDBRANCH   2   3
ENDBRANCH   1   2
BRANCH   1  10
ATOM     10  C   UNL     1      19.029 -59.698  -2.800  1.00  0.00     0.000 C 
BRANCH  10  11
ATOM     11  C   UNL     1      19.125 -58.337  -3.508  1.00  0.00    -0.000 C 
BRANCH  11  12
ATOM     12  C   UNL     1      18.895 -57.156  -2.549  1.00  0.00    -0.000 C 
BRANCH  12  13
ATOM     13  C   UNL     1      17.526 -56.485  -2.756  1.00  0.00    -0.000 C 
BRANCH  13  14
ATOM     14  C   UNL     1      16.697 -56.425  -1.462  1.00  0.00    -0.000 C 
BRANCH  14  15
ATOM     15  C   UNL     1      17.213 -57.396  -0.388  1.00  0.00    -0.003 C 
ATOM     16  C   UNL     1      17.828 -56.679   0.814  1.00  0.00     0.004 C 
ENDBRANCH  14  15
ENDBRANCH  13  14
ENDBRANCH  12  13
ENDBRANCH  11  12
ENDBRANCH  10  11
ENDBRANCH   1  10
TORSDOF 12
ENDMDL
