MODEL 1
REMARK VINA RESULT:    -4.347      0.000      0.000
REMARK INTER + INTRA:          -4.924
REMARK INTER:                  -4.855
REMARK INTRA:                  -0.069
REMARK UNBOUND:                -0.069
REMARK SMILES COc1cc2ccc(=O)oc2c(O)c1O
REMARK SMILES IDX 3 1 14 2 12 3 11 4 5 5 4 6 6 7 7 8 8 9 9 10 10 11 2 12 1 13
REMARK SMILES IDX 15 14 13 16
REMARK H PARENT 15 15 13 17
REMARK Flexibility Score: inf
ROOT
ATOM      1  C   UNL     1      27.684 -15.645  -9.147  1.00  0.00     0.165 A 
ATOM      2  C   UNL     1      27.085 -15.122  -7.985  1.00  0.00     0.204 A 
ATOM      3  C   UNL     1      27.001 -15.896  -6.819  1.00  0.00     0.205 A 
ATOM      4  C   UNL     1      27.517 -17.202  -6.804  1.00  0.00     0.184 A 
ATOM      5  C   UNL     1      28.119 -17.729  -7.966  1.00  0.00     0.025 A 
ATOM      6  C   UNL     1      28.200 -16.955  -9.129  1.00  0.00     0.062 A 
ATOM      7  C   UNL     1      28.624 -19.033  -7.923  1.00  0.00     0.020 A 
ATOM      8  C   UNL     1      28.521 -19.770  -6.744  1.00  0.00     0.094 A 
ATOM      9  C   UNL     1      27.913 -19.184  -5.631  1.00  0.00     0.336 A 
ATOM     10  O   UNL     1      27.810 -19.831  -4.556  1.00  0.00    -0.246 OA
ATOM     11  O   UNL     1      27.441 -17.942  -5.699  1.00  0.00    -0.419 OA
ENDROOT
BRANCH   1  12
ATOM     12  O   UNL     1      27.749 -14.839 -10.295  1.00  0.00    -0.493 OA
ATOM     13  C   UNL     1      26.904 -14.981 -11.433  1.00  0.00     0.278 C 
ENDBRANCH   1  12
BRANCH   2  14
ATOM     14  O   UNL     1      26.564 -13.826  -7.972  1.00  0.00    -0.502 OA
ATOM     15  H   UNL     1      26.903 -13.113  -7.337  1.00  0.00     0.293 HD
ENDBRANCH   2  14
BRANCH   3  16
ATOM     16  O   UNL     1      26.402 -15.350  -5.682  1.00  0.00    -0.502 OA
ATOM     17  H   UNL     1      26.591 -15.702  -4.751  1.00  0.00     0.293 HD
ENDBRANCH   3  16
TORSDOF 3
ENDMDL
MODEL 2
REMARK VINA RESULT:    -4.329      6.891      8.632
REMARK INTER + INTRA:          -4.904
REMARK INTER:                  -4.867
REMARK INTRA:                  -0.036
REMARK UNBOUND:                -0.069
REMARK SMILES COc1cc2ccc(=O)oc2c(O)c1O
REMARK SMILES IDX 3 1 14 2 12 3 11 4 5 5 4 6 6 7 7 8 8 9 9 10 10 11 2 12 1 13
REMARK SMILES IDX 15 14 13 16
REMARK H PARENT 15 15 13 17
REMARK Flexibility Score: inf
ROOT
ATOM      1  C   UNL     1      31.703 -24.161 -12.057  1.00  0.00     0.165 A 
ATOM      2  C   UNL     1      32.592 -23.082 -11.892  1.00  0.00     0.204 A 
ATOM      3  C   UNL     1      32.525 -22.273 -10.748  1.00  0.00     0.205 A 
ATOM      4  C   UNL     1      31.566 -22.538  -9.756  1.00  0.00     0.184 A 
ATOM      5  C   UNL     1      30.673 -23.620  -9.917  1.00  0.00     0.025 A 
ATOM      6  C   UNL     1      30.743 -24.424 -11.061  1.00  0.00     0.062 A 
ATOM      7  C   UNL     1      29.729 -23.860  -8.914  1.00  0.00     0.020 A 
ATOM      8  C   UNL     1      29.694 -23.034  -7.792  1.00  0.00     0.094 A 
ATOM      9  C   UNL     1      30.608 -21.982  -7.699  1.00  0.00     0.336 A 
ATOM     10  O   UNL     1      30.594 -21.223  -6.694  1.00  0.00    -0.246 OA
ATOM     11  O   UNL     1      31.496 -21.775  -8.667  1.00  0.00    -0.419 OA
ENDROOT
BRANCH   1  12
ATOM     12  O   UNL     1      31.803 -24.948 -13.216  1.00  0.00    -0.493 OA
ATOM     13  C   UNL     1      32.682 -26.058 -13.368  1.00  0.00     0.278 C 
ENDBRANCH   1  12
BRANCH   2  14
ATOM     14  O   UNL     1      33.555 -22.796 -12.862  1.00  0.00    -0.502 OA
ATOM     15  H   UNL     1      34.513 -22.567 -12.622  1.00  0.00     0.293 HD
ENDBRANCH   2  14
BRANCH   3  16
ATOM     16  O   UNL     1      33.419 -21.211 -10.612  1.00  0.00    -0.502 OA
ATOM     17  H   UNL     1      33.256 -20.448  -9.967  1.00  0.00     0.293 HD
ENDBRANCH   3  16
TORSDOF 3
ENDMDL
MODEL 3
REMARK VINA RESULT:    -4.288      7.526      9.241
REMARK INTER + INTRA:          -4.859
REMARK INTER:                  -4.801
REMARK INTRA:                  -0.058
REMARK UNBOUND:                -0.069
REMARK SMILES COc1cc2ccc(=O)oc2c(O)c1O
REMARK SMILES IDX 3 1 14 2 12 3 11 4 5 5 4 6 6 7 7 8 8 9 9 10 10 11 2 12 1 13
REMARK SMILES IDX 15 14 13 16
REMARK H PARENT 15 15 13 17
REMARK Flexibility Score: inf
ROOT
ATOM      1  C   UNL     1      32.198 -23.421 -12.205  1.00  0.00     0.165 A 
ATOM      2  C   UNL     1      32.284 -23.405 -10.799  1.00  0.00     0.204 A 
ATOM      3  C   UNL     1      32.735 -22.261 -10.127  1.00  0.00     0.205 A 
ATOM      4  C   UNL     1      33.104 -21.118 -10.856  1.00  0.00     0.184 A 
ATOM      5  C   UNL     1      33.018 -21.129 -12.265  1.00  0.00     0.025 A 
ATOM      6  C   UNL     1      32.568 -22.274 -12.933  1.00  0.00     0.062 A 
ATOM      7  C   UNL     1      33.392 -19.977 -12.965  1.00  0.00     0.020 A 
ATOM      8  C   UNL     1      33.835 -18.859 -12.260  1.00  0.00     0.094 A 
ATOM      9  C   UNL     1      33.894 -18.919 -10.865  1.00  0.00     0.336 A 
ATOM     10  O   UNL     1      34.291 -17.921 -10.209  1.00  0.00    -0.246 OA
ATOM     11  O   UNL     1      33.533 -20.027 -10.224  1.00  0.00    -0.419 OA
ENDROOT
BRANCH   1  12
ATOM     12  O   UNL     1      31.741 -24.586 -12.841  1.00  0.00    -0.493 OA
ATOM     13  C   UNL     1      32.581 -25.645 -13.293  1.00  0.00     0.278 C 
ENDBRANCH   1  12
BRANCH   2  14
ATOM     14  O   UNL     1      31.923 -24.527 -10.050  1.00  0.00    -0.502 OA
ATOM     15  H   UNL     1      31.022 -24.607  -9.595  1.00  0.00     0.293 HD
ENDBRANCH   2  14
BRANCH   3  16
ATOM     16  O   UNL     1      32.810 -22.275  -8.734  1.00  0.00    -0.502 OA
ATOM     17  H   UNL     1      32.444 -21.520  -8.166  1.00  0.00     0.293 HD
ENDBRANCH   3  16
TORSDOF 3
ENDMDL
MODEL 4
REMARK VINA RESULT:    -4.243      1.297      4.840
REMARK INTER + INTRA:          -4.808
REMARK INTER:                  -4.759
REMARK INTRA:                  -0.049
REMARK UNBOUND:                -0.069
REMARK SMILES COc1cc2ccc(=O)oc2c(O)c1O
REMARK SMILES IDX 3 1 14 2 12 3 11 4 5 5 4 6 6 7 7 8 8 9 9 10 10 11 2 12 1 13
REMARK SMILES IDX 15 14 13 16
REMARK H PARENT 15 15 13 17
REMARK Flexibility Score: inf
ROOT
ATOM      1  C   UNL     1      27.898 -19.305  -5.804  1.00  0.00     0.165 A 
ATOM      2  C   UNL     1      26.958 -18.539  -5.088  1.00  0.00     0.204 A 
ATOM      3  C   UNL     1      26.532 -17.296  -5.579  1.00  0.00     0.205 A 
ATOM      4  C   UNL     1      27.041 -16.809  -6.794  1.00  0.00     0.184 A 
ATOM      5  C   UNL     1      27.981 -17.575  -7.515  1.00  0.00     0.025 A 
ATOM      6  C   UNL     1      28.406 -18.814  -7.022  1.00  0.00     0.062 A 
ATOM      7  C   UNL     1      28.471 -17.065  -8.722  1.00  0.00     0.020 A 
ATOM      8  C   UNL     1      28.022 -15.826  -9.177  1.00  0.00     0.094 A 
ATOM      9  C   UNL     1      27.089 -15.123  -8.410  1.00  0.00     0.336 A 
ATOM     10  O   UNL     1      26.670 -14.002  -8.802  1.00  0.00    -0.246 OA
ATOM     11  O   UNL     1      26.639 -15.631  -7.266  1.00  0.00    -0.419 OA
ENDROOT
BRANCH   1  12
ATOM     12  O   UNL     1      28.300 -20.544  -5.279  1.00  0.00    -0.493 OA
ATOM     13  C   UNL     1      29.122 -21.485  -5.964  1.00  0.00     0.278 C 
ENDBRANCH   1  12
BRANCH   2  14
ATOM     14  O   UNL     1      26.436 -18.999  -3.877  1.00  0.00    -0.502 OA
ATOM     15  H   UNL     1      26.578 -19.948  -3.552  1.00  0.00     0.293 HD
ENDBRANCH   2  14
BRANCH   3  16
ATOM     16  O   UNL     1      25.600 -16.559  -4.847  1.00  0.00    -0.502 OA
ATOM     17  H   UNL     1      24.831 -16.071  -5.289  1.00  0.00     0.293 HD
ENDBRANCH   3  16
TORSDOF 3
ENDMDL
MODEL 5
REMARK VINA RESULT:    -4.190      8.225      9.444
REMARK INTER + INTRA:          -4.749
REMARK INTER:                  -4.680
REMARK INTRA:                  -0.069
REMARK UNBOUND:                -0.069
REMARK SMILES COc1cc2ccc(=O)oc2c(O)c1O
REMARK SMILES IDX 3 1 14 2 12 3 11 4 5 5 4 6 6 7 7 8 8 9 9 10 10 11 2 12 1 13
REMARK SMILES IDX 15 14 13 16
REMARK H PARENT 15 15 13 17
REMARK Flexibility Score: inf
ROOT
ATOM      1  C   UNL     1      30.031 -24.717  -8.874  1.00  0.00     0.165 A 
ATOM      2  C   UNL     1      31.173 -24.133  -8.293  1.00  0.00     0.204 A 
ATOM      3  C   UNL     1      32.055 -23.368  -9.070  1.00  0.00     0.205 A 
ATOM      4  C   UNL     1      31.801 -23.178 -10.439  1.00  0.00     0.184 A 
ATOM      5  C   UNL     1      30.657 -23.761 -11.025  1.00  0.00     0.025 A 
ATOM      6  C   UNL     1      29.780 -24.525 -10.247  1.00  0.00     0.062 A 
ATOM      7  C   UNL     1      30.430 -23.556 -12.390  1.00  0.00     0.020 A 
ATOM      8  C   UNL     1      31.330 -22.789 -13.128  1.00  0.00     0.094 A 
ATOM      9  C   UNL     1      32.441 -22.242 -12.481  1.00  0.00     0.336 A 
ATOM     10  O   UNL     1      33.266 -21.545 -13.129  1.00  0.00    -0.246 OA
ATOM     11  O   UNL     1      32.633 -22.452 -11.182  1.00  0.00    -0.419 OA
ENDROOT
BRANCH   1  12
ATOM     12  O   UNL     1      29.173 -25.476  -8.063  1.00  0.00    -0.493 OA
ATOM     13  C   UNL     1      29.192 -26.897  -7.971  1.00  0.00     0.278 C 
ENDBRANCH   1  12
BRANCH   2  14
ATOM     14  O   UNL     1      31.449 -24.305  -6.935  1.00  0.00    -0.502 OA
ATOM     15  H   UNL     1      31.324 -25.194  -6.466  1.00  0.00     0.293 HD
ENDBRANCH   2  14
BRANCH   3  16
ATOM     16  O   UNL     1      33.177 -22.801  -8.465  1.00  0.00    -0.502 OA
ATOM     17  H   UNL     1      33.375 -22.917  -7.478  1.00  0.00     0.293 HD
ENDBRANCH   3  16
TORSDOF 3
ENDMDL
MODEL 6
REMARK VINA RESULT:    -4.188      7.141      8.775
REMARK INTER + INTRA:          -4.747
REMARK INTER:                  -4.682
REMARK INTRA:                  -0.064
REMARK UNBOUND:                -0.069
REMARK SMILES COc1cc2ccc(=O)oc2c(O)c1O
REMARK SMILES IDX 3 1 14 2 12 3 11 4 5 5 4 6 6 7 7 8 8 9 9 10 10 11 2 12 1 13
REMARK SMILES IDX 15 14 13 16
REMARK H PARENT 15 15 13 17
REMARK Flexibility Score: inf
ROOT
ATOM      1  C   UNL     1      29.953 -11.078 -10.709  1.00  0.00     0.165 A 
ATOM      2  C   UNL     1      29.427 -10.473  -9.552  1.00  0.00     0.204 A 
ATOM      3  C   UNL     1      30.244  -9.685  -8.727  1.00  0.00     0.205 A 
ATOM      4  C   UNL     1      31.596  -9.494  -9.054  1.00  0.00     0.184 A 
ATOM      5  C   UNL     1      32.127 -10.098 -10.214  1.00  0.00     0.025 A 
ATOM      6  C   UNL     1      31.310 -10.885 -11.035  1.00  0.00     0.062 A 
ATOM      7  C   UNL     1      33.478  -9.891 -10.515  1.00  0.00     0.020 A 
ATOM      8  C   UNL     1      34.256  -9.102  -9.671  1.00  0.00     0.094 A 
ATOM      9  C   UNL     1      33.663  -8.534  -8.540  1.00  0.00     0.336 A 
ATOM     10  O   UNL     1      34.348  -7.818  -7.763  1.00  0.00    -0.246 OA
ATOM     11  O   UNL     1      32.377  -8.747  -8.277  1.00  0.00    -0.419 OA
ENDROOT
BRANCH   1  12
ATOM     12  O   UNL     1      29.104 -11.859 -11.509  1.00  0.00    -0.493 OA
ATOM     13  C   UNL     1      28.750 -11.553 -12.855  1.00  0.00     0.278 C 
ENDBRANCH   1  12
BRANCH   2  14
ATOM     14  O   UNL     1      28.086 -10.646  -9.203  1.00  0.00    -0.502 OA
ATOM     15  H   UNL     1      27.495 -11.336  -9.651  1.00  0.00     0.293 HD
ENDBRANCH   2  14
BRANCH   3  16
ATOM     16  O   UNL     1      29.694  -9.098  -7.587  1.00  0.00    -0.502 OA
ATOM     17  H   UNL     1      28.839  -8.556  -7.618  1.00  0.00     0.293 HD
ENDBRANCH   3  16
TORSDOF 3
ENDMDL
MODEL 7
REMARK VINA RESULT:    -4.159      7.607      8.465
REMARK INTER + INTRA:          -4.714
REMARK INTER:                  -4.646
REMARK INTRA:                  -0.068
REMARK UNBOUND:                -0.069
REMARK SMILES COc1cc2ccc(=O)oc2c(O)c1O
REMARK SMILES IDX 3 1 14 2 12 3 11 4 5 5 4 6 6 7 7 8 8 9 9 10 10 11 2 12 1 13
REMARK SMILES IDX 15 14 13 16
REMARK H PARENT 15 15 13 17
REMARK Flexibility Score: inf
ROOT
ATOM      1  C   UNL     1      34.210 -19.029 -10.974  1.00  0.00     0.165 A 
ATOM      2  C   UNL     1      34.120 -19.365 -12.339  1.00  0.00     0.204 A 
ATOM      3  C   UNL     1      33.503 -20.559 -12.738  1.00  0.00     0.205 A 
ATOM      4  C   UNL     1      32.966 -21.429 -11.775  1.00  0.00     0.184 A 
ATOM      5  C   UNL     1      33.053 -21.096 -10.406  1.00  0.00     0.025 A 
ATOM      6  C   UNL     1      33.672 -19.904 -10.010  1.00  0.00     0.062 A 
ATOM      7  C   UNL     1      32.511 -21.981  -9.468  1.00  0.00     0.020 A 
ATOM      8  C   UNL     1      31.905 -23.157  -9.906  1.00  0.00     0.094 A 
ATOM      9  C   UNL     1      31.855 -23.422 -11.277  1.00  0.00     0.336 A 
ATOM     10  O   UNL     1      31.312 -24.479 -11.694  1.00  0.00    -0.246 OA
ATOM     11  O   UNL     1      32.378 -22.564 -12.147  1.00  0.00    -0.419 OA
ENDROOT
BRANCH   1  12
ATOM     12  O   UNL     1      34.836 -17.825 -10.614  1.00  0.00    -0.493 OA
ATOM     13  C   UNL     1      34.152 -16.601 -10.361  1.00  0.00     0.278 C 
ENDBRANCH   1  12
BRANCH   2  14
ATOM     14  O   UNL     1      34.644 -18.518 -13.317  1.00  0.00    -0.502 OA
ATOM     15  H   UNL     1      34.105 -18.223 -14.123  1.00  0.00     0.293 HD
ENDBRANCH   2  14
BRANCH   3  16
ATOM     16  O   UNL     1      33.429 -20.864 -14.098  1.00  0.00    -0.502 OA
ATOM     17  H   UNL     1      32.996 -20.240 -14.768  1.00  0.00     0.293 HD
ENDBRANCH   3  16
TORSDOF 3
ENDMDL
MODEL 8
REMARK VINA RESULT:    -4.118      7.481      8.319
REMARK INTER + INTRA:          -4.668
REMARK INTER:                  -4.667
REMARK INTRA:                  -0.001
REMARK UNBOUND:                -0.069
REMARK SMILES COc1cc2ccc(=O)oc2c(O)c1O
REMARK SMILES IDX 3 1 14 2 12 3 11 4 5 5 4 6 6 7 7 8 8 9 9 10 10 11 2 12 1 13
REMARK SMILES IDX 15 14 13 16
REMARK H PARENT 15 15 13 17
REMARK Flexibility Score: inf
ROOT
ATOM      1  C   UNL     1      33.522 -19.981 -11.979  1.00  0.00     0.165 A 
ATOM      2  C   UNL     1      33.502 -20.057 -10.573  1.00  0.00     0.204 A 
ATOM      3  C   UNL     1      33.051 -21.219  -9.930  1.00  0.00     0.205 A 
ATOM      4  C   UNL     1      32.617 -22.319 -10.689  1.00  0.00     0.184 A 
ATOM      5  C   UNL     1      32.637 -22.247 -12.098  1.00  0.00     0.025 A 
ATOM      6  C   UNL     1      33.086 -21.085 -12.737  1.00  0.00     0.062 A 
ATOM      7  C   UNL     1      32.199 -23.357 -12.829  1.00  0.00     0.020 A 
ATOM      8  C   UNL     1      31.759 -24.493 -12.153  1.00  0.00     0.094 A 
ATOM      9  C   UNL     1      31.767 -24.494 -10.755  1.00  0.00     0.336 A 
ATOM     10  O   UNL     1      31.374 -25.510 -10.124  1.00  0.00    -0.246 OA
ATOM     11  O   UNL     1      32.189 -23.425 -10.085  1.00  0.00    -0.419 OA
ENDROOT
BRANCH   1  12
ATOM     12  O   UNL     1      33.980 -18.801 -12.586  1.00  0.00    -0.493 OA
ATOM     13  C   UNL     1      35.352 -18.462 -12.765  1.00  0.00     0.278 C 
ENDBRANCH   1  12
BRANCH   2  14
ATOM     14  O   UNL     1      33.928 -18.979  -9.795  1.00  0.00    -0.502 OA
ATOM     15  H   UNL     1      34.343 -19.104  -8.879  1.00  0.00     0.293 HD
ENDBRANCH   2  14
BRANCH   3  16
ATOM     16  O   UNL     1      33.043 -21.264  -8.536  1.00  0.00    -0.502 OA
ATOM     17  H   UNL     1      33.730 -20.773  -7.976  1.00  0.00     0.293 HD
ENDBRANCH   3  16
TORSDOF 3
ENDMDL
MODEL 9
REMARK VINA RESULT:    -4.110      1.293      1.983
REMARK INTER + INTRA:          -4.659
REMARK INTER:                  -4.610
REMARK INTRA:                  -0.049
REMARK UNBOUND:                -0.069
REMARK SMILES COc1cc2ccc(=O)oc2c(O)c1O
REMARK SMILES IDX 3 1 14 2 12 3 11 4 5 5 4 6 6 7 7 8 8 9 9 10 10 11 2 12 1 13
REMARK SMILES IDX 15 14 13 16
REMARK H PARENT 15 15 13 17
REMARK Flexibility Score: inf
ROOT
ATOM      1  C   UNL     1      27.139 -16.132  -7.336  1.00  0.00     0.165 A 
ATOM      2  C   UNL     1      26.873 -16.209  -5.956  1.00  0.00     0.204 A 
ATOM      3  C   UNL     1      27.137 -17.389  -5.245  1.00  0.00     0.205 A 
ATOM      4  C   UNL     1      27.673 -18.504  -5.910  1.00  0.00     0.184 A 
ATOM      5  C   UNL     1      27.942 -18.431  -7.294  1.00  0.00     0.025 A 
ATOM      6  C   UNL     1      27.676 -17.252  -8.000  1.00  0.00     0.062 A 
ATOM      7  C   UNL     1      28.475 -19.557  -7.930  1.00  0.00     0.020 A 
ATOM      8  C   UNL     1      28.724 -20.710  -7.189  1.00  0.00     0.094 A 
ATOM      9  C   UNL     1      28.433 -20.711  -5.822  1.00  0.00     0.336 A 
ATOM     10  O   UNL     1      28.650 -21.743  -5.133  1.00  0.00    -0.246 OA
ATOM     11  O   UNL     1      27.927 -19.627  -5.242  1.00  0.00    -0.419 OA
ENDROOT
BRANCH   1  12
ATOM     12  O   UNL     1      26.861 -14.933  -8.013  1.00  0.00    -0.493 OA
ATOM     13  C   UNL     1      27.422 -14.563  -9.269  1.00  0.00     0.278 C 
ENDBRANCH   1  12
BRANCH   2  14
ATOM     14  O   UNL     1      26.341 -15.115  -5.270  1.00  0.00    -0.502 OA
ATOM     15  H   UNL     1      26.840 -14.238  -5.180  1.00  0.00     0.293 HD
ENDBRANCH   2  14
BRANCH   3  16
ATOM     16  O   UNL     1      26.863 -17.435  -3.878  1.00  0.00    -0.502 OA
ATOM     17  H   UNL     1      26.959 -18.286  -3.337  1.00  0.00     0.293 HD
ENDBRANCH   3  16
TORSDOF 3
ENDMDL
