MODEL 1
REMARK VINA RESULT:    -3.288      0.000      0.000
REMARK INTER + INTRA:          -3.504
REMARK INTER:                  -3.480
REMARK INTRA:                  -0.024
REMARK UNBOUND:                -0.024
REMARK SMILES O=C([O-])c1cccnc1
REMARK SMILES IDX 4 1 5 2 9 3 6 4 8 5 7 6 2 7 1 8 3 9
REMARK H PARENT
REMARK Flexibility Score: inf
ROOT
ATOM      1  C   UNL     1      63.141  34.710  61.244  1.00  0.00     0.016 A 
ATOM      2  C   UNL     1      64.480  34.700  61.668  1.00  0.00     0.013 A 
ATOM      3  C   UNL     1      62.457  35.938  61.221  1.00  0.00     0.120 A 
ATOM      4  C   UNL     1      65.103  35.889  62.052  1.00  0.00     0.021 A 
ATOM      5  N   UNL     1      63.087  37.081  61.601  1.00  0.00    -0.264 NA
ATOM      6  C   UNL     1      64.382  37.083  62.012  1.00  0.00     0.111 A 
ENDROOT
BRANCH   1   7
ATOM      7  C   UNL     1      62.462  33.462  60.832  1.00  0.00     0.073 C 
ATOM      8  O   UNL     1      63.073  32.361  60.865  1.00  0.00    -0.545 OA
ATOM      9  O   UNL     1      61.141  33.488  60.402  1.00  0.00    -0.545 OA
ENDBRANCH   1   7
TORSDOF 1
ENDMDL
MODEL 2
REMARK VINA RESULT:    -3.270      0.955      1.933
REMARK INTER + INTRA:          -3.485
REMARK INTER:                  -3.461
REMARK INTRA:                  -0.024
REMARK UNBOUND:                -0.024
REMARK SMILES O=C([O-])c1cccnc1
REMARK SMILES IDX 4 1 5 2 9 3 6 4 8 5 7 6 2 7 1 8 3 9
REMARK H PARENT
REMARK Flexibility Score: inf
ROOT
ATOM      1  C   UNL     1      63.141  34.637  61.228  1.00  0.00     0.016 A 
ATOM      2  C   UNL     1      62.543  35.908  61.245  1.00  0.00     0.013 A 
ATOM      3  C   UNL     1      64.488  34.528  61.615  1.00  0.00     0.120 A 
ATOM      4  C   UNL     1      63.280  37.026  61.641  1.00  0.00     0.021 A 
ATOM      5  N   UNL     1      65.183  35.632  61.996  1.00  0.00    -0.264 NA
ATOM      6  C   UNL     1      64.614  36.866  62.017  1.00  0.00     0.111 A 
ENDROOT
BRANCH   1   7
ATOM      7  C   UNL     1      62.376  33.440  60.813  1.00  0.00     0.073 C 
ATOM      8  O   UNL     1      61.173  33.543  60.455  1.00  0.00    -0.545 OA
ATOM      9  O   UNL     1      62.976  32.187  60.813  1.00  0.00    -0.545 OA
ENDBRANCH   1   7
TORSDOF 1
ENDMDL
MODEL 3
REMARK VINA RESULT:    -3.258      1.179      1.893
REMARK INTER + INTRA:          -3.472
REMARK INTER:                  -3.449
REMARK INTRA:                  -0.023
REMARK UNBOUND:                -0.024
REMARK SMILES O=C([O-])c1cccnc1
REMARK SMILES IDX 4 1 5 2 9 3 6 4 8 5 7 6 2 7 1 8 3 9
REMARK H PARENT
REMARK Flexibility Score: inf
ROOT
ATOM      1  C   UNL     1      63.430  34.132  61.141  1.00  0.00     0.016 A 
ATOM      2  C   UNL     1      62.277  34.900  60.908  1.00  0.00     0.013 A 
ATOM      3  C   UNL     1      64.571  34.778  61.647  1.00  0.00     0.120 A 
ATOM      4  C   UNL     1      62.279  36.269  61.180  1.00  0.00     0.021 A 
ATOM      5  N   UNL     1      64.547  36.113  61.903  1.00  0.00    -0.264 NA
ATOM      6  C   UNL     1      63.437  36.865  61.682  1.00  0.00     0.111 A 
ENDROOT
BRANCH   1   7
ATOM      7  C   UNL     1      63.448  32.680  60.861  1.00  0.00     0.073 C 
ATOM      8  O   UNL     1      64.433  31.974  61.205  1.00  0.00    -0.545 OA
ATOM      9  O   UNL     1      62.378  32.074  60.213  1.00  0.00    -0.545 OA
ENDBRANCH   1   7
TORSDOF 1
ENDMDL
MODEL 4
REMARK VINA RESULT:    -3.217      1.429      2.041
REMARK INTER + INTRA:          -3.429
REMARK INTER:                  -3.412
REMARK INTRA:                  -0.018
REMARK UNBOUND:                -0.024
REMARK SMILES O=C([O-])c1cccnc1
REMARK SMILES IDX 4 1 5 2 9 3 6 4 8 5 7 6 2 7 1 8 3 9
REMARK H PARENT
REMARK Flexibility Score: inf
ROOT
ATOM      1  C   UNL     1      62.792  33.668  60.954  1.00  0.00     0.016 A 
ATOM      2  C   UNL     1      62.077  34.877  60.950  1.00  0.00     0.013 A 
ATOM      3  C   UNL     1      64.151  33.697  61.313  1.00  0.00     0.120 A 
ATOM      4  C   UNL     1      62.712  36.070  61.299  1.00  0.00     0.021 A 
ATOM      5  N   UNL     1      64.746  34.873  61.648  1.00  0.00    -0.264 NA
ATOM      6  C   UNL     1      64.064  36.047  61.649  1.00  0.00     0.111 A 
ENDROOT
BRANCH   1   7
ATOM      7  C   UNL     1      62.136  32.393  60.587  1.00  0.00     0.073 C 
ATOM      8  O   UNL     1      62.571  31.704  59.627  1.00  0.00    -0.545 OA
ATOM      9  O   UNL     1      61.031  31.941  61.298  1.00  0.00    -0.545 OA
ENDBRANCH   1   7
TORSDOF 1
ENDMDL
MODEL 5
REMARK VINA RESULT:    -3.181      1.158      1.632
REMARK INTER + INTRA:          -3.390
REMARK INTER:                  -3.367
REMARK INTRA:                  -0.023
REMARK UNBOUND:                -0.024
REMARK SMILES O=C([O-])c1cccnc1
REMARK SMILES IDX 4 1 5 2 9 3 6 4 8 5 7 6 2 7 1 8 3 9
REMARK H PARENT
REMARK Flexibility Score: inf
ROOT
ATOM      1  C   UNL     1      63.382  33.951  61.100  1.00  0.00     0.016 A 
ATOM      2  C   UNL     1      64.521  34.603  61.602  1.00  0.00     0.013 A 
ATOM      3  C   UNL     1      62.225  34.715  60.864  1.00  0.00     0.120 A 
ATOM      4  C   UNL     1      64.490  35.976  61.853  1.00  0.00     0.021 A 
ATOM      5  N   UNL     1      62.222  36.050  61.118  1.00  0.00    -0.264 NA
ATOM      6  C   UNL     1      63.318  36.691  61.603  1.00  0.00     0.111 A 
ENDROOT
BRANCH   1   7
ATOM      7  C   UNL     1      63.394  32.498  60.826  1.00  0.00     0.073 C 
ATOM      8  O   UNL     1      62.434  31.953  60.219  1.00  0.00    -0.545 OA
ATOM      9  O   UNL     1      64.465  31.713  61.236  1.00  0.00    -0.545 OA
ENDBRANCH   1   7
TORSDOF 1
ENDMDL
MODEL 6
REMARK VINA RESULT:    -3.146      3.601      4.927
REMARK INTER + INTRA:          -3.354
REMARK INTER:                  -3.337
REMARK INTRA:                  -0.016
REMARK UNBOUND:                -0.024
REMARK SMILES O=C([O-])c1cccnc1
REMARK SMILES IDX 4 1 5 2 9 3 6 4 8 5 7 6 2 7 1 8 3 9
REMARK H PARENT
REMARK Flexibility Score: inf
ROOT
ATOM      1  C   UNL     1      63.406  32.099  61.077  1.00  0.00     0.016 A 
ATOM      2  C   UNL     1      62.004  32.169  61.108  1.00  0.00     0.013 A 
ATOM      3  C   UNL     1      64.023  30.894  61.458  1.00  0.00     0.120 A 
ATOM      4  C   UNL     1      61.254  31.061  61.507  1.00  0.00     0.021 A 
ATOM      5  N   UNL     1      63.270  29.830  61.844  1.00  0.00    -0.264 NA
ATOM      6  C   UNL     1      61.913  29.887  61.876  1.00  0.00     0.111 A 
ENDROOT
BRANCH   1   7
ATOM      7  C   UNL     1      64.219  33.261  60.657  1.00  0.00     0.073 C 
ATOM      8  O   UNL     1      64.669  33.336  59.482  1.00  0.00    -0.545 OA
ATOM      9  O   UNL     1      64.497  34.287  61.553  1.00  0.00    -0.545 OA
ENDBRANCH   1   7
TORSDOF 1
ENDMDL
MODEL 7
REMARK VINA RESULT:    -3.139      2.807      3.921
REMARK INTER + INTRA:          -3.347
REMARK INTER:                  -3.323
REMARK INTRA:                  -0.023
REMARK UNBOUND:                -0.024
REMARK SMILES O=C([O-])c1cccnc1
REMARK SMILES IDX 4 1 5 2 9 3 6 4 8 5 7 6 2 7 1 8 3 9
REMARK H PARENT
REMARK Flexibility Score: inf
ROOT
ATOM      1  C   UNL     1      63.619  34.733  61.275  1.00  0.00     0.016 A 
ATOM      2  C   UNL     1      62.249  34.872  60.997  1.00  0.00     0.013 A 
ATOM      3  C   UNL     1      64.192  33.453  61.184  1.00  0.00     0.120 A 
ATOM      4  C   UNL     1      61.488  33.757  60.639  1.00  0.00     0.021 A 
ATOM      5  N   UNL     1      63.429  32.383  60.833  1.00  0.00    -0.264 NA
ATOM      6  C   UNL     1      62.103  32.507  60.562  1.00  0.00     0.111 A 
ENDROOT
BRANCH   1   7
ATOM      7  C   UNL     1      64.442  35.902  61.656  1.00  0.00     0.073 C 
ATOM      8  O   UNL     1      65.695  35.803  61.731  1.00  0.00    -0.545 OA
ATOM      9  O   UNL     1      63.842  37.124  61.936  1.00  0.00    -0.545 OA
ENDBRANCH   1   7
TORSDOF 1
ENDMDL
MODEL 8
REMARK VINA RESULT:    -3.107     14.093     15.598
REMARK INTER + INTRA:          -3.312
REMARK INTER:                  -3.296
REMARK INTRA:                  -0.016
REMARK UNBOUND:                -0.024
REMARK SMILES O=C([O-])c1cccnc1
REMARK SMILES IDX 4 1 5 2 9 3 6 4 8 5 7 6 2 7 1 8 3 9
REMARK H PARENT
REMARK Flexibility Score: inf
ROOT
ATOM      1  C   UNL     1      56.189  27.847  50.336  1.00  0.00     0.016 A 
ATOM      2  C   UNL     1      54.931  28.470  50.283  1.00  0.00     0.013 A 
ATOM      3  C   UNL     1      56.258  26.463  50.104  1.00  0.00     0.120 A 
ATOM      4  C   UNL     1      53.787  27.720  50.004  1.00  0.00     0.021 A 
ATOM      5  N   UNL     1      55.129  25.755  49.834  1.00  0.00    -0.264 NA
ATOM      6  C   UNL     1      53.908  26.348  49.779  1.00  0.00     0.111 A 
ENDROOT
BRANCH   1   7
ATOM      7  C   UNL     1      57.413  28.624  50.631  1.00  0.00     0.073 C 
ATOM      8  O   UNL     1      57.848  28.709  51.810  1.00  0.00    -0.545 OA
ATOM      9  O   UNL     1      58.098  29.273  49.610  1.00  0.00    -0.545 OA
ENDBRANCH   1   7
TORSDOF 1
ENDMDL
MODEL 9
REMARK VINA RESULT:    -3.047     14.789     15.763
REMARK INTER + INTRA:          -3.249
REMARK INTER:                  -3.225
REMARK INTRA:                  -0.024
REMARK UNBOUND:                -0.024
REMARK SMILES O=C([O-])c1cccnc1
REMARK SMILES IDX 4 1 5 2 9 3 6 4 8 5 7 6 2 7 1 8 3 9
REMARK H PARENT
REMARK Flexibility Score: inf
ROOT
ATOM      1  C   UNL     1      55.340  27.389  50.112  1.00  0.00     0.016 A 
ATOM      2  C   UNL     1      56.237  28.436  50.378  1.00  0.00     0.013 A 
ATOM      3  C   UNL     1      55.851  26.086  49.989  1.00  0.00     0.120 A 
ATOM      4  C   UNL     1      57.602  28.173  50.516  1.00  0.00     0.021 A 
ATOM      5  N   UNL     1      57.184  25.856  50.127  1.00  0.00    -0.264 NA
ATOM      6  C   UNL     1      58.061  26.861  50.386  1.00  0.00     0.111 A 
ENDROOT
BRANCH   1   7
ATOM      7  C   UNL     1      53.891  27.647  49.963  1.00  0.00     0.073 C 
ATOM      8  O   UNL     1      53.437  28.819  50.056  1.00  0.00    -0.545 OA
ATOM      9  O   UNL     1      53.010  26.600  49.717  1.00  0.00    -0.545 OA
ENDBRANCH   1   7
TORSDOF 1
ENDMDL
