MODEL 1
REMARK VINA RESULT:    -4.768      0.000      0.000
REMARK INTER + INTRA:          -5.368
REMARK INTER:                  -5.326
REMARK INTRA:                  -0.043
REMARK UNBOUND:                -0.043
REMARK SMILES O=C([O-])c1ccc(O)c(O)c1
REMARK SMILES IDX 4 1 11 2 5 3 9 4 6 5 7 6 2 7 1 8 3 9 10 10 8 12
REMARK H PARENT 10 11 8 13
REMARK Flexibility Score: inf
ROOT
ATOM      1  C   UNL     1      35.411 -31.102  10.013  1.00  0.00     0.001 A 
ATOM      2  C   UNL     1      34.472 -31.635  10.913  1.00  0.00     0.060 A 
ATOM      3  C   UNL     1      35.747 -29.740  10.106  1.00  0.00     0.014 A 
ATOM      4  C   UNL     1      33.878 -30.823  11.891  1.00  0.00     0.158 A 
ATOM      5  C   UNL     1      35.156 -28.930  11.078  1.00  0.00     0.051 A 
ATOM      6  C   UNL     1      34.223 -29.463  11.972  1.00  0.00     0.157 A 
ENDROOT
BRANCH   1   7
ATOM      7  C   UNL     1      36.034 -31.964   8.984  1.00  0.00     0.072 C 
ATOM      8  O   UNL     1      37.148 -31.659   8.480  1.00  0.00    -0.545 OA
ATOM      9  O   UNL     1      35.398 -33.125   8.558  1.00  0.00    -0.545 OA
ENDBRANCH   1   7
BRANCH   4  10
ATOM     10  O   UNL     1      32.948 -31.361  12.778  1.00  0.00    -0.504 OA
ATOM     11  H   UNL     1      32.455 -32.222  12.574  1.00  0.00     0.293 HD
ENDBRANCH   4  10
BRANCH   6  12
ATOM     12  O   UNL     1      33.650 -28.630  12.932  1.00  0.00    -0.504 OA
ATOM     13  H   UNL     1      33.012 -28.980  13.637  1.00  0.00     0.293 HD
ENDBRANCH   6  12
TORSDOF 3
ENDMDL
MODEL 2
REMARK VINA RESULT:    -4.489      1.169      4.255
REMARK INTER + INTRA:          -5.057
REMARK INTER:                  -5.021
REMARK INTRA:                  -0.036
REMARK UNBOUND:                -0.043
REMARK SMILES O=C([O-])c1ccc(O)c(O)c1
REMARK SMILES IDX 4 1 11 2 5 3 9 4 6 5 7 6 2 7 1 8 3 9 10 10 8 12
REMARK H PARENT 10 11 8 13
REMARK Flexibility Score: inf
ROOT
ATOM      1  C   UNL     1      34.888 -29.839  11.058  1.00  0.00     0.001 A 
ATOM      2  C   UNL     1      34.226 -30.764  10.233  1.00  0.00     0.060 A 
ATOM      3  C   UNL     1      36.287 -29.728  10.974  1.00  0.00     0.014 A 
ATOM      4  C   UNL     1      34.949 -31.568   9.337  1.00  0.00     0.158 A 
ATOM      5  C   UNL     1      37.008 -30.528  10.083  1.00  0.00     0.051 A 
ATOM      6  C   UNL     1      36.347 -31.447   9.264  1.00  0.00     0.157 A 
ENDROOT
BRANCH   1   7
ATOM      7  C   UNL     1      34.121 -28.994  12.000  1.00  0.00     0.072 C 
ATOM      8  O   UNL     1      33.705 -27.857  11.651  1.00  0.00    -0.545 OA
ATOM      9  O   UNL     1      33.848 -29.444  13.287  1.00  0.00    -0.545 OA
ENDBRANCH   1   7
BRANCH   4  10
ATOM     10  O   UNL     1      34.284 -32.482   8.524  1.00  0.00    -0.504 OA
ATOM     11  H   UNL     1      34.497 -33.473   8.553  1.00  0.00     0.293 HD
ENDBRANCH   4  10
BRANCH   6  12
ATOM     12  O   UNL     1      37.093 -32.232   8.385  1.00  0.00    -0.504 OA
ATOM     13  H   UNL     1      37.052 -32.103   7.381  1.00  0.00     0.293 HD
ENDBRANCH   6  12
TORSDOF 3
ENDMDL
MODEL 3
REMARK VINA RESULT:    -4.283      1.201      2.277
REMARK INTER + INTRA:          -4.827
REMARK INTER:                  -4.789
REMARK INTRA:                  -0.038
REMARK UNBOUND:                -0.043
REMARK SMILES O=C([O-])c1ccc(O)c(O)c1
REMARK SMILES IDX 4 1 11 2 5 3 9 4 6 5 7 6 2 7 1 8 3 9 10 10 8 12
REMARK H PARENT 10 11 8 13
REMARK Flexibility Score: inf
ROOT
ATOM      1  C   UNL     1      36.074 -31.557   9.611  1.00  0.00     0.001 A 
ATOM      2  C   UNL     1      36.040 -30.186   9.922  1.00  0.00     0.060 A 
ATOM      3  C   UNL     1      35.260 -32.442  10.341  1.00  0.00     0.014 A 
ATOM      4  C   UNL     1      35.207 -29.705  10.944  1.00  0.00     0.158 A 
ATOM      5  C   UNL     1      34.432 -31.964  11.359  1.00  0.00     0.051 A 
ATOM      6  C   UNL     1      34.400 -30.601  11.665  1.00  0.00     0.157 A 
ENDROOT
BRANCH   1   7
ATOM      7  C   UNL     1      36.953 -32.058   8.532  1.00  0.00     0.072 C 
ATOM      8  O   UNL     1      36.798 -31.667   7.345  1.00  0.00    -0.545 OA
ATOM      9  O   UNL     1      37.965 -32.969   8.814  1.00  0.00    -0.545 OA
ENDBRANCH   1   7
BRANCH   4  10
ATOM     10  O   UNL     1      35.181 -28.345  11.244  1.00  0.00    -0.504 OA
ATOM     11  H   UNL     1      35.634 -27.660  10.649  1.00  0.00     0.293 HD
ENDBRANCH   4  10
BRANCH   6  12
ATOM     12  O   UNL     1      33.563 -30.154  12.687  1.00  0.00    -0.504 OA
ATOM     13  H   UNL     1      32.857 -30.749  13.105  1.00  0.00     0.293 HD
ENDBRANCH   6  12
TORSDOF 3
ENDMDL
MODEL 4
REMARK VINA RESULT:    -4.092      1.501      4.622
REMARK INTER + INTRA:          -4.613
REMARK INTER:                  -4.569
REMARK INTRA:                  -0.044
REMARK UNBOUND:                -0.043
REMARK SMILES O=C([O-])c1ccc(O)c(O)c1
REMARK SMILES IDX 4 1 11 2 5 3 9 4 6 5 7 6 2 7 1 8 3 9 10 10 8 12
REMARK H PARENT 10 11 8 13
REMARK Flexibility Score: inf
ROOT
ATOM      1  C   UNL     1      35.247 -29.696  10.816  1.00  0.00     0.001 A 
ATOM      2  C   UNL     1      36.604 -30.021  10.648  1.00  0.00     0.060 A 
ATOM      3  C   UNL     1      34.270 -30.528  10.242  1.00  0.00     0.014 A 
ATOM      4  C   UNL     1      36.982 -31.159   9.919  1.00  0.00     0.158 A 
ATOM      5  C   UNL     1      34.645 -31.662   9.516  1.00  0.00     0.051 A 
ATOM      6  C   UNL     1      35.995 -31.983   9.350  1.00  0.00     0.157 A 
ENDROOT
BRANCH   1   7
ATOM      7  C   UNL     1      34.855 -28.495  11.586  1.00  0.00     0.072 C 
ATOM      8  O   UNL     1      33.643 -28.259  11.834  1.00  0.00    -0.545 OA
ATOM      9  O   UNL     1      35.822 -27.608  12.047  1.00  0.00    -0.545 OA
ENDBRANCH   1   7
BRANCH   4  10
ATOM     10  O   UNL     1      38.330 -31.473   9.759  1.00  0.00    -0.504 OA
ATOM     11  H   UNL     1      38.691 -32.395   9.977  1.00  0.00     0.293 HD
ENDBRANCH   4  10
BRANCH   6  12
ATOM     12  O   UNL     1      36.338 -33.119   8.620  1.00  0.00    -0.504 OA
ATOM     13  H   UNL     1      37.280 -33.278   8.282  1.00  0.00     0.293 HD
ENDBRANCH   6  12
TORSDOF 3
ENDMDL
MODEL 5
REMARK VINA RESULT:    -3.741     19.141     20.575
REMARK INTER + INTRA:          -4.221
REMARK INTER:                  -4.183
REMARK INTRA:                  -0.039
REMARK UNBOUND:                -0.043
REMARK SMILES O=C([O-])c1ccc(O)c(O)c1
REMARK SMILES IDX 4 1 11 2 5 3 9 4 6 5 7 6 2 7 1 8 3 9 10 10 8 12
REMARK H PARENT 10 11 8 13
REMARK Flexibility Score: inf
ROOT
ATOM      1  C   UNL     1      23.033 -15.551   7.318  1.00  0.00     0.001 A 
ATOM      2  C   UNL     1      22.001 -16.041   6.499  1.00  0.00     0.060 A 
ATOM      3  C   UNL     1      23.294 -14.170   7.334  1.00  0.00     0.014 A 
ATOM      4  C   UNL     1      21.242 -15.167   5.706  1.00  0.00     0.158 A 
ATOM      5  C   UNL     1      22.538 -13.299   6.545  1.00  0.00     0.051 A 
ATOM      6  C   UNL     1      21.514 -13.788   5.731  1.00  0.00     0.157 A 
ENDROOT
BRANCH   1   7
ATOM      7  C   UNL     1      23.830 -16.478   8.152  1.00  0.00     0.072 C 
ATOM      8  O   UNL     1      24.372 -17.494   7.643  1.00  0.00    -0.545 OA
ATOM      9  O   UNL     1      23.991 -16.239   9.513  1.00  0.00    -0.545 OA
ENDBRANCH   1   7
BRANCH   4  10
ATOM     10  O   UNL     1      20.222 -15.663   4.897  1.00  0.00    -0.504 OA
ATOM     11  H   UNL     1      19.947 -15.194   4.041  1.00  0.00     0.293 HD
ENDBRANCH   4  10
BRANCH   6  12
ATOM     12  O   UNL     1      20.778 -12.895   4.954  1.00  0.00    -0.504 OA
ATOM     13  H   UNL     1      20.057 -12.303   5.351  1.00  0.00     0.293 HD
ENDBRANCH   6  12
TORSDOF 3
ENDMDL
MODEL 6
REMARK VINA RESULT:    -3.510      2.226      3.407
REMARK INTER + INTRA:          -3.963
REMARK INTER:                  -3.919
REMARK INTRA:                  -0.044
REMARK UNBOUND:                -0.043
REMARK SMILES O=C([O-])c1ccc(O)c(O)c1
REMARK SMILES IDX 4 1 11 2 5 3 9 4 6 5 7 6 2 7 1 8 3 9 10 10 8 12
REMARK H PARENT 10 11 8 13
REMARK Flexibility Score: inf
ROOT
ATOM      1  C   UNL     1      37.628 -31.468  10.107  1.00  0.00     0.001 A 
ATOM      2  C   UNL     1      36.817 -32.298   9.314  1.00  0.00     0.060 A 
ATOM      3  C   UNL     1      37.059 -30.329  10.706  1.00  0.00     0.014 A 
ATOM      4  C   UNL     1      35.460 -31.998   9.121  1.00  0.00     0.158 A 
ATOM      5  C   UNL     1      35.709 -30.030  10.514  1.00  0.00     0.051 A 
ATOM      6  C   UNL     1      34.905 -30.857   9.725  1.00  0.00     0.157 A 
ENDROOT
BRANCH   1   7
ATOM      7  C   UNL     1      39.058 -31.790  10.308  1.00  0.00     0.072 C 
ATOM      8  O   UNL     1      39.555 -32.839   9.818  1.00  0.00    -0.545 OA
ATOM      9  O   UNL     1      39.876 -30.937  11.041  1.00  0.00    -0.545 OA
ENDBRANCH   1   7
BRANCH   4  10
ATOM     10  O   UNL     1      34.665 -32.828   8.333  1.00  0.00    -0.504 OA
ATOM     11  H   UNL     1      34.785 -32.882   7.328  1.00  0.00     0.293 HD
ENDBRANCH   4  10
BRANCH   6  12
ATOM     12  O   UNL     1      33.561 -30.532   9.551  1.00  0.00    -0.504 OA
ATOM     13  H   UNL     1      32.859 -31.233   9.344  1.00  0.00     0.293 HD
ENDBRANCH   6  12
TORSDOF 3
ENDMDL
MODEL 7
REMARK VINA RESULT:    -3.198     19.599     20.951
REMARK INTER + INTRA:          -3.615
REMARK INTER:                  -3.577
REMARK INTRA:                  -0.038
REMARK UNBOUND:                -0.043
REMARK SMILES O=C([O-])c1ccc(O)c(O)c1
REMARK SMILES IDX 4 1 11 2 5 3 9 4 6 5 7 6 2 7 1 8 3 9 10 10 8 12
REMARK H PARENT 10 11 8 13
REMARK Flexibility Score: inf
ROOT
ATOM      1  C   UNL     1      21.528 -15.263   5.759  1.00  0.00     0.001 A 
ATOM      2  C   UNL     1      22.375 -15.879   6.698  1.00  0.00     0.060 A 
ATOM      3  C   UNL     1      21.500 -13.860   5.684  1.00  0.00     0.014 A 
ATOM      4  C   UNL     1      23.181 -15.107   7.548  1.00  0.00     0.158 A 
ATOM      5  C   UNL     1      22.303 -13.090   6.530  1.00  0.00     0.051 A 
ATOM      6  C   UNL     1      23.143 -13.705   7.462  1.00  0.00     0.157 A 
ENDROOT
BRANCH   1   7
ATOM      7  C   UNL     1      20.681 -16.083   4.865  1.00  0.00     0.072 C 
ATOM      8  O   UNL     1      19.875 -16.927   5.341  1.00  0.00    -0.545 OA
ATOM      9  O   UNL     1      20.763 -15.934   3.485  1.00  0.00    -0.545 OA
ENDBRANCH   1   7
BRANCH   4  10
ATOM     10  O   UNL     1      24.016 -15.727   8.474  1.00  0.00    -0.504 OA
ATOM     11  H   UNL     1      23.679 -16.462   9.086  1.00  0.00     0.293 HD
ENDBRANCH   4  10
BRANCH   6  12
ATOM     12  O   UNL     1      23.931 -12.911   8.293  1.00  0.00    -0.504 OA
ATOM     13  H   UNL     1      24.631 -13.305   8.911  1.00  0.00     0.293 HD
ENDBRANCH   6  12
TORSDOF 3
ENDMDL
MODEL 8
REMARK VINA RESULT:    -3.088      2.126      4.064
REMARK INTER + INTRA:          -3.492
REMARK INTER:                  -3.449
REMARK INTRA:                  -0.043
REMARK UNBOUND:                -0.043
REMARK SMILES O=C([O-])c1ccc(O)c(O)c1
REMARK SMILES IDX 4 1 11 2 5 3 9 4 6 5 7 6 2 7 1 8 3 9 10 10 8 12
REMARK H PARENT 10 11 8 13
REMARK Flexibility Score: inf
ROOT
ATOM      1  C   UNL     1      36.065 -28.765  11.453  1.00  0.00     0.001 A 
ATOM      2  C   UNL     1      34.667 -28.908  11.474  1.00  0.00     0.060 A 
ATOM      3  C   UNL     1      36.828 -29.636  10.656  1.00  0.00     0.014 A 
ATOM      4  C   UNL     1      34.039 -29.904  10.711  1.00  0.00     0.158 A 
ATOM      5  C   UNL     1      36.204 -30.628   9.896  1.00  0.00     0.051 A 
ATOM      6  C   UNL     1      34.814 -30.768   9.918  1.00  0.00     0.157 A 
ENDROOT
BRANCH   1   7
ATOM      7  C   UNL     1      36.721 -27.712  12.260  1.00  0.00     0.072 C 
ATOM      8  O   UNL     1      37.883 -27.316  11.976  1.00  0.00    -0.545 OA
ATOM      9  O   UNL     1      36.064 -27.144  13.345  1.00  0.00    -0.545 OA
ENDBRANCH   1   7
BRANCH   4  10
ATOM     10  O   UNL     1      32.653 -30.038  10.738  1.00  0.00    -0.504 OA
ATOM     11  H   UNL     1      32.068 -29.408  11.277  1.00  0.00     0.293 HD
ENDBRANCH   4  10
BRANCH   6  12
ATOM     12  O   UNL     1      34.220 -31.768   9.150  1.00  0.00    -0.504 OA
ATOM     13  H   UNL     1      34.583 -32.713   9.121  1.00  0.00     0.293 HD
ENDBRANCH   6  12
TORSDOF 3
ENDMDL
MODEL 9
REMARK VINA RESULT:    -3.053     19.938     21.430
REMARK INTER + INTRA:          -3.453
REMARK INTER:                  -3.410
REMARK INTRA:                  -0.043
REMARK UNBOUND:                -0.043
REMARK SMILES O=C([O-])c1ccc(O)c(O)c1
REMARK SMILES IDX 4 1 11 2 5 3 9 4 6 5 7 6 2 7 1 8 3 9 10 10 8 12
REMARK H PARENT 10 11 8 13
REMARK Flexibility Score: inf
ROOT
ATOM      1  C   UNL     1      21.406 -14.462   5.756  1.00  0.00     0.001 A 
ATOM      2  C   UNL     1      22.068 -13.535   6.580  1.00  0.00     0.060 A 
ATOM      3  C   UNL     1      21.685 -15.831   5.910  1.00  0.00     0.014 A 
ATOM      4  C   UNL     1      22.994 -13.966   7.541  1.00  0.00     0.158 A 
ATOM      5  C   UNL     1      22.607 -16.262   6.866  1.00  0.00     0.051 A 
ATOM      6  C   UNL     1      23.264 -15.338   7.684  1.00  0.00     0.157 A 
ENDROOT
BRANCH   1   7
ATOM      7  C   UNL     1      20.430 -14.000   4.744  1.00  0.00     0.072 C 
ATOM      8  O   UNL     1      19.875 -12.875   4.854  1.00  0.00    -0.545 OA
ATOM      9  O   UNL     1      20.110 -14.805   3.656  1.00  0.00    -0.545 OA
ENDBRANCH   1   7
BRANCH   4  10
ATOM     10  O   UNL     1      23.645 -13.040   8.352  1.00  0.00    -0.504 OA
ATOM     11  H   UNL     1      24.389 -12.450   7.995  1.00  0.00     0.293 HD
ENDBRANCH   4  10
BRANCH   6  12
ATOM     12  O   UNL     1      24.179 -15.798   8.629  1.00  0.00    -0.504 OA
ATOM     13  H   UNL     1      23.921 -15.961   9.595  1.00  0.00     0.293 HD
ENDBRANCH   6  12
TORSDOF 3
ENDMDL
