MODEL 1
REMARK VINA RESULT:    -3.646      0.000      0.000
REMARK INTER + INTRA:          -4.482
REMARK INTER:                  -4.179
REMARK INTRA:                  -0.303
REMARK UNBOUND:                -0.303
REMARK SMILES COC(=O)c1ccccc1O
REMARK SMILES IDX 5 1 6 2 7 3 8 4 9 5 10 6 3 7 4 8 2 9 1 10 11 11
REMARK H PARENT 11 12
REMARK Flexibility Score: inf
ROOT
ATOM      1  C   UNL     1     162.981 173.921 167.033  1.00  0.00     0.101 A 
ATOM      2  C   UNL     1     161.828 174.693 167.269  1.00  0.00     0.019 A 
ATOM      3  C   UNL     1     161.523 175.785 166.455  1.00  0.00     0.001 A 
ATOM      4  C   UNL     1     162.364 176.123 165.394  1.00  0.00     0.004 A 
ATOM      5  C   UNL     1     163.521 175.381 165.158  1.00  0.00     0.047 A 
ATOM      6  C   UNL     1     163.853 174.295 165.978  1.00  0.00     0.130 A 
ENDROOT
BRANCH   1   7
ATOM      7  C   UNL     1     163.212 172.730 167.879  1.00  0.00     0.341 C 
ATOM      8  O   UNL     1     163.715 171.683 167.387  1.00  0.00    -0.246 OA
BRANCH   7   9
ATOM      9  O   UNL     1     162.812 172.751 169.220  1.00  0.00    -0.465 OA
ATOM     10  C   UNL     1     161.920 171.788 169.770  1.00  0.00     0.282 C 
ENDBRANCH   7   9
ENDBRANCH   1   7
BRANCH   6  11
ATOM     11  O   UNL     1     165.065 173.645 165.735  1.00  0.00    -0.507 OA
ATOM     12  H   UNL     1     165.563 173.699 164.858  1.00  0.00     0.293 HD
ENDBRANCH   6  11
TORSDOF 3
ENDMDL
MODEL 2
REMARK VINA RESULT:    -3.610      1.484      4.120
REMARK INTER + INTRA:          -4.441
REMARK INTER:                  -4.154
REMARK INTRA:                  -0.287
REMARK UNBOUND:                -0.303
REMARK SMILES COC(=O)c1ccccc1O
REMARK SMILES IDX 5 1 6 2 7 3 8 4 9 5 10 6 3 7 4 8 2 9 1 10 11 11
REMARK H PARENT 11 12
REMARK Flexibility Score: inf
ROOT
ATOM      1  C   UNL     1     162.746 173.619 167.858  1.00  0.00     0.101 A 
ATOM      2  C   UNL     1     162.056 174.187 168.945  1.00  0.00     0.019 A 
ATOM      3  C   UNL     1     161.877 173.470 170.129  1.00  0.00     0.001 A 
ATOM      4  C   UNL     1     162.383 172.175 170.246  1.00  0.00     0.004 A 
ATOM      5  C   UNL     1     163.051 171.589 169.172  1.00  0.00     0.047 A 
ATOM      6  C   UNL     1     163.222 172.286 167.969  1.00  0.00     0.130 A 
ENDROOT
BRANCH   1   7
ATOM      7  C   UNL     1     162.972 174.453 166.658  1.00  0.00     0.341 C 
ATOM      8  O   UNL     1     162.074 175.238 166.247  1.00  0.00    -0.246 OA
BRANCH   7   9
ATOM      9  O   UNL     1     164.167 174.319 165.942  1.00  0.00    -0.465 OA
ATOM     10  C   UNL     1     164.525 175.190 164.876  1.00  0.00     0.282 C 
ENDBRANCH   7   9
ENDBRANCH   1   7
BRANCH   6  11
ATOM     11  O   UNL     1     163.831 171.612 166.908  1.00  0.00    -0.507 OA
ATOM     12  H   UNL     1     164.556 170.920 167.028  1.00  0.00     0.293 HD
ENDBRANCH   6  11
TORSDOF 3
ENDMDL
MODEL 3
REMARK VINA RESULT:    -3.594     15.547     16.848
REMARK INTER + INTRA:          -4.423
REMARK INTER:                  -4.145
REMARK INTRA:                  -0.278
REMARK UNBOUND:                -0.303
REMARK SMILES COC(=O)c1ccccc1O
REMARK SMILES IDX 5 1 6 2 7 3 8 4 9 5 10 6 3 7 4 8 2 9 1 10 11 11
REMARK H PARENT 11 12
REMARK Flexibility Score: inf
ROOT
ATOM      1  C   UNL     1     170.641 159.607 169.653  1.00  0.00     0.101 A 
ATOM      2  C   UNL     1     170.800 160.341 170.843  1.00  0.00     0.019 A 
ATOM      3  C   UNL     1     169.687 160.777 171.565  1.00  0.00     0.001 A 
ATOM      4  C   UNL     1     168.400 160.488 171.110  1.00  0.00     0.004 A 
ATOM      5  C   UNL     1     168.225 159.780 169.921  1.00  0.00     0.047 A 
ATOM      6  C   UNL     1     169.330 159.353 169.173  1.00  0.00     0.130 A 
ENDROOT
BRANCH   1   7
ATOM      7  C   UNL     1     171.854 159.106 168.971  1.00  0.00     0.341 C 
ATOM      8  O   UNL     1     172.757 159.906 168.603  1.00  0.00    -0.246 OA
BRANCH   7   9
ATOM      9  O   UNL     1     171.966 157.742 168.681  1.00  0.00    -0.465 OA
ATOM     10  C   UNL     1     172.732 157.250 167.588  1.00  0.00     0.282 C 
ENDBRANCH   7   9
ENDBRANCH   1   7
BRANCH   6  11
ATOM     11  O   UNL     1     169.083 158.718 167.954  1.00  0.00    -0.507 OA
ATOM     12  H   UNL     1     168.688 159.185 167.151  1.00  0.00     0.293 HD
ENDBRANCH   6  11
TORSDOF 3
ENDMDL
MODEL 4
REMARK VINA RESULT:    -3.583      3.439      5.278
REMARK INTER + INTRA:          -4.409
REMARK INTER:                  -4.114
REMARK INTRA:                  -0.295
REMARK UNBOUND:                -0.303
REMARK SMILES COC(=O)c1ccccc1O
REMARK SMILES IDX 5 1 6 2 7 3 8 4 9 5 10 6 3 7 4 8 2 9 1 10 11 11
REMARK H PARENT 11 12
REMARK Flexibility Score: inf
ROOT
ATOM      1  C   UNL     1     160.642 171.655 169.593  1.00  0.00     0.101 A 
ATOM      2  C   UNL     1     160.568 170.878 170.764  1.00  0.00     0.019 A 
ATOM      3  C   UNL     1     161.730 170.474 171.426  1.00  0.00     0.001 A 
ATOM      4  C   UNL     1     162.981 170.838 170.928  1.00  0.00     0.004 A 
ATOM      5  C   UNL     1     163.073 171.590 169.757  1.00  0.00     0.047 A 
ATOM      6  C   UNL     1     161.919 171.986 169.069  1.00  0.00     0.130 A 
ENDROOT
BRANCH   1   7
ATOM      7  C   UNL     1     159.379 172.118 168.978  1.00  0.00     0.341 C 
ATOM      8  O   UNL     1     158.491 171.288 168.640  1.00  0.00    -0.246 OA
BRANCH   7   9
ATOM      9  O   UNL     1     159.201 173.481 168.716  1.00  0.00    -0.465 OA
ATOM     10  C   UNL     1     158.523 173.958 167.561  1.00  0.00     0.282 C 
ENDBRANCH   7   9
ENDBRANCH   1   7
BRANCH   6  11
ATOM     11  O   UNL     1     162.084 172.669 167.862  1.00  0.00    -0.507 OA
ATOM     12  H   UNL     1     161.802 173.628 167.720  1.00  0.00     0.293 HD
ENDBRANCH   6  11
TORSDOF 3
ENDMDL
MODEL 5
REMARK VINA RESULT:    -3.522      9.592     11.158
REMARK INTER + INTRA:          -4.340
REMARK INTER:                  -4.034
REMARK INTRA:                  -0.306
REMARK UNBOUND:                -0.303
REMARK SMILES COC(=O)c1ccccc1O
REMARK SMILES IDX 5 1 6 2 7 3 8 4 9 5 10 6 3 7 4 8 2 9 1 10 11 11
REMARK H PARENT 11 12
REMARK Flexibility Score: inf
ROOT
ATOM      1  C   UNL     1     172.138 169.592 169.405  1.00  0.00     0.101 A 
ATOM      2  C   UNL     1     172.522 168.816 170.514  1.00  0.00     0.019 A 
ATOM      3  C   UNL     1     171.806 167.670 170.864  1.00  0.00     0.001 A 
ATOM      4  C   UNL     1     170.695 167.283 170.113  1.00  0.00     0.004 A 
ATOM      5  C   UNL     1     170.289 168.053 169.023  1.00  0.00     0.047 A 
ATOM      6  C   UNL     1     170.984 169.216 168.670  1.00  0.00     0.130 A 
ENDROOT
BRANCH   1   7
ATOM      7  C   UNL     1     172.980 170.752 169.036  1.00  0.00     0.341 C 
ATOM      8  O   UNL     1     172.449 171.844 168.693  1.00  0.00    -0.246 OA
BRANCH   7   9
ATOM      9  O   UNL     1     174.372 170.610 169.009  1.00  0.00    -0.465 OA
ATOM     10  C   UNL     1     175.087 170.286 167.824  1.00  0.00     0.282 C 
ENDBRANCH   7   9
ENDBRANCH   1   7
BRANCH   6  11
ATOM     11  O   UNL     1     170.477 169.982 167.618  1.00  0.00    -0.507 OA
ATOM     12  H   UNL     1     170.495 169.685 166.653  1.00  0.00     0.293 HD
ENDBRANCH   6  11
TORSDOF 3
ENDMDL
MODEL 6
REMARK VINA RESULT:    -3.520      1.563      4.954
REMARK INTER + INTRA:          -4.338
REMARK INTER:                  -4.052
REMARK INTRA:                  -0.286
REMARK UNBOUND:                -0.303
REMARK SMILES COC(=O)c1ccccc1O
REMARK SMILES IDX 5 1 6 2 7 3 8 4 9 5 10 6 3 7 4 8 2 9 1 10 11 11
REMARK H PARENT 11 12
REMARK Flexibility Score: inf
ROOT
ATOM      1  C   UNL     1     162.282 171.993 169.026  1.00  0.00     0.101 A 
ATOM      2  C   UNL     1     162.960 171.245 170.006  1.00  0.00     0.019 A 
ATOM      3  C   UNL     1     162.258 170.622 171.040  1.00  0.00     0.001 A 
ATOM      4  C   UNL     1     160.869 170.737 171.111  1.00  0.00     0.004 A 
ATOM      5  C   UNL     1     160.183 171.492 170.159  1.00  0.00     0.047 A 
ATOM      6  C   UNL     1     160.874 172.140 169.127  1.00  0.00     0.130 A 
ENDROOT
BRANCH   1   7
ATOM      7  C   UNL     1     163.069 172.565 167.912  1.00  0.00     0.341 C 
ATOM      8  O   UNL     1     163.754 171.817 167.162  1.00  0.00    -0.246 OA
BRANCH   7   9
ATOM      9  O   UNL     1     163.099 173.953 167.734  1.00  0.00    -0.465 OA
ATOM     10  C   UNL     1     162.788 174.574 166.493  1.00  0.00     0.282 C 
ENDBRANCH   7   9
ENDBRANCH   1   7
BRANCH   6  11
ATOM     11  O   UNL     1     160.135 172.942 168.254  1.00  0.00    -0.507 OA
ATOM     12  H   UNL     1     160.468 173.822 167.888  1.00  0.00     0.293 HD
ENDBRANCH   6  11
TORSDOF 3
ENDMDL
MODEL 7
REMARK VINA RESULT:    -3.471     15.414     16.526
REMARK INTER + INTRA:          -4.281
REMARK INTER:                  -4.009
REMARK INTRA:                  -0.273
REMARK UNBOUND:                -0.303
REMARK SMILES COC(=O)c1ccccc1O
REMARK SMILES IDX 5 1 6 2 7 3 8 4 9 5 10 6 3 7 4 8 2 9 1 10 11 11
REMARK H PARENT 11 12
REMARK Flexibility Score: inf
ROOT
ATOM      1  C   UNL     1     169.067 159.268 169.189  1.00  0.00     0.101 A 
ATOM      2  C   UNL     1     168.407 159.971 170.214  1.00  0.00     0.019 A 
ATOM      3  C   UNL     1     169.132 160.602 171.227  1.00  0.00     0.001 A 
ATOM      4  C   UNL     1     170.526 160.539 171.232  1.00  0.00     0.004 A 
ATOM      5  C   UNL     1     171.195 159.828 170.236  1.00  0.00     0.047 A 
ATOM      6  C   UNL     1     170.483 159.173 169.224  1.00  0.00     0.130 A 
ENDROOT
BRANCH   1   7
ATOM      7  C   UNL     1     168.252 158.685 168.101  1.00  0.00     0.341 C 
ATOM      8  O   UNL     1     167.534 159.425 167.374  1.00  0.00    -0.246 OA
BRANCH   7   9
ATOM      9  O   UNL     1     168.233 157.298 167.924  1.00  0.00    -0.465 OA
ATOM     10  C   UNL     1     168.487 156.681 166.667  1.00  0.00     0.282 C 
ENDBRANCH   7   9
ENDBRANCH   1   7
BRANCH   6  11
ATOM     11  O   UNL     1     171.210 158.415 168.304  1.00  0.00    -0.507 OA
ATOM     12  H   UNL     1     171.443 157.442 168.441  1.00  0.00     0.293 HD
ENDBRANCH   6  11
TORSDOF 3
ENDMDL
MODEL 8
REMARK VINA RESULT:    -3.456     15.907     17.513
REMARK INTER + INTRA:          -4.264
REMARK INTER:                  -3.988
REMARK INTRA:                  -0.276
REMARK UNBOUND:                -0.303
REMARK SMILES COC(=O)c1ccccc1O
REMARK SMILES IDX 5 1 6 2 7 3 8 4 9 5 10 6 3 7 4 8 2 9 1 10 11 11
REMARK H PARENT 11 12
REMARK Flexibility Score: inf
ROOT
ATOM      1  C   UNL     1     168.383 157.703 167.968  1.00  0.00     0.101 A 
ATOM      2  C   UNL     1     167.914 159.030 167.974  1.00  0.00     0.019 A 
ATOM      3  C   UNL     1     168.133 159.858 169.076  1.00  0.00     0.001 A 
ATOM      4  C   UNL     1     168.822 159.374 170.189  1.00  0.00     0.004 A 
ATOM      5  C   UNL     1     169.275 158.055 170.208  1.00  0.00     0.047 A 
ATOM      6  C   UNL     1     169.046 157.205 169.119  1.00  0.00     0.130 A 
ENDROOT
BRANCH   1   7
ATOM      7  C   UNL     1     168.190 156.897 166.743  1.00  0.00     0.341 C 
ATOM      8  O   UNL     1     169.142 156.222 166.264  1.00  0.00    -0.246 OA
BRANCH   7   9
ATOM      9  O   UNL     1     166.958 156.937 166.080  1.00  0.00    -0.465 OA
ATOM     10  C   UNL     1     166.697 156.190 164.898  1.00  0.00     0.282 C 
ENDBRANCH   7   9
ENDBRANCH   1   7
BRANCH   6  11
ATOM     11  O   UNL     1     169.458 155.875 169.235  1.00  0.00    -0.507 OA
ATOM     12  H   UNL     1     169.974 155.385 168.519  1.00  0.00     0.293 HD
ENDBRANCH   6  11
TORSDOF 3
ENDMDL
MODEL 9
REMARK VINA RESULT:    -3.399     15.657     16.827
REMARK INTER + INTRA:          -4.199
REMARK INTER:                  -3.858
REMARK INTRA:                  -0.340
REMARK UNBOUND:                -0.303
REMARK SMILES COC(=O)c1ccccc1O
REMARK SMILES IDX 5 1 6 2 7 3 8 4 9 5 10 6 3 7 4 8 2 9 1 10 11 11
REMARK H PARENT 11 12
REMARK Flexibility Score: inf
ROOT
ATOM      1  C   UNL     1     170.798 159.735 169.941  1.00  0.00     0.101 A 
ATOM      2  C   UNL     1     169.879 159.221 169.007  1.00  0.00     0.019 A 
ATOM      3  C   UNL     1     168.505 159.311 169.236  1.00  0.00     0.001 A 
ATOM      4  C   UNL     1     168.028 159.914 170.401  1.00  0.00     0.004 A 
ATOM      5  C   UNL     1     168.926 160.410 171.346  1.00  0.00     0.047 A 
ATOM      6  C   UNL     1     170.308 160.310 171.142  1.00  0.00     0.130 A 
ENDROOT
BRANCH   1   7
ATOM      7  C   UNL     1     172.239 159.679 169.610  1.00  0.00     0.341 C 
ATOM      8  O   UNL     1     172.630 159.865 168.424  1.00  0.00    -0.246 OA
BRANCH   7   9
ATOM      9  O   UNL     1     173.163 159.357 170.610  1.00  0.00    -0.465 OA
ATOM     10  C   UNL     1     173.507 158.016 170.934  1.00  0.00     0.282 C 
ENDBRANCH   7   9
ENDBRANCH   1   7
BRANCH   6  11
ATOM     11  O   UNL     1     171.150 160.755 172.163  1.00  0.00    -0.507 OA
ATOM     12  H   UNL     1     171.508 161.698 172.221  1.00  0.00     0.293 HD
ENDBRANCH   6  11
TORSDOF 3
ENDMDL
