MODEL 1
REMARK VINA RESULT:    -4.304      0.000      0.000
REMARK INTER + INTRA:         -12.634
REMARK INTER:                  -9.839
REMARK INTRA:                  -2.795
REMARK UNBOUND:                -2.795
REMARK SMILES CCCCCCCCCCCCCCCCCCCCCCCC(=O)[O-]
REMARK SMILES IDX 13 1 14 2 15 3 16 4 17 5 18 6 19 7 20 8 21 9 22 10 23 11
REMARK SMILES IDX 24 12 25 13 26 14 12 15 11 16 10 17 9 18 8 19 7 20 6 21 5 22
REMARK SMILES IDX 4 23 3 24 2 25 1 26
REMARK H PARENT
REMARK Flexibility Score: inf
ROOT
ATOM      1  C   UNL     1      16.174  43.529  18.986  1.00  0.00     0.000 C 
ENDROOT
BRANCH   1   2
ATOM      2  C   UNL     1      15.951  44.980  18.507  1.00  0.00     0.000 C 
BRANCH   2   3
ATOM      3  C   UNL     1      15.191  45.865  19.515  1.00  0.00     0.000 C 
BRANCH   3   4
ATOM      4  C   UNL     1      13.768  46.272  19.093  1.00  0.00     0.000 C 
BRANCH   4   5
ATOM      5  C   UNL     1      13.108  45.250  18.153  1.00  0.00     0.000 C 
BRANCH   5   6
ATOM      6  C   UNL     1      12.345  44.151  18.913  1.00  0.00     0.000 C 
BRANCH   6   7
ATOM      7  C   UNL     1      11.878  44.579  20.320  1.00  0.00     0.000 C 
BRANCH   7   8
ATOM      8  C   UNL     1      10.356  44.798  20.394  1.00  0.00     0.000 C 
BRANCH   8   9
ATOM      9  C   UNL     1       9.836  45.691  19.247  1.00  0.00     0.000 C 
BRANCH   9  10
ATOM     10  C   UNL     1      10.012  47.198  19.503  1.00  0.00     0.006 C 
BRANCH  10  11
ATOM     11  C   UNL     1      10.475  47.970  18.263  1.00  0.00     0.053 C 
BRANCH  11  12
ATOM     12  C   UNL     1       9.501  49.054  17.924  1.00  0.00     0.041 C 
ATOM     13  O   UNL     1       8.263  48.819  17.935  1.00  0.00    -0.550 OA
ATOM     14  O   UNL     1       9.962  50.319  17.575  1.00  0.00    -0.550 OA
ENDBRANCH  11  12
ENDBRANCH  10  11
ENDBRANCH   9  10
ENDBRANCH   8   9
ENDBRANCH   7   8
ENDBRANCH   6   7
ENDBRANCH   5   6
ENDBRANCH   4   5
ENDBRANCH   3   4
ENDBRANCH   2   3
ENDBRANCH   1   2
BRANCH   1  15
ATOM     15  C   UNL     1      16.218  43.417  20.520  1.00  0.00     0.000 C 
BRANCH  15  16
ATOM     16  C   UNL     1      16.835  42.090  21.002  1.00  0.00     0.000 C 
BRANCH  16  17
ATOM     17  C   UNL     1      17.765  41.400  19.983  1.00  0.00     0.000 C 
BRANCH  17  18
ATOM     18  C   UNL     1      19.185  41.996  19.884  1.00  0.00    -0.000 C 
BRANCH  18  19
ATOM     19  C   UNL     1      20.060  41.815  21.141  1.00  0.00    -0.000 C 
BRANCH  19  20
ATOM     20  C   UNL     1      20.512  43.129  21.804  1.00  0.00    -0.000 C 
BRANCH  20  21
ATOM     21  C   UNL     1      20.309  44.354  20.893  1.00  0.00    -0.000 C 
BRANCH  21  22
ATOM     22  C   UNL     1      19.107  45.209  21.323  1.00  0.00    -0.000 C 
BRANCH  22  23
ATOM     23  C   UNL     1      18.924  46.459  20.441  1.00  0.00    -0.000 C 
BRANCH  23  24
ATOM     24  C   UNL     1      20.245  47.236  20.251  1.00  0.00    -0.000 C 
BRANCH  24  25
ATOM     25  C   UNL     1      20.169  48.708  20.698  1.00  0.00    -0.003 C 
ATOM     26  C   UNL     1      19.126  48.952  21.787  1.00  0.00     0.004 C 
ENDBRANCH  24  25
ENDBRANCH  23  24
ENDBRANCH  22  23
ENDBRANCH  21  22
ENDBRANCH  20  21
ENDBRANCH  19  20
ENDBRANCH  18  19
ENDBRANCH  17  18
ENDBRANCH  16  17
ENDBRANCH  15  16
ENDBRANCH   1  15
TORSDOF 22
ENDMDL
MODEL 2
REMARK VINA RESULT:    -4.297      3.249      8.047
REMARK INTER + INTRA:         -12.618
REMARK INTER:                 -10.057
REMARK INTRA:                  -2.561
REMARK UNBOUND:                -2.795
REMARK SMILES CCCCCCCCCCCCCCCCCCCCCCCC(=O)[O-]
REMARK SMILES IDX 13 1 14 2 15 3 16 4 17 5 18 6 19 7 20 8 21 9 22 10 23 11
REMARK SMILES IDX 24 12 25 13 26 14 12 15 11 16 10 17 9 18 8 19 7 20 6 21 5 22
REMARK SMILES IDX 4 23 3 24 2 25 1 26
REMARK H PARENT
REMARK Flexibility Score: inf
ROOT
ATOM      1  C   UNL     1      17.329  41.040  21.816  1.00  0.00     0.000 C 
ENDROOT
BRANCH   1   2
ATOM      2  C   UNL     1      18.835  41.381  21.834  1.00  0.00     0.000 C 
BRANCH   2   3
ATOM      3  C   UNL     1      19.225  42.446  22.877  1.00  0.00     0.000 C 
BRANCH   3   4
ATOM      4  C   UNL     1      20.660  42.341  23.423  1.00  0.00     0.000 C 
BRANCH   4   5
ATOM      5  C   UNL     1      21.659  43.214  22.647  1.00  0.00     0.000 C 
BRANCH   5   6
ATOM      6  C   UNL     1      20.998  44.444  22.002  1.00  0.00     0.000 C 
BRANCH   6   7
ATOM      7  C   UNL     1      20.737  44.288  20.489  1.00  0.00     0.000 C 
BRANCH   7   8
ATOM      8  C   UNL     1      20.193  45.578  19.848  1.00  0.00     0.000 C 
BRANCH   8   9
ATOM      9  C   UNL     1      20.314  46.796  20.789  1.00  0.00     0.000 C 
BRANCH   9  10
ATOM     10  C   UNL     1      19.000  47.578  20.965  1.00  0.00     0.006 C 
BRANCH  10  11
ATOM     11  C   UNL     1      18.672  48.479  19.770  1.00  0.00     0.053 C 
BRANCH  11  12
ATOM     12  C   UNL     1      19.499  49.726  19.808  1.00  0.00     0.041 C 
ATOM     13  O   UNL     1      19.877  50.268  18.735  1.00  0.00    -0.550 OA
ATOM     14  O   UNL     1      19.871  50.276  21.030  1.00  0.00    -0.550 OA
ENDBRANCH  11  12
ENDBRANCH  10  11
ENDBRANCH   9  10
ENDBRANCH   8   9
ENDBRANCH   7   8
ENDBRANCH   6   7
ENDBRANCH   5   6
ENDBRANCH   4   5
ENDBRANCH   3   4
ENDBRANCH   2   3
ENDBRANCH   1   2
BRANCH   1  15
ATOM     15  C   UNL     1      16.547  41.886  20.795  1.00  0.00     0.000 C 
BRANCH  15  16
ATOM     16  C   UNL     1      17.379  42.229  19.546  1.00  0.00     0.000 C 
BRANCH  16  17
ATOM     17  C   UNL     1      17.299  43.703  19.097  1.00  0.00     0.000 C 
BRANCH  17  18
ATOM     18  C   UNL     1      16.675  44.668  20.126  1.00  0.00    -0.000 C 
BRANCH  18  19
ATOM     19  C   UNL     1      15.889  45.850  19.523  1.00  0.00    -0.000 C 
BRANCH  19  20
ATOM     20  C   UNL     1      15.231  45.557  18.162  1.00  0.00    -0.000 C 
BRANCH  20  21
ATOM     21  C   UNL     1      13.713  45.322  18.276  1.00  0.00    -0.000 C 
BRANCH  21  22
ATOM     22  C   UNL     1      13.261  45.123  19.731  1.00  0.00    -0.000 C 
BRANCH  22  23
ATOM     23  C   UNL     1      11.842  45.664  19.989  1.00  0.00    -0.000 C 
BRANCH  23  24
ATOM     24  C   UNL     1      11.434  46.742  18.961  1.00  0.00    -0.000 C 
BRANCH  24  25
ATOM     25  C   UNL     1       9.924  47.047  18.948  1.00  0.00    -0.003 C 
ATOM     26  C   UNL     1       9.607  48.489  18.551  1.00  0.00     0.004 C 
ENDBRANCH  24  25
ENDBRANCH  23  24
ENDBRANCH  22  23
ENDBRANCH  21  22
ENDBRANCH  20  21
ENDBRANCH  19  20
ENDBRANCH  18  19
ENDBRANCH  17  18
ENDBRANCH  16  17
ENDBRANCH  15  16
ENDBRANCH   1  15
TORSDOF 22
ENDMDL
MODEL 3
REMARK VINA RESULT:    -4.288      4.465      8.654
REMARK INTER + INTRA:         -12.596
REMARK INTER:                  -9.600
REMARK INTRA:                  -2.997
REMARK UNBOUND:                -2.795
REMARK SMILES CCCCCCCCCCCCCCCCCCCCCCCC(=O)[O-]
REMARK SMILES IDX 13 1 14 2 15 3 16 4 17 5 18 6 19 7 20 8 21 9 22 10 23 11
REMARK SMILES IDX 24 12 25 13 26 14 12 15 11 16 10 17 9 18 8 19 7 20 6 21 5 22
REMARK SMILES IDX 4 23 3 24 2 25 1 26
REMARK H PARENT
REMARK Flexibility Score: inf
ROOT
ATOM      1  C   UNL     1      20.855  43.686  20.648  1.00  0.00     0.000 C 
ENDROOT
BRANCH   1   2
ATOM      2  C   UNL     1      21.203  43.985  22.122  1.00  0.00     0.000 C 
BRANCH   2   3
ATOM      3  C   UNL     1      20.790  42.871  23.103  1.00  0.00     0.000 C 
BRANCH   3   4
ATOM      4  C   UNL     1      19.287  42.794  23.421  1.00  0.00     0.000 C 
BRANCH   4   5
ATOM      5  C   UNL     1      18.749  41.354  23.421  1.00  0.00     0.000 C 
BRANCH   5   6
ATOM      6  C   UNL     1      17.724  41.104  22.302  1.00  0.00     0.000 C 
BRANCH   6   7
ATOM      7  C   UNL     1      17.390  42.362  21.472  1.00  0.00     0.000 C 
BRANCH   7   8
ATOM      8  C   UNL     1      16.814  42.018  20.087  1.00  0.00     0.000 C 
BRANCH   8   9
ATOM      9  C   UNL     1      17.858  42.179  18.961  1.00  0.00     0.000 C 
BRANCH   9  10
ATOM     10  C   UNL     1      18.894  41.042  18.907  1.00  0.00     0.006 C 
BRANCH  10  11
ATOM     11  C   UNL     1      18.257  39.648  18.905  1.00  0.00     0.053 C 
BRANCH  11  12
ATOM     12  C   UNL     1      18.991  38.736  17.972  1.00  0.00     0.041 C 
ATOM     13  O   UNL     1      20.159  39.022  17.595  1.00  0.00    -0.550 OA
ATOM     14  O   UNL     1      18.376  37.580  17.503  1.00  0.00    -0.550 OA
ENDBRANCH  11  12
ENDBRANCH  10  11
ENDBRANCH   9  10
ENDBRANCH   8   9
ENDBRANCH   7   8
ENDBRANCH   6   7
ENDBRANCH   5   6
ENDBRANCH   4   5
ENDBRANCH   3   4
ENDBRANCH   2   3
ENDBRANCH   1   2
BRANCH   1  15
ATOM     15  C   UNL     1      19.913  44.742  20.040  1.00  0.00     0.000 C 
BRANCH  15  16
ATOM     16  C   UNL     1      19.541  45.852  21.040  1.00  0.00     0.000 C 
BRANCH  16  17
ATOM     17  C   UNL     1      18.667  46.983  20.459  1.00  0.00     0.000 C 
BRANCH  17  18
ATOM     18  C   UNL     1      17.152  46.832  20.707  1.00  0.00    -0.000 C 
BRANCH  18  19
ATOM     19  C   UNL     1      16.427  45.856  19.758  1.00  0.00    -0.000 C 
BRANCH  19  20
ATOM     20  C   UNL     1      14.890  45.918  19.822  1.00  0.00    -0.000 C 
BRANCH  20  21
ATOM     21  C   UNL     1      14.282  44.754  20.626  1.00  0.00    -0.000 C 
BRANCH  21  22
ATOM     22  C   UNL     1      13.264  43.947  19.805  1.00  0.00    -0.000 C 
BRANCH  22  23
ATOM     23  C   UNL     1      11.863  44.587  19.804  1.00  0.00    -0.000 C 
BRANCH  23  24
ATOM     24  C   UNL     1      11.553  45.306  18.473  1.00  0.00    -0.000 C 
BRANCH  24  25
ATOM     25  C   UNL     1      11.335  46.823  18.624  1.00  0.00    -0.003 C 
ATOM     26  C   UNL     1       9.909  47.188  19.033  1.00  0.00     0.004 C 
ENDBRANCH  24  25
ENDBRANCH  23  24
ENDBRANCH  22  23
ENDBRANCH  21  22
ENDBRANCH  20  21
ENDBRANCH  19  20
ENDBRANCH  18  19
ENDBRANCH  17  18
ENDBRANCH  16  17
ENDBRANCH  15  16
ENDBRANCH   1  15
TORSDOF 22
ENDMDL
MODEL 4
REMARK VINA RESULT:    -4.258      2.352      6.081
REMARK INTER + INTRA:         -12.528
REMARK INTER:                  -8.619
REMARK INTRA:                  -3.909
REMARK UNBOUND:                -2.795
REMARK SMILES CCCCCCCCCCCCCCCCCCCCCCCC(=O)[O-]
REMARK SMILES IDX 13 1 14 2 15 3 16 4 17 5 18 6 19 7 20 8 21 9 22 10 23 11
REMARK SMILES IDX 24 12 25 13 26 14 12 15 11 16 10 17 9 18 8 19 7 20 6 21 5 22
REMARK SMILES IDX 4 23 3 24 2 25 1 26
REMARK H PARENT
REMARK Flexibility Score: inf
ROOT
ATOM      1  C   UNL     1      19.519  42.898  23.472  1.00  0.00     0.000 C 
ENDROOT
BRANCH   1   2
ATOM      2  C   UNL     1      20.975  43.202  23.059  1.00  0.00     0.000 C 
BRANCH   2   3
ATOM      3  C   UNL     1      21.109  43.901  21.691  1.00  0.00     0.000 C 
BRANCH   3   4
ATOM      4  C   UNL     1      19.802  44.468  21.110  1.00  0.00     0.000 C 
BRANCH   4   5
ATOM      5  C   UNL     1      19.913  45.954  20.731  1.00  0.00     0.000 C 
BRANCH   5   6
ATOM      6  C   UNL     1      18.544  46.652  20.662  1.00  0.00     0.000 C 
BRANCH   6   7
ATOM      7  C   UNL     1      17.349  45.675  20.632  1.00  0.00     0.000 C 
BRANCH   7   8
ATOM      8  C   UNL     1      16.263  46.102  19.629  1.00  0.00     0.000 C 
BRANCH   8   9
ATOM      9  C   UNL     1      15.325  44.936  19.248  1.00  0.00     0.000 C 
BRANCH   9  10
ATOM     10  C   UNL     1      14.284  44.597  20.330  1.00  0.00     0.006 C 
BRANCH  10  11
ATOM     11  C   UNL     1      12.892  44.311  19.757  1.00  0.00     0.053 C 
BRANCH  11  12
ATOM     12  C   UNL     1      12.367  45.508  19.030  1.00  0.00     0.041 C 
ATOM     13  O   UNL     1      12.222  45.476  17.778  1.00  0.00    -0.550 OA
ATOM     14  O   UNL     1      12.057  46.668  19.731  1.00  0.00    -0.550 OA
ENDBRANCH  11  12
ENDBRANCH  10  11
ENDBRANCH   9  10
ENDBRANCH   8   9
ENDBRANCH   7   8
ENDBRANCH   6   7
ENDBRANCH   5   6
ENDBRANCH   4   5
ENDBRANCH   3   4
ENDBRANCH   2   3
ENDBRANCH   1   2
BRANCH   1  15
ATOM     15  C   UNL     1      19.375  41.525  24.152  1.00  0.00     0.000 C 
BRANCH  15  16
ATOM     16  C   UNL     1      18.649  40.496  23.266  1.00  0.00     0.000 C 
BRANCH  16  17
ATOM     17  C   UNL     1      19.547  39.373  22.707  1.00  0.00     0.000 C 
BRANCH  17  18
ATOM     18  C   UNL     1      19.691  39.353  21.171  1.00  0.00    -0.000 C 
BRANCH  18  19
ATOM     19  C   UNL     1      19.770  40.740  20.502  1.00  0.00    -0.000 C 
BRANCH  19  20
ATOM     20  C   UNL     1      19.107  40.824  19.114  1.00  0.00    -0.000 C 
BRANCH  20  21
ATOM     21  C   UNL     1      17.949  41.837  19.071  1.00  0.00    -0.000 C 
BRANCH  21  22
ATOM     22  C   UNL     1      17.051  41.752  20.315  1.00  0.00    -0.000 C 
BRANCH  22  23
ATOM     23  C   UNL     1      15.617  41.301  19.980  1.00  0.00    -0.000 C 
BRANCH  23  24
ATOM     24  C   UNL     1      15.498  39.764  19.880  1.00  0.00    -0.000 C 
BRANCH  24  25
ATOM     25  C   UNL     1      16.092  39.016  21.089  1.00  0.00    -0.003 C 
ATOM     26  C   UNL     1      16.468  37.569  20.773  1.00  0.00     0.004 C 
ENDBRANCH  24  25
ENDBRANCH  23  24
ENDBRANCH  22  23
ENDBRANCH  21  22
ENDBRANCH  20  21
ENDBRANCH  19  20
ENDBRANCH  18  19
ENDBRANCH  17  18
ENDBRANCH  16  17
ENDBRANCH  15  16
ENDBRANCH   1  15
TORSDOF 22
ENDMDL
MODEL 5
REMARK VINA RESULT:    -4.249      2.385      5.227
REMARK INTER + INTRA:         -12.508
REMARK INTER:                  -9.386
REMARK INTRA:                  -3.122
REMARK UNBOUND:                -2.795
REMARK SMILES CCCCCCCCCCCCCCCCCCCCCCCC(=O)[O-]
REMARK SMILES IDX 13 1 14 2 15 3 16 4 17 5 18 6 19 7 20 8 21 9 22 10 23 11
REMARK SMILES IDX 24 12 25 13 26 14 12 15 11 16 10 17 9 18 8 19 7 20 6 21 5 22
REMARK SMILES IDX 4 23 3 24 2 25 1 26
REMARK H PARENT
REMARK Flexibility Score: inf
ROOT
ATOM      1  C   UNL     1      21.105  43.733  21.129  1.00  0.00     0.000 C 
ENDROOT
BRANCH   1   2
ATOM      2  C   UNL     1      19.804  44.564  21.113  1.00  0.00     0.000 C 
BRANCH   2   3
ATOM      3  C   UNL     1      19.928  45.913  20.378  1.00  0.00     0.000 C 
BRANCH   3   4
ATOM      4  C   UNL     1      18.667  46.795  20.400  1.00  0.00     0.000 C 
BRANCH   4   5
ATOM      5  C   UNL     1      17.481  46.123  21.111  1.00  0.00     0.000 C 
BRANCH   5   6
ATOM      6  C   UNL     1      16.331  45.778  20.150  1.00  0.00     0.000 C 
BRANCH   6   7
ATOM      7  C   UNL     1      14.929  46.030  20.744  1.00  0.00     0.000 C 
BRANCH   7   8
ATOM      8  C   UNL     1      14.016  44.794  20.646  1.00  0.00     0.000 C 
BRANCH   8   9
ATOM      9  C   UNL     1      14.225  44.014  19.330  1.00  0.00     0.000 C 
BRANCH   9  10
ATOM     10  C   UNL     1      13.065  44.160  18.329  1.00  0.00     0.006 C 
BRANCH  10  11
ATOM     11  C   UNL     1      13.403  45.070  17.144  1.00  0.00     0.053 C 
BRANCH  11  12
ATOM     12  C   UNL     1      12.837  46.440  17.354  1.00  0.00     0.041 C 
ATOM     13  O   UNL     1      13.213  47.399  16.628  1.00  0.00    -0.550 OA
ATOM     14  O   UNL     1      11.910  46.661  18.367  1.00  0.00    -0.550 OA
ENDBRANCH  11  12
ENDBRANCH  10  11
ENDBRANCH   9  10
ENDBRANCH   8   9
ENDBRANCH   7   8
ENDBRANCH   6   7
ENDBRANCH   5   6
ENDBRANCH   4   5
ENDBRANCH   3   4
ENDBRANCH   2   3
ENDBRANCH   1   2
BRANCH   1  15
ATOM     15  C   UNL     1      21.819  43.786  22.492  1.00  0.00     0.000 C 
BRANCH  15  16
ATOM     16  C   UNL     1      22.618  42.504  22.794  1.00  0.00     0.000 C 
BRANCH  16  17
ATOM     17  C   UNL     1      23.027  42.327  24.270  1.00  0.00     0.000 C 
BRANCH  17  18
ATOM     18  C   UNL     1      21.855  42.165  25.260  1.00  0.00    -0.000 C 
BRANCH  18  19
ATOM     19  C   UNL     1      20.784  41.135  24.846  1.00  0.00    -0.000 C 
BRANCH  19  20
ATOM     20  C   UNL     1      19.380  41.724  24.615  1.00  0.00    -0.000 C 
BRANCH  20  21
ATOM     21  C   UNL     1      18.928  41.621  23.146  1.00  0.00    -0.000 C 
BRANCH  21  22
ATOM     22  C   UNL     1      17.768  40.631  22.960  1.00  0.00    -0.000 C 
BRANCH  22  23
ATOM     23  C   UNL     1      17.173  40.677  21.540  1.00  0.00    -0.000 C 
BRANCH  23  24
ATOM     24  C   UNL     1      17.018  42.122  21.020  1.00  0.00    -0.000 C 
BRANCH  24  25
ATOM     25  C   UNL     1      17.477  42.310  19.562  1.00  0.00    -0.003 C 
ATOM     26  C   UNL     1      18.494  41.262  19.113  1.00  0.00     0.004 C 
ENDBRANCH  24  25
ENDBRANCH  23  24
ENDBRANCH  22  23
ENDBRANCH  21  22
ENDBRANCH  20  21
ENDBRANCH  19  20
ENDBRANCH  18  19
ENDBRANCH  17  18
ENDBRANCH  16  17
ENDBRANCH  15  16
ENDBRANCH   1  15
TORSDOF 22
ENDMDL
MODEL 6
REMARK VINA RESULT:    -4.150      5.687      8.786
REMARK INTER + INTRA:         -12.282
REMARK INTER:                 -10.118
REMARK INTRA:                  -2.164
REMARK UNBOUND:                -2.795
REMARK SMILES CCCCCCCCCCCCCCCCCCCCCCCC(=O)[O-]
REMARK SMILES IDX 13 1 14 2 15 3 16 4 17 5 18 6 19 7 20 8 21 9 22 10 23 11
REMARK SMILES IDX 24 12 25 13 26 14 12 15 11 16 10 17 9 18 8 19 7 20 6 21 5 22
REMARK SMILES IDX 4 23 3 24 2 25 1 26
REMARK H PARENT
REMARK Flexibility Score: inf
ROOT
ATOM      1  C   UNL     1      19.266  42.860  23.528  1.00  0.00     0.000 C 
ENDROOT
BRANCH   1   2
ATOM      2  C   UNL     1      20.462  43.205  22.614  1.00  0.00     0.000 C 
BRANCH   2   3
ATOM      3  C   UNL     1      20.429  42.502  21.243  1.00  0.00     0.000 C 
BRANCH   3   4
ATOM      4  C   UNL     1      19.088  41.847  20.869  1.00  0.00     0.000 C 
BRANCH   4   5
ATOM      5  C   UNL     1      18.267  42.690  19.880  1.00  0.00     0.000 C 
BRANCH   5   6
ATOM      6  C   UNL     1      17.280  43.637  20.583  1.00  0.00     0.000 C 
BRANCH   6   7
ATOM      7  C   UNL     1      16.997  44.935  19.797  1.00  0.00     0.000 C 
BRANCH   7   8
ATOM      8  C   UNL     1      17.623  46.175  20.460  1.00  0.00     0.000 C 
BRANCH   8   9
ATOM      9  C   UNL     1      19.149  46.031  20.648  1.00  0.00     0.000 C 
BRANCH   9  10
ATOM     10  C   UNL     1      19.943  47.293  20.265  1.00  0.00     0.006 C 
BRANCH  10  11
ATOM     11  C   UNL     1      19.050  48.456  19.822  1.00  0.00     0.053 C 
BRANCH  11  12
ATOM     12  C   UNL     1      19.863  49.696  19.618  1.00  0.00     0.041 C 
ATOM     13  O   UNL     1      19.689  50.404  18.590  1.00  0.00    -0.550 OA
ATOM     14  O   UNL     1      20.827  50.057  20.552  1.00  0.00    -0.550 OA
ENDBRANCH  11  12
ENDBRANCH  10  11
ENDBRANCH   9  10
ENDBRANCH   8   9
ENDBRANCH   7   8
ENDBRANCH   6   7
ENDBRANCH   5   6
ENDBRANCH   4   5
ENDBRANCH   3   4
ENDBRANCH   2   3
ENDBRANCH   1   2
BRANCH   1  15
ATOM     15  C   UNL     1      19.623  41.806  24.592  1.00  0.00     0.000 C 
BRANCH  15  16
ATOM     16  C   UNL     1      18.881  40.474  24.381  1.00  0.00     0.000 C 
BRANCH  16  17
ATOM     17  C   UNL     1      18.282  39.855  25.660  1.00  0.00     0.000 C 
BRANCH  17  18
ATOM     18  C   UNL     1      16.794  39.457  25.562  1.00  0.00    -0.000 C 
BRANCH  18  19
ATOM     19  C   UNL     1      16.209  38.791  26.824  1.00  0.00    -0.000 C 
BRANCH  19  20
ATOM     20  C   UNL     1      14.961  37.924  26.574  1.00  0.00    -0.000 C 
BRANCH  20  21
ATOM     21  C   UNL     1      13.742  38.389  27.391  1.00  0.00    -0.000 C 
BRANCH  21  22
ATOM     22  C   UNL     1      13.488  39.899  27.253  1.00  0.00    -0.000 C 
BRANCH  22  23
ATOM     23  C   UNL     1      13.315  40.597  28.615  1.00  0.00    -0.000 C 
BRANCH  23  24
ATOM     24  C   UNL     1      14.291  41.780  28.791  1.00  0.00    -0.000 C 
BRANCH  24  25
ATOM     25  C   UNL     1      15.664  41.373  29.359  1.00  0.00    -0.003 C 
ATOM     26  C   UNL     1      15.582  40.224  30.363  1.00  0.00     0.004 C 
ENDBRANCH  24  25
ENDBRANCH  23  24
ENDBRANCH  22  23
ENDBRANCH  21  22
ENDBRANCH  20  21
ENDBRANCH  19  20
ENDBRANCH  18  19
ENDBRANCH  17  18
ENDBRANCH  16  17
ENDBRANCH  15  16
ENDBRANCH   1  15
TORSDOF 22
ENDMDL
MODEL 7
REMARK VINA RESULT:    -4.149      5.550      8.160
REMARK INTER + INTRA:         -12.281
REMARK INTER:                  -9.971
REMARK INTRA:                  -2.309
REMARK UNBOUND:                -2.795
REMARK SMILES CCCCCCCCCCCCCCCCCCCCCCCC(=O)[O-]
REMARK SMILES IDX 13 1 14 2 15 3 16 4 17 5 18 6 19 7 20 8 21 9 22 10 23 11
REMARK SMILES IDX 24 12 25 13 26 14 12 15 11 16 10 17 9 18 8 19 7 20 6 21 5 22
REMARK SMILES IDX 4 23 3 24 2 25 1 26
REMARK H PARENT
REMARK Flexibility Score: inf
ROOT
ATOM      1  C   UNL     1      19.228  42.500  23.072  1.00  0.00     0.000 C 
ENDROOT
BRANCH   1   2
ATOM      2  C   UNL     1      19.789  43.581  22.125  1.00  0.00     0.000 C 
BRANCH   2   3
ATOM      3  C   UNL     1      19.839  43.156  20.644  1.00  0.00     0.000 C 
BRANCH   3   4
ATOM      4  C   UNL     1      19.062  41.874  20.299  1.00  0.00     0.000 C 
BRANCH   4   5
ATOM      5  C   UNL     1      17.815  42.144  19.442  1.00  0.00     0.000 C 
BRANCH   5   6
ATOM      6  C   UNL     1      16.523  42.202  20.274  1.00  0.00     0.000 C 
BRANCH   6   7
ATOM      7  C   UNL     1      15.972  43.631  20.467  1.00  0.00     0.000 C 
BRANCH   7   8
ATOM      8  C   UNL     1      16.274  44.546  19.266  1.00  0.00     0.000 C 
BRANCH   8   9
ATOM      9  C   UNL     1      16.534  46.006  19.693  1.00  0.00     0.000 C 
BRANCH   9  10
ATOM     10  C   UNL     1      17.486  46.143  20.895  1.00  0.00     0.006 C 
BRANCH  10  11
ATOM     11  C   UNL     1      17.799  47.599  21.252  1.00  0.00     0.053 C 
BRANCH  11  12
ATOM     12  C   UNL     1      19.027  48.064  20.535  1.00  0.00     0.041 C 
ATOM     13  O   UNL     1      20.169  47.802  21.000  1.00  0.00    -0.550 OA
ATOM     14  O   UNL     1      18.911  48.805  19.364  1.00  0.00    -0.550 OA
ENDBRANCH  11  12
ENDBRANCH  10  11
ENDBRANCH   9  10
ENDBRANCH   8   9
ENDBRANCH   7   8
ENDBRANCH   6   7
ENDBRANCH   5   6
ENDBRANCH   4   5
ENDBRANCH   3   4
ENDBRANCH   2   3
ENDBRANCH   1   2
BRANCH   1  15
ATOM     15  C   UNL     1      19.907  42.519  24.454  1.00  0.00     0.000 C 
BRANCH  15  16
ATOM     16  C   UNL     1      19.473  41.341  25.346  1.00  0.00     0.000 C 
BRANCH  16  17
ATOM     17  C   UNL     1      19.068  40.064  24.582  1.00  0.00     0.000 C 
BRANCH  17  18
ATOM     18  C   UNL     1      18.360  38.989  25.433  1.00  0.00    -0.000 C 
BRANCH  18  19
ATOM     19  C   UNL     1      17.640  39.517  26.690  1.00  0.00    -0.000 C 
BRANCH  19  20
ATOM     20  C   UNL     1      18.034  38.813  28.001  1.00  0.00    -0.000 C 
BRANCH  20  21
ATOM     21  C   UNL     1      17.447  39.504  29.246  1.00  0.00    -0.000 C 
BRANCH  21  22
ATOM     22  C   UNL     1      16.653  40.770  28.890  1.00  0.00    -0.000 C 
BRANCH  22  23
ATOM     23  C   UNL     1      15.288  40.831  29.601  1.00  0.00    -0.000 C 
BRANCH  23  24
ATOM     24  C   UNL     1      14.313  41.806  28.906  1.00  0.00    -0.000 C 
BRANCH  24  25
ATOM     25  C   UNL     1      13.628  41.216  27.659  1.00  0.00    -0.003 C 
ATOM     26  C   UNL     1      13.323  39.725  27.790  1.00  0.00     0.004 C 
ENDBRANCH  24  25
ENDBRANCH  23  24
ENDBRANCH  22  23
ENDBRANCH  21  22
ENDBRANCH  20  21
ENDBRANCH  19  20
ENDBRANCH  18  19
ENDBRANCH  17  18
ENDBRANCH  16  17
ENDBRANCH  15  16
ENDBRANCH   1  15
TORSDOF 22
ENDMDL
MODEL 8
REMARK VINA RESULT:    -4.105      7.444      9.859
REMARK INTER + INTRA:         -12.179
REMARK INTER:                  -9.464
REMARK INTRA:                  -2.715
REMARK UNBOUND:                -2.795
REMARK SMILES CCCCCCCCCCCCCCCCCCCCCCCC(=O)[O-]
REMARK SMILES IDX 13 1 14 2 15 3 16 4 17 5 18 6 19 7 20 8 21 9 22 10 23 11
REMARK SMILES IDX 24 12 25 13 26 14 12 15 11 16 10 17 9 18 8 19 7 20 6 21 5 22
REMARK SMILES IDX 4 23 3 24 2 25 1 26
REMARK H PARENT
REMARK Flexibility Score: inf
ROOT
ATOM      1  C   UNL     1      16.805  39.497  26.017  1.00  0.00     0.000 C 
ENDROOT
BRANCH   1   2
ATOM      2  C   UNL     1      17.722  39.048  27.175  1.00  0.00     0.000 C 
BRANCH   2   3
ATOM      3  C   UNL     1      17.632  39.938  28.430  1.00  0.00     0.000 C 
BRANCH   3   4
ATOM      4  C   UNL     1      16.852  39.335  29.611  1.00  0.00     0.000 C 
BRANCH   4   5
ATOM      5  C   UNL     1      15.802  40.299  30.187  1.00  0.00     0.000 C 
BRANCH   5   6
ATOM      6  C   UNL     1      15.596  41.546  29.310  1.00  0.00     0.000 C 
BRANCH   6   7
ATOM      7  C   UNL     1      14.124  41.791  28.914  1.00  0.00     0.000 C 
BRANCH   7   8
ATOM      8  C   UNL     1      13.767  41.164  27.555  1.00  0.00     0.000 C 
BRANCH   8   9
ATOM      9  C   UNL     1      12.919  39.882  27.705  1.00  0.00     0.000 C 
BRANCH   9  10
ATOM     10  C   UNL     1      13.750  38.587  27.727  1.00  0.00     0.006 C 
BRANCH  10  11
ATOM     11  C   UNL     1      13.257  37.540  26.722  1.00  0.00     0.053 C 
BRANCH  11  12
ATOM     12  C   UNL     1      12.936  36.254  27.417  1.00  0.00     0.041 C 
ATOM     13  O   UNL     1      13.544  35.937  28.475  1.00  0.00    -0.550 OA
ATOM     14  O   UNL     1      11.980  35.396  26.886  1.00  0.00    -0.550 OA
ENDBRANCH  11  12
ENDBRANCH  10  11
ENDBRANCH   9  10
ENDBRANCH   8   9
ENDBRANCH   7   8
ENDBRANCH   6   7
ENDBRANCH   5   6
ENDBRANCH   4   5
ENDBRANCH   3   4
ENDBRANCH   2   3
ENDBRANCH   1   2
BRANCH   1  15
ATOM     15  C   UNL     1      17.196  38.855  24.674  1.00  0.00     0.000 C 
BRANCH  15  16
ATOM     16  C   UNL     1      17.240  39.873  23.519  1.00  0.00     0.000 C 
BRANCH  16  17
ATOM     17  C   UNL     1      18.654  40.350  23.129  1.00  0.00     0.000 C 
BRANCH  17  18
ATOM     18  C   UNL     1      19.325  41.307  24.137  1.00  0.00    -0.000 C 
BRANCH  18  19
ATOM     19  C   UNL     1      20.658  41.924  23.667  1.00  0.00    -0.000 C 
BRANCH  19  20
ATOM     20  C   UNL     1      20.519  43.267  22.927  1.00  0.00    -0.000 C 
BRANCH  20  21
ATOM     21  C   UNL     1      20.546  43.107  21.396  1.00  0.00    -0.000 C 
BRANCH  21  22
ATOM     22  C   UNL     1      20.035  44.360  20.669  1.00  0.00    -0.000 C 
BRANCH  22  23
ATOM     23  C   UNL     1      18.716  44.110  19.914  1.00  0.00    -0.000 C 
BRANCH  23  24
ATOM     24  C   UNL     1      17.968  42.867  20.444  1.00  0.00    -0.000 C 
BRANCH  24  25
ATOM     25  C   UNL     1      17.642  41.828  19.355  1.00  0.00    -0.003 C 
ATOM     26  C   UNL     1      18.808  40.887  19.054  1.00  0.00     0.004 C 
ENDBRANCH  24  25
ENDBRANCH  23  24
ENDBRANCH  22  23
ENDBRANCH  21  22
ENDBRANCH  20  21
ENDBRANCH  19  20
ENDBRANCH  18  19
ENDBRANCH  17  18
ENDBRANCH  16  17
ENDBRANCH  15  16
ENDBRANCH   1  15
TORSDOF 22
ENDMDL
MODEL 9
REMARK VINA RESULT:    -4.080      3.102      5.667
REMARK INTER + INTRA:         -12.122
REMARK INTER:                  -8.853
REMARK INTRA:                  -3.269
REMARK UNBOUND:                -2.795
REMARK SMILES CCCCCCCCCCCCCCCCCCCCCCCC(=O)[O-]
REMARK SMILES IDX 13 1 14 2 15 3 16 4 17 5 18 6 19 7 20 8 21 9 22 10 23 11
REMARK SMILES IDX 24 12 25 13 26 14 12 15 11 16 10 17 9 18 8 19 7 20 6 21 5 22
REMARK SMILES IDX 4 23 3 24 2 25 1 26
REMARK H PARENT
REMARK Flexibility Score: inf
ROOT
ATOM      1  C   UNL     1      19.294  39.124  24.644  1.00  0.00     0.000 C 
ENDROOT
BRANCH   1   2
ATOM      2  C   UNL     1      17.820  39.552  24.475  1.00  0.00     0.000 C 
BRANCH   2   3
ATOM      3  C   UNL     1      17.423  39.879  23.023  1.00  0.00     0.000 C 
BRANCH   3   4
ATOM      4  C   UNL     1      17.704  38.769  21.996  1.00  0.00     0.000 C 
BRANCH   4   5
ATOM      5  C   UNL     1      17.955  39.315  20.580  1.00  0.00     0.000 C 
BRANCH   5   6
ATOM      6  C   UNL     1      17.993  40.852  20.534  1.00  0.00     0.000 C 
BRANCH   6   7
ATOM      7  C   UNL     1      17.779  41.436  19.122  1.00  0.00     0.000 C 
BRANCH   7   8
ATOM      8  C   UNL     1      17.351  42.915  19.155  1.00  0.00     0.000 C 
BRANCH   8   9
ATOM      9  C   UNL     1      16.178  43.164  20.128  1.00  0.00     0.000 C 
BRANCH   9  10
ATOM     10  C   UNL     1      15.174  44.221  19.633  1.00  0.00     0.006 C 
BRANCH  10  11
ATOM     11  C   UNL     1      15.674  45.000  18.412  1.00  0.00     0.053 C 
BRANCH  11  12
ATOM     12  C   UNL     1      14.822  46.208  18.174  1.00  0.00     0.041 C 
ATOM     13  O   UNL     1      13.690  46.301  18.720  1.00  0.00    -0.550 OA
ATOM     14  O   UNL     1      15.270  47.220  17.333  1.00  0.00    -0.550 OA
ENDBRANCH  11  12
ENDBRANCH  10  11
ENDBRANCH   9  10
ENDBRANCH   8   9
ENDBRANCH   7   8
ENDBRANCH   6   7
ENDBRANCH   5   6
ENDBRANCH   4   5
ENDBRANCH   3   4
ENDBRANCH   2   3
ENDBRANCH   1   2
BRANCH   1  15
ATOM     15  C   UNL     1      20.278  40.260  24.313  1.00  0.00     0.000 C 
BRANCH  15  16
ATOM     16  C   UNL     1      20.021  41.530  25.146  1.00  0.00     0.000 C 
BRANCH  16  17
ATOM     17  C   UNL     1      19.630  42.776  24.326  1.00  0.00     0.000 C 
BRANCH  17  18
ATOM     18  C   UNL     1      20.118  42.778  22.863  1.00  0.00    -0.000 C 
BRANCH  18  19
ATOM     19  C   UNL     1      19.415  43.794  21.939  1.00  0.00    -0.000 C 
BRANCH  19  20
ATOM     20  C   UNL     1      20.334  44.459  20.897  1.00  0.00    -0.000 C 
BRANCH  20  21
ATOM     21  C   UNL     1      19.779  45.801  20.387  1.00  0.00    -0.000 C 
BRANCH  21  22
ATOM     22  C   UNL     1      18.329  46.042  20.836  1.00  0.00    -0.000 C 
BRANCH  22  23
ATOM     23  C   UNL     1      17.794  47.417  20.394  1.00  0.00    -0.000 C 
BRANCH  23  24
ATOM     24  C   UNL     1      18.297  48.557  21.305  1.00  0.00    -0.000 C 
BRANCH  24  25
ATOM     25  C   UNL     1      19.338  49.474  20.635  1.00  0.00    -0.003 C 
ATOM     26  C   UNL     1      19.210  49.516  19.113  1.00  0.00     0.004 C 
ENDBRANCH  24  25
ENDBRANCH  23  24
ENDBRANCH  22  23
ENDBRANCH  21  22
ENDBRANCH  20  21
ENDBRANCH  19  20
ENDBRANCH  18  19
ENDBRANCH  17  18
ENDBRANCH  16  17
ENDBRANCH  15  16
ENDBRANCH   1  15
TORSDOF 22
ENDMDL
