MODEL 1
REMARK VINA RESULT:    -3.920      0.000      0.000
REMARK INTER + INTRA:          -5.194
REMARK INTER:                  -4.837
REMARK INTRA:                  -0.358
REMARK UNBOUND:                -0.358
REMARK SMILES COC(=O)c1ccccc1C(=O)OC
REMARK SMILES IDX 5 1 6 2 7 3 8 4 9 5 10 6 3 7 4 8 2 9 1 10 11 11 12 12 13 13
REMARK SMILES IDX 14 14
REMARK H PARENT
REMARK Flexibility Score: inf
ROOT
ATOM      1  C   UNL     1      40.081 182.745 171.714  1.00  0.00     0.074 A 
ATOM      2  C   UNL     1      40.773 181.529 171.561  1.00  0.00     0.016 A 
ATOM      3  C   UNL     1      41.912 181.256 172.318  1.00  0.00     0.001 A 
ATOM      4  C   UNL     1      42.380 182.192 173.237  1.00  0.00     0.001 A 
ATOM      5  C   UNL     1      41.698 183.394 173.421  1.00  0.00     0.016 A 
ATOM      6  C   UNL     1      40.534 183.681 172.685  1.00  0.00     0.074 A 
ENDROOT
BRANCH   1   7
ATOM      7  C   UNL     1      38.950 183.028 170.801  1.00  0.00     0.338 C 
ATOM      8  O   UNL     1      39.179 183.355 169.603  1.00  0.00    -0.246 OA
BRANCH   7   9
ATOM      9  O   UNL     1      37.636 182.988 171.278  1.00  0.00    -0.465 OA
ATOM     10  C   UNL     1      36.565 183.670 170.638  1.00  0.00     0.282 C 
ENDBRANCH   7   9
ENDBRANCH   1   7
BRANCH   6  11
ATOM     11  C   UNL     1      39.796 184.923 173.011  1.00  0.00     0.338 C 
ATOM     12  O   UNL     1      40.157 186.026 172.516  1.00  0.00    -0.246 OA
BRANCH  11  13
ATOM     13  O   UNL     1      38.661 184.857 173.826  1.00  0.00    -0.465 OA
ATOM     14  C   UNL     1      37.538 185.710 173.646  1.00  0.00     0.282 C 
ENDBRANCH  11  13
ENDBRANCH   6  11
TORSDOF 4
ENDMDL
MODEL 2
REMARK VINA RESULT:    -3.899      0.207      3.013
REMARK INTER + INTRA:          -5.168
REMARK INTER:                  -4.790
REMARK INTRA:                  -0.378
REMARK UNBOUND:                -0.358
REMARK SMILES COC(=O)c1ccccc1C(=O)OC
REMARK SMILES IDX 5 1 6 2 7 3 8 4 9 5 10 6 3 7 4 8 2 9 1 10 11 11 12 12 13 13
REMARK SMILES IDX 14 14
REMARK H PARENT
REMARK Flexibility Score: inf
ROOT
ATOM      1  C   UNL     1      40.573 183.676 172.703  1.00  0.00     0.074 A 
ATOM      2  C   UNL     1      41.741 183.372 173.428  1.00  0.00     0.016 A 
ATOM      3  C   UNL     1      42.411 182.165 173.227  1.00  0.00     0.001 A 
ATOM      4  C   UNL     1      41.925 181.242 172.304  1.00  0.00     0.001 A 
ATOM      5  C   UNL     1      40.782 181.531 171.559  1.00  0.00     0.016 A 
ATOM      6  C   UNL     1      40.104 182.752 171.728  1.00  0.00     0.074 A 
ENDROOT
BRANCH   1   7
ATOM      7  C   UNL     1      39.841 184.918 173.042  1.00  0.00     0.338 C 
ATOM      8  O   UNL     1      40.198 186.015 172.528  1.00  0.00    -0.246 OA
BRANCH   7   9
ATOM      9  O   UNL     1      38.795 184.884 173.970  1.00  0.00    -0.465 OA
ATOM     10  C   UNL     1      37.804 185.901 174.047  1.00  0.00     0.282 C 
ENDBRANCH   7   9
ENDBRANCH   1   7
BRANCH   6  11
ATOM     11  C   UNL     1      38.966 183.044 170.825  1.00  0.00     0.338 C 
ATOM     12  O   UNL     1      39.171 183.326 169.613  1.00  0.00    -0.246 OA
BRANCH  11  13
ATOM     13  O   UNL     1      37.658 182.948 171.312  1.00  0.00    -0.465 OA
ATOM     14  C   UNL     1      36.675 183.946 171.068  1.00  0.00     0.282 C 
ENDBRANCH  11  13
ENDBRANCH   6  11
TORSDOF 4
ENDMDL
MODEL 3
REMARK VINA RESULT:    -3.730      1.838      2.378
REMARK INTER + INTRA:          -4.960
REMARK INTER:                  -4.546
REMARK INTRA:                  -0.414
REMARK UNBOUND:                -0.358
REMARK SMILES COC(=O)c1ccccc1C(=O)OC
REMARK SMILES IDX 5 1 6 2 7 3 8 4 9 5 10 6 3 7 4 8 2 9 1 10 11 11 12 12 13 13
REMARK SMILES IDX 14 14
REMARK H PARENT
REMARK Flexibility Score: inf
ROOT
ATOM      1  C   UNL     1      38.653 184.107 171.334  1.00  0.00     0.074 A 
ATOM      2  C   UNL     1      39.820 183.331 171.211  1.00  0.00     0.016 A 
ATOM      3  C   UNL     1      41.003 183.718 171.842  1.00  0.00     0.001 A 
ATOM      4  C   UNL     1      41.040 184.885 172.602  1.00  0.00     0.001 A 
ATOM      5  C   UNL     1      39.890 185.658 172.754  1.00  0.00     0.016 A 
ATOM      6  C   UNL     1      38.680 185.275 172.146  1.00  0.00     0.074 A 
ENDROOT
BRANCH   1   7
ATOM      7  C   UNL     1      37.462 183.711 170.548  1.00  0.00     0.338 C 
ATOM      8  O   UNL     1      37.324 184.132 169.366  1.00  0.00    -0.246 OA
BRANCH   7   9
ATOM      9  O   UNL     1      36.467 182.920 171.132  1.00  0.00    -0.465 OA
ATOM     10  C   UNL     1      35.117 182.932 170.686  1.00  0.00     0.282 C 
ENDBRANCH   7   9
ENDBRANCH   1   7
BRANCH   6  11
ATOM     11  C   UNL     1      37.471 186.078 172.442  1.00  0.00     0.338 C 
ATOM     12  O   UNL     1      37.209 187.108 171.763  1.00  0.00    -0.246 OA
BRANCH  11  13
ATOM     13  O   UNL     1      36.591 185.655 173.444  1.00  0.00    -0.465 OA
ATOM     14  C   UNL     1      35.180 185.638 173.267  1.00  0.00     0.282 C 
ENDBRANCH  11  13
ENDBRANCH   6  11
TORSDOF 4
ENDMDL
MODEL 4
REMARK VINA RESULT:    -3.711      1.911      4.306
REMARK INTER + INTRA:          -4.936
REMARK INTER:                  -4.621
REMARK INTRA:                  -0.315
REMARK UNBOUND:                -0.358
REMARK SMILES COC(=O)c1ccccc1C(=O)OC
REMARK SMILES IDX 5 1 6 2 7 3 8 4 9 5 10 6 3 7 4 8 2 9 1 10 11 11 12 12 13 13
REMARK SMILES IDX 14 14
REMARK H PARENT
REMARK Flexibility Score: inf
ROOT
ATOM      1  C   UNL     1      39.017 184.239 171.890  1.00  0.00     0.074 A 
ATOM      2  C   UNL     1      39.843 185.162 172.559  1.00  0.00     0.016 A 
ATOM      3  C   UNL     1      39.340 186.391 172.987  1.00  0.00     0.001 A 
ATOM      4  C   UNL     1      38.007 186.720 172.751  1.00  0.00     0.001 A 
ATOM      5  C   UNL     1      37.165 185.812 172.110  1.00  0.00     0.016 A 
ATOM      6  C   UNL     1      37.645 184.558 171.691  1.00  0.00     0.074 A 
ENDROOT
BRANCH   1   7
ATOM      7  C   UNL     1      39.634 183.004 171.357  1.00  0.00     0.338 C 
ATOM      8  O   UNL     1      39.842 182.893 170.117  1.00  0.00    -0.246 OA
BRANCH   7   9
ATOM      9  O   UNL     1      39.933 181.941 172.216  1.00  0.00    -0.465 OA
ATOM     10  C   UNL     1      41.052 181.086 172.019  1.00  0.00     0.282 C 
ENDBRANCH   7   9
ENDBRANCH   1   7
BRANCH   6  11
ATOM     11  C   UNL     1      36.671 183.599 171.120  1.00  0.00     0.338 C 
ATOM     12  O   UNL     1      36.257 182.626 171.808  1.00  0.00    -0.246 OA
BRANCH  11  13
ATOM     13  O   UNL     1      36.169 183.811 169.831  1.00  0.00    -0.465 OA
ATOM     14  C   UNL     1      36.980 184.274 168.759  1.00  0.00     0.282 C 
ENDBRANCH  11  13
ENDBRANCH   6  11
TORSDOF 4
ENDMDL
MODEL 5
REMARK VINA RESULT:    -3.706      1.920      4.012
REMARK INTER + INTRA:          -4.930
REMARK INTER:                  -4.629
REMARK INTRA:                  -0.301
REMARK UNBOUND:                -0.358
REMARK SMILES COC(=O)c1ccccc1C(=O)OC
REMARK SMILES IDX 5 1 6 2 7 3 8 4 9 5 10 6 3 7 4 8 2 9 1 10 11 11 12 12 13 13
REMARK SMILES IDX 14 14
REMARK H PARENT
REMARK Flexibility Score: inf
ROOT
ATOM      1  C   UNL     1      37.588 184.572 171.685  1.00  0.00     0.074 A 
ATOM      2  C   UNL     1      37.144 185.835 172.119  1.00  0.00     0.016 A 
ATOM      3  C   UNL     1      38.018 186.723 172.745  1.00  0.00     0.001 A 
ATOM      4  C   UNL     1      39.348 186.364 172.952  1.00  0.00     0.001 A 
ATOM      5  C   UNL     1      39.816 185.126 172.512  1.00  0.00     0.016 A 
ATOM      6  C   UNL     1      38.957 184.225 171.857  1.00  0.00     0.074 A 
ENDROOT
BRANCH   1   7
ATOM      7  C   UNL     1      36.589 183.628 171.135  1.00  0.00     0.338 C 
ATOM      8  O   UNL     1      36.205 182.647 171.830  1.00  0.00    -0.246 OA
BRANCH   7   9
ATOM      9  O   UNL     1      36.116 183.790 169.829  1.00  0.00    -0.465 OA
ATOM     10  C   UNL     1      36.941 184.246 168.764  1.00  0.00     0.282 C 
ENDBRANCH   7   9
ENDBRANCH   1   7
BRANCH   6  11
ATOM     11  C   UNL     1      39.545 182.978 171.315  1.00  0.00     0.338 C 
ATOM     12  O   UNL     1      39.765 182.863 170.078  1.00  0.00    -0.246 OA
BRANCH  11  13
ATOM     13  O   UNL     1      39.907 181.949 172.191  1.00  0.00    -0.465 OA
ATOM     14  C   UNL     1      41.045 181.123 171.975  1.00  0.00     0.282 C 
ENDBRANCH  11  13
ENDBRANCH   6  11
TORSDOF 4
ENDMDL
MODEL 6
REMARK VINA RESULT:    -3.677      1.837      3.763
REMARK INTER + INTRA:          -4.895
REMARK INTER:                  -4.506
REMARK INTRA:                  -0.388
REMARK UNBOUND:                -0.358
REMARK SMILES COC(=O)c1ccccc1C(=O)OC
REMARK SMILES IDX 5 1 6 2 7 3 8 4 9 5 10 6 3 7 4 8 2 9 1 10 11 11 12 12 13 13
REMARK SMILES IDX 14 14
REMARK H PARENT
REMARK Flexibility Score: inf
ROOT
ATOM      1  C   UNL     1      38.665 185.235 172.209  1.00  0.00     0.074 A 
ATOM      2  C   UNL     1      39.878 185.597 172.824  1.00  0.00     0.016 A 
ATOM      3  C   UNL     1      41.036 184.848 172.613  1.00  0.00     0.001 A 
ATOM      4  C   UNL     1      41.001 183.725 171.791  1.00  0.00     0.001 A 
ATOM      5  C   UNL     1      39.815 183.360 171.155  1.00  0.00     0.016 A 
ATOM      6  C   UNL     1      38.641 184.114 171.334  1.00  0.00     0.074 A 
ENDROOT
BRANCH   1   7
ATOM      7  C   UNL     1      37.445 185.997 172.562  1.00  0.00     0.338 C 
ATOM      8  O   UNL     1      37.068 186.950 171.825  1.00  0.00    -0.246 OA
BRANCH   7   9
ATOM      9  O   UNL     1      36.747 185.699 173.737  1.00  0.00    -0.465 OA
ATOM     10  C   UNL     1      35.440 185.138 173.732  1.00  0.00     0.282 C 
ENDBRANCH   7   9
ENDBRANCH   1   7
BRANCH   6  11
ATOM     11  C   UNL     1      37.448 183.738 170.541  1.00  0.00     0.338 C 
ATOM     12  O   UNL     1      37.331 184.123 169.344  1.00  0.00    -0.246 OA
BRANCH  11  13
ATOM     13  O   UNL     1      36.477 182.906 171.108  1.00  0.00    -0.465 OA
ATOM     14  C   UNL     1      35.110 182.945 170.717  1.00  0.00     0.282 C 
ENDBRANCH  11  13
ENDBRANCH   6  11
TORSDOF 4
ENDMDL
MODEL 7
REMARK VINA RESULT:    -3.674      2.445      3.759
REMARK INTER + INTRA:          -4.890
REMARK INTER:                  -4.552
REMARK INTRA:                  -0.338
REMARK UNBOUND:                -0.358
REMARK SMILES COC(=O)c1ccccc1C(=O)OC
REMARK SMILES IDX 5 1 6 2 7 3 8 4 9 5 10 6 3 7 4 8 2 9 1 10 11 11 12 12 13 13
REMARK SMILES IDX 14 14
REMARK H PARENT
REMARK Flexibility Score: inf
ROOT
ATOM      1  C   UNL     1      37.950 183.482 170.777  1.00  0.00     0.074 A 
ATOM      2  C   UNL     1      39.344 183.327 170.666  1.00  0.00     0.016 A 
ATOM      3  C   UNL     1      40.059 182.594 171.614  1.00  0.00     0.001 A 
ATOM      4  C   UNL     1      39.394 182.007 172.688  1.00  0.00     0.001 A 
ATOM      5  C   UNL     1      38.010 182.130 172.807  1.00  0.00     0.016 A 
ATOM      6  C   UNL     1      37.267 182.845 171.850  1.00  0.00     0.074 A 
ENDROOT
BRANCH   1   7
ATOM      7  C   UNL     1      37.263 184.367 169.809  1.00  0.00     0.338 C 
ATOM      8  O   UNL     1      37.000 183.942 168.650  1.00  0.00    -0.246 OA
BRANCH   7   9
ATOM      9  O   UNL     1      36.959 185.687 170.158  1.00  0.00    -0.465 OA
ATOM     10  C   UNL     1      37.268 186.234 171.434  1.00  0.00     0.282 C 
ENDBRANCH   7   9
ENDBRANCH   1   7
BRANCH   6  11
ATOM     11  C   UNL     1      35.791 182.839 171.974  1.00  0.00     0.338 C 
ATOM     12  O   UNL     1      35.209 183.693 172.698  1.00  0.00    -0.246 OA
BRANCH  11  13
ATOM     13  O   UNL     1      35.041 181.915 171.238  1.00  0.00    -0.465 OA
ATOM     14  C   UNL     1      34.188 182.300 170.167  1.00  0.00     0.282 C 
ENDBRANCH  11  13
ENDBRANCH   6  11
TORSDOF 4
ENDMDL
MODEL 8
REMARK VINA RESULT:    -3.600      3.813      5.442
REMARK INTER + INTRA:          -4.799
REMARK INTER:                  -4.471
REMARK INTRA:                  -0.328
REMARK UNBOUND:                -0.358
REMARK SMILES COC(=O)c1ccccc1C(=O)OC
REMARK SMILES IDX 5 1 6 2 7 3 8 4 9 5 10 6 3 7 4 8 2 9 1 10 11 11 12 12 13 13
REMARK SMILES IDX 14 14
REMARK H PARENT
REMARK Flexibility Score: inf
ROOT
ATOM      1  C   UNL     1      35.224 183.646 171.593  1.00  0.00     0.074 A 
ATOM      2  C   UNL     1      34.361 184.161 172.578  1.00  0.00     0.016 A 
ATOM      3  C   UNL     1      34.663 185.352 173.240  1.00  0.00     0.001 A 
ATOM      4  C   UNL     1      35.831 186.045 172.931  1.00  0.00     0.001 A 
ATOM      5  C   UNL     1      36.690 185.565 171.943  1.00  0.00     0.016 A 
ATOM      6  C   UNL     1      36.394 184.379 171.247  1.00  0.00     0.074 A 
ENDROOT
BRANCH   1   7
ATOM      7  C   UNL     1      34.912 182.321 171.010  1.00  0.00     0.338 C 
ATOM      8  O   UNL     1      35.365 181.276 171.553  1.00  0.00    -0.246 OA
BRANCH   7   9
ATOM      9  O   UNL     1      34.165 182.232 169.831  1.00  0.00    -0.465 OA
ATOM     10  C   UNL     1      33.450 181.060 169.461  1.00  0.00     0.282 C 
ENDBRANCH   7   9
ENDBRANCH   1   7
BRANCH   6  11
ATOM     11  C   UNL     1      37.288 183.987 170.133  1.00  0.00     0.338 C 
ATOM     12  O   UNL     1      38.382 183.404 170.369  1.00  0.00    -0.246 OA
BRANCH  11  13
ATOM     13  O   UNL     1      36.886 184.217 168.813  1.00  0.00    -0.465 OA
ATOM     14  C   UNL     1      37.108 185.454 168.148  1.00  0.00     0.282 C 
ENDBRANCH  11  13
ENDBRANCH   6  11
TORSDOF 4
ENDMDL
MODEL 9
REMARK VINA RESULT:    -3.550      2.623      5.748
REMARK INTER + INTRA:          -4.738
REMARK INTER:                  -4.414
REMARK INTRA:                  -0.324
REMARK UNBOUND:                -0.358
REMARK SMILES COC(=O)c1ccccc1C(=O)OC
REMARK SMILES IDX 5 1 6 2 7 3 8 4 9 5 10 6 3 7 4 8 2 9 1 10 11 11 12 12 13 13
REMARK SMILES IDX 14 14
REMARK H PARENT
REMARK Flexibility Score: inf
ROOT
ATOM      1  C   UNL     1      36.408 184.473 171.203  1.00  0.00     0.074 A 
ATOM      2  C   UNL     1      36.631 185.686 171.880  1.00  0.00     0.016 A 
ATOM      3  C   UNL     1      35.741 186.132 172.857  1.00  0.00     0.001 A 
ATOM      4  C   UNL     1      34.613 185.378 173.171  1.00  0.00     0.001 A 
ATOM      5  C   UNL     1      34.383 184.162 172.528  1.00  0.00     0.016 A 
ATOM      6  C   UNL     1      35.280 183.682 171.556  1.00  0.00     0.074 A 
ENDROOT
BRANCH   1   7
ATOM      7  C   UNL     1      37.321 184.109 170.096  1.00  0.00     0.338 C 
ATOM      8  O   UNL     1      37.018 184.413 168.909  1.00  0.00    -0.246 OA
BRANCH   7   9
ATOM      9  O   UNL     1      38.488 183.383 170.358  1.00  0.00    -0.465 OA
ATOM     10  C   UNL     1      38.810 182.889 171.653  1.00  0.00     0.282 C 
ENDBRANCH   7   9
ENDBRANCH   1   7
BRANCH   6  11
ATOM     11  C   UNL     1      35.036 182.332 170.996  1.00  0.00     0.338 C 
ATOM     12  O   UNL     1      35.438 181.305 171.610  1.00  0.00    -0.246 OA
BRANCH  11  13
ATOM     13  O   UNL     1      34.308 182.200 169.809  1.00  0.00    -0.465 OA
ATOM     14  C   UNL     1      33.557 181.034 169.496  1.00  0.00     0.282 C 
ENDBRANCH  11  13
ENDBRANCH   6  11
TORSDOF 4
ENDMDL
