MODEL 1
REMARK VINA RESULT:    -4.908      0.000      0.000
REMARK INTER + INTRA:          -5.339
REMARK INTER:                  -5.339
REMARK INTRA:                   0.000
REMARK UNBOUND:                 0.000
REMARK SMILES Oc1cccc(O)c1O
REMARK SMILES IDX 4 1 5 2 6 3 8 4 2 5 3 6 7 7 1 9 9 11
REMARK H PARENT 7 8 1 10 9 12
REMARK Flexibility Score: inf
ROOT
ATOM      1  C   UNL     1      48.982  44.881  33.758  1.00  0.00     0.008 A 
ATOM      2  C   UNL     1      48.251  44.675  32.589  1.00  0.00     0.050 A 
ATOM      3  C   UNL     1      47.333  43.621  32.498  1.00  0.00     0.161 A 
ATOM      4  C   UNL     1      47.149  42.758  33.608  1.00  0.00     0.200 A 
ATOM      5  C   UNL     1      47.893  42.977  34.784  1.00  0.00     0.161 A 
ATOM      6  C   UNL     1      48.804  44.035  34.852  1.00  0.00     0.050 A 
ENDROOT
BRANCH   3   7
ATOM      7  O   UNL     1      46.634  43.471  31.298  1.00  0.00    -0.504 OA
ATOM      8  H   UNL     1      47.075  43.347  30.398  1.00  0.00     0.293 HD
ENDBRANCH   3   7
BRANCH   5   9
ATOM      9  O   UNL     1      47.741  42.150  35.898  1.00  0.00    -0.504 OA
ATOM     10  H   UNL     1      47.827  41.143  35.839  1.00  0.00     0.293 HD
ENDBRANCH   5   9
BRANCH   4  11
ATOM     11  O   UNL     1      46.249  41.689  33.579  1.00  0.00    -0.502 OA
ATOM     12  H   UNL     1      45.940  41.231  32.734  1.00  0.00     0.293 HD
ENDBRANCH   4  11
TORSDOF 3
ENDMDL
MODEL 2
REMARK VINA RESULT:    -4.846      0.151      2.828
REMARK INTER + INTRA:          -5.271
REMARK INTER:                  -5.271
REMARK INTRA:                   0.000
REMARK UNBOUND:                 0.000
REMARK SMILES Oc1cccc(O)c1O
REMARK SMILES IDX 4 1 5 2 6 3 8 4 2 5 3 6 7 7 1 9 9 11
REMARK H PARENT 7 8 1 10 9 12
REMARK Flexibility Score: inf
ROOT
ATOM      1  C   UNL     1      48.942  44.991  33.887  1.00  0.00     0.008 A 
ATOM      2  C   UNL     1      48.765  44.092  34.938  1.00  0.00     0.050 A 
ATOM      3  C   UNL     1      47.927  42.979  34.791  1.00  0.00     0.161 A 
ATOM      4  C   UNL     1      47.256  42.768  33.560  1.00  0.00     0.200 A 
ATOM      5  C   UNL     1      47.443  43.683  32.506  1.00  0.00     0.161 A 
ATOM      6  C   UNL     1      48.284  44.788  32.675  1.00  0.00     0.050 A 
ENDROOT
BRANCH   3   7
ATOM      7  O   UNL     1      47.794  42.119  35.883  1.00  0.00    -0.504 OA
ATOM      8  H   UNL     1      48.368  41.302  36.033  1.00  0.00     0.293 HD
ENDBRANCH   3   7
BRANCH   5   9
ATOM      9  O   UNL     1      46.800  43.511  31.279  1.00  0.00    -0.504 OA
ATOM     10  H   UNL     1      46.778  44.238  30.574  1.00  0.00     0.293 HD
ENDBRANCH   5   9
BRANCH   4  11
ATOM     11  O   UNL     1      46.407  41.677  33.351  1.00  0.00    -0.502 OA
ATOM     12  H   UNL     1      45.433  41.658  33.616  1.00  0.00     0.293 HD
ENDBRANCH   4  11
TORSDOF 3
ENDMDL
MODEL 3
REMARK VINA RESULT:    -4.621      1.473      2.781
REMARK INTER + INTRA:          -5.026
REMARK INTER:                  -5.026
REMARK INTRA:                   0.000
REMARK UNBOUND:                 0.000
REMARK SMILES Oc1cccc(O)c1O
REMARK SMILES IDX 4 1 5 2 6 3 8 4 2 5 3 6 7 7 1 9 9 11
REMARK H PARENT 7 8 1 10 9 12
REMARK Flexibility Score: inf
ROOT
ATOM      1  C   UNL     1      47.295  44.017  32.474  1.00  0.00     0.008 A 
ATOM      2  C   UNL     1      48.315  44.371  33.357  1.00  0.00     0.050 A 
ATOM      3  C   UNL     1      48.422  43.752  34.608  1.00  0.00     0.161 A 
ATOM      4  C   UNL     1      47.484  42.754  34.976  1.00  0.00     0.200 A 
ATOM      5  C   UNL     1      46.459  42.404  34.075  1.00  0.00     0.161 A 
ATOM      6  C   UNL     1      46.371  43.037  32.831  1.00  0.00     0.050 A 
ENDROOT
BRANCH   3   7
ATOM      7  O   UNL     1      49.466  44.154  35.444  1.00  0.00    -0.504 OA
ATOM      8  H   UNL     1      50.205  44.783  35.164  1.00  0.00     0.293 HD
ENDBRANCH   3   7
BRANCH   5   9
ATOM      9  O   UNL     1      45.517  41.427  34.399  1.00  0.00    -0.504 OA
ATOM     10  H   UNL     1      45.122  41.344  35.328  1.00  0.00     0.293 HD
ENDBRANCH   5   9
BRANCH   4  11
ATOM     11  O   UNL     1      47.538  42.099  36.209  1.00  0.00    -0.502 OA
ATOM     12  H   UNL     1      47.366  42.547  37.098  1.00  0.00     0.293 HD
ENDBRANCH   4  11
TORSDOF 3
ENDMDL
MODEL 4
REMARK VINA RESULT:    -4.619      2.034      2.631
REMARK INTER + INTRA:          -5.024
REMARK INTER:                  -5.024
REMARK INTRA:                   0.000
REMARK UNBOUND:                 0.000
REMARK SMILES Oc1cccc(O)c1O
REMARK SMILES IDX 4 1 5 2 6 3 8 4 2 5 3 6 7 7 1 9 9 11
REMARK H PARENT 7 8 1 10 9 12
REMARK Flexibility Score: inf
ROOT
ATOM      1  C   UNL     1      49.354  41.820  32.086  1.00  0.00     0.008 A 
ATOM      2  C   UNL     1      49.334  42.946  31.262  1.00  0.00     0.050 A 
ATOM      3  C   UNL     1      48.202  43.767  31.204  1.00  0.00     0.161 A 
ATOM      4  C   UNL     1      47.067  43.449  31.991  1.00  0.00     0.200 A 
ATOM      5  C   UNL     1      47.099  42.309  32.819  1.00  0.00     0.161 A 
ATOM      6  C   UNL     1      48.240  41.503  32.861  1.00  0.00     0.050 A 
ENDROOT
BRANCH   3   7
ATOM      7  O   UNL     1      48.249  44.879  30.359  1.00  0.00    -0.504 OA
ATOM      8  H   UNL     1      48.845  45.680  30.511  1.00  0.00     0.293 HD
ENDBRANCH   3   7
BRANCH   5   9
ATOM      9  O   UNL     1      46.002  41.961  33.609  1.00  0.00    -0.504 OA
ATOM     10  H   UNL     1      45.061  42.263  33.390  1.00  0.00     0.293 HD
ENDBRANCH   5   9
BRANCH   4  11
ATOM     11  O   UNL     1      45.907  44.229  31.977  1.00  0.00    -0.502 OA
ATOM     12  H   UNL     1      45.717  44.949  31.296  1.00  0.00     0.293 HD
ENDBRANCH   4  11
TORSDOF 3
ENDMDL
MODEL 5
REMARK VINA RESULT:    -4.606      1.520      2.477
REMARK INTER + INTRA:          -5.010
REMARK INTER:                  -5.010
REMARK INTRA:                   0.000
REMARK UNBOUND:                 0.000
REMARK SMILES Oc1cccc(O)c1O
REMARK SMILES IDX 4 1 5 2 6 3 8 4 2 5 3 6 7 7 1 9 9 11
REMARK H PARENT 7 8 1 10 9 12
REMARK Flexibility Score: inf
ROOT
ATOM      1  C   UNL     1      47.242  43.839  32.376  1.00  0.00     0.008 A 
ATOM      2  C   UNL     1      46.313  42.886  32.793  1.00  0.00     0.050 A 
ATOM      3  C   UNL     1      46.402  42.312  34.067  1.00  0.00     0.161 A 
ATOM      4  C   UNL     1      47.449  42.706  34.938  1.00  0.00     0.200 A 
ATOM      5  C   UNL     1      48.381  43.670  34.506  1.00  0.00     0.161 A 
ATOM      6  C   UNL     1      48.273  44.229  33.229  1.00  0.00     0.050 A 
ENDROOT
BRANCH   3   7
ATOM      7  O   UNL     1      45.439  41.364  34.421  1.00  0.00    -0.504 OA
ATOM      8  H   UNL     1      45.652  40.474  34.847  1.00  0.00     0.293 HD
ENDBRANCH   3   7
BRANCH   5   9
ATOM      9  O   UNL     1      49.426  44.085  35.333  1.00  0.00    -0.504 OA
ATOM     10  H   UNL     1      49.275  44.690  36.131  1.00  0.00     0.293 HD
ENDBRANCH   5   9
BRANCH   4  11
ATOM     11  O   UNL     1      47.592  42.171  36.221  1.00  0.00    -0.502 OA
ATOM     12  H   UNL     1      47.175  42.569  37.051  1.00  0.00     0.293 HD
ENDBRANCH   4  11
TORSDOF 3
ENDMDL
MODEL 6
REMARK VINA RESULT:    -4.570     13.716     14.614
REMARK INTER + INTRA:          -4.971
REMARK INTER:                  -4.971
REMARK INTRA:                   0.000
REMARK UNBOUND:                 0.000
REMARK SMILES Oc1cccc(O)c1O
REMARK SMILES IDX 4 1 5 2 6 3 8 4 2 5 3 6 7 7 1 9 9 11
REMARK H PARENT 7 8 1 10 9 12
REMARK Flexibility Score: inf
ROOT
ATOM      1  C   UNL     1      46.749  45.152  46.599  1.00  0.00     0.008 A 
ATOM      2  C   UNL     1      45.961  46.289  46.422  1.00  0.00     0.050 A 
ATOM      3  C   UNL     1      44.849  46.520  47.241  1.00  0.00     0.161 A 
ATOM      4  C   UNL     1      44.524  45.588  48.258  1.00  0.00     0.200 A 
ATOM      5  C   UNL     1      45.329  44.443  48.428  1.00  0.00     0.161 A 
ATOM      6  C   UNL     1      46.434  44.232  47.598  1.00  0.00     0.050 A 
ENDROOT
BRANCH   3   7
ATOM      7  O   UNL     1      44.102  47.678  47.009  1.00  0.00    -0.504 OA
ATOM      8  H   UNL     1      44.470  48.510  46.572  1.00  0.00     0.293 HD
ENDBRANCH   3   7
BRANCH   5   9
ATOM      9  O   UNL     1      45.043  43.502  49.418  1.00  0.00    -0.504 OA
ATOM     10  H   UNL     1      45.770  43.033  49.944  1.00  0.00     0.293 HD
ENDBRANCH   5   9
BRANCH   4  11
ATOM     11  O   UNL     1      43.428  45.762  49.108  1.00  0.00    -0.502 OA
ATOM     12  H   UNL     1      43.494  46.104  50.056  1.00  0.00     0.293 HD
ENDBRANCH   4  11
TORSDOF 3
ENDMDL
MODEL 7
REMARK VINA RESULT:    -4.548     13.474     14.911
REMARK INTER + INTRA:          -4.947
REMARK INTER:                  -4.947
REMARK INTRA:                   0.000
REMARK UNBOUND:                 0.000
REMARK SMILES Oc1cccc(O)c1O
REMARK SMILES IDX 4 1 5 2 6 3 8 4 2 5 3 6 7 7 1 9 9 11
REMARK H PARENT 7 8 1 10 9 12
REMARK Flexibility Score: inf
ROOT
ATOM      1  C   UNL     1      46.315  47.016  47.214  1.00  0.00     0.008 A 
ATOM      2  C   UNL     1      46.008  46.592  48.508  1.00  0.00     0.050 A 
ATOM      3  C   UNL     1      44.740  46.083  48.810  1.00  0.00     0.161 A 
ATOM      4  C   UNL     1      43.760  45.998  47.789  1.00  0.00     0.200 A 
ATOM      5  C   UNL     1      44.081  46.428  46.486  1.00  0.00     0.161 A 
ATOM      6  C   UNL     1      45.354  46.934  46.207  1.00  0.00     0.050 A 
ENDROOT
BRANCH   3   7
ATOM      7  O   UNL     1      44.499  45.678  50.125  1.00  0.00    -0.504 OA
ATOM      8  H   UNL     1      45.056  45.967  50.917  1.00  0.00     0.293 HD
ENDBRANCH   3   7
BRANCH   5   9
ATOM      9  O   UNL     1      43.145  46.360  45.453  1.00  0.00    -0.504 OA
ATOM     10  H   UNL     1      42.614  47.168  45.151  1.00  0.00     0.293 HD
ENDBRANCH   5   9
BRANCH   4  11
ATOM     11  O   UNL     1      42.476  45.499  48.027  1.00  0.00    -0.502 OA
ATOM     12  H   UNL     1      41.631  46.043  47.935  1.00  0.00     0.293 HD
ENDBRANCH   4  11
TORSDOF 3
ENDMDL
MODEL 8
REMARK VINA RESULT:    -4.500      1.119      2.889
REMARK INTER + INTRA:          -4.895
REMARK INTER:                  -4.895
REMARK INTRA:                   0.000
REMARK UNBOUND:                 0.000
REMARK SMILES Oc1cccc(O)c1O
REMARK SMILES IDX 4 1 5 2 6 3 8 4 2 5 3 6 7 7 1 9 9 11
REMARK H PARENT 7 8 1 10 9 12
REMARK Flexibility Score: inf
ROOT
ATOM      1  C   UNL     1      48.760  43.798  34.408  1.00  0.00     0.008 A 
ATOM      2  C   UNL     1      47.665  42.960  34.622  1.00  0.00     0.050 A 
ATOM      3  C   UNL     1      46.714  42.757  33.614  1.00  0.00     0.161 A 
ATOM      4  C   UNL     1      46.870  43.410  32.366  1.00  0.00     0.200 A 
ATOM      5  C   UNL     1      47.980  44.253  32.161  1.00  0.00     0.161 A 
ATOM      6  C   UNL     1      48.916  44.442  33.182  1.00  0.00     0.050 A 
ENDROOT
BRANCH   3   7
ATOM      7  O   UNL     1      45.643  41.906  33.896  1.00  0.00    -0.504 OA
ATOM      8  H   UNL     1      45.676  41.160  34.575  1.00  0.00     0.293 HD
ENDBRANCH   3   7
BRANCH   5   9
ATOM      9  O   UNL     1      48.169  44.914  30.946  1.00  0.00    -0.504 OA
ATOM     10  H   UNL     1      48.006  45.907  30.840  1.00  0.00     0.293 HD
ENDBRANCH   5   9
BRANCH   4  11
ATOM     11  O   UNL     1      45.956  43.247  31.321  1.00  0.00    -0.502 OA
ATOM     12  H   UNL     1      46.032  43.707  30.425  1.00  0.00     0.293 HD
ENDBRANCH   4  11
TORSDOF 3
ENDMDL
MODEL 9
REMARK VINA RESULT:    -4.403     13.558     14.987
REMARK INTER + INTRA:          -4.789
REMARK INTER:                  -4.789
REMARK INTRA:                   0.000
REMARK UNBOUND:                 0.000
REMARK SMILES Oc1cccc(O)c1O
REMARK SMILES IDX 4 1 5 2 6 3 8 4 2 5 3 6 7 7 1 9 9 11
REMARK H PARENT 7 8 1 10 9 12
REMARK Flexibility Score: inf
ROOT
ATOM      1  C   UNL     1      46.273  43.914  49.412  1.00  0.00     0.008 A 
ATOM      2  C   UNL     1      44.999  44.423  49.664  1.00  0.00     0.050 A 
ATOM      3  C   UNL     1      44.363  45.247  48.728  1.00  0.00     0.161 A 
ATOM      4  C   UNL     1      45.021  45.564  47.513  1.00  0.00     0.200 A 
ATOM      5  C   UNL     1      46.308  45.043  47.270  1.00  0.00     0.161 A 
ATOM      6  C   UNL     1      46.925  44.223  48.219  1.00  0.00     0.050 A 
ENDROOT
BRANCH   3   7
ATOM      7  O   UNL     1      43.088  45.723  49.044  1.00  0.00    -0.504 OA
ATOM      8  H   UNL     1      42.640  46.496  48.573  1.00  0.00     0.293 HD
ENDBRANCH   3   7
BRANCH   5   9
ATOM      9  O   UNL     1      46.990  45.331  46.087  1.00  0.00    -0.504 OA
ATOM     10  H   UNL     1      47.299  44.607  45.451  1.00  0.00     0.293 HD
ENDBRANCH   5   9
BRANCH   4  11
ATOM     11  O   UNL     1      44.439  46.379  46.540  1.00  0.00    -0.502 OA
ATOM     12  H   UNL     1      44.914  46.696  45.707  1.00  0.00     0.293 HD
ENDBRANCH   4  11
TORSDOF 3
ENDMDL
