MODEL 1
REMARK VINA RESULT:    -5.458      0.000      0.000
REMARK INTER + INTRA:          -6.105
REMARK INTER:                  -5.777
REMARK INTRA:                  -0.328
REMARK UNBOUND:                -0.328
REMARK SMILES CC1=CC[C@@]23[C@@H]([C@H](C(C)C)CC[C@@H]2C)[C@H]13
REMARK SMILES IDX 14 1 13 2 12 3 11 4 7 5 6 6 5 7 15 8 2 9 3 10 4 11 1 12 8 13
REMARK SMILES IDX 9 14 10 15
REMARK H PARENT
REMARK Flexibility Score: inf
ROOT
ATOM      1  C   UNL     1       0.781  -3.379  15.142  1.00  0.00     0.008 C 
ATOM      2  C   UNL     1       1.147  -2.688  16.466  1.00  0.00    -0.007 C 
ATOM      3  C   UNL     1       1.291  -3.736  17.583  1.00  0.00     0.004 C 
ATOM      4  C   UNL     1       1.863  -3.100  18.846  1.00  0.00     0.004 C 
ATOM      5  C   UNL     1       3.330  -2.659  18.653  1.00  0.00    -0.004 C 
ATOM      6  C   UNL     1       3.493  -1.755  17.398  1.00  0.00     0.007 C 
ATOM      7  C   UNL     1       2.393  -1.770  16.320  1.00  0.00    -0.013 C 
ATOM      8  C   UNL     1       3.725  -2.463  16.052  1.00  0.00     0.025 C 
ATOM      9  C   UNL     1       4.342  -1.637  14.975  1.00  0.00    -0.073 C 
ATOM     10  C   UNL     1       3.586  -0.607  14.612  1.00  0.00    -0.027 C 
ATOM     11  C   UNL     1       2.329  -0.534  15.407  1.00  0.00     0.035 C 
ATOM     12  C   UNL     1       5.680  -1.931  14.373  1.00  0.00     0.039 C 
ENDROOT
BRANCH   5  13
ATOM     13  C   UNL     1       4.382  -3.819  18.725  1.00  0.00    -0.014 C 
ATOM     14  C   UNL     1       4.069  -4.824  19.848  1.00  0.00     0.007 C 
ATOM     15  C   UNL     1       5.803  -3.264  18.943  1.00  0.00     0.007 C 
ENDBRANCH   5  13
TORSDOF 1
ENDMDL
MODEL 2
REMARK VINA RESULT:    -5.390      1.677      3.698
REMARK INTER + INTRA:          -6.034
REMARK INTER:                  -5.768
REMARK INTRA:                  -0.265
REMARK UNBOUND:                -0.328
REMARK SMILES CC1=CC[C@@]23[C@@H]([C@H](C(C)C)CC[C@@H]2C)[C@H]13
REMARK SMILES IDX 14 1 13 2 12 3 11 4 7 5 6 6 5 7 15 8 2 9 3 10 4 11 1 12 8 13
REMARK SMILES IDX 9 14 10 15
REMARK H PARENT
REMARK Flexibility Score: inf
ROOT
ATOM      1  C   UNL     1       3.775  -0.992  14.889  1.00  0.00     0.008 C 
ATOM      2  C   UNL     1       3.231  -2.324  15.430  1.00  0.00    -0.007 C 
ATOM      3  C   UNL     1       3.803  -2.595  16.832  1.00  0.00     0.004 C 
ATOM      4  C   UNL     1       3.110  -3.795  17.471  1.00  0.00     0.004 C 
ATOM      5  C   UNL     1       1.631  -3.496  17.800  1.00  0.00    -0.004 C 
ATOM      6  C   UNL     1       0.869  -2.955  16.556  1.00  0.00     0.007 C 
ATOM      7  C   UNL     1       1.678  -2.383  15.376  1.00  0.00    -0.013 C 
ATOM      8  C   UNL     1       0.926  -1.437  16.308  1.00  0.00     0.025 C 
ATOM      9  C   UNL     1      -0.152  -0.874  15.444  1.00  0.00    -0.073 C 
ATOM     10  C   UNL     1      -0.127  -1.352  14.206  1.00  0.00    -0.027 C 
ATOM     11  C   UNL     1       0.957  -2.355  14.018  1.00  0.00     0.035 C 
ATOM     12  C   UNL     1      -1.163   0.118  15.927  1.00  0.00     0.039 C 
ENDROOT
BRANCH   5  13
ATOM     13  C   UNL     1       1.403  -2.637  19.091  1.00  0.00    -0.014 C 
ATOM     14  C   UNL     1       2.127  -3.222  20.318  1.00  0.00     0.007 C 
ATOM     15  C   UNL     1      -0.098  -2.518  19.417  1.00  0.00     0.007 C 
ENDBRANCH   5  13
TORSDOF 1
ENDMDL
MODEL 3
REMARK VINA RESULT:    -5.344      1.162      4.280
REMARK INTER + INTRA:          -5.985
REMARK INTER:                  -5.741
REMARK INTRA:                  -0.243
REMARK UNBOUND:                -0.328
REMARK SMILES CC1=CC[C@@]23[C@@H]([C@H](C(C)C)CC[C@@H]2C)[C@H]13
REMARK SMILES IDX 14 1 13 2 12 3 11 4 7 5 6 6 5 7 15 8 2 9 3 10 4 11 1 12 8 13
REMARK SMILES IDX 9 14 10 15
REMARK H PARENT
REMARK Flexibility Score: inf
ROOT
ATOM      1  C   UNL     1       1.689  -3.381  20.566  1.00  0.00     0.008 C 
ATOM      2  C   UNL     1       1.838  -3.822  19.101  1.00  0.00    -0.007 C 
ATOM      3  C   UNL     1       0.849  -3.045  18.215  1.00  0.00     0.004 C 
ATOM      4  C   UNL     1       1.130  -3.308  16.739  1.00  0.00     0.004 C 
ATOM      5  C   UNL     1       2.478  -2.700  16.293  1.00  0.00    -0.004 C 
ATOM      6  C   UNL     1       3.643  -3.158  17.217  1.00  0.00     0.007 C 
ATOM      7  C   UNL     1       3.310  -3.726  18.610  1.00  0.00    -0.013 C 
ATOM      8  C   UNL     1       3.898  -2.324  18.485  1.00  0.00     0.025 C 
ATOM      9  C   UNL     1       5.254  -2.455  19.091  1.00  0.00    -0.073 C 
ATOM     10  C   UNL     1       5.515  -3.684  19.520  1.00  0.00    -0.027 C 
ATOM     11  C   UNL     1       4.388  -4.618  19.247  1.00  0.00     0.035 C 
ATOM     12  C   UNL     1       6.224  -1.320  19.197  1.00  0.00     0.039 C 
ENDROOT
BRANCH   5  13
ATOM     13  C   UNL     1       2.454  -1.152  16.044  1.00  0.00    -0.014 C 
ATOM     14  C   UNL     1       1.045  -0.639  15.694  1.00  0.00     0.007 C 
ATOM     15  C   UNL     1       3.417  -0.760  14.908  1.00  0.00     0.007 C 
ENDBRANCH   5  13
TORSDOF 1
ENDMDL
MODEL 4
REMARK VINA RESULT:    -5.310      1.823      4.479
REMARK INTER + INTRA:          -5.949
REMARK INTER:                  -5.627
REMARK INTRA:                  -0.322
REMARK UNBOUND:                -0.328
REMARK SMILES CC1=CC[C@@]23[C@@H]([C@H](C(C)C)CC[C@@H]2C)[C@H]13
REMARK SMILES IDX 14 1 13 2 12 3 11 4 7 5 6 6 5 7 15 8 2 9 3 10 4 11 1 12 8 13
REMARK SMILES IDX 9 14 10 15
REMARK H PARENT
REMARK Flexibility Score: inf
ROOT
ATOM      1  C   UNL     1       0.865  -1.769  17.289  1.00  0.00     0.008 C 
ATOM      2  C   UNL     1       2.088  -2.697  17.220  1.00  0.00    -0.007 C 
ATOM      3  C   UNL     1       3.381  -1.863  17.193  1.00  0.00     0.004 C 
ATOM      4  C   UNL     1       4.603  -2.763  17.344  1.00  0.00     0.004 C 
ATOM      5  C   UNL     1       4.681  -3.395  18.751  1.00  0.00    -0.004 C 
ATOM      6  C   UNL     1       3.354  -4.117  19.125  1.00  0.00     0.007 C 
ATOM      7  C   UNL     1       2.071  -3.768  18.347  1.00  0.00    -0.013 C 
ATOM      8  C   UNL     1       2.253  -3.261  19.774  1.00  0.00     0.025 C 
ATOM      9  C   UNL     1       1.217  -4.004  20.548  1.00  0.00    -0.073 C 
ATOM     10  C   UNL     1       0.505  -4.836  19.796  1.00  0.00    -0.027 C 
ATOM     11  C   UNL     1       0.958  -4.829  18.378  1.00  0.00     0.035 C 
ATOM     12  C   UNL     1       1.008  -3.838  22.020  1.00  0.00     0.039 C 
ENDROOT
BRANCH   5  13
ATOM     13  C   UNL     1       5.207  -2.438  19.876  1.00  0.00    -0.014 C 
ATOM     14  C   UNL     1       6.297  -1.479  19.365  1.00  0.00     0.007 C 
ATOM     15  C   UNL     1       5.775  -3.241  21.063  1.00  0.00     0.007 C 
ENDBRANCH   5  13
TORSDOF 1
ENDMDL
MODEL 5
REMARK VINA RESULT:    -5.290      1.433      4.796
REMARK INTER + INTRA:          -5.928
REMARK INTER:                  -5.613
REMARK INTRA:                  -0.314
REMARK UNBOUND:                -0.328
REMARK SMILES CC1=CC[C@@]23[C@@H]([C@H](C(C)C)CC[C@@H]2C)[C@H]13
REMARK SMILES IDX 14 1 13 2 12 3 11 4 7 5 6 6 5 7 15 8 2 9 3 10 4 11 1 12 8 13
REMARK SMILES IDX 9 14 10 15
REMARK H PARENT
REMARK Flexibility Score: inf
ROOT
ATOM      1  C   UNL     1       0.962  -2.936  21.326  1.00  0.00     0.008 C 
ATOM      2  C   UNL     1       1.189  -3.675  19.997  1.00  0.00    -0.007 C 
ATOM      3  C   UNL     1       0.793  -2.769  18.818  1.00  0.00     0.004 C 
ATOM      4  C   UNL     1       1.214  -3.398  17.493  1.00  0.00     0.004 C 
ATOM      5  C   UNL     1       2.750  -3.442  17.340  1.00  0.00    -0.004 C 
ATOM      6  C   UNL     1       3.426  -4.118  18.567  1.00  0.00     0.007 C 
ATOM      7  C   UNL     1       2.634  -4.238  19.883  1.00  0.00    -0.013 C 
ATOM      8  C   UNL     1       3.759  -3.214  19.767  1.00  0.00     0.025 C 
ATOM      9  C   UNL     1       4.800  -3.726  20.704  1.00  0.00    -0.073 C 
ATOM     10  C   UNL     1       4.446  -4.856  21.306  1.00  0.00    -0.027 C 
ATOM     11  C   UNL     1       3.109  -5.330  20.856  1.00  0.00     0.035 C 
ATOM     12  C   UNL     1       6.112  -3.044  20.934  1.00  0.00     0.039 C 
ENDROOT
BRANCH   5  13
ATOM     13  C   UNL     1       3.412  -2.079  16.938  1.00  0.00    -0.014 C 
ATOM     14  C   UNL     1       2.511  -1.243  16.010  1.00  0.00     0.007 C 
ATOM     15  C   UNL     1       4.764  -2.307  16.236  1.00  0.00     0.007 C 
ENDBRANCH   5  13
TORSDOF 1
ENDMDL
MODEL 6
REMARK VINA RESULT:    -5.259      1.756      4.448
REMARK INTER + INTRA:          -5.895
REMARK INTER:                  -5.632
REMARK INTRA:                  -0.263
REMARK UNBOUND:                -0.328
REMARK SMILES CC1=CC[C@@]23[C@@H]([C@H](C(C)C)CC[C@@H]2C)[C@H]13
REMARK SMILES IDX 14 1 13 2 12 3 11 4 7 5 6 6 5 7 15 8 2 9 3 10 4 11 1 12 8 13
REMARK SMILES IDX 9 14 10 15
REMARK H PARENT
REMARK Flexibility Score: inf
ROOT
ATOM      1  C   UNL     1       6.338  -1.263  20.629  1.00  0.00     0.008 C 
ATOM      2  C   UNL     1       6.133  -2.780  20.487  1.00  0.00    -0.007 C 
ATOM      3  C   UNL     1       5.264  -3.303  21.644  1.00  0.00     0.004 C 
ATOM      4  C   UNL     1       4.870  -4.757  21.404  1.00  0.00     0.004 C 
ATOM      5  C   UNL     1       3.902  -4.900  20.209  1.00  0.00    -0.004 C 
ATOM      6  C   UNL     1       4.467  -4.213  18.932  1.00  0.00     0.007 C 
ATOM      7  C   UNL     1       5.587  -3.165  19.084  1.00  0.00    -0.013 C 
ATOM      8  C   UNL     1       4.167  -2.714  18.756  1.00  0.00     0.025 C 
ATOM      9  C   UNL     1       4.277  -2.184  17.366  1.00  0.00    -0.073 C 
ATOM     10  C   UNL     1       5.507  -2.274  16.872  1.00  0.00    -0.027 C 
ATOM     11  C   UNL     1       6.446  -2.915  17.833  1.00  0.00     0.035 C 
ATOM     12  C   UNL     1       3.120  -1.619  16.603  1.00  0.00     0.039 C 
ENDROOT
BRANCH   5  13
ATOM     13  C   UNL     1       2.413  -4.515  20.515  1.00  0.00    -0.014 C 
ATOM     14  C   UNL     1       1.862  -5.251  21.750  1.00  0.00     0.007 C 
ATOM     15  C   UNL     1       1.504  -4.825  19.311  1.00  0.00     0.007 C 
ENDBRANCH   5  13
TORSDOF 1
ENDMDL
MODEL 7
REMARK VINA RESULT:    -5.219      1.385      2.735
REMARK INTER + INTRA:          -5.852
REMARK INTER:                  -5.611
REMARK INTRA:                  -0.241
REMARK UNBOUND:                -0.328
REMARK SMILES CC1=CC[C@@]23[C@@H]([C@H](C(C)C)CC[C@@H]2C)[C@H]13
REMARK SMILES IDX 14 1 13 2 12 3 11 4 7 5 6 6 5 7 15 8 2 9 3 10 4 11 1 12 8 13
REMARK SMILES IDX 9 14 10 15
REMARK H PARENT
REMARK Flexibility Score: inf
ROOT
ATOM      1  C   UNL     1       1.250  -4.446  18.290  1.00  0.00     0.008 C 
ATOM      2  C   UNL     1       2.076  -3.162  18.474  1.00  0.00    -0.007 C 
ATOM      3  C   UNL     1       3.481  -3.511  18.995  1.00  0.00     0.004 C 
ATOM      4  C   UNL     1       4.381  -2.280  18.977  1.00  0.00     0.004 C 
ATOM      5  C   UNL     1       4.698  -1.820  17.537  1.00  0.00    -0.004 C 
ATOM      6  C   UNL     1       3.399  -1.627  16.703  1.00  0.00     0.007 C 
ATOM      7  C   UNL     1       2.096  -2.292  17.186  1.00  0.00    -0.013 C 
ATOM      8  C   UNL     1       2.839  -2.868  15.985  1.00  0.00     0.025 C 
ATOM      9  C   UNL     1       1.920  -2.602  14.841  1.00  0.00    -0.073 C 
ATOM     10  C   UNL     1       0.807  -1.975  15.204  1.00  0.00    -0.027 C 
ATOM     11  C   UNL     1       0.790  -1.672  16.661  1.00  0.00     0.035 C 
ATOM     12  C   UNL     1       2.224  -2.993  13.428  1.00  0.00     0.039 C 
ENDROOT
BRANCH   5  13
ATOM     13  C   UNL     1       5.791  -2.668  16.800  1.00  0.00    -0.014 C 
ATOM     14  C   UNL     1       7.104  -2.751  17.599  1.00  0.00     0.007 C 
ATOM     15  C   UNL     1       6.098  -2.083  15.408  1.00  0.00     0.007 C 
ENDBRANCH   5  13
TORSDOF 1
ENDMDL
MODEL 8
REMARK VINA RESULT:    -5.109      2.158      5.072
REMARK INTER + INTRA:          -5.736
REMARK INTER:                  -5.451
REMARK INTRA:                  -0.285
REMARK UNBOUND:                -0.328
REMARK SMILES CC1=CC[C@@]23[C@@H]([C@H](C(C)C)CC[C@@H]2C)[C@H]13
REMARK SMILES IDX 14 1 13 2 12 3 11 4 7 5 6 6 5 7 15 8 2 9 3 10 4 11 1 12 8 13
REMARK SMILES IDX 9 14 10 15
REMARK H PARENT
REMARK Flexibility Score: inf
ROOT
ATOM      1  C   UNL     1      -0.521  -1.900  19.928  1.00  0.00     0.008 C 
ATOM      2  C   UNL     1       0.142  -2.969  19.046  1.00  0.00    -0.007 C 
ATOM      3  C   UNL     1       0.919  -2.298  17.900  1.00  0.00     0.004 C 
ATOM      4  C   UNL     1       1.758  -3.326  17.147  1.00  0.00     0.004 C 
ATOM      5  C   UNL     1       2.912  -3.875  18.015  1.00  0.00    -0.004 C 
ATOM      6  C   UNL     1       2.392  -4.409  19.381  1.00  0.00     0.007 C 
ATOM      7  C   UNL     1       1.005  -3.959  19.878  1.00  0.00    -0.013 C 
ATOM      8  C   UNL     1       2.263  -3.389  20.526  1.00  0.00     0.025 C 
ATOM      9  C   UNL     1       2.237  -3.955  21.906  1.00  0.00    -0.073 C 
ATOM     10  C   UNL     1       1.190  -4.741  22.124  1.00  0.00    -0.027 C 
ATOM     11  C   UNL     1       0.333  -4.875  20.914  1.00  0.00     0.035 C 
ATOM     12  C   UNL     1       3.288  -3.674  22.933  1.00  0.00     0.039 C 
ENDROOT
BRANCH   5  13
ATOM     13  C   UNL     1       4.147  -2.920  18.150  1.00  0.00    -0.014 C 
ATOM     14  C   UNL     1       4.633  -2.396  16.786  1.00  0.00     0.007 C 
ATOM     15  C   UNL     1       5.320  -3.631  18.851  1.00  0.00     0.007 C 
ENDBRANCH   5  13
TORSDOF 1
ENDMDL
MODEL 9
REMARK VINA RESULT:    -5.101      1.787      5.503
REMARK INTER + INTRA:          -5.728
REMARK INTER:                  -5.400
REMARK INTRA:                  -0.328
REMARK UNBOUND:                -0.328
REMARK SMILES CC1=CC[C@@]23[C@@H]([C@H](C(C)C)CC[C@@H]2C)[C@H]13
REMARK SMILES IDX 14 1 13 2 12 3 11 4 7 5 6 6 5 7 15 8 2 9 3 10 4 11 1 12 8 13
REMARK SMILES IDX 9 14 10 15
REMARK H PARENT
REMARK Flexibility Score: inf
ROOT
ATOM      1  C   UNL     1       4.878  -5.244  20.455  1.00  0.00     0.008 C 
ATOM      2  C   UNL     1       4.409  -3.825  20.097  1.00  0.00    -0.007 C 
ATOM      3  C   UNL     1       4.897  -3.449  18.687  1.00  0.00     0.004 C 
ATOM      4  C   UNL     1       4.262  -2.140  18.230  1.00  0.00     0.004 C 
ATOM      5  C   UNL     1       2.743  -2.289  17.994  1.00  0.00    -0.004 C 
ATOM      6  C   UNL     1       2.031  -2.901  19.235  1.00  0.00     0.007 C 
ATOM      7  C   UNL     1       2.874  -3.655  20.282  1.00  0.00    -0.013 C 
ATOM      8  C   UNL     1       1.980  -4.436  19.324  1.00  0.00     0.025 C 
ATOM      9  C   UNL     1       0.925  -5.005  20.212  1.00  0.00    -0.073 C 
ATOM     10  C   UNL     1       1.080  -4.665  21.486  1.00  0.00    -0.027 C 
ATOM     11  C   UNL     1       2.255  -3.773  21.685  1.00  0.00     0.035 C 
ATOM     12  C   UNL     1      -0.198  -5.862  19.716  1.00  0.00     0.039 C 
ENDROOT
BRANCH   5  13
ATOM     13  C   UNL     1       2.350  -2.986  16.646  1.00  0.00    -0.014 C 
ATOM     14  C   UNL     1       3.284  -2.587  15.489  1.00  0.00     0.007 C 
ATOM     15  C   UNL     1       0.902  -2.644  16.249  1.00  0.00     0.007 C 
ENDBRANCH   5  13
TORSDOF 1
ENDMDL
