MODEL 1
REMARK VINA RESULT:    -5.513      0.000      0.000
REMARK INTER + INTRA:          -8.979
REMARK INTER:                  -7.769
REMARK INTRA:                  -1.210
REMARK UNBOUND:                -1.210
REMARK SMILES COc1c(O[C@H]2O[C@@H](C(=O)[O-])[C@@H](O)[C@H](O)[C@@H]2O)cc(O)c2c(=O)cc(-c3ccccc3)oc12
REMARK SMILES IDX 5 1 6 2 8 3 12 4 7 5 14 6 16 7 9 8 10 9 11 10 13 11 15 13
REMARK SMILES IDX 17 15 4 17 3 18 18 19 33 20 19 21 21 22 32 23 22 24 25 25
REMARK SMILES IDX 24 26 23 27 2 28 1 29 20 30 26 32 27 33 31 34 28 35 30 36
REMARK SMILES IDX 29 37
REMARK H PARENT 13 12 15 14 17 16 20 31
REMARK Flexibility Score: inf
ROOT
ATOM      1  O   UNL     1      14.577  23.772  79.474  1.00  0.00    -0.458 OA
ENDROOT
BRANCH   1   2
ATOM      2  C   UNL     1      14.489  24.327  80.784  1.00  0.00     0.339 C 
ATOM      3  C   UNL     1      15.236  26.047  82.155  1.00  0.00     0.199 C 
ATOM      4  C   UNL     1      13.817  26.472  82.605  1.00  0.00     0.180 C 
ATOM      5  O   UNL     1      15.201  25.552  80.825  1.00  0.00    -0.328 OA
ATOM      6  C   UNL     1      12.828  25.290  82.466  1.00  0.00     0.181 C 
ATOM      7  C   UNL     1      13.000  24.573  81.110  1.00  0.00     0.214 C 
BRANCH   3   8
ATOM      8  C   UNL     1      16.192  27.205  82.238  1.00  0.00     0.073 C 
ATOM      9  O   UNL     1      16.236  28.057  81.308  1.00  0.00    -0.547 OA
ATOM     10  O   UNL     1      16.993  27.383  83.362  1.00  0.00    -0.547 OA
ENDBRANCH   3   8
BRANCH   4  11
ATOM     11  O   UNL     1      13.370  27.536  81.795  1.00  0.00    -0.387 OA
ATOM     12  H   UNL     1      14.154  28.111  81.590  1.00  0.00     0.211 HD
ENDBRANCH   4  11
BRANCH   6  13
ATOM     13  O   UNL     1      12.935  24.392  83.548  1.00  0.00    -0.387 OA
ATOM     14  H   UNL     1      13.522  24.792  84.238  1.00  0.00     0.211 HD
ENDBRANCH   6  13
BRANCH   7  15
ATOM     15  O   UNL     1      12.260  23.376  81.065  1.00  0.00    -0.384 OA
ATOM     16  H   UNL     1      12.773  22.721  80.518  1.00  0.00     0.211 HD
ENDBRANCH   7  15
ENDBRANCH   1   2
BRANCH   1  17
ATOM     17  C   UNL     1      14.716  22.406  79.179  1.00  0.00     0.172 A 
ATOM     18  C   UNL     1      13.966  21.884  78.116  1.00  0.00     0.205 A 
ATOM     19  C   UNL     1      15.559  21.566  79.924  1.00  0.00     0.097 A 
ATOM     20  C   UNL     1      14.088  20.514  77.779  1.00  0.00     0.188 A 
ATOM     21  C   UNL     1      15.660  20.202  79.626  1.00  0.00     0.134 A 
ATOM     22  C   UNL     1      14.920  19.662  78.548  1.00  0.00     0.111 A 
ATOM     23  O   UNL     1      13.429  20.025  76.732  1.00  0.00    -0.452 OA
ATOM     24  C   UNL     1      14.983  18.299  78.191  1.00  0.00     0.197 A 
ATOM     25  C   UNL     1      13.477  18.747  76.362  1.00  0.00     0.138 A 
ATOM     26  C   UNL     1      14.253  17.840  77.095  1.00  0.00     0.100 A 
ATOM     27  O   UNL     1      15.690  17.479  78.837  1.00  0.00    -0.289 OA
BRANCH  18  28
ATOM     28  O   UNL     1      13.106  22.770  77.444  1.00  0.00    -0.490 OA
ATOM     29  C   UNL     1      11.720  22.953  77.736  1.00  0.00     0.278 C 
ENDBRANCH  18  28
BRANCH  21  30
ATOM     30  O   UNL     1      16.499  19.396  80.396  1.00  0.00    -0.507 OA
ATOM     31  H   UNL     1      16.163  18.911  81.221  1.00  0.00     0.293 HD
ENDBRANCH  21  30
BRANCH  25  32
ATOM     32  C   UNL     1      12.723  18.315  75.162  1.00  0.00     0.017 A 
ATOM     33  C   UNL     1      11.356  18.617  75.004  1.00  0.00     0.012 A 
ATOM     34  C   UNL     1      13.380  17.591  74.154  1.00  0.00     0.012 A 
ATOM     35  C   UNL     1      10.663  18.189  73.868  1.00  0.00     0.001 A 
ATOM     36  C   UNL     1      12.682  17.160  73.021  1.00  0.00     0.001 A 
ATOM     37  C   UNL     1      11.325  17.460  72.879  1.00  0.00     0.000 A 
ENDBRANCH  25  32
ENDBRANCH   1  17
TORSDOF 9
ENDMDL
MODEL 2
REMARK VINA RESULT:    -5.422      2.250      4.544
REMARK INTER + INTRA:          -8.850
REMARK INTER:                  -7.657
REMARK INTRA:                  -1.193
REMARK UNBOUND:                -1.210
REMARK SMILES COc1c(O[C@H]2O[C@@H](C(=O)[O-])[C@@H](O)[C@H](O)[C@@H]2O)cc(O)c2c(=O)cc(-c3ccccc3)oc12
REMARK SMILES IDX 5 1 6 2 8 3 12 4 7 5 14 6 16 7 9 8 10 9 11 10 13 11 15 13
REMARK SMILES IDX 17 15 4 17 3 18 18 19 33 20 19 21 21 22 32 23 22 24 25 25
REMARK SMILES IDX 24 26 23 27 2 28 1 29 20 30 26 32 27 33 31 34 28 35 30 36
REMARK SMILES IDX 29 37
REMARK H PARENT 13 12 15 14 17 16 20 31
REMARK Flexibility Score: inf
ROOT
ATOM      1  O   UNL     1      14.448  23.910  79.009  1.00  0.00    -0.458 OA
ENDROOT
BRANCH   1   2
ATOM      2  C   UNL     1      13.516  24.872  79.496  1.00  0.00     0.339 C 
ATOM      3  C   UNL     1      12.595  25.798  81.419  1.00  0.00     0.199 C 
ATOM      4  C   UNL     1      12.864  27.261  80.992  1.00  0.00     0.180 C 
ATOM      5  O   UNL     1      13.610  24.945  80.909  1.00  0.00    -0.328 OA
ATOM      6  C   UNL     1      12.972  27.365  79.452  1.00  0.00     0.181 C 
ATOM      7  C   UNL     1      13.861  26.243  78.876  1.00  0.00     0.214 C 
BRANCH   3   8
ATOM      8  C   UNL     1      12.541  25.679  82.917  1.00  0.00     0.073 C 
ATOM      9  O   UNL     1      11.775  26.428  83.583  1.00  0.00    -0.547 OA
ATOM     10  O   UNL     1      13.287  24.707  83.577  1.00  0.00    -0.547 OA
ENDBRANCH   3   8
BRANCH   4  11
ATOM     11  O   UNL     1      14.076  27.698  81.563  1.00  0.00    -0.387 OA
ATOM     12  H   UNL     1      14.187  27.233  82.433  1.00  0.00     0.211 HD
ENDBRANCH   4  11
BRANCH   6  13
ATOM     13  O   UNL     1      11.701  27.389  78.842  1.00  0.00    -0.387 OA
ATOM     14  H   UNL     1      11.122  28.024  79.335  1.00  0.00     0.211 HD
ENDBRANCH   6  13
BRANCH   7  15
ATOM     15  O   UNL     1      13.790  26.203  77.471  1.00  0.00    -0.384 OA
ATOM     16  H   UNL     1      12.974  26.700  77.192  1.00  0.00     0.211 HD
ENDBRANCH   7  15
ENDBRANCH   1   2
BRANCH   1  17
ATOM     17  C   UNL     1      14.112  22.679  78.423  1.00  0.00     0.172 A 
ATOM     18  C   UNL     1      14.550  21.509  79.057  1.00  0.00     0.205 A 
ATOM     19  C   UNL     1      13.378  22.599  77.228  1.00  0.00     0.097 A 
ATOM     20  C   UNL     1      14.220  20.247  78.505  1.00  0.00     0.188 A 
ATOM     21  C   UNL     1      13.079  21.360  76.651  1.00  0.00     0.134 A 
ATOM     22  C   UNL     1      13.501  20.169  77.285  1.00  0.00     0.111 A 
ATOM     23  O   UNL     1      14.576  19.131  79.136  1.00  0.00    -0.452 OA
ATOM     24  C   UNL     1      13.225  18.889  76.760  1.00  0.00     0.197 A 
ATOM     25  C   UNL     1      14.320  17.909  78.672  1.00  0.00     0.138 A 
ATOM     26  C   UNL     1      13.642  17.755  77.456  1.00  0.00     0.100 A 
ATOM     27  O   UNL     1      12.604  18.741  75.674  1.00  0.00    -0.289 OA
BRANCH  18  28
ATOM     28  O   UNL     1      15.321  21.663  80.223  1.00  0.00    -0.490 OA
ATOM     29  C   UNL     1      16.747  21.648  80.275  1.00  0.00     0.278 C 
ENDBRANCH  18  28
BRANCH  21  30
ATOM     30  O   UNL     1      12.359  21.321  75.457  1.00  0.00    -0.507 OA
ATOM     31  H   UNL     1      12.636  21.865  74.647  1.00  0.00     0.293 HD
ENDBRANCH  21  30
BRANCH  25  32
ATOM     32  C   UNL     1      14.740  16.734  79.470  1.00  0.00     0.017 A 
ATOM     33  C   UNL     1      15.776  16.821  80.420  1.00  0.00     0.012 A 
ATOM     34  C   UNL     1      14.091  15.502  79.283  1.00  0.00     0.012 A 
ATOM     35  C   UNL     1      16.162  15.694  81.153  1.00  0.00     0.001 A 
ATOM     36  C   UNL     1      14.482  14.376  80.015  1.00  0.00     0.001 A 
ATOM     37  C   UNL     1      15.517  14.473  80.949  1.00  0.00     0.000 A 
ENDBRANCH  25  32
ENDBRANCH   1  17
TORSDOF 9
ENDMDL
MODEL 3
REMARK VINA RESULT:    -5.348      1.405      2.268
REMARK INTER + INTRA:          -8.746
REMARK INTER:                  -7.547
REMARK INTRA:                  -1.198
REMARK UNBOUND:                -1.210
REMARK SMILES COc1c(O[C@H]2O[C@@H](C(=O)[O-])[C@@H](O)[C@H](O)[C@@H]2O)cc(O)c2c(=O)cc(-c3ccccc3)oc12
REMARK SMILES IDX 5 1 6 2 8 3 12 4 7 5 14 6 16 7 9 8 10 9 11 10 13 11 15 13
REMARK SMILES IDX 17 15 4 17 3 18 18 19 33 20 19 21 21 22 32 23 22 24 25 25
REMARK SMILES IDX 24 26 23 27 2 28 1 29 20 30 26 32 27 33 31 34 28 35 30 36
REMARK SMILES IDX 29 37
REMARK H PARENT 13 12 15 14 17 16 20 31
REMARK Flexibility Score: inf
ROOT
ATOM      1  O   UNL     1      14.761  23.792  78.900  1.00  0.00    -0.458 OA
ENDROOT
BRANCH   1   2
ATOM      2  C   UNL     1      13.685  24.613  79.348  1.00  0.00     0.339 C 
ATOM      3  C   UNL     1      12.643  25.491  81.230  1.00  0.00     0.199 C 
ATOM      4  C   UNL     1      12.655  26.949  80.709  1.00  0.00     0.180 C 
ATOM      5  O   UNL     1      13.781  24.790  80.751  1.00  0.00    -0.328 OA
ATOM      6  C   UNL     1      12.727  26.971  79.163  1.00  0.00     0.181 C 
ATOM      7  C   UNL     1      13.787  25.979  78.637  1.00  0.00     0.214 C 
BRANCH   3   8
ATOM      8  C   UNL     1      12.626  25.461  82.733  1.00  0.00     0.073 C 
ATOM      9  O   UNL     1      13.300  24.595  83.356  1.00  0.00    -0.547 OA
ATOM     10  O   UNL     1      11.919  26.420  83.452  1.00  0.00    -0.547 OA
ENDBRANCH   3   8
BRANCH   4  11
ATOM     11  O   UNL     1      13.783  27.619  81.225  1.00  0.00    -0.387 OA
ATOM     12  H   UNL     1      13.482  28.175  81.991  1.00  0.00     0.211 HD
ENDBRANCH   4  11
BRANCH   6  13
ATOM     13  O   UNL     1      11.464  26.742  78.580  1.00  0.00    -0.387 OA
ATOM     14  H   UNL     1      11.237  27.510  77.998  1.00  0.00     0.211 HD
ENDBRANCH   6  13
BRANCH   7  15
ATOM     15  O   UNL     1      13.708  25.838  77.239  1.00  0.00    -0.384 OA
ATOM     16  H   UNL     1      14.583  25.488  76.918  1.00  0.00     0.211 HD
ENDBRANCH   7  15
ENDBRANCH   1   2
BRANCH   1  17
ATOM     17  C   UNL     1      14.706  22.397  78.742  1.00  0.00     0.172 A 
ATOM     18  C   UNL     1      13.965  21.887  77.667  1.00  0.00     0.205 A 
ATOM     19  C   UNL     1      15.349  21.521  79.632  1.00  0.00     0.097 A 
ATOM     20  C   UNL     1      13.896  20.487  77.466  1.00  0.00     0.188 A 
ATOM     21  C   UNL     1      15.257  20.135  79.467  1.00  0.00     0.134 A 
ATOM     22  C   UNL     1      14.525  19.604  78.380  1.00  0.00     0.111 A 
ATOM     23  O   UNL     1      13.250  19.997  76.412  1.00  0.00    -0.452 OA
ATOM     24  C   UNL     1      14.399  18.217  78.153  1.00  0.00     0.197 A 
ATOM     25  C   UNL     1      13.124  18.695  76.163  1.00  0.00     0.138 A 
ATOM     26  C   UNL     1      13.691  17.762  77.041  1.00  0.00     0.100 A 
ATOM     27  O   UNL     1      14.918  17.372  78.930  1.00  0.00    -0.289 OA
BRANCH  18  28
ATOM     28  O   UNL     1      13.308  22.818  76.844  1.00  0.00    -0.490 OA
ATOM     29  C   UNL     1      11.892  22.943  76.709  1.00  0.00     0.278 C 
ENDBRANCH  18  28
BRANCH  21  30
ATOM     30  O   UNL     1      15.898  19.296  80.378  1.00  0.00    -0.507 OA
ATOM     31  H   UNL     1      16.543  18.573  80.077  1.00  0.00     0.293 HD
ENDBRANCH  21  30
BRANCH  25  32
ATOM     32  C   UNL     1      12.404  18.260  74.944  1.00  0.00     0.017 A 
ATOM     33  C   UNL     1      11.034  18.533  74.762  1.00  0.00     0.012 A 
ATOM     34  C   UNL     1      13.098  17.563  73.941  1.00  0.00     0.012 A 
ATOM     35  C   UNL     1      10.373  18.102  73.607  1.00  0.00     0.001 A 
ATOM     36  C   UNL     1      12.432  17.131  72.789  1.00  0.00     0.001 A 
ATOM     37  C   UNL     1      11.071  17.400  72.624  1.00  0.00     0.000 A 
ENDBRANCH  25  32
ENDBRANCH   1  17
TORSDOF 9
ENDMDL
MODEL 4
REMARK VINA RESULT:    -5.339      4.074      9.325
REMARK INTER + INTRA:          -8.733
REMARK INTER:                  -7.491
REMARK INTRA:                  -1.242
REMARK UNBOUND:                -1.210
REMARK SMILES COc1c(O[C@H]2O[C@@H](C(=O)[O-])[C@@H](O)[C@H](O)[C@@H]2O)cc(O)c2c(=O)cc(-c3ccccc3)oc12
REMARK SMILES IDX 5 1 6 2 8 3 12 4 7 5 14 6 16 7 9 8 10 9 11 10 13 11 15 13
REMARK SMILES IDX 17 15 4 17 3 18 18 19 33 20 19 21 21 22 32 23 22 24 25 25
REMARK SMILES IDX 24 26 23 27 2 28 1 29 20 30 26 32 27 33 31 34 28 35 30 36
REMARK SMILES IDX 29 37
REMARK H PARENT 13 12 15 14 17 16 20 31
REMARK Flexibility Score: inf
ROOT
ATOM      1  O   UNL     1      11.338  22.831  73.987  1.00  0.00    -0.458 OA
ENDROOT
BRANCH   1   2
ATOM      2  C   UNL     1      10.182  22.238  73.401  1.00  0.00     0.339 C 
ATOM      3  C   UNL     1       7.985  22.631  72.757  1.00  0.00     0.199 C 
ATOM      4  C   UNL     1       8.174  22.076  71.324  1.00  0.00     0.180 C 
ATOM      5  O   UNL     1       9.188  23.231  73.213  1.00  0.00    -0.328 OA
ATOM      6  C   UNL     1       9.357  21.079  71.282  1.00  0.00     0.181 C 
ATOM      7  C   UNL     1      10.583  21.632  72.039  1.00  0.00     0.214 C 
BRANCH   3   8
ATOM      8  C   UNL     1       6.871  23.641  72.796  1.00  0.00     0.073 C 
ATOM      9  O   UNL     1       7.079  24.827  72.420  1.00  0.00    -0.547 OA
ATOM     10  O   UNL     1       5.589  23.266  73.189  1.00  0.00    -0.547 OA
ENDBRANCH   3   8
BRANCH   4  11
ATOM     11  O   UNL     1       8.448  23.142  70.444  1.00  0.00    -0.387 OA
ATOM     12  H   UNL     1       7.625  23.694  70.370  1.00  0.00     0.211 HD
ENDBRANCH   4  11
BRANCH   6  13
ATOM     13  O   UNL     1       8.981  19.806  71.757  1.00  0.00    -0.387 OA
ATOM     14  H   UNL     1       7.995  19.776  71.844  1.00  0.00     0.211 HD
ENDBRANCH   6  13
BRANCH   7  15
ATOM     15  O   UNL     1      11.580  20.650  72.187  1.00  0.00    -0.384 OA
ATOM     16  H   UNL     1      12.231  20.976  72.866  1.00  0.00     0.211 HD
ENDBRANCH   7  15
ENDBRANCH   1   2
BRANCH   1  17
ATOM     17  C   UNL     1      11.898  22.467  75.224  1.00  0.00     0.172 A 
ATOM     18  C   UNL     1      11.930  23.433  76.238  1.00  0.00     0.205 A 
ATOM     19  C   UNL     1      12.433  21.189  75.451  1.00  0.00     0.097 A 
ATOM     20  C   UNL     1      12.474  23.103  77.503  1.00  0.00     0.188 A 
ATOM     21  C   UNL     1      13.008  20.861  76.684  1.00  0.00     0.134 A 
ATOM     22  C   UNL     1      13.036  21.820  77.724  1.00  0.00     0.111 A 
ATOM     23  O   UNL     1      12.450  23.993  78.491  1.00  0.00    -0.452 OA
ATOM     24  C   UNL     1      13.594  21.550  78.991  1.00  0.00     0.197 A 
ATOM     25  C   UNL     1      12.957  23.765  79.701  1.00  0.00     0.138 A 
ATOM     26  C   UNL     1      13.558  22.531  79.982  1.00  0.00     0.100 A 
ATOM     27  O   UNL     1      14.125  20.438  79.255  1.00  0.00    -0.289 OA
BRANCH  18  28
ATOM     28  O   UNL     1      11.423  24.707  75.926  1.00  0.00    -0.490 OA
ATOM     29  C   UNL     1      12.209  25.841  75.561  1.00  0.00     0.278 C 
ENDBRANCH  18  28
BRANCH  21  30
ATOM     30  O   UNL     1      13.540  19.585  76.870  1.00  0.00    -0.507 OA
ATOM     31  H   UNL     1      14.534  19.436  77.011  1.00  0.00     0.293 HD
ENDBRANCH  21  30
BRANCH  25  32
ATOM     32  C   UNL     1      12.853  24.819  80.737  1.00  0.00     0.017 A 
ATOM     33  C   UNL     1      12.673  26.173  80.393  1.00  0.00     0.012 A 
ATOM     34  C   UNL     1      12.930  24.466  82.095  1.00  0.00     0.012 A 
ATOM     35  C   UNL     1      12.588  27.151  81.388  1.00  0.00     0.001 A 
ATOM     36  C   UNL     1      12.849  25.448  83.087  1.00  0.00     0.001 A 
ATOM     37  C   UNL     1      12.678  26.789  82.733  1.00  0.00     0.000 A 
ENDBRANCH  25  32
ENDBRANCH   1  17
TORSDOF 9
ENDMDL
MODEL 5
REMARK VINA RESULT:    -5.298      2.155      4.436
REMARK INTER + INTRA:          -8.675
REMARK INTER:                  -7.449
REMARK INTRA:                  -1.227
REMARK UNBOUND:                -1.210
REMARK SMILES COc1c(O[C@H]2O[C@@H](C(=O)[O-])[C@@H](O)[C@H](O)[C@@H]2O)cc(O)c2c(=O)cc(-c3ccccc3)oc12
REMARK SMILES IDX 5 1 6 2 8 3 12 4 7 5 14 6 16 7 9 8 10 9 11 10 13 11 15 13
REMARK SMILES IDX 17 15 4 17 3 18 18 19 33 20 19 21 21 22 32 23 22 24 25 25
REMARK SMILES IDX 24 26 23 27 2 28 1 29 20 30 26 32 27 33 31 34 28 35 30 36
REMARK SMILES IDX 29 37
REMARK H PARENT 13 12 15 14 17 16 20 31
REMARK Flexibility Score: inf
ROOT
ATOM      1  O   UNL     1      13.039  23.583  79.948  1.00  0.00    -0.458 OA
ENDROOT
BRANCH   1   2
ATOM      2  C   UNL     1      13.680  24.583  80.736  1.00  0.00     0.339 C 
ATOM      3  C   UNL     1      13.326  26.247  82.319  1.00  0.00     0.199 C 
ATOM      4  C   UNL     1      14.423  25.735  83.284  1.00  0.00     0.180 C 
ATOM      5  O   UNL     1      12.737  25.158  81.625  1.00  0.00    -0.328 OA
ATOM      6  C   UNL     1      15.483  24.913  82.512  1.00  0.00     0.181 C 
ATOM      7  C   UNL     1      14.819  23.918  81.537  1.00  0.00     0.214 C 
BRANCH   3   8
ATOM      8  C   UNL     1      12.264  27.002  83.070  1.00  0.00     0.073 C 
ATOM      9  O   UNL     1      11.441  26.381  83.797  1.00  0.00    -0.547 OA
ATOM     10  O   UNL     1      12.214  28.392  83.018  1.00  0.00    -0.547 OA
ENDBRANCH   3   8
BRANCH   4  11
ATOM     11  O   UNL     1      13.834  24.910  84.263  1.00  0.00    -0.387 OA
ATOM     12  H   UNL     1      13.788  23.988  83.895  1.00  0.00     0.211 HD
ENDBRANCH   4  11
BRANCH   6  13
ATOM     13  O   UNL     1      16.409  25.748  81.854  1.00  0.00    -0.387 OA
ATOM     14  H   UNL     1      16.748  25.278  81.050  1.00  0.00     0.211 HD
ENDBRANCH   6  13
BRANCH   7  15
ATOM     15  O   UNL     1      15.768  23.325  80.684  1.00  0.00    -0.384 OA
ATOM     16  H   UNL     1      16.080  24.020  80.044  1.00  0.00     0.211 HD
ENDBRANCH   7  15
ENDBRANCH   1   2
BRANCH   1  17
ATOM     17  C   UNL     1      12.569  23.760  78.636  1.00  0.00     0.172 A 
ATOM     18  C   UNL     1      12.397  22.619  77.841  1.00  0.00     0.205 A 
ATOM     19  C   UNL     1      12.294  25.033  78.110  1.00  0.00     0.097 A 
ATOM     20  C   UNL     1      11.913  22.755  76.518  1.00  0.00     0.188 A 
ATOM     21  C   UNL     1      11.852  25.184  76.791  1.00  0.00     0.134 A 
ATOM     22  C   UNL     1      11.659  24.042  75.980  1.00  0.00     0.111 A 
ATOM     23  O   UNL     1      11.684  21.673  75.778  1.00  0.00    -0.452 OA
ATOM     24  C   UNL     1      11.209  24.125  74.646  1.00  0.00     0.197 A 
ATOM     25  C   UNL     1      11.248  21.717  74.521  1.00  0.00     0.138 A 
ATOM     26  C   UNL     1      11.008  22.956  73.912  1.00  0.00     0.100 A 
ATOM     27  O   UNL     1      10.977  25.235  74.095  1.00  0.00    -0.289 OA
BRANCH  18  28
ATOM     28  O   UNL     1      12.737  21.382  78.415  1.00  0.00    -0.490 OA
ATOM     29  C   UNL     1      13.984  20.708  78.241  1.00  0.00     0.278 C 
ENDBRANCH  18  28
BRANCH  21  30
ATOM     30  O   UNL     1      11.601  26.464  76.299  1.00  0.00    -0.507 OA
ATOM     31  H   UNL     1      12.165  27.263  76.572  1.00  0.00     0.293 HD
ENDBRANCH  21  30
BRANCH  25  32
ATOM     32  C   UNL     1      11.003  20.448  73.798  1.00  0.00     0.017 A 
ATOM     33  C   UNL     1      10.457  20.434  72.500  1.00  0.00     0.012 A 
ATOM     34  C   UNL     1      11.323  19.227  74.414  1.00  0.00     0.012 A 
ATOM     35  C   UNL     1      10.225  19.222  71.842  1.00  0.00     0.001 A 
ATOM     36  C   UNL     1      11.085  18.016  73.754  1.00  0.00     0.001 A 
ATOM     37  C   UNL     1      10.536  18.016  72.469  1.00  0.00     0.000 A 
ENDBRANCH  25  32
ENDBRANCH   1  17
TORSDOF 9
ENDMDL
MODEL 6
REMARK VINA RESULT:    -5.249      6.990     10.915
REMARK INTER + INTRA:          -8.607
REMARK INTER:                  -7.337
REMARK INTRA:                  -1.270
REMARK UNBOUND:                -1.210
REMARK SMILES COc1c(O[C@H]2O[C@@H](C(=O)[O-])[C@@H](O)[C@H](O)[C@@H]2O)cc(O)c2c(=O)cc(-c3ccccc3)oc12
REMARK SMILES IDX 5 1 6 2 8 3 12 4 7 5 14 6 16 7 9 8 10 9 11 10 13 11 15 13
REMARK SMILES IDX 17 15 4 17 3 18 18 19 33 20 19 21 21 22 32 23 22 24 25 25
REMARK SMILES IDX 24 26 23 27 2 28 1 29 20 30 26 32 27 33 31 34 28 35 30 36
REMARK SMILES IDX 29 37
REMARK H PARENT 13 12 15 14 17 16 20 31
REMARK Flexibility Score: inf
ROOT
ATOM      1  O   UNL     1       7.849  23.837  71.226  1.00  0.00    -0.458 OA
ENDROOT
BRANCH   1   2
ATOM      2  C   UNL     1       6.464  23.680  70.930  1.00  0.00     0.339 C 
ATOM      3  C   UNL     1       4.321  24.345  71.537  1.00  0.00     0.199 C 
ATOM      4  C   UNL     1       3.899  24.730  70.098  1.00  0.00     0.180 C 
ATOM      5  O   UNL     1       5.709  24.583  71.721  1.00  0.00    -0.328 OA
ATOM      6  C   UNL     1       4.750  23.960  69.060  1.00  0.00     0.181 C 
ATOM      7  C   UNL     1       6.248  23.986  69.433  1.00  0.00     0.214 C 
BRANCH   3   8
ATOM      8  C   UNL     1       3.535  25.127  72.552  1.00  0.00     0.073 C 
ATOM      9  O   UNL     1       4.057  25.427  73.662  1.00  0.00    -0.547 OA
ATOM     10  O   UNL     1       2.252  25.578  72.259  1.00  0.00    -0.547 OA
ENDBRANCH   3   8
BRANCH   4  11
ATOM     11  O   UNL     1       4.095  26.113  69.910  1.00  0.00    -0.387 OA
ATOM     12  H   UNL     1       5.054  26.257  69.696  1.00  0.00     0.211 HD
ENDBRANCH   4  11
BRANCH   6  13
ATOM     13  O   UNL     1       4.281  22.644  68.876  1.00  0.00    -0.387 OA
ATOM     14  H   UNL     1       3.812  22.354  69.699  1.00  0.00     0.211 HD
ENDBRANCH   6  13
BRANCH   7  15
ATOM     15  O   UNL     1       6.994  23.115  68.618  1.00  0.00    -0.384 OA
ATOM     16  H   UNL     1       7.009  23.496  67.697  1.00  0.00     0.211 HD
ENDBRANCH   7  15
ENDBRANCH   1   2
BRANCH   1  17
ATOM     17  C   UNL     1       8.679  22.845  71.777  1.00  0.00     0.172 A 
ATOM     18  C   UNL     1       9.386  23.156  72.946  1.00  0.00     0.205 A 
ATOM     19  C   UNL     1       8.825  21.582  71.180  1.00  0.00     0.097 A 
ATOM     20  C   UNL     1      10.222  22.180  73.539  1.00  0.00     0.188 A 
ATOM     21  C   UNL     1       9.678  20.622  71.736  1.00  0.00     0.134 A 
ATOM     22  C   UNL     1      10.388  20.914  72.922  1.00  0.00     0.111 A 
ATOM     23  O   UNL     1      10.846  22.445  74.684  1.00  0.00    -0.452 OA
ATOM     24  C   UNL     1      11.257  19.988  73.536  1.00  0.00     0.197 A 
ATOM     25  C   UNL     1      11.663  21.588  75.294  1.00  0.00     0.138 A 
ATOM     26  C   UNL     1      11.901  20.330  74.725  1.00  0.00     0.100 A 
ATOM     27  O   UNL     1      11.466  18.849  73.038  1.00  0.00    -0.289 OA
BRANCH  18  28
ATOM     28  O   UNL     1       9.230  24.455  73.461  1.00  0.00    -0.490 OA
ATOM     29  C   UNL     1      10.138  25.537  73.256  1.00  0.00     0.278 C 
ENDBRANCH  18  28
BRANCH  21  30
ATOM     30  O   UNL     1       9.807  19.382  71.109  1.00  0.00    -0.507 OA
ATOM     31  H   UNL     1      10.277  18.602  71.558  1.00  0.00     0.293 HD
ENDBRANCH  21  30
BRANCH  25  32
ATOM     32  C   UNL     1      12.286  21.978  76.580  1.00  0.00     0.017 A 
ATOM     33  C   UNL     1      13.427  21.317  77.074  1.00  0.00     0.012 A 
ATOM     34  C   UNL     1      11.733  23.032  77.326  1.00  0.00     0.012 A 
ATOM     35  C   UNL     1      13.991  21.696  78.297  1.00  0.00     0.001 A 
ATOM     36  C   UNL     1      12.298  23.405  78.550  1.00  0.00     0.001 A 
ATOM     37  C   UNL     1      13.425  22.737  79.034  1.00  0.00     0.000 A 
ENDBRANCH  25  32
ENDBRANCH   1  17
TORSDOF 9
ENDMDL
MODEL 7
REMARK VINA RESULT:    -5.179      1.577      2.050
REMARK INTER + INTRA:          -8.508
REMARK INTER:                  -7.231
REMARK INTRA:                  -1.277
REMARK UNBOUND:                -1.210
REMARK SMILES COc1c(O[C@H]2O[C@@H](C(=O)[O-])[C@@H](O)[C@H](O)[C@@H]2O)cc(O)c2c(=O)cc(-c3ccccc3)oc12
REMARK SMILES IDX 5 1 6 2 8 3 12 4 7 5 14 6 16 7 9 8 10 9 11 10 13 11 15 13
REMARK SMILES IDX 17 15 4 17 3 18 18 19 33 20 19 21 21 22 32 23 22 24 25 25
REMARK SMILES IDX 24 26 23 27 2 28 1 29 20 30 26 32 27 33 31 34 28 35 30 36
REMARK SMILES IDX 29 37
REMARK H PARENT 13 12 15 14 17 16 20 31
REMARK Flexibility Score: inf
ROOT
ATOM      1  O   UNL     1      12.931  23.775  80.852  1.00  0.00    -0.458 OA
ENDROOT
BRANCH   1   2
ATOM      2  C   UNL     1      13.432  25.056  81.227  1.00  0.00     0.339 C 
ATOM      3  C   UNL     1      13.865  27.207  80.462  1.00  0.00     0.199 C 
ATOM      4  C   UNL     1      13.111  27.905  81.620  1.00  0.00     0.180 C 
ATOM      5  O   UNL     1      13.250  25.965  80.155  1.00  0.00    -0.328 OA
ATOM      6  C   UNL     1      13.047  26.980  82.860  1.00  0.00     0.181 C 
ATOM      7  C   UNL     1      12.649  25.542  82.466  1.00  0.00     0.214 C 
BRANCH   3   8
ATOM      8  C   UNL     1      13.886  28.078  79.237  1.00  0.00     0.073 C 
ATOM      9  O   UNL     1      12.883  28.119  78.472  1.00  0.00    -0.547 OA
ATOM     10  O   UNL     1      14.984  28.890  78.964  1.00  0.00    -0.547 OA
ENDBRANCH   3   8
BRANCH   4  11
ATOM     11  O   UNL     1      11.797  28.202  81.208  1.00  0.00    -0.387 OA
ATOM     12  H   UNL     1      11.703  27.915  80.262  1.00  0.00     0.211 HD
ENDBRANCH   4  11
BRANCH   6  13
ATOM     13  O   UNL     1      14.253  27.005  83.590  1.00  0.00    -0.387 OA
ATOM     14  H   UNL     1      14.658  26.101  83.570  1.00  0.00     0.211 HD
ENDBRANCH   6  13
BRANCH   7  15
ATOM     15  O   UNL     1      12.797  24.654  83.548  1.00  0.00    -0.384 OA
ATOM     16  H   UNL     1      13.460  25.047  84.177  1.00  0.00     0.211 HD
ENDBRANCH   7  15
ENDBRANCH   1   2
BRANCH   1  17
ATOM     17  C   UNL     1      13.679  22.761  80.231  1.00  0.00     0.172 A 
ATOM     18  C   UNL     1      13.085  22.062  79.172  1.00  0.00     0.205 A 
ATOM     19  C   UNL     1      14.976  22.429  80.654  1.00  0.00     0.097 A 
ATOM     20  C   UNL     1      13.811  21.041  78.512  1.00  0.00     0.188 A 
ATOM     21  C   UNL     1      15.690  21.397  80.035  1.00  0.00     0.134 A 
ATOM     22  C   UNL     1      15.111  20.690  78.956  1.00  0.00     0.111 A 
ATOM     23  O   UNL     1      13.279  20.417  77.465  1.00  0.00    -0.452 OA
ATOM     24  C   UNL     1      15.780  19.645  78.285  1.00  0.00     0.197 A 
ATOM     25  C   UNL     1      13.889  19.436  76.803  1.00  0.00     0.138 A 
ATOM     26  C   UNL     1      15.162  19.012  77.206  1.00  0.00     0.100 A 
ATOM     27  O   UNL     1      16.931  19.268  78.633  1.00  0.00    -0.289 OA
BRANCH  18  28
ATOM     28  O   UNL     1      11.766  22.413  78.833  1.00  0.00    -0.490 OA
ATOM     29  C   UNL     1      11.399  23.391  77.860  1.00  0.00     0.278 C 
ENDBRANCH  18  28
BRANCH  21  30
ATOM     30  O   UNL     1      16.972  21.086  80.491  1.00  0.00    -0.507 OA
ATOM     31  H   UNL     1      17.683  21.800  80.613  1.00  0.00     0.293 HD
ENDBRANCH  21  30
BRANCH  25  32
ATOM     32  C   UNL     1      13.214  18.827  75.634  1.00  0.00     0.017 A 
ATOM     33  C   UNL     1      11.889  19.160  75.293  1.00  0.00     0.012 A 
ATOM     34  C   UNL     1      13.908  17.898  74.840  1.00  0.00     0.012 A 
ATOM     35  C   UNL     1      11.270  18.563  74.190  1.00  0.00     0.001 A 
ATOM     36  C   UNL     1      13.283  17.300  73.740  1.00  0.00     0.001 A 
ATOM     37  C   UNL     1      11.965  17.632  73.417  1.00  0.00     0.000 A 
ENDBRANCH  25  32
ENDBRANCH   1  17
TORSDOF 9
ENDMDL
MODEL 8
REMARK VINA RESULT:    -5.037      4.048      8.535
REMARK INTER + INTRA:          -8.309
REMARK INTER:                  -7.015
REMARK INTRA:                  -1.294
REMARK UNBOUND:                -1.210
REMARK SMILES COc1c(O[C@H]2O[C@@H](C(=O)[O-])[C@@H](O)[C@H](O)[C@@H]2O)cc(O)c2c(=O)cc(-c3ccccc3)oc12
REMARK SMILES IDX 5 1 6 2 8 3 12 4 7 5 14 6 16 7 9 8 10 9 11 10 13 11 15 13
REMARK SMILES IDX 17 15 4 17 3 18 18 19 33 20 19 21 21 22 32 23 22 24 25 25
REMARK SMILES IDX 24 26 23 27 2 28 1 29 20 30 26 32 27 33 31 34 28 35 30 36
REMARK SMILES IDX 29 37
REMARK H PARENT 13 12 15 14 17 16 20 31
REMARK Flexibility Score: inf
ROOT
ATOM      1  O   UNL     1      11.726  22.540  73.714  1.00  0.00    -0.458 OA
ENDROOT
BRANCH   1   2
ATOM      2  C   UNL     1      10.533  22.039  73.116  1.00  0.00     0.339 C 
ATOM      3  C   UNL     1       8.332  22.559  72.582  1.00  0.00     0.199 C 
ATOM      4  C   UNL     1       8.459  22.128  71.100  1.00  0.00     0.180 C 
ATOM      5  O   UNL     1       9.569  23.076  73.050  1.00  0.00    -0.328 OA
ATOM      6  C   UNL     1       9.605  21.101  70.931  1.00  0.00     0.181 C 
ATOM      7  C   UNL     1      10.872  21.545  71.693  1.00  0.00     0.214 C 
BRANCH   3   8
ATOM      8  C   UNL     1       7.256  23.596  72.746  1.00  0.00     0.073 C 
ATOM      9  O   UNL     1       7.479  24.795  72.424  1.00  0.00    -0.547 OA
ATOM     10  O   UNL     1       5.989  23.236  73.198  1.00  0.00    -0.547 OA
ENDBRANCH   3   8
BRANCH   4  11
ATOM     11  O   UNL     1       8.744  23.259  70.309  1.00  0.00    -0.387 OA
ATOM     12  H   UNL     1       9.371  22.979  69.593  1.00  0.00     0.211 HD
ENDBRANCH   4  11
BRANCH   6  13
ATOM     13  O   UNL     1       9.200  19.804  71.305  1.00  0.00    -0.387 OA
ATOM     14  H   UNL     1       8.391  19.873  71.873  1.00  0.00     0.211 HD
ENDBRANCH   6  13
BRANCH   7  15
ATOM     15  O   UNL     1      11.838  20.522  71.722  1.00  0.00    -0.384 OA
ATOM     16  H   UNL     1      12.304  20.517  70.841  1.00  0.00     0.211 HD
ENDBRANCH   7  15
ENDBRANCH   1   2
BRANCH   1  17
ATOM     17  C   UNL     1      12.037  22.475  75.083  1.00  0.00     0.172 A 
ATOM     18  C   UNL     1      12.508  21.258  75.592  1.00  0.00     0.205 A 
ATOM     19  C   UNL     1      11.868  23.577  75.937  1.00  0.00     0.097 A 
ATOM     20  C   UNL     1      12.845  21.156  76.963  1.00  0.00     0.188 A 
ATOM     21  C   UNL     1      12.160  23.478  77.302  1.00  0.00     0.134 A 
ATOM     22  C   UNL     1      12.650  22.262  77.830  1.00  0.00     0.111 A 
ATOM     23  O   UNL     1      13.355  20.024  77.441  1.00  0.00    -0.452 OA
ATOM     24  C   UNL     1      12.970  22.099  79.193  1.00  0.00     0.197 A 
ATOM     25  C   UNL     1      13.678  19.843  78.720  1.00  0.00     0.138 A 
ATOM     26  C   UNL     1      13.482  20.881  79.640  1.00  0.00     0.100 A 
ATOM     27  O   UNL     1      12.810  23.032  80.025  1.00  0.00    -0.289 OA
BRANCH  18  28
ATOM     28  O   UNL     1      12.607  20.183  74.692  1.00  0.00    -0.490 OA
ATOM     29  C   UNL     1      11.816  18.995  74.737  1.00  0.00     0.278 C 
ENDBRANCH  18  28
BRANCH  21  30
ATOM     30  O   UNL     1      11.968  24.590  78.122  1.00  0.00    -0.507 OA
ATOM     31  H   UNL     1      12.254  24.592  79.096  1.00  0.00     0.293 HD
ENDBRANCH  21  30
BRANCH  25  32
ATOM     32  C   UNL     1      14.263  18.548  79.139  1.00  0.00     0.017 A 
ATOM     33  C   UNL     1      15.518  18.479  79.776  1.00  0.00     0.012 A 
ATOM     34  C   UNL     1      13.554  17.358  78.903  1.00  0.00     0.012 A 
ATOM     35  C   UNL     1      16.054  17.244  80.152  1.00  0.00     0.001 A 
ATOM     36  C   UNL     1      14.096  16.124  79.277  1.00  0.00     0.001 A 
ATOM     37  C   UNL     1      15.345  16.068  79.901  1.00  0.00     0.000 A 
ENDBRANCH  25  32
ENDBRANCH   1  17
TORSDOF 9
ENDMDL
MODEL 9
REMARK VINA RESULT:    -4.998      3.069      9.434
REMARK INTER + INTRA:          -8.252
REMARK INTER:                  -7.137
REMARK INTRA:                  -1.115
REMARK UNBOUND:                -1.210
REMARK SMILES COc1c(O[C@H]2O[C@@H](C(=O)[O-])[C@@H](O)[C@H](O)[C@@H]2O)cc(O)c2c(=O)cc(-c3ccccc3)oc12
REMARK SMILES IDX 5 1 6 2 8 3 12 4 7 5 14 6 16 7 9 8 10 9 11 10 13 11 15 13
REMARK SMILES IDX 17 15 4 17 3 18 18 19 33 20 19 21 21 22 32 23 22 24 25 25
REMARK SMILES IDX 24 26 23 27 2 28 1 29 20 30 26 32 27 33 31 34 28 35 30 36
REMARK SMILES IDX 29 37
REMARK H PARENT 13 12 15 14 17 16 20 31
REMARK Flexibility Score: inf
ROOT
ATOM      1  O   UNL     1      11.460  21.979  74.663  1.00  0.00    -0.458 OA
ENDROOT
BRANCH   1   2
ATOM      2  C   UNL     1      11.656  21.192  73.491  1.00  0.00     0.339 C 
ATOM      3  C   UNL     1      11.333  19.088  72.558  1.00  0.00     0.199 C 
ATOM      4  C   UNL     1      10.654  19.625  71.274  1.00  0.00     0.180 C 
ATOM      5  O   UNL     1      11.032  19.931  73.661  1.00  0.00    -0.328 OA
ATOM      6  C   UNL     1      11.083  21.087  71.006  1.00  0.00     0.181 C 
ATOM      7  C   UNL     1      11.023  21.935  72.295  1.00  0.00     0.214 C 
BRANCH   3   8
ATOM      8  C   UNL     1      10.881  17.685  72.856  1.00  0.00     0.073 C 
ATOM      9  O   UNL     1      11.690  16.723  72.746  1.00  0.00    -0.547 OA
ATOM     10  O   UNL     1       9.588  17.440  73.310  1.00  0.00    -0.547 OA
ENDBRANCH   3   8
BRANCH   4  11
ATOM     11  O   UNL     1       9.255  19.585  71.436  1.00  0.00    -0.387 OA
ATOM     12  H   UNL     1       8.994  20.348  72.016  1.00  0.00     0.211 HD
ENDBRANCH   4  11
BRANCH   6  13
ATOM     13  O   UNL     1      12.353  21.153  70.397  1.00  0.00    -0.387 OA
ATOM     14  H   UNL     1      13.046  20.995  71.087  1.00  0.00     0.211 HD
ENDBRANCH   6  13
BRANCH   7  15
ATOM     15  O   UNL     1      11.612  23.199  72.105  1.00  0.00    -0.384 OA
ATOM     16  H   UNL     1      11.784  23.312  71.131  1.00  0.00     0.211 HD
ENDBRANCH   7  15
ENDBRANCH   1   2
BRANCH   1  17
ATOM     17  C   UNL     1      12.208  21.870  75.848  1.00  0.00     0.172 A 
ATOM     18  C   UNL     1      12.084  22.892  76.798  1.00  0.00     0.205 A 
ATOM     19  C   UNL     1      13.075  20.791  76.084  1.00  0.00     0.097 A 
ATOM     20  C   UNL     1      12.811  22.813  78.010  1.00  0.00     0.188 A 
ATOM     21  C   UNL     1      13.828  20.720  77.261  1.00  0.00     0.134 A 
ATOM     22  C   UNL     1      13.705  21.736  78.237  1.00  0.00     0.111 A 
ATOM     23  O   UNL     1      12.650  23.746  78.946  1.00  0.00    -0.452 OA
ATOM     24  C   UNL     1      14.430  21.720  79.446  1.00  0.00     0.197 A 
ATOM     25  C   UNL     1      13.310  23.752  80.102  1.00  0.00     0.138 A 
ATOM     26  C   UNL     1      14.234  22.737  80.381  1.00  0.00     0.100 A 
ATOM     27  O   UNL     1      15.253  20.802  79.711  1.00  0.00    -0.289 OA
BRANCH  18  28
ATOM     28  O   UNL     1      11.236  23.967  76.476  1.00  0.00    -0.490 OA
ATOM     29  C   UNL     1      11.659  25.211  75.918  1.00  0.00     0.278 C 
ENDBRANCH  18  28
BRANCH  21  30
ATOM     30  O   UNL     1      14.688  19.639  77.455  1.00  0.00    -0.507 OA
ATOM     31  H   UNL     1      14.347  18.732  77.757  1.00  0.00     0.293 HD
ENDBRANCH  21  30
BRANCH  25  32
ATOM     32  C   UNL     1      13.033  24.826  81.084  1.00  0.00     0.017 A 
ATOM     33  C   UNL     1      12.967  24.562  82.465  1.00  0.00     0.012 A 
ATOM     34  C   UNL     1      12.835  26.142  80.633  1.00  0.00     0.012 A 
ATOM     35  C   UNL     1      12.693  25.591  83.371  1.00  0.00     0.001 A 
ATOM     36  C   UNL     1      12.557  27.168  81.542  1.00  0.00     0.001 A 
ATOM     37  C   UNL     1      12.486  26.891  82.910  1.00  0.00     0.000 A 
ENDBRANCH  25  32
ENDBRANCH   1  17
TORSDOF 9
ENDMDL
