MODEL 1
REMARK VINA RESULT:    -2.459      0.000      0.000
REMARK INTER + INTRA:          -2.459
REMARK INTER:                  -2.459
REMARK INTRA:                   0.000
REMARK UNBOUND:                 0.000
REMARK SMILES CC(=O)[O-]
REMARK SMILES IDX 1 1 2 2 3 3 4 4
REMARK H PARENT
REMARK Flexibility Score: inf
ROOT
ATOM      1  C   UNL     1     -32.045  -6.822  33.796  1.00  0.00     0.063 C 
ATOM      2  C   UNL     1     -31.601  -8.225  34.039  1.00  0.00     0.038 C 
ATOM      3  O   UNL     1     -32.407  -9.071  34.508  1.00  0.00    -0.550 OA
ATOM      4  O   UNL     1     -30.283  -8.591  33.797  1.00  0.00    -0.550 OA
ENDROOT
TORSDOF 0
ENDMDL
MODEL 2
REMARK VINA RESULT:    -2.430      1.591      1.864
REMARK INTER + INTRA:          -2.430
REMARK INTER:                  -2.430
REMARK INTRA:                   0.000
REMARK UNBOUND:                 0.000
REMARK SMILES CC(=O)[O-]
REMARK SMILES IDX 1 1 2 2 3 3 4 4
REMARK H PARENT
REMARK Flexibility Score: inf
ROOT
ATOM      1  C   UNL     1     -30.816  -8.270  33.429  1.00  0.00     0.063 C 
ATOM      2  C   UNL     1     -31.911  -7.653  34.231  1.00  0.00     0.038 C 
ATOM      3  O   UNL     1     -32.637  -8.371  34.967  1.00  0.00    -0.550 OA
ATOM      4  O   UNL     1     -32.167  -6.292  34.129  1.00  0.00    -0.550 OA
ENDROOT
TORSDOF 0
ENDMDL
MODEL 3
REMARK VINA RESULT:    -2.398      1.441      1.714
REMARK INTER + INTRA:          -2.398
REMARK INTER:                  -2.398
REMARK INTRA:                   0.000
REMARK UNBOUND:                 0.000
REMARK SMILES CC(=O)[O-]
REMARK SMILES IDX 1 1 2 2 3 3 4 4
REMARK H PARENT
REMARK Flexibility Score: inf
ROOT
ATOM      1  C   UNL     1     -32.706  -8.930  34.515  1.00  0.00     0.063 C 
ATOM      2  C   UNL     1     -31.724  -7.900  34.070  1.00  0.00     0.038 C 
ATOM      3  O   UNL     1     -32.008  -6.677  34.154  1.00  0.00    -0.550 OA
ATOM      4  O   UNL     1     -30.512  -8.288  33.515  1.00  0.00    -0.550 OA
ENDROOT
TORSDOF 0
ENDMDL
MODEL 4
REMARK VINA RESULT:    -2.341      1.717      1.896
REMARK INTER + INTRA:          -2.341
REMARK INTER:                  -2.341
REMARK INTRA:                   0.000
REMARK UNBOUND:                 0.000
REMARK SMILES CC(=O)[O-]
REMARK SMILES IDX 1 1 2 2 3 3 4 4
REMARK H PARENT
REMARK Flexibility Score: inf
ROOT
ATOM      1  C   UNL     1     -31.017  -8.228  33.457  1.00  0.00     0.063 C 
ATOM      2  C   UNL     1     -32.362  -8.834  33.675  1.00  0.00     0.038 C 
ATOM      3  O   UNL     1     -32.824  -8.944  34.841  1.00  0.00    -0.550 OA
ATOM      4  O   UNL     1     -33.088  -9.325  32.598  1.00  0.00    -0.550 OA
ENDROOT
TORSDOF 0
ENDMDL
MODEL 5
REMARK VINA RESULT:    -2.288     20.005     20.247
REMARK INTER + INTRA:          -2.288
REMARK INTER:                  -2.288
REMARK INTRA:                   0.000
REMARK UNBOUND:                 0.000
REMARK SMILES CC(=O)[O-]
REMARK SMILES IDX 1 1 2 2 3 3 4 4
REMARK H PARENT
REMARK Flexibility Score: inf
ROOT
ATOM      1  C   UNL     1     -19.460  -5.449  50.401  1.00  0.00     0.063 C 
ATOM      2  C   UNL     1     -20.273  -4.216  50.193  1.00  0.00     0.038 C 
ATOM      3  O   UNL     1     -21.216  -4.214  49.359  1.00  0.00    -0.550 OA
ATOM      4  O   UNL     1     -19.960  -3.051  50.881  1.00  0.00    -0.550 OA
ENDROOT
TORSDOF 0
ENDMDL
MODEL 6
REMARK VINA RESULT:    -2.257      4.655      5.066
REMARK INTER + INTRA:          -2.257
REMARK INTER:                  -2.257
REMARK INTRA:                   0.000
REMARK UNBOUND:                 0.000
REMARK SMILES CC(=O)[O-]
REMARK SMILES IDX 1 1 2 2 3 3 4 4
REMARK H PARENT
REMARK Flexibility Score: inf
ROOT
ATOM      1  C   UNL     1     -28.353  -9.855  34.503  1.00  0.00     0.063 C 
ATOM      2  C   UNL     1     -27.577 -11.099  34.233  1.00  0.00     0.038 C 
ATOM      3  O   UNL     1     -26.890 -11.626  35.148  1.00  0.00    -0.550 OA
ATOM      4  O   UNL     1     -27.568 -11.653  32.960  1.00  0.00    -0.550 OA
ENDROOT
TORSDOF 0
ENDMDL
MODEL 7
REMARK VINA RESULT:    -2.122      4.252      4.776
REMARK INTER + INTRA:          -2.122
REMARK INTER:                  -2.122
REMARK INTRA:                   0.000
REMARK UNBOUND:                 0.000
REMARK SMILES CC(=O)[O-]
REMARK SMILES IDX 1 1 2 2 3 3 4 4
REMARK H PARENT
REMARK Flexibility Score: inf
ROOT
ATOM      1  C   UNL     1     -27.480 -11.557  33.385  1.00  0.00     0.063 C 
ATOM      2  C   UNL     1     -27.872 -10.483  34.342  1.00  0.00     0.038 C 
ATOM      3  O   UNL     1     -27.896 -10.717  35.579  1.00  0.00    -0.550 OA
ATOM      4  O   UNL     1     -28.263  -9.237  33.869  1.00  0.00    -0.550 OA
ENDROOT
TORSDOF 0
ENDMDL
MODEL 8
REMARK VINA RESULT:    -2.048     12.184     12.438
REMARK INTER + INTRA:          -2.048
REMARK INTER:                  -2.048
REMARK INTRA:                   0.000
REMARK UNBOUND:                 0.000
REMARK SMILES CC(=O)[O-]
REMARK SMILES IDX 1 1 2 2 3 3 4 4
REMARK H PARENT
REMARK Flexibility Score: inf
ROOT
ATOM      1  C   UNL     1     -29.837 -13.084  44.082  1.00  0.00     0.063 C 
ATOM      2  C   UNL     1     -28.751 -13.849  44.760  1.00  0.00     0.038 C 
ATOM      3  O   UNL     1     -29.034 -14.834  45.491  1.00  0.00    -0.550 OA
ATOM      4  O   UNL     1     -27.429 -13.446  44.628  1.00  0.00    -0.550 OA
ENDROOT
TORSDOF 0
ENDMDL
MODEL 9
REMARK VINA RESULT:    -2.007     17.271     17.589
REMARK INTER + INTRA:          -2.007
REMARK INTER:                  -2.007
REMARK INTRA:                   0.000
REMARK UNBOUND:                 0.000
REMARK SMILES CC(=O)[O-]
REMARK SMILES IDX 1 1 2 2 3 3 4 4
REMARK H PARENT
REMARK Flexibility Score: inf
ROOT
ATOM      1  C   UNL     1     -35.026  -0.839  50.510  1.00  0.00     0.063 C 
ATOM      2  C   UNL     1     -34.581  -2.229  50.201  1.00  0.00     0.038 C 
ATOM      3  O   UNL     1     -33.602  -2.423  49.434  1.00  0.00    -0.550 OA
ATOM      4  O   UNL     1     -35.278  -3.314  50.716  1.00  0.00    -0.550 OA
ENDROOT
TORSDOF 0
ENDMDL
