MODEL 1
REMARK VINA RESULT:    -2.123      0.000      0.000
REMARK INTER + INTRA:          -3.858
REMARK INTER:                  -3.239
REMARK INTRA:                  -0.618
REMARK UNBOUND:                -0.618
REMARK SMILES CCCCCCCCCCC(=O)[O-]
REMARK SMILES IDX 7 1 8 2 9 3 10 4 11 5 12 6 13 7 6 8 5 9 4 10 3 11 2 12 1 13
REMARK H PARENT
REMARK Flexibility Score: inf
ROOT
ATOM      1  C   UNL     1      31.224  23.458  29.839  1.00  0.00     0.000 C 
ENDROOT
BRANCH   1   2
ATOM      2  C   UNL     1      30.408  24.485  30.641  1.00  0.00     0.000 C 
BRANCH   2   3
ATOM      3  C   UNL     1      30.902  24.635  32.088  1.00  0.00     0.006 C 
BRANCH   3   4
ATOM      4  C   UNL     1      32.353  25.125  32.123  1.00  0.00     0.053 C 
BRANCH   4   5
ATOM      5  C   UNL     1      32.929  24.959  33.493  1.00  0.00     0.041 C 
ATOM      6  O   UNL     1      32.195  25.077  34.509  1.00  0.00    -0.550 OA
ATOM      7  O   UNL     1      34.289  24.723  33.652  1.00  0.00    -0.550 OA
ENDBRANCH   4   5
ENDBRANCH   3   4
ENDBRANCH   2   3
ENDBRANCH   1   2
BRANCH   1   8
ATOM      8  C   UNL     1      31.235  23.759  28.331  1.00  0.00     0.000 C 
BRANCH   8   9
ATOM      9  C   UNL     1      32.164  24.929  27.968  1.00  0.00    -0.000 C 
BRANCH   9  10
ATOM     10  C   UNL     1      33.482  24.906  28.756  1.00  0.00    -0.000 C 
BRANCH  10  11
ATOM     11  C   UNL     1      34.592  24.222  27.947  1.00  0.00    -0.000 C 
BRANCH  11  12
ATOM     12  C   UNL     1      35.613  23.551  28.873  1.00  0.00    -0.003 C 
ATOM     13  C   UNL     1      36.938  24.307  28.874  1.00  0.00     0.004 C 
ENDBRANCH  11  12
ENDBRANCH  10  11
ENDBRANCH   9  10
ENDBRANCH   8   9
ENDBRANCH   1   8
TORSDOF 9
ENDMDL
MODEL 2
REMARK VINA RESULT:    -1.697      2.555      4.298
REMARK INTER + INTRA:          -3.209
REMARK INTER:                  -2.707
REMARK INTRA:                  -0.501
REMARK UNBOUND:                -0.618
REMARK SMILES CCCCCCCCCCC(=O)[O-]
REMARK SMILES IDX 7 1 8 2 9 3 10 4 11 5 12 6 13 7 6 8 5 9 4 10 3 11 2 12 1 13
REMARK H PARENT
REMARK Flexibility Score: inf
ROOT
ATOM      1  C   UNL     1      34.002  25.056  33.333  1.00  0.00     0.000 C 
ENDROOT
BRANCH   1   2
ATOM      2  C   UNL     1      32.871  24.638  34.287  1.00  0.00     0.000 C 
BRANCH   2   3
ATOM      3  C   UNL     1      31.485  25.076  33.791  1.00  0.00     0.006 C 
BRANCH   3   4
ATOM      4  C   UNL     1      31.441  25.125  32.261  1.00  0.00     0.053 C 
BRANCH   4   5
ATOM      5  C   UNL     1      30.208  24.452  31.749  1.00  0.00     0.041 C 
ATOM      6  O   UNL     1      30.192  23.950  30.595  1.00  0.00    -0.550 OA
ATOM      7  O   UNL     1      29.058  24.420  32.529  1.00  0.00    -0.550 OA
ENDBRANCH   4   5
ENDBRANCH   3   4
ENDBRANCH   2   3
ENDBRANCH   1   2
BRANCH   1   8
ATOM      8  C   UNL     1      35.208  24.103  33.392  1.00  0.00     0.000 C 
BRANCH   8   9
ATOM      9  C   UNL     1      36.551  24.850  33.423  1.00  0.00    -0.000 C 
BRANCH   9  10
ATOM     10  C   UNL     1      37.113  25.119  32.019  1.00  0.00    -0.000 C 
BRANCH  10  11
ATOM     11  C   UNL     1      36.793  23.958  31.069  1.00  0.00    -0.000 C 
BRANCH  11  12
ATOM     12  C   UNL     1      36.595  24.459  29.634  1.00  0.00    -0.003 C 
ATOM     13  C   UNL     1      35.474  23.698  28.933  1.00  0.00     0.004 C 
ENDBRANCH  11  12
ENDBRANCH  10  11
ENDBRANCH   9  10
ENDBRANCH   8   9
ENDBRANCH   1   8
TORSDOF 9
ENDMDL
MODEL 3
REMARK VINA RESULT:    -1.239     18.018     20.646
REMARK INTER + INTRA:          -2.509
REMARK INTER:                  -2.069
REMARK INTRA:                  -0.440
REMARK UNBOUND:                -0.618
REMARK SMILES CCCCCCCCCCC(=O)[O-]
REMARK SMILES IDX 7 1 8 2 9 3 10 4 11 5 12 6 13 7 6 8 5 9 4 10 3 11 2 12 1 13
REMARK H PARENT
REMARK Flexibility Score: inf
ROOT
ATOM      1  C   UNL     1      19.405  23.627  48.125  1.00  0.00     0.000 C 
ENDROOT
BRANCH   1   2
ATOM      2  C   UNL     1      17.929  23.834  47.752  1.00  0.00     0.000 C 
BRANCH   2   3
ATOM      3  C   UNL     1      17.694  25.124  46.951  1.00  0.00     0.006 C 
BRANCH   3   4
ATOM      4  C   UNL     1      16.933  24.833  45.655  1.00  0.00     0.053 C 
BRANCH   4   5
ATOM      5  C   UNL     1      17.867  24.838  44.486  1.00  0.00     0.041 C 
ATOM      6  O   UNL     1      17.414  24.768  43.313  1.00  0.00    -0.550 OA
ATOM      7  O   UNL     1      19.240  24.869  44.693  1.00  0.00    -0.550 OA
ENDBRANCH   4   5
ENDBRANCH   3   4
ENDBRANCH   2   3
ENDBRANCH   1   2
BRANCH   1   8
ATOM      8  C   UNL     1      19.839  22.154  48.029  1.00  0.00     0.000 C 
BRANCH   8   9
ATOM      9  C   UNL     1      21.146  21.973  47.240  1.00  0.00    -0.000 C 
BRANCH   9  10
ATOM     10  C   UNL     1      21.130  22.703  45.889  1.00  0.00    -0.000 C 
BRANCH  10  11
ATOM     11  C   UNL     1      22.548  22.836  45.321  1.00  0.00    -0.000 C 
BRANCH  11  12
ATOM     12  C   UNL     1      23.583  22.949  46.448  1.00  0.00    -0.003 C 
ATOM     13  C   UNL     1      24.973  23.243  45.892  1.00  0.00     0.004 C 
ENDBRANCH  11  12
ENDBRANCH  10  11
ENDBRANCH   9  10
ENDBRANCH   8   9
ENDBRANCH   1   8
TORSDOF 9
ENDMDL
MODEL 4
REMARK VINA RESULT:    -0.731      2.492      3.881
REMARK INTER + INTRA:          -1.734
REMARK INTER:                  -1.275
REMARK INTRA:                  -0.459
REMARK UNBOUND:                -0.618
REMARK SMILES CCCCCCCCCCC(=O)[O-]
REMARK SMILES IDX 7 1 8 2 9 3 10 4 11 5 12 6 13 7 6 8 5 9 4 10 3 11 2 12 1 13
REMARK H PARENT
REMARK Flexibility Score: inf
ROOT
ATOM      1  C   UNL     1      31.880  24.143  32.411  1.00  0.00     0.000 C 
ENDROOT
BRANCH   1   2
ATOM      2  C   UNL     1      32.166  24.582  33.856  1.00  0.00     0.000 C 
BRANCH   2   3
ATOM      3  C   UNL     1      33.591  25.125  34.040  1.00  0.00     0.006 C 
BRANCH   3   4
ATOM      4  C   UNL     1      34.352  25.125  32.711  1.00  0.00     0.053 C 
BRANCH   4   5
ATOM      5  C   UNL     1      35.774  24.711  32.922  1.00  0.00     0.041 C 
ATOM      6  O   UNL     1      36.094  24.033  33.933  1.00  0.00    -0.550 OA
ATOM      7  O   UNL     1      36.756  25.115  32.026  1.00  0.00    -0.550 OA
ENDBRANCH   4   5
ENDBRANCH   3   4
ENDBRANCH   2   3
ENDBRANCH   1   2
BRANCH   1   8
ATOM      8  C   UNL     1      30.380  23.935  32.142  1.00  0.00     0.000 C 
BRANCH   8   9
ATOM      9  C   UNL     1      29.754  25.097  31.355  1.00  0.00    -0.000 C 
BRANCH   9  10
ATOM     10  C   UNL     1      29.648  24.807  29.850  1.00  0.00    -0.000 C 
BRANCH  10  11
ATOM     11  C   UNL     1      31.030  24.850  29.186  1.00  0.00    -0.000 C 
BRANCH  11  12
ATOM     12  C   UNL     1      31.497  23.442  28.795  1.00  0.00    -0.003 C 
ATOM     13  C   UNL     1      30.474  22.750  27.901  1.00  0.00     0.004 C 
ENDBRANCH  11  12
ENDBRANCH  10  11
ENDBRANCH   9  10
ENDBRANCH   8   9
ENDBRANCH   1   8
TORSDOF 9
ENDMDL
MODEL 5
REMARK VINA RESULT:     0.085     17.488     19.972
REMARK INTER + INTRA:          -0.488
REMARK INTER:                  -0.090
REMARK INTRA:                  -0.399
REMARK UNBOUND:                -0.618
REMARK SMILES CCCCCCCCCCC(=O)[O-]
REMARK SMILES IDX 7 1 8 2 9 3 10 4 11 5 12 6 13 7 6 8 5 9 4 10 3 11 2 12 1 13
REMARK H PARENT
REMARK Flexibility Score: inf
ROOT
ATOM      1  C   UNL     1      20.120  22.518  47.642  1.00  0.00     0.000 C 
ENDROOT
BRANCH   1   2
ATOM      2  C   UNL     1      18.759  23.232  47.678  1.00  0.00     0.000 C 
BRANCH   2   3
ATOM      3  C   UNL     1      18.843  24.694  47.214  1.00  0.00     0.006 C 
BRANCH   3   4
ATOM      4  C   UNL     1      17.641  25.061  46.339  1.00  0.00     0.053 C 
BRANCH   4   5
ATOM      5  C   UNL     1      17.998  24.960  44.889  1.00  0.00     0.041 C 
ATOM      6  O   UNL     1      19.190  25.120  44.517  1.00  0.00    -0.550 OA
ATOM      7  O   UNL     1      17.005  24.739  43.943  1.00  0.00    -0.550 OA
ENDBRANCH   4   5
ENDBRANCH   3   4
ENDBRANCH   2   3
ENDBRANCH   1   2
BRANCH   1   8
ATOM      8  C   UNL     1      20.808  22.625  46.271  1.00  0.00     0.000 C 
BRANCH   8   9
ATOM      9  C   UNL     1      22.207  21.988  46.260  1.00  0.00    -0.000 C 
BRANCH   9  10
ATOM     10  C   UNL     1      23.269  22.899  45.627  1.00  0.00    -0.000 C 
BRANCH  10  11
ATOM     11  C   UNL     1      24.535  22.948  46.492  1.00  0.00    -0.000 C 
BRANCH  11  12
ATOM     12  C   UNL     1      25.621  23.804  45.830  1.00  0.00    -0.003 C 
ATOM     13  C   UNL     1      27.010  23.228  46.087  1.00  0.00     0.004 C 
ENDBRANCH  11  12
ENDBRANCH  10  11
ENDBRANCH   9  10
ENDBRANCH   8   9
ENDBRANCH   1   8
TORSDOF 9
ENDMDL
MODEL 6
REMARK VINA RESULT:     0.287     17.710     20.305
REMARK INTER + INTRA:          -0.181
REMARK INTER:                   0.438
REMARK INTRA:                  -0.619
REMARK UNBOUND:                -0.618
REMARK SMILES CCCCCCCCCCC(=O)[O-]
REMARK SMILES IDX 7 1 8 2 9 3 10 4 11 5 12 6 13 7 6 8 5 9 4 10 3 11 2 12 1 13
REMARK H PARENT
REMARK Flexibility Score: inf
ROOT
ATOM      1  C   UNL     1      19.965  22.753  46.927  1.00  0.00     0.000 C 
ENDROOT
BRANCH   1   2
ATOM      2  C   UNL     1      21.429  22.576  47.359  1.00  0.00     0.000 C 
BRANCH   2   3
ATOM      3  C   UNL     1      22.303  21.960  46.256  1.00  0.00     0.006 C 
BRANCH   3   4
ATOM      4  C   UNL     1      23.205  23.020  45.617  1.00  0.00     0.053 C 
BRANCH   4   5
ATOM      5  C   UNL     1      24.646  22.686  45.840  1.00  0.00     0.041 C 
ATOM      6  O   UNL     1      25.436  23.557  46.291  1.00  0.00    -0.550 OA
ATOM      7  O   UNL     1      25.129  21.428  45.505  1.00  0.00    -0.550 OA
ENDBRANCH   4   5
ENDBRANCH   3   4
ENDBRANCH   2   3
ENDBRANCH   1   2
BRANCH   1   8
ATOM      8  C   UNL     1      19.105  23.427  48.010  1.00  0.00     0.000 C 
BRANCH   8   9
ATOM      9  C   UNL     1      17.749  23.910  47.472  1.00  0.00    -0.000 C 
BRANCH   9  10
ATOM     10  C   UNL     1      17.883  25.087  46.494  1.00  0.00    -0.000 C 
BRANCH  10  11
ATOM     11  C   UNL     1      17.056  24.842  45.226  1.00  0.00    -0.000 C 
BRANCH  11  12
ATOM     12  C   UNL     1      17.964  24.652  44.005  1.00  0.00    -0.003 C 
ATOM     13  C   UNL     1      19.385  25.125  44.296  1.00  0.00     0.004 C 
ENDBRANCH  11  12
ENDBRANCH  10  11
ENDBRANCH   9  10
ENDBRANCH   8   9
ENDBRANCH   1   8
TORSDOF 9
ENDMDL
MODEL 7
REMARK VINA RESULT:     0.478     16.630     19.556
REMARK INTER + INTRA:           0.111
REMARK INTER:                   0.617
REMARK INTRA:                  -0.506
REMARK UNBOUND:                -0.618
REMARK SMILES CCCCCCCCCCC(=O)[O-]
REMARK SMILES IDX 7 1 8 2 9 3 10 4 11 5 12 6 13 7 6 8 5 9 4 10 3 11 2 12 1 13
REMARK H PARENT
REMARK Flexibility Score: inf
ROOT
ATOM      1  C   UNL     1      22.380  22.906  45.673  1.00  0.00     0.000 C 
ENDROOT
BRANCH   1   2
ATOM      2  C   UNL     1      23.742  22.469  46.237  1.00  0.00     0.000 C 
BRANCH   2   3
ATOM      3  C   UNL     1      24.872  23.449  45.888  1.00  0.00     0.006 C 
BRANCH   3   4
ATOM      4  C   UNL     1      26.239  22.853  46.233  1.00  0.00     0.053 C 
BRANCH   4   5
ATOM      5  C   UNL     1      27.328  23.838  45.946  1.00  0.00     0.041 C 
ATOM      6  O   UNL     1      27.055  24.953  45.430  1.00  0.00    -0.550 OA
ATOM      7  O   UNL     1      28.653  23.505  46.202  1.00  0.00    -0.550 OA
ENDBRANCH   4   5
ENDBRANCH   3   4
ENDBRANCH   2   3
ENDBRANCH   1   2
BRANCH   1   8
ATOM      8  C   UNL     1      21.203  22.159  46.321  1.00  0.00     0.000 C 
BRANCH   8   9
ATOM      9  C   UNL     1      20.988  22.556  47.791  1.00  0.00    -0.000 C 
BRANCH   9  10
ATOM     10  C   UNL     1      19.516  22.849  48.117  1.00  0.00    -0.000 C 
BRANCH  10  11
ATOM     11  C   UNL     1      19.106  24.234  47.601  1.00  0.00    -0.000 C 
BRANCH  11  12
ATOM     12  C   UNL     1      18.182  24.116  46.383  1.00  0.00    -0.003 C 
ATOM     13  C   UNL     1      18.785  24.808  45.164  1.00  0.00     0.004 C 
ENDBRANCH  11  12
ENDBRANCH  10  11
ENDBRANCH   9  10
ENDBRANCH   8   9
ENDBRANCH   1   8
TORSDOF 9
ENDMDL
MODEL 8
REMARK VINA RESULT:     0.796     17.301     19.739
REMARK INTER + INTRA:           0.596
REMARK INTER:                   0.988
REMARK INTRA:                  -0.392
REMARK UNBOUND:                -0.618
REMARK SMILES CCCCCCCCCCC(=O)[O-]
REMARK SMILES IDX 7 1 8 2 9 3 10 4 11 5 12 6 13 7 6 8 5 9 4 10 3 11 2 12 1 13
REMARK H PARENT
REMARK Flexibility Score: inf
ROOT
ATOM      1  C   UNL     1      21.636  22.898  47.347  1.00  0.00     0.000 C 
ENDROOT
BRANCH   1   2
ATOM      2  C   UNL     1      20.541  22.086  48.057  1.00  0.00     0.000 C 
BRANCH   2   3
ATOM      3  C   UNL     1      19.200  22.831  48.125  1.00  0.00     0.006 C 
BRANCH   3   4
ATOM      4  C   UNL     1      19.326  24.240  47.539  1.00  0.00     0.053 C 
BRANCH   4   5
ATOM      5  C   UNL     1      18.336  24.440  46.435  1.00  0.00     0.041 C 
ATOM      6  O   UNL     1      17.192  24.900  46.686  1.00  0.00    -0.550 OA
ATOM      7  O   UNL     1      18.659  24.072  45.135  1.00  0.00    -0.550 OA
ENDBRANCH   4   5
ENDBRANCH   3   4
ENDBRANCH   2   3
ENDBRANCH   1   2
BRANCH   1   8
ATOM      8  C   UNL     1      22.195  22.180  46.107  1.00  0.00     0.000 C 
BRANCH   8   9
ATOM      9  C   UNL     1      23.397  22.913  45.490  1.00  0.00    -0.000 C 
BRANCH   9  10
ATOM     10  C   UNL     1      24.611  22.959  46.431  1.00  0.00    -0.000 C 
BRANCH  10  11
ATOM     11  C   UNL     1      25.755  23.768  45.809  1.00  0.00    -0.000 C 
BRANCH  11  12
ATOM     12  C   UNL     1      27.114  23.129  46.121  1.00  0.00    -0.003 C 
ATOM     13  C   UNL     1      28.227  24.172  46.122  1.00  0.00     0.004 C 
ENDBRANCH  11  12
ENDBRANCH  10  11
ENDBRANCH   9  10
ENDBRANCH   8   9
ENDBRANCH   1   8
TORSDOF 9
ENDMDL
