MODEL 1
REMARK VINA RESULT:    -4.083      0.000      0.000
REMARK INTER + INTRA:         -14.571
REMARK INTER:                 -10.766
REMARK INTRA:                  -3.806
REMARK UNBOUND:                -3.806
REMARK SMILES CCCCCCCCCCCCCCCCCCCCCCCCCCCCCC(=O)[O-]
REMARK SMILES IDX 16 1 17 2 18 3 19 4 20 5 21 6 22 7 23 8 24 9 25 10 26 11
REMARK SMILES IDX 27 12 28 13 29 14 30 15 31 16 32 17 15 18 14 19 13 20 12 21
REMARK SMILES IDX 11 22 10 23 9 24 8 25 7 26 6 27 5 28 4 29 3 30 2 31 1 32
REMARK H PARENT
REMARK Flexibility Score: inf
ROOT
ATOM      1  C   UNL     1     -12.612  -5.096  -4.376  1.00  0.00     0.000 C 
ENDROOT
BRANCH   1   2
ATOM      2  C   UNL     1     -13.417  -6.334  -3.954  1.00  0.00     0.000 C 
BRANCH   2   3
ATOM      3  C   UNL     1     -13.585  -7.360  -5.090  1.00  0.00     0.000 C 
BRANCH   3   4
ATOM      4  C   UNL     1     -13.901  -8.798  -4.632  1.00  0.00     0.000 C 
BRANCH   4   5
ATOM      5  C   UNL     1     -13.037  -9.893  -5.283  1.00  0.00     0.000 C 
BRANCH   5   6
ATOM      6  C   UNL     1     -13.855 -11.116  -5.728  1.00  0.00     0.000 C 
BRANCH   6   7
ATOM      7  C   UNL     1     -13.105 -11.991  -6.743  1.00  0.00     0.000 C 
BRANCH   7   8
ATOM      8  C   UNL     1     -11.734 -11.410  -7.134  1.00  0.00     0.000 C 
BRANCH   8   9
ATOM      9  C   UNL     1     -10.557 -12.236  -6.575  1.00  0.00     0.000 C 
BRANCH   9  10
ATOM     10  C   UNL     1     -10.270 -11.990  -5.082  1.00  0.00     0.000 C 
BRANCH  10  11
ATOM     11  C   UNL     1     -10.331 -13.242  -4.190  1.00  0.00     0.000 C 
BRANCH  11  12
ATOM     12  C   UNL     1     -11.683 -13.973  -4.273  1.00  0.00     0.000 C 
BRANCH  12  13
ATOM     13  C   UNL     1     -12.658 -13.539  -3.158  1.00  0.00     0.006 C 
BRANCH  13  14
ATOM     14  C   UNL     1     -11.994 -12.698  -2.058  1.00  0.00     0.053 C 
BRANCH  14  15
ATOM     15  C   UNL     1     -12.879 -11.591  -1.575  1.00  0.00     0.041 C 
ATOM     16  O   UNL     1     -12.520 -10.869  -0.607  1.00  0.00    -0.550 OA
ATOM     17  O   UNL     1     -14.120 -11.384  -2.165  1.00  0.00    -0.550 OA
ENDBRANCH  14  15
ENDBRANCH  13  14
ENDBRANCH  12  13
ENDBRANCH  11  12
ENDBRANCH  10  11
ENDBRANCH   9  10
ENDBRANCH   8   9
ENDBRANCH   7   8
ENDBRANCH   6   7
ENDBRANCH   5   6
ENDBRANCH   4   5
ENDBRANCH   3   4
ENDBRANCH   2   3
ENDBRANCH   1   2
BRANCH   1  18
ATOM     18  C   UNL     1     -12.767  -4.830  -5.882  1.00  0.00     0.000 C 
BRANCH  18  19
ATOM     19  C   UNL     1     -11.916  -3.642  -6.363  1.00  0.00     0.000 C 
BRANCH  19  20
ATOM     20  C   UNL     1     -10.873  -4.051  -7.416  1.00  0.00     0.000 C 
BRANCH  20  21
ATOM     21  C   UNL     1     -10.810  -5.582  -7.613  1.00  0.00     0.000 C 
BRANCH  21  22
ATOM     22  C   UNL     1      -9.639  -6.251  -6.874  1.00  0.00     0.000 C 
BRANCH  22  23
ATOM     23  C   UNL     1     -10.094  -7.356  -5.905  1.00  0.00     0.000 C 
BRANCH  23  24
ATOM     24  C   UNL     1      -8.925  -7.915  -5.065  1.00  0.00    -0.000 C 
BRANCH  24  25
ATOM     25  C   UNL     1      -8.354  -9.238  -5.600  1.00  0.00    -0.000 C 
BRANCH  25  26
ATOM     26  C   UNL     1      -7.084  -9.687  -4.858  1.00  0.00    -0.000 C 
BRANCH  26  27
ATOM     27  C   UNL     1      -6.622 -11.098  -5.261  1.00  0.00    -0.000 C 
BRANCH  27  28
ATOM     28  C   UNL     1      -6.241 -11.188  -6.749  1.00  0.00    -0.000 C 
BRANCH  28  29
ATOM     29  C   UNL     1      -4.718 -11.127  -6.980  1.00  0.00    -0.000 C 
BRANCH  29  30
ATOM     30  C   UNL     1      -3.877 -11.020  -5.693  1.00  0.00    -0.000 C 
BRANCH  30  31
ATOM     31  C   UNL     1      -2.809 -12.121  -5.584  1.00  0.00    -0.003 C 
ATOM     32  C   UNL     1      -2.439 -12.388  -4.127  1.00  0.00     0.004 C 
ENDBRANCH  30  31
ENDBRANCH  29  30
ENDBRANCH  28  29
ENDBRANCH  27  28
ENDBRANCH  26  27
ENDBRANCH  25  26
ENDBRANCH  24  25
ENDBRANCH  23  24
ENDBRANCH  22  23
ENDBRANCH  21  22
ENDBRANCH  20  21
ENDBRANCH  19  20
ENDBRANCH  18  19
ENDBRANCH   1  18
TORSDOF 28
ENDMDL
MODEL 2
REMARK VINA RESULT:    -3.841      3.127      7.519
REMARK INTER + INTRA:         -13.935
REMARK INTER:                  -9.950
REMARK INTRA:                  -3.984
REMARK UNBOUND:                -3.806
REMARK SMILES CCCCCCCCCCCCCCCCCCCCCCCCCCCCCC(=O)[O-]
REMARK SMILES IDX 16 1 17 2 18 3 19 4 20 5 21 6 22 7 23 8 24 9 25 10 26 11
REMARK SMILES IDX 27 12 28 13 29 14 30 15 31 16 32 17 15 18 14 19 13 20 12 21
REMARK SMILES IDX 11 22 10 23 9 24 8 25 7 26 6 27 5 28 4 29 3 30 2 31 1 32
REMARK H PARENT
REMARK Flexibility Score: inf
ROOT
ATOM      1  C   UNL     1     -13.399 -13.716  -3.395  1.00  0.00     0.000 C 
ENDROOT
BRANCH   1   2
ATOM      2  C   UNL     1     -13.156 -14.112  -4.859  1.00  0.00     0.000 C 
BRANCH   2   3
ATOM      3  C   UNL     1     -13.858 -13.178  -5.861  1.00  0.00     0.000 C 
BRANCH   3   4
ATOM      4  C   UNL     1     -13.149 -13.025  -7.222  1.00  0.00     0.000 C 
BRANCH   4   5
ATOM      5  C   UNL     1     -12.080 -14.090  -7.522  1.00  0.00     0.000 C 
BRANCH   5   6
ATOM      6  C   UNL     1     -10.758 -13.487  -8.025  1.00  0.00     0.000 C 
BRANCH   6   7
ATOM      7  C   UNL     1      -9.636 -13.568  -6.979  1.00  0.00     0.000 C 
BRANCH   7   8
ATOM      8  C   UNL     1      -8.380 -12.777  -7.389  1.00  0.00     0.000 C 
BRANCH   8   9
ATOM      9  C   UNL     1      -7.826 -11.906  -6.243  1.00  0.00     0.000 C 
BRANCH   9  10
ATOM     10  C   UNL     1      -6.977 -10.711  -6.717  1.00  0.00     0.000 C 
BRANCH  10  11
ATOM     11  C   UNL     1      -5.692 -10.461  -5.909  1.00  0.00     0.000 C 
BRANCH  11  12
ATOM     12  C   UNL     1      -4.426 -10.966  -6.624  1.00  0.00     0.000 C 
BRANCH  12  13
ATOM     13  C   UNL     1      -3.236 -11.149  -5.659  1.00  0.00     0.006 C 
BRANCH  13  14
ATOM     14  C   UNL     1      -2.689 -12.583  -5.628  1.00  0.00     0.053 C 
BRANCH  14  15
ATOM     15  C   UNL     1      -2.050 -12.921  -4.317  1.00  0.00     0.041 C 
ATOM     16  O   UNL     1      -2.464 -12.386  -3.253  1.00  0.00    -0.550 OA
ATOM     17  O   UNL     1      -0.969 -13.793  -4.272  1.00  0.00    -0.550 OA
ENDBRANCH  14  15
ENDBRANCH  13  14
ENDBRANCH  12  13
ENDBRANCH  11  12
ENDBRANCH  10  11
ENDBRANCH   9  10
ENDBRANCH   8   9
ENDBRANCH   7   8
ENDBRANCH   6   7
ENDBRANCH   5   6
ENDBRANCH   4   5
ENDBRANCH   3   4
ENDBRANCH   2   3
ENDBRANCH   1   2
BRANCH   1  18
ATOM     18  C   UNL     1     -12.216 -12.904  -2.844  1.00  0.00     0.000 C 
BRANCH  18  19
ATOM     19  C   UNL     1     -11.208 -12.512  -3.938  1.00  0.00     0.000 C 
BRANCH  19  20
ATOM     20  C   UNL     1     -11.164 -10.994  -4.181  1.00  0.00     0.000 C 
BRANCH  20  21
ATOM     21  C   UNL     1     -11.121 -10.644  -5.685  1.00  0.00     0.000 C 
BRANCH  21  22
ATOM     22  C   UNL     1     -12.037  -9.471  -6.071  1.00  0.00     0.000 C 
BRANCH  22  23
ATOM     23  C   UNL     1     -13.094  -9.157  -4.998  1.00  0.00     0.000 C 
BRANCH  23  24
ATOM     24  C   UNL     1     -13.671  -7.733  -5.146  1.00  0.00    -0.000 C 
BRANCH  24  25
ATOM     25  C   UNL     1     -13.629  -6.909  -3.848  1.00  0.00    -0.000 C 
BRANCH  25  26
ATOM     26  C   UNL     1     -13.066  -5.493  -4.054  1.00  0.00    -0.000 C 
BRANCH  26  27
ATOM     27  C   UNL     1     -12.880  -5.133  -5.538  1.00  0.00    -0.000 C 
BRANCH  27  28
ATOM     28  C   UNL     1     -11.456  -4.639  -5.848  1.00  0.00    -0.000 C 
BRANCH  28  29
ATOM     29  C   UNL     1     -10.787  -5.425  -6.993  1.00  0.00    -0.000 C 
BRANCH  29  30
ATOM     30  C   UNL     1      -9.455  -6.102  -6.615  1.00  0.00    -0.000 C 
BRANCH  30  31
ATOM     31  C   UNL     1      -9.422  -6.583  -5.154  1.00  0.00    -0.003 C 
ATOM     32  C   UNL     1      -8.889  -8.010  -5.055  1.00  0.00     0.004 C 
ENDBRANCH  30  31
ENDBRANCH  29  30
ENDBRANCH  28  29
ENDBRANCH  27  28
ENDBRANCH  26  27
ENDBRANCH  25  26
ENDBRANCH  24  25
ENDBRANCH  23  24
ENDBRANCH  22  23
ENDBRANCH  21  22
ENDBRANCH  20  21
ENDBRANCH  19  20
ENDBRANCH  18  19
ENDBRANCH   1  18
TORSDOF 28
ENDMDL
MODEL 3
REMARK VINA RESULT:    -3.743      2.083      5.049
REMARK INTER + INTRA:         -13.676
REMARK INTER:                 -10.476
REMARK INTRA:                  -3.200
REMARK UNBOUND:                -3.806
REMARK SMILES CCCCCCCCCCCCCCCCCCCCCCCCCCCCCC(=O)[O-]
REMARK SMILES IDX 16 1 17 2 18 3 19 4 20 5 21 6 22 7 23 8 24 9 25 10 26 11
REMARK SMILES IDX 27 12 28 13 29 14 30 15 31 16 32 17 15 18 14 19 13 20 12 21
REMARK SMILES IDX 11 22 10 23 9 24 8 25 7 26 6 27 5 28 4 29 3 30 2 31 1 32
REMARK H PARENT
REMARK Flexibility Score: inf
ROOT
ATOM      1  C   UNL     1      -9.635  -6.101  -7.528  1.00  0.00     0.000 C 
ENDROOT
BRANCH   1   2
ATOM      2  C   UNL     1     -10.659  -5.877  -8.651  1.00  0.00     0.000 C 
BRANCH   2   3
ATOM      3  C   UNL     1     -11.477  -4.585  -8.474  1.00  0.00     0.000 C 
BRANCH   3   4
ATOM      4  C   UNL     1     -10.953  -3.621  -7.391  1.00  0.00     0.000 C 
BRANCH   4   5
ATOM      5  C   UNL     1     -11.875  -3.450  -6.170  1.00  0.00     0.000 C 
BRANCH   5   6
ATOM      6  C   UNL     1     -12.719  -4.701  -5.879  1.00  0.00     0.000 C 
BRANCH   6   7
ATOM      7  C   UNL     1     -12.599  -5.168  -4.420  1.00  0.00     0.000 C 
BRANCH   7   8
ATOM      8  C   UNL     1     -13.546  -6.336  -4.088  1.00  0.00     0.000 C 
BRANCH   8   9
ATOM      9  C   UNL     1     -13.477  -7.473  -5.128  1.00  0.00     0.000 C 
BRANCH   9  10
ATOM     10  C   UNL     1     -12.879  -8.785  -4.587  1.00  0.00     0.000 C 
BRANCH  10  11
ATOM     11  C   UNL     1     -13.595 -10.067  -5.043  1.00  0.00     0.000 C 
BRANCH  11  12
ATOM     12  C   UNL     1     -12.621 -11.179  -5.470  1.00  0.00     0.000 C 
BRANCH  12  13
ATOM     13  C   UNL     1     -12.051 -10.954  -6.887  1.00  0.00     0.006 C 
BRANCH  13  14
ATOM     14  C   UNL     1     -11.513 -12.236  -7.540  1.00  0.00     0.053 C 
BRANCH  14  15
ATOM     15  C   UNL     1     -10.407 -12.858  -6.746  1.00  0.00     0.041 C 
ATOM     16  O   UNL     1     -10.600 -13.198  -5.548  1.00  0.00    -0.550 OA
ATOM     17  O   UNL     1      -9.150 -13.024  -7.315  1.00  0.00    -0.550 OA
ENDBRANCH  14  15
ENDBRANCH  13  14
ENDBRANCH  12  13
ENDBRANCH  11  12
ENDBRANCH  10  11
ENDBRANCH   9  10
ENDBRANCH   8   9
ENDBRANCH   7   8
ENDBRANCH   6   7
ENDBRANCH   5   6
ENDBRANCH   4   5
ENDBRANCH   3   4
ENDBRANCH   2   3
ENDBRANCH   1   2
BRANCH   1  18
ATOM     18  C   UNL     1     -10.116  -7.193  -6.560  1.00  0.00     0.000 C 
BRANCH  18  19
ATOM     19  C   UNL     1      -9.552  -7.015  -5.141  1.00  0.00     0.000 C 
BRANCH  19  20
ATOM     20  C   UNL     1      -8.571  -8.134  -4.751  1.00  0.00     0.000 C 
BRANCH  20  21
ATOM     21  C   UNL     1      -9.093  -9.533  -5.146  1.00  0.00     0.000 C 
BRANCH  21  22
ATOM     22  C   UNL     1      -8.008 -10.623  -5.127  1.00  0.00     0.000 C 
BRANCH  22  23
ATOM     23  C   UNL     1      -6.811 -10.294  -6.035  1.00  0.00     0.000 C 
BRANCH  23  24
ATOM     24  C   UNL     1      -5.510 -10.973  -5.556  1.00  0.00    -0.000 C 
BRANCH  24  25
ATOM     25  C   UNL     1      -4.444 -11.116  -6.655  1.00  0.00    -0.000 C 
BRANCH  25  26
ATOM     26  C   UNL     1      -4.758 -12.245  -7.651  1.00  0.00    -0.000 C 
BRANCH  26  27
ATOM     27  C   UNL     1      -4.418 -13.641  -7.101  1.00  0.00    -0.000 C 
BRANCH  27  28
ATOM     28  C   UNL     1      -2.901 -13.875  -6.990  1.00  0.00    -0.000 C 
BRANCH  28  29
ATOM     29  C   UNL     1      -2.430 -14.058  -5.533  1.00  0.00    -0.000 C 
BRANCH  29  30
ATOM     30  C   UNL     1      -1.807 -12.800  -4.897  1.00  0.00    -0.000 C 
BRANCH  30  31
ATOM     31  C   UNL     1      -0.539 -13.109  -4.081  1.00  0.00    -0.003 C 
ATOM     32  C   UNL     1       0.426 -13.987  -4.873  1.00  0.00     0.004 C 
ENDBRANCH  30  31
ENDBRANCH  29  30
ENDBRANCH  28  29
ENDBRANCH  27  28
ENDBRANCH  26  27
ENDBRANCH  25  26
ENDBRANCH  24  25
ENDBRANCH  23  24
ENDBRANCH  22  23
ENDBRANCH  21  22
ENDBRANCH  20  21
ENDBRANCH  19  20
ENDBRANCH  18  19
ENDBRANCH   1  18
TORSDOF 28
ENDMDL
MODEL 4
REMARK VINA RESULT:    -3.723      3.356      7.506
REMARK INTER + INTRA:         -13.624
REMARK INTER:                 -10.561
REMARK INTRA:                  -3.063
REMARK UNBOUND:                -3.806
REMARK SMILES CCCCCCCCCCCCCCCCCCCCCCCCCCCCCC(=O)[O-]
REMARK SMILES IDX 16 1 17 2 18 3 19 4 20 5 21 6 22 7 23 8 24 9 25 10 26 11
REMARK SMILES IDX 27 12 28 13 29 14 30 15 31 16 32 17 15 18 14 19 13 20 12 21
REMARK SMILES IDX 11 22 10 23 9 24 8 25 7 26 6 27 5 28 4 29 3 30 2 31 1 32
REMARK H PARENT
REMARK Flexibility Score: inf
ROOT
ATOM      1  C   UNL     1     -13.686 -12.376  -3.486  1.00  0.00     0.000 C 
ENDROOT
BRANCH   1   2
ATOM      2  C   UNL     1     -12.541 -12.692  -2.513  1.00  0.00     0.000 C 
BRANCH   2   3
ATOM      3  C   UNL     1     -11.162 -12.257  -3.042  1.00  0.00     0.000 C 
BRANCH   3   4
ATOM      4  C   UNL     1     -10.813 -12.764  -4.456  1.00  0.00     0.000 C 
BRANCH   4   5
ATOM      5  C   UNL     1     -10.883 -11.699  -5.565  1.00  0.00     0.000 C 
BRANCH   5   6
ATOM      6  C   UNL     1      -9.681 -10.741  -5.551  1.00  0.00     0.000 C 
BRANCH   6   7
ATOM      7  C   UNL     1      -8.342 -11.474  -5.384  1.00  0.00     0.000 C 
BRANCH   7   8
ATOM      8  C   UNL     1      -7.228 -10.566  -4.832  1.00  0.00     0.000 C 
BRANCH   8   9
ATOM      9  C   UNL     1      -6.257 -10.082  -5.928  1.00  0.00     0.000 C 
BRANCH   9  10
ATOM     10  C   UNL     1      -6.031 -11.100  -7.061  1.00  0.00     0.000 C 
BRANCH  10  11
ATOM     11  C   UNL     1      -4.636 -11.747  -7.091  1.00  0.00     0.000 C 
BRANCH  11  12
ATOM     12  C   UNL     1      -3.662 -11.117  -6.080  1.00  0.00     0.000 C 
BRANCH  12  13
ATOM     13  C   UNL     1      -3.372 -12.045  -4.881  1.00  0.00     0.006 C 
BRANCH  13  14
ATOM     14  C   UNL     1      -2.181 -12.986  -5.111  1.00  0.00     0.053 C 
BRANCH  14  15
ATOM     15  C   UNL     1      -0.992 -12.612  -4.282  1.00  0.00     0.041 C 
ATOM     16  O   UNL     1      -0.060 -11.928  -4.783  1.00  0.00    -0.550 OA
ATOM     17  O   UNL     1      -0.892 -13.053  -2.968  1.00  0.00    -0.550 OA
ENDBRANCH  14  15
ENDBRANCH  13  14
ENDBRANCH  12  13
ENDBRANCH  11  12
ENDBRANCH  10  11
ENDBRANCH   9  10
ENDBRANCH   8   9
ENDBRANCH   7   8
ENDBRANCH   6   7
ENDBRANCH   5   6
ENDBRANCH   4   5
ENDBRANCH   3   4
ENDBRANCH   2   3
ENDBRANCH   1   2
BRANCH   1  18
ATOM     18  C   UNL     1     -14.107 -10.902  -3.375  1.00  0.00     0.000 C 
BRANCH  18  19
ATOM     19  C   UNL     1     -13.730 -10.084  -4.622  1.00  0.00     0.000 C 
BRANCH  19  20
ATOM     20  C   UNL     1     -14.125  -8.603  -4.497  1.00  0.00     0.000 C 
BRANCH  20  21
ATOM     21  C   UNL     1     -12.970  -7.654  -4.886  1.00  0.00     0.000 C 
BRANCH  21  22
ATOM     22  C   UNL     1     -13.165  -6.211  -4.391  1.00  0.00     0.000 C 
BRANCH  22  23
ATOM     23  C   UNL     1     -12.984  -5.166  -5.505  1.00  0.00     0.000 C 
BRANCH  23  24
ATOM     24  C   UNL     1     -11.727  -4.296  -5.293  1.00  0.00    -0.000 C 
BRANCH  24  25
ATOM     25  C   UNL     1     -11.555  -3.187  -6.344  1.00  0.00    -0.000 C 
BRANCH  25  26
ATOM     26  C   UNL     1     -10.642  -3.601  -7.510  1.00  0.00    -0.000 C 
BRANCH  26  27
ATOM     27  C   UNL     1     -11.401  -4.324  -8.637  1.00  0.00    -0.000 C 
BRANCH  27  28
ATOM     28  C   UNL     1     -10.740  -5.657  -9.028  1.00  0.00    -0.000 C 
BRANCH  28  29
ATOM     29  C   UNL     1     -10.704  -6.669  -7.866  1.00  0.00    -0.000 C 
BRANCH  29  30
ATOM     30  C   UNL     1      -9.415  -6.633  -7.022  1.00  0.00    -0.000 C 
BRANCH  30  31
ATOM     31  C   UNL     1      -9.640  -7.079  -5.567  1.00  0.00    -0.003 C 
ATOM     32  C   UNL     1      -8.970  -6.119  -4.587  1.00  0.00     0.004 C 
ENDBRANCH  30  31
ENDBRANCH  29  30
ENDBRANCH  28  29
ENDBRANCH  27  28
ENDBRANCH  26  27
ENDBRANCH  25  26
ENDBRANCH  24  25
ENDBRANCH  23  24
ENDBRANCH  22  23
ENDBRANCH  21  22
ENDBRANCH  20  21
ENDBRANCH  19  20
ENDBRANCH  18  19
ENDBRANCH   1  18
TORSDOF 28
ENDMDL
MODEL 5
REMARK VINA RESULT:    -3.720      3.767      7.220
REMARK INTER + INTRA:         -13.615
REMARK INTER:                 -10.858
REMARK INTRA:                  -2.757
REMARK UNBOUND:                -3.806
REMARK SMILES CCCCCCCCCCCCCCCCCCCCCCCCCCCCCC(=O)[O-]
REMARK SMILES IDX 16 1 17 2 18 3 19 4 20 5 21 6 22 7 23 8 24 9 25 10 26 11
REMARK SMILES IDX 27 12 28 13 29 14 30 15 31 16 32 17 15 18 14 19 13 20 12 21
REMARK SMILES IDX 11 22 10 23 9 24 8 25 7 26 6 27 5 28 4 29 3 30 2 31 1 32
REMARK H PARENT
REMARK Flexibility Score: inf
ROOT
ATOM      1  C   UNL     1     -12.383  -9.974  -5.120  1.00  0.00     0.000 C 
ENDROOT
BRANCH   1   2
ATOM      2  C   UNL     1     -12.022 -11.412  -4.719  1.00  0.00     0.000 C 
BRANCH   2   3
ATOM      3  C   UNL     1     -12.297 -12.437  -5.834  1.00  0.00     0.000 C 
BRANCH   3   4
ATOM      4  C   UNL     1     -11.957 -11.961  -7.261  1.00  0.00     0.000 C 
BRANCH   4   5
ATOM      5  C   UNL     1     -10.883 -12.792  -7.985  1.00  0.00     0.000 C 
BRANCH   5   6
ATOM      6  C   UNL     1      -9.895 -13.466  -7.019  1.00  0.00     0.000 C 
BRANCH   6   7
ATOM      7  C   UNL     1      -8.817 -12.499  -6.506  1.00  0.00     0.000 C 
BRANCH   7   8
ATOM      8  C   UNL     1      -7.548 -12.505  -7.377  1.00  0.00     0.000 C 
BRANCH   8   9
ATOM      9  C   UNL     1      -6.504 -11.467  -6.915  1.00  0.00     0.000 C 
BRANCH   9  10
ATOM     10  C   UNL     1      -5.046 -11.954  -7.016  1.00  0.00     0.000 C 
BRANCH  10  11
ATOM     11  C   UNL     1      -3.997 -11.005  -6.413  1.00  0.00     0.000 C 
BRANCH  11  12
ATOM     12  C   UNL     1      -2.902 -11.745  -5.625  1.00  0.00     0.000 C 
BRANCH  12  13
ATOM     13  C   UNL     1      -2.923 -13.268  -5.871  1.00  0.00     0.006 C 
BRANCH  13  14
ATOM     14  C   UNL     1      -1.825 -14.026  -5.110  1.00  0.00     0.053 C 
BRANCH  14  15
ATOM     15  C   UNL     1      -0.469 -13.427  -5.323  1.00  0.00     0.041 C 
ATOM     16  O   UNL     1       0.107 -12.812  -4.386  1.00  0.00    -0.550 OA
ATOM     17  O   UNL     1       0.142 -13.511  -6.568  1.00  0.00    -0.550 OA
ENDBRANCH  14  15
ENDBRANCH  13  14
ENDBRANCH  12  13
ENDBRANCH  11  12
ENDBRANCH  10  11
ENDBRANCH   9  10
ENDBRANCH   8   9
ENDBRANCH   7   8
ENDBRANCH   6   7
ENDBRANCH   5   6
ENDBRANCH   4   5
ENDBRANCH   3   4
ENDBRANCH   2   3
ENDBRANCH   1   2
BRANCH   1  18
ATOM     18  C   UNL     1     -13.853  -9.668  -4.792  1.00  0.00     0.000 C 
BRANCH  18  19
ATOM     19  C   UNL     1     -14.125  -8.161  -4.643  1.00  0.00     0.000 C 
BRANCH  19  20
ATOM     20  C   UNL     1     -13.004  -7.298  -5.246  1.00  0.00     0.000 C 
BRANCH  20  21
ATOM     21  C   UNL     1     -13.218  -5.792  -4.978  1.00  0.00     0.000 C 
BRANCH  21  22
ATOM     22  C   UNL     1     -11.911  -5.016  -4.744  1.00  0.00     0.000 C 
BRANCH  22  23
ATOM     23  C   UNL     1     -11.762  -3.798  -5.673  1.00  0.00     0.000 C 
BRANCH  23  24
ATOM     24  C   UNL     1     -12.394  -4.040  -7.060  1.00  0.00    -0.000 C 
BRANCH  24  25
ATOM     25  C   UNL     1     -11.537  -3.528  -8.230  1.00  0.00    -0.000 C 
BRANCH  25  26
ATOM     26  C   UNL     1     -10.824  -4.658  -8.991  1.00  0.00    -0.000 C 
BRANCH  26  27
ATOM     27  C   UNL     1     -10.827  -5.991  -8.223  1.00  0.00    -0.000 C 
BRANCH  27  28
ATOM     28  C   UNL     1      -9.417  -6.411  -7.772  1.00  0.00    -0.000 C 
BRANCH  28  29
ATOM     29  C   UNL     1      -9.263  -6.432  -6.238  1.00  0.00    -0.000 C 
BRANCH  29  30
ATOM     30  C   UNL     1      -9.585  -7.787  -5.578  1.00  0.00    -0.000 C 
BRANCH  30  31
ATOM     31  C   UNL     1      -8.576  -8.175  -4.485  1.00  0.00    -0.003 C 
ATOM     32  C   UNL     1      -7.791  -9.424  -4.877  1.00  0.00     0.004 C 
ENDBRANCH  30  31
ENDBRANCH  29  30
ENDBRANCH  28  29
ENDBRANCH  27  28
ENDBRANCH  26  27
ENDBRANCH  25  26
ENDBRANCH  24  25
ENDBRANCH  23  24
ENDBRANCH  22  23
ENDBRANCH  21  22
ENDBRANCH  20  21
ENDBRANCH  19  20
ENDBRANCH  18  19
ENDBRANCH   1  18
TORSDOF 28
ENDMDL
MODEL 6
REMARK VINA RESULT:    -3.692      1.621      6.329
REMARK INTER + INTRA:         -13.540
REMARK INTER:                  -9.514
REMARK INTRA:                  -4.027
REMARK UNBOUND:                -3.806
REMARK SMILES CCCCCCCCCCCCCCCCCCCCCCCCCCCCCC(=O)[O-]
REMARK SMILES IDX 16 1 17 2 18 3 19 4 20 5 21 6 22 7 23 8 24 9 25 10 26 11
REMARK SMILES IDX 27 12 28 13 29 14 30 15 31 16 32 17 15 18 14 19 13 20 12 21
REMARK SMILES IDX 11 22 10 23 9 24 8 25 7 26 6 27 5 28 4 29 3 30 2 31 1 32
REMARK H PARENT
REMARK Flexibility Score: inf
ROOT
ATOM      1  C   UNL     1      -8.734  -9.502  -5.078  1.00  0.00     0.000 C 
ENDROOT
BRANCH   1   2
ATOM      2  C   UNL     1      -7.397 -10.257  -5.057  1.00  0.00     0.000 C 
BRANCH   2   3
ATOM      3  C   UNL     1      -6.540 -10.003  -6.311  1.00  0.00     0.000 C 
BRANCH   3   4
ATOM      4  C   UNL     1      -5.187 -10.741  -6.340  1.00  0.00     0.000 C 
BRANCH   4   5
ATOM      5  C   UNL     1      -5.150 -11.998  -7.228  1.00  0.00     0.000 C 
BRANCH   5   6
ATOM      6  C   UNL     1      -6.416 -12.163  -8.084  1.00  0.00     0.000 C 
BRANCH   6   7
ATOM      7  C   UNL     1      -7.181 -13.456  -7.764  1.00  0.00     0.000 C 
BRANCH   7   8
ATOM      8  C   UNL     1      -8.569 -13.192  -7.152  1.00  0.00     0.000 C 
BRANCH   8   9
ATOM      9  C   UNL     1      -9.717 -13.756  -8.014  1.00  0.00     0.000 C 
BRANCH   9  10
ATOM     10  C   UNL     1     -11.014 -12.928  -7.952  1.00  0.00     0.000 C 
BRANCH  10  11
ATOM     11  C   UNL     1     -12.313 -13.736  -8.103  1.00  0.00     0.000 C 
BRANCH  11  12
ATOM     12  C   UNL     1     -12.941 -14.122  -6.751  1.00  0.00     0.000 C 
BRANCH  12  13
ATOM     13  C   UNL     1     -12.585 -13.124  -5.629  1.00  0.00     0.006 C 
BRANCH  13  14
ATOM     14  C   UNL     1     -12.823 -13.681  -4.218  1.00  0.00     0.053 C 
BRANCH  14  15
ATOM     15  C   UNL     1     -11.781 -13.225  -3.243  1.00  0.00     0.041 C 
ATOM     16  O   UNL     1     -10.566 -13.492  -3.443  1.00  0.00    -0.550 OA
ATOM     17  O   UNL     1     -12.156 -12.544  -2.092  1.00  0.00    -0.550 OA
ENDBRANCH  14  15
ENDBRANCH  13  14
ENDBRANCH  12  13
ENDBRANCH  11  12
ENDBRANCH  10  11
ENDBRANCH   9  10
ENDBRANCH   8   9
ENDBRANCH   7   8
ENDBRANCH   6   7
ENDBRANCH   5   6
ENDBRANCH   4   5
ENDBRANCH   3   4
ENDBRANCH   2   3
ENDBRANCH   1   2
BRANCH   1  18
ATOM     18  C   UNL     1      -9.911 -10.479  -5.226  1.00  0.00     0.000 C 
BRANCH  18  19
ATOM     19  C   UNL     1     -11.154  -9.818  -5.845  1.00  0.00     0.000 C 
BRANCH  19  20
ATOM     20  C   UNL     1     -12.330  -9.734  -4.858  1.00  0.00     0.000 C 
BRANCH  20  21
ATOM     21  C   UNL     1     -13.513  -8.919  -5.426  1.00  0.00     0.000 C 
BRANCH  21  22
ATOM     22  C   UNL     1     -13.691  -7.544  -4.760  1.00  0.00     0.000 C 
BRANCH  22  23
ATOM     23  C   UNL     1     -12.387  -6.730  -4.710  1.00  0.00     0.000 C 
BRANCH  23  24
ATOM     24  C   UNL     1     -12.649  -5.214  -4.575  1.00  0.00    -0.000 C 
BRANCH  24  25
ATOM     25  C   UNL     1     -13.107  -4.546  -5.881  1.00  0.00    -0.000 C 
BRANCH  25  26
ATOM     26  C   UNL     1     -12.042  -3.615  -6.485  1.00  0.00    -0.000 C 
BRANCH  26  27
ATOM     27  C   UNL     1     -12.074  -3.587  -8.023  1.00  0.00    -0.000 C 
BRANCH  27  28
ATOM     28  C   UNL     1     -10.707  -3.923  -8.644  1.00  0.00    -0.000 C 
BRANCH  28  29
ATOM     29  C   UNL     1     -10.584  -5.405  -9.048  1.00  0.00    -0.000 C 
BRANCH  29  30
ATOM     30  C   UNL     1     -10.659  -6.401  -7.873  1.00  0.00    -0.000 C 
BRANCH  30  31
ATOM     31  C   UNL     1      -9.309  -6.592  -7.163  1.00  0.00    -0.003 C 
ATOM     32  C   UNL     1      -9.308  -5.923  -5.791  1.00  0.00     0.004 C 
ENDBRANCH  30  31
ENDBRANCH  29  30
ENDBRANCH  28  29
ENDBRANCH  27  28
ENDBRANCH  26  27
ENDBRANCH  25  26
ENDBRANCH  24  25
ENDBRANCH  23  24
ENDBRANCH  22  23
ENDBRANCH  21  22
ENDBRANCH  20  21
ENDBRANCH  19  20
ENDBRANCH  18  19
ENDBRANCH   1  18
TORSDOF 28
ENDMDL
MODEL 7
REMARK VINA RESULT:    -3.616      3.401      6.017
REMARK INTER + INTRA:         -13.340
REMARK INTER:                  -9.597
REMARK INTRA:                  -3.743
REMARK UNBOUND:                -3.806
REMARK SMILES CCCCCCCCCCCCCCCCCCCCCCCCCCCCCC(=O)[O-]
REMARK SMILES IDX 16 1 17 2 18 3 19 4 20 5 21 6 22 7 23 8 24 9 25 10 26 11
REMARK SMILES IDX 27 12 28 13 29 14 30 15 31 16 32 17 15 18 14 19 13 20 12 21
REMARK SMILES IDX 11 22 10 23 9 24 8 25 7 26 6 27 5 28 4 29 3 30 2 31 1 32
REMARK H PARENT
REMARK Flexibility Score: inf
ROOT
ATOM      1  C   UNL     1     -13.013  -8.494  -4.916  1.00  0.00     0.000 C 
ENDROOT
BRANCH   1   2
ATOM      2  C   UNL     1     -13.841  -9.784  -4.815  1.00  0.00     0.000 C 
BRANCH   2   3
ATOM      3  C   UNL     1     -13.005 -11.006  -4.394  1.00  0.00     0.000 C 
BRANCH   3   4
ATOM      4  C   UNL     1     -13.009 -12.179  -5.394  1.00  0.00     0.000 C 
BRANCH   4   5
ATOM      5  C   UNL     1     -12.559 -11.819  -6.821  1.00  0.00     0.000 C 
BRANCH   5   6
ATOM      6  C   UNL     1     -11.079 -12.143  -7.081  1.00  0.00     0.000 C 
BRANCH   6   7
ATOM      7  C   UNL     1     -10.877 -13.548  -7.669  1.00  0.00     0.000 C 
BRANCH   7   8
ATOM      8  C   UNL     1      -9.503 -13.720  -8.343  1.00  0.00     0.000 C 
BRANCH   8   9
ATOM      9  C   UNL     1      -8.330 -13.391  -7.397  1.00  0.00     0.000 C 
BRANCH   9  10
ATOM     10  C   UNL     1      -7.050 -12.931  -8.120  1.00  0.00     0.000 C 
BRANCH  10  11
ATOM     11  C   UNL     1      -5.735 -13.280  -7.404  1.00  0.00     0.000 C 
BRANCH  11  12
ATOM     12  C   UNL     1      -4.570 -12.356  -7.806  1.00  0.00     0.000 C 
BRANCH  12  13
ATOM     13  C   UNL     1      -4.294 -11.262  -6.753  1.00  0.00     0.006 C 
BRANCH  13  14
ATOM     14  C   UNL     1      -3.835 -11.820  -5.398  1.00  0.00     0.053 C 
BRANCH  14  15
ATOM     15  C   UNL     1      -2.396 -12.234  -5.411  1.00  0.00     0.041 C 
ATOM     16  O   UNL     1      -1.498 -11.418  -5.071  1.00  0.00    -0.550 OA
ATOM     17  O   UNL     1      -2.041 -13.508  -5.838  1.00  0.00    -0.550 OA
ENDBRANCH  14  15
ENDBRANCH  13  14
ENDBRANCH  12  13
ENDBRANCH  11  12
ENDBRANCH  10  11
ENDBRANCH   9  10
ENDBRANCH   8   9
ENDBRANCH   7   8
ENDBRANCH   6   7
ENDBRANCH   5   6
ENDBRANCH   4   5
ENDBRANCH   3   4
ENDBRANCH   2   3
ENDBRANCH   1   2
BRANCH   1  18
ATOM     18  C   UNL     1     -13.927  -7.258  -4.940  1.00  0.00     0.000 C 
BRANCH  18  19
ATOM     19  C   UNL     1     -13.652  -6.297  -3.772  1.00  0.00     0.000 C 
BRANCH  19  20
ATOM     20  C   UNL     1     -12.602  -5.229  -4.121  1.00  0.00     0.000 C 
BRANCH  20  21
ATOM     21  C   UNL     1     -12.763  -4.700  -5.563  1.00  0.00     0.000 C 
BRANCH  21  22
ATOM     22  C   UNL     1     -11.887  -3.474  -5.871  1.00  0.00     0.000 C 
BRANCH  22  23
ATOM     23  C   UNL     1     -11.191  -3.562  -7.240  1.00  0.00     0.000 C 
BRANCH  23  24
ATOM     24  C   UNL     1     -11.557  -4.854  -8.000  1.00  0.00    -0.000 C 
BRANCH  24  25
ATOM     25  C   UNL     1     -10.356  -5.545  -8.665  1.00  0.00    -0.000 C 
BRANCH  25  26
ATOM     26  C   UNL     1      -9.433  -6.248  -7.655  1.00  0.00    -0.000 C 
BRANCH  26  27
ATOM     27  C   UNL     1     -10.207  -7.046  -6.592  1.00  0.00    -0.000 C 
BRANCH  27  28
ATOM     28  C   UNL     1      -9.633  -6.851  -5.178  1.00  0.00    -0.000 C 
BRANCH  28  29
ATOM     29  C   UNL     1      -8.822  -8.068  -4.690  1.00  0.00    -0.000 C 
BRANCH  29  30
ATOM     30  C   UNL     1      -9.450  -9.435  -5.027  1.00  0.00    -0.000 C 
BRANCH  30  31
ATOM     31  C   UNL     1      -8.400 -10.526  -5.293  1.00  0.00    -0.003 C 
ATOM     32  C   UNL     1      -6.986  -9.954  -5.244  1.00  0.00     0.004 C 
ENDBRANCH  30  31
ENDBRANCH  29  30
ENDBRANCH  28  29
ENDBRANCH  27  28
ENDBRANCH  26  27
ENDBRANCH  25  26
ENDBRANCH  24  25
ENDBRANCH  23  24
ENDBRANCH  22  23
ENDBRANCH  21  22
ENDBRANCH  20  21
ENDBRANCH  19  20
ENDBRANCH  18  19
ENDBRANCH   1  18
TORSDOF 28
ENDMDL
