MODEL 1
REMARK VINA RESULT:    -6.551      0.000      0.000
REMARK INTER + INTRA:          -6.742
REMARK INTER:                  -6.742
REMARK INTRA:                   0.000
REMARK UNBOUND:                 0.000
REMARK SMILES C[C@H]1CC[C@]2(OC1)O[C@@H]1C[C@H]3[C@@H]4CC=C5C[C@@H](O)CC[C@@]5(C)[C@H]4CC[C@@]3(C)[C@@H]1[C@H]2C
REMARK SMILES IDX 1 1 2 2 3 3 4 4 5 5 29 6 28 7 9 8 8 9 10 10 11 11 26 12
REMARK SMILES IDX 25 13 24 14 23 15 12 16 13 17 14 18 15 19 21 20 20 21 19 22
REMARK SMILES IDX 17 23 16 24 22 25 27 26 30 27 6 28 7 29 18 30
REMARK H PARENT 18 31
REMARK Flexibility Score: inf
ROOT
ATOM      1  C   UNL     1      53.729 -10.081  11.689  1.00  0.00     0.010 C 
ATOM      2  C   UNL     1      54.298 -11.447  12.090  1.00  0.00     0.012 C 
ATOM      3  C   UNL     1      53.391 -12.142  13.111  1.00  0.00     0.011 C 
ATOM      4  C   UNL     1      53.912 -13.552  13.402  1.00  0.00     0.066 C 
ATOM      5  C   UNL     1      54.164 -14.340  12.092  1.00  0.00     0.171 C 
ATOM      6  C   UNL     1      54.801 -15.710  12.413  1.00  0.00     0.052 C 
ATOM      7  C   UNL     1      54.274 -16.581  11.278  1.00  0.00     0.033 C 
ATOM      8  C   UNL     1      52.928 -15.941  11.019  1.00  0.00     0.126 C 
ATOM      9  O   UNL     1      52.933 -14.596  11.441  1.00  0.00    -0.346 OA
ATOM     10  C   UNL     1      51.908 -16.740  11.827  1.00  0.00     0.037 C 
ATOM     11  C   UNL     1      52.526 -18.124  12.118  1.00  0.00     0.002 C 
ATOM     12  C   UNL     1      53.976 -18.087  11.557  1.00  0.00    -0.024 C 
ATOM     13  C   UNL     1      54.032 -18.846  10.208  1.00  0.00     0.008 C 
ATOM     14  C   UNL     1      53.635 -20.321  10.325  1.00  0.00     0.005 C 
ATOM     15  C   UNL     1      52.373 -20.577  11.208  1.00  0.00     0.003 C 
ATOM     16  C   UNL     1      51.609 -19.277  11.570  1.00  0.00     0.000 C 
ATOM     17  C   UNL     1      50.544 -19.605  12.634  1.00  0.00     0.031 C 
ATOM     18  C   UNL     1      49.684 -20.768  12.257  1.00  0.00    -0.027 C 
ATOM     19  C   UNL     1      50.091 -21.768  11.447  1.00  0.00    -0.065 C 
ATOM     20  C   UNL     1      51.405 -21.704  10.647  1.00  0.00    -0.008 C 
ATOM     21  C   UNL     1      50.991 -21.467   9.154  1.00  0.00     0.014 C 
ATOM     22  C   UNL     1      49.885 -22.418   8.635  1.00  0.00     0.033 C 
ATOM     23  C   UNL     1      48.653 -22.521   9.556  1.00  0.00     0.118 C 
ATOM     24  C   UNL     1      49.054 -22.783  11.015  1.00  0.00     0.063 C 
ATOM     25  C   UNL     1      52.152 -23.058  10.771  1.00  0.00     0.016 C 
ATOM     26  C   UNL     1      54.995 -18.722  12.544  1.00  0.00     0.012 C 
ATOM     27  C   UNL     1      56.341 -15.660  12.494  1.00  0.00     0.014 C 
ATOM     28  O   UNL     1      55.022 -13.609  11.221  1.00  0.00    -0.349 OA
ATOM     29  C   UNL     1      54.469 -12.354  10.860  1.00  0.00     0.167 C 
ENDROOT
BRANCH  23  30
ATOM     30  O   UNL     1      47.832 -21.385   9.445  1.00  0.00    -0.393 OA
ATOM     31  H   UNL     1      46.887 -21.684   9.425  1.00  0.00     0.210 HD
ENDBRANCH  23  30
TORSDOF 1
ENDMDL
MODEL 2
REMARK VINA RESULT:    -6.268      9.381     11.903
REMARK INTER + INTRA:          -6.451
REMARK INTER:                  -6.451
REMARK INTRA:                   0.000
REMARK UNBOUND:                 0.000
REMARK SMILES C[C@H]1CC[C@]2(OC1)O[C@@H]1C[C@H]3[C@@H]4CC=C5C[C@@H](O)CC[C@@]5(C)[C@H]4CC[C@@]3(C)[C@@H]1[C@H]2C
REMARK SMILES IDX 1 1 2 2 3 3 4 4 5 5 29 6 28 7 9 8 8 9 10 10 11 11 26 12
REMARK SMILES IDX 25 13 24 14 23 15 12 16 13 17 14 18 15 19 21 20 20 21 19 22
REMARK SMILES IDX 17 23 16 24 22 25 27 26 30 27 6 28 7 29 18 30
REMARK H PARENT 18 31
REMARK Flexibility Score: inf
ROOT
ATOM      1  C   UNL     1      53.143 -19.693  12.617  1.00  0.00     0.010 C 
ATOM      2  C   UNL     1      53.528 -20.739  13.670  1.00  0.00     0.012 C 
ATOM      3  C   UNL     1      54.846 -20.367  14.360  1.00  0.00     0.011 C 
ATOM      4  C   UNL     1      55.146 -21.356  15.489  1.00  0.00     0.066 C 
ATOM      5  C   UNL     1      53.927 -21.520  16.431  1.00  0.00     0.171 C 
ATOM      6  C   UNL     1      54.216 -22.610  17.486  1.00  0.00     0.052 C 
ATOM      7  C   UNL     1      53.399 -22.127  18.678  1.00  0.00     0.033 C 
ATOM      8  C   UNL     1      53.463 -20.627  18.488  1.00  0.00     0.126 C 
ATOM      9  O   UNL     1      53.697 -20.312  17.133  1.00  0.00    -0.346 OA
ATOM     10  C   UNL     1      54.625 -20.133  19.348  1.00  0.00     0.037 C 
ATOM     11  C   UNL     1      54.893 -21.203  20.427  1.00  0.00     0.002 C 
ATOM     12  C   UNL     1      53.937 -22.390  20.120  1.00  0.00    -0.024 C 
ATOM     13  C   UNL     1      52.733 -22.355  21.094  1.00  0.00     0.008 C 
ATOM     14  C   UNL     1      53.142 -22.478  22.566  1.00  0.00     0.005 C 
ATOM     15  C   UNL     1      54.377 -21.610  22.964  1.00  0.00     0.003 C 
ATOM     16  C   UNL     1      54.781 -20.588  21.870  1.00  0.00     0.000 C 
ATOM     17  C   UNL     1      56.139 -19.966  22.246  1.00  0.00     0.031 C 
ATOM     18  C   UNL     1      56.174 -19.449  23.647  1.00  0.00    -0.027 C 
ATOM     19  C   UNL     1      55.411 -19.941  24.646  1.00  0.00    -0.065 C 
ATOM     20  C   UNL     1      54.264 -20.938  24.398  1.00  0.00    -0.008 C 
ATOM     21  C   UNL     1      52.937 -20.125  24.590  1.00  0.00     0.014 C 
ATOM     22  C   UNL     1      52.881 -19.282  25.886  1.00  0.00     0.033 C 
ATOM     23  C   UNL     1      54.125 -18.402  26.125  1.00  0.00     0.118 C 
ATOM     24  C   UNL     1      55.427 -19.202  25.966  1.00  0.00     0.063 C 
ATOM     25  C   UNL     1      54.332 -22.077  25.449  1.00  0.00     0.016 C 
ATOM     26  C   UNL     1      54.657 -23.761  20.245  1.00  0.00     0.012 C 
ATOM     27  C   UNL     1      53.842 -24.030  17.011  1.00  0.00     0.014 C 
ATOM     28  O   UNL     1      52.761 -21.872  15.691  1.00  0.00    -0.349 OA
ATOM     29  C   UNL     1      52.424 -20.885  14.730  1.00  0.00     0.167 C 
ENDROOT
BRANCH  23  30
ATOM     30  O   UNL     1      54.116 -17.265  25.297  1.00  0.00    -0.393 OA
ATOM     31  H   UNL     1      54.574 -16.528  25.775  1.00  0.00     0.210 HD
ENDBRANCH  23  30
TORSDOF 1
ENDMDL
MODEL 3
REMARK VINA RESULT:    -6.266      9.869     12.875
REMARK INTER + INTRA:          -6.449
REMARK INTER:                  -6.449
REMARK INTRA:                   0.000
REMARK UNBOUND:                 0.000
REMARK SMILES C[C@H]1CC[C@]2(OC1)O[C@@H]1C[C@H]3[C@@H]4CC=C5C[C@@H](O)CC[C@@]5(C)[C@H]4CC[C@@]3(C)[C@@H]1[C@H]2C
REMARK SMILES IDX 1 1 2 2 3 3 4 4 5 5 29 6 28 7 9 8 8 9 10 10 11 11 26 12
REMARK SMILES IDX 25 13 24 14 23 15 12 16 13 17 14 18 15 19 21 20 20 21 19 22
REMARK SMILES IDX 17 23 16 24 22 25 27 26 30 27 6 28 7 29 18 30
REMARK H PARENT 18 31
REMARK Flexibility Score: inf
ROOT
ATOM      1  C   UNL     1      53.354 -22.746  13.010  1.00  0.00     0.010 C 
ATOM      2  C   UNL     1      52.804 -23.328  14.318  1.00  0.00     0.012 C 
ATOM      3  C   UNL     1      53.930 -23.922  15.172  1.00  0.00     0.011 C 
ATOM      4  C   UNL     1      53.378 -24.383  16.523  1.00  0.00     0.066 C 
ATOM      5  C   UNL     1      52.547 -23.266  17.202  1.00  0.00     0.171 C 
ATOM      6  C   UNL     1      51.905 -23.799  18.502  1.00  0.00     0.052 C 
ATOM      7  C   UNL     1      51.844 -22.545  19.367  1.00  0.00     0.033 C 
ATOM      8  C   UNL     1      53.064 -21.794  18.879  1.00  0.00     0.126 C 
ATOM      9  O   UNL     1      53.396 -22.193  17.568  1.00  0.00    -0.346 OA
ATOM     10  C   UNL     1      54.199 -22.148  19.838  1.00  0.00     0.037 C 
ATOM     11  C   UNL     1      53.561 -22.647  21.152  1.00  0.00     0.002 C 
ATOM     12  C   UNL     1      52.025 -22.682  20.911  1.00  0.00    -0.024 C 
ATOM     13  C   UNL     1      51.363 -21.454  21.582  1.00  0.00     0.008 C 
ATOM     14  C   UNL     1      51.578 -21.403  23.098  1.00  0.00     0.005 C 
ATOM     15  C   UNL     1      53.034 -21.736  23.552  1.00  0.00     0.003 C 
ATOM     16  C   UNL     1      54.042 -21.784  22.374  1.00  0.00     0.000 C 
ATOM     17  C   UNL     1      55.377 -22.358  22.885  1.00  0.00     0.031 C 
ATOM     18  C   UNL     1      55.870 -21.676  24.120  1.00  0.00    -0.027 C 
ATOM     19  C   UNL     1      55.059 -21.078  25.019  1.00  0.00    -0.065 C 
ATOM     20  C   UNL     1      53.561 -20.843  24.754  1.00  0.00    -0.008 C 
ATOM     21  C   UNL     1      53.407 -19.305  24.487  1.00  0.00     0.014 C 
ATOM     22  C   UNL     1      54.098 -18.399  25.534  1.00  0.00     0.033 C 
ATOM     23  C   UNL     1      55.562 -18.779  25.835  1.00  0.00     0.118 C 
ATOM     24  C   UNL     1      55.713 -20.279  26.125  1.00  0.00     0.063 C 
ATOM     25  C   UNL     1      52.745 -21.236  26.014  1.00  0.00     0.016 C 
ATOM     26  C   UNL     1      51.381 -23.981  21.472  1.00  0.00     0.012 C 
ATOM     27  C   UNL     1      50.531 -24.464  18.273  1.00  0.00     0.014 C 
ATOM     28  O   UNL     1      51.527 -22.792  16.327  1.00  0.00    -0.349 OA
ATOM     29  C   UNL     1      52.063 -22.253  15.130  1.00  0.00     0.167 C 
ENDROOT
BRANCH  23  30
ATOM     30  O   UNL     1      56.422 -18.367  24.801  1.00  0.00    -0.393 OA
ATOM     31  H   UNL     1      55.927 -17.741  24.213  1.00  0.00     0.210 HD
ENDBRANCH  23  30
TORSDOF 1
ENDMDL
MODEL 4
REMARK VINA RESULT:    -5.975      3.639      7.063
REMARK INTER + INTRA:          -6.150
REMARK INTER:                  -6.150
REMARK INTRA:                   0.000
REMARK UNBOUND:                 0.000
REMARK SMILES C[C@H]1CC[C@]2(OC1)O[C@@H]1C[C@H]3[C@@H]4CC=C5C[C@@H](O)CC[C@@]5(C)[C@H]4CC[C@@]3(C)[C@@H]1[C@H]2C
REMARK SMILES IDX 1 1 2 2 3 3 4 4 5 5 29 6 28 7 9 8 8 9 10 10 11 11 26 12
REMARK SMILES IDX 25 13 24 14 23 15 12 16 13 17 14 18 15 19 21 20 20 21 19 22
REMARK SMILES IDX 17 23 16 24 22 25 27 26 30 27 6 28 7 29 18 30
REMARK H PARENT 18 31
REMARK Flexibility Score: inf
ROOT
ATOM      1  C   UNL     1      53.362  -6.747  19.294  1.00  0.00     0.010 C 
ATOM      2  C   UNL     1      53.666  -6.992  17.811  1.00  0.00     0.012 C 
ATOM      3  C   UNL     1      54.912  -7.869  17.643  1.00  0.00     0.011 C 
ATOM      4  C   UNL     1      55.125  -8.202  16.165  1.00  0.00     0.066 C 
ATOM      5  C   UNL     1      53.830  -8.759  15.521  1.00  0.00     0.171 C 
ATOM      6  C   UNL     1      54.040  -8.972  14.006  1.00  0.00     0.052 C 
ATOM      7  C   UNL     1      53.113 -10.147  13.717  1.00  0.00     0.033 C 
ATOM      8  C   UNL     1      53.173 -10.896  15.030  1.00  0.00     0.126 C 
ATOM      9  O   UNL     1      53.521 -10.023  16.080  1.00  0.00    -0.346 OA
ATOM     10  C   UNL     1      54.247 -11.970  14.864  1.00  0.00     0.037 C 
ATOM     11  C   UNL     1      54.434 -12.213  13.351  1.00  0.00     0.002 C 
ATOM     12  C   UNL     1      53.525 -11.182  12.624  1.00  0.00    -0.024 C 
ATOM     13  C   UNL     1      52.239 -11.884  12.120  1.00  0.00     0.008 C 
ATOM     14  C   UNL     1      52.518 -13.017  11.126  1.00  0.00     0.005 C 
ATOM     15  C   UNL     1      53.700 -13.952  11.533  1.00  0.00     0.003 C 
ATOM     16  C   UNL     1      54.185 -13.722  12.988  1.00  0.00     0.000 C 
ATOM     17  C   UNL     1      55.495 -14.502  13.206  1.00  0.00     0.031 C 
ATOM     18  C   UNL     1      55.399 -15.932  12.783  1.00  0.00    -0.027 C 
ATOM     19  C   UNL     1      54.557 -16.374  11.824  1.00  0.00    -0.065 C 
ATOM     20  C   UNL     1      53.451 -15.489  11.221  1.00  0.00    -0.008 C 
ATOM     21  C   UNL     1      52.101 -16.022  11.813  1.00  0.00     0.014 C 
ATOM     22  C   UNL     1      51.918 -17.556  11.718  1.00  0.00     0.033 C 
ATOM     23  C   UNL     1      53.123 -18.371  12.229  1.00  0.00     0.118 C 
ATOM     24  C   UNL     1      54.445 -17.870  11.629  1.00  0.00     0.063 C 
ATOM     25  C   UNL     1      53.442 -15.651   9.678  1.00  0.00     0.016 C 
ATOM     26  C   UNL     1      54.251 -10.519  11.420  1.00  0.00     0.012 C 
ATOM     27  C   UNL     1      53.729  -7.714  13.167  1.00  0.00     0.014 C 
ATOM     28  O   UNL     1      52.739  -7.865  15.730  1.00  0.00    -0.349 OA
ATOM     29  C   UNL     1      52.475  -7.662  17.108  1.00  0.00     0.167 C 
ENDROOT
BRANCH  23  30
ATOM     30  O   UNL     1      53.172 -18.390  13.635  1.00  0.00    -0.393 OA
ATOM     31  H   UNL     1      54.114 -18.264  13.916  1.00  0.00     0.210 HD
ENDBRANCH  23  30
TORSDOF 1
ENDMDL
MODEL 5
REMARK VINA RESULT:    -5.916      6.763      9.254
REMARK INTER + INTRA:          -6.089
REMARK INTER:                  -6.089
REMARK INTRA:                   0.000
REMARK UNBOUND:                 0.000
REMARK SMILES C[C@H]1CC[C@]2(OC1)O[C@@H]1C[C@H]3[C@@H]4CC=C5C[C@@H](O)CC[C@@]5(C)[C@H]4CC[C@@]3(C)[C@@H]1[C@H]2C
REMARK SMILES IDX 1 1 2 2 3 3 4 4 5 5 29 6 28 7 9 8 8 9 10 10 11 11 26 12
REMARK SMILES IDX 25 13 24 14 23 15 12 16 13 17 14 18 15 19 21 20 20 21 19 22
REMARK SMILES IDX 17 23 16 24 22 25 27 26 30 27 6 28 7 29 18 30
REMARK H PARENT 18 31
REMARK Flexibility Score: inf
ROOT
ATOM      1  C   UNL     1      51.507 -18.003   9.981  1.00  0.00     0.010 C 
ATOM      2  C   UNL     1      51.867 -19.326  10.669  1.00  0.00     0.012 C 
ATOM      3  C   UNL     1      53.222 -19.225  11.378  1.00  0.00     0.011 C 
ATOM      4  C   UNL     1      53.503 -20.512  12.158  1.00  0.00     0.066 C 
ATOM      5  C   UNL     1      52.306 -20.893  13.065  1.00  0.00     0.171 C 
ATOM      6  C   UNL     1      52.568 -22.254  13.746  1.00  0.00     0.052 C 
ATOM      7  C   UNL     1      51.813 -22.105  15.061  1.00  0.00     0.033 C 
ATOM      8  C   UNL     1      51.951 -20.618  15.310  1.00  0.00     0.126 C 
ATOM      9  O   UNL     1      52.160 -19.933  14.096  1.00  0.00    -0.346 OA
ATOM     10  C   UNL     1      53.162 -20.445  16.225  1.00  0.00     0.037 C 
ATOM     11  C   UNL     1      53.405 -21.793  16.936  1.00  0.00     0.002 C 
ATOM     12  C   UNL     1      52.379 -22.798  16.340  1.00  0.00    -0.024 C 
ATOM     13  C   UNL     1      51.208 -22.998  17.334  1.00  0.00     0.008 C 
ATOM     14  C   UNL     1      51.653 -23.562  18.688  1.00  0.00     0.005 C 
ATOM     15  C   UNL     1      52.944 -22.899  19.266  1.00  0.00     0.003 C 
ATOM     16  C   UNL     1      53.368 -21.621  18.498  1.00  0.00     0.000 C 
ATOM     17  C   UNL     1      54.767 -21.192  18.978  1.00  0.00     0.031 C 
ATOM     18  C   UNL     1      54.871 -21.107  20.467  1.00  0.00    -0.027 C 
ATOM     19  C   UNL     1      54.113 -21.837  21.313  1.00  0.00    -0.065 C 
ATOM     20  C   UNL     1      52.908 -22.670  20.837  1.00  0.00    -0.008 C 
ATOM     21  C   UNL     1      51.632 -21.894  21.313  1.00  0.00     0.014 C 
ATOM     22  C   UNL     1      51.659 -21.463  22.799  1.00  0.00     0.033 C 
ATOM     23  C   UNL     1      52.954 -20.743  23.228  1.00  0.00     0.118 C 
ATOM     24  C   UNL     1      54.207 -21.515  22.788  1.00  0.00     0.063 C 
ATOM     25  C   UNL     1      52.948 -24.067  21.509  1.00  0.00     0.016 C 
ATOM     26  C   UNL     1      53.030 -24.175  16.031  1.00  0.00     0.012 C 
ATOM     27  C   UNL     1      52.106 -23.457  12.897  1.00  0.00     0.014 C 
ATOM     28  O   UNL     1      51.102 -20.965  12.306  1.00  0.00    -0.349 OA
ATOM     29  C   UNL     1      50.788 -19.728  11.688  1.00  0.00     0.167 C 
ENDROOT
BRANCH  23  30
ATOM     30  O   UNL     1      52.981 -19.415  22.766  1.00  0.00    -0.393 OA
ATOM     31  H   UNL     1      53.517 -19.385  21.934  1.00  0.00     0.210 HD
ENDBRANCH  23  30
TORSDOF 1
ENDMDL
MODEL 6
REMARK VINA RESULT:    -5.898      5.542      7.199
REMARK INTER + INTRA:          -6.070
REMARK INTER:                  -6.070
REMARK INTRA:                   0.000
REMARK UNBOUND:                 0.000
REMARK SMILES C[C@H]1CC[C@]2(OC1)O[C@@H]1C[C@H]3[C@@H]4CC=C5C[C@@H](O)CC[C@@]5(C)[C@H]4CC[C@@]3(C)[C@@H]1[C@H]2C
REMARK SMILES IDX 1 1 2 2 3 3 4 4 5 5 29 6 28 7 9 8 8 9 10 10 11 11 26 12
REMARK SMILES IDX 25 13 24 14 23 15 12 16 13 17 14 18 15 19 21 20 20 21 19 22
REMARK SMILES IDX 17 23 16 24 22 25 27 26 30 27 6 28 7 29 18 30
REMARK H PARENT 18 31
REMARK Flexibility Score: inf
ROOT
ATOM      1  C   UNL     1      57.714 -18.753  20.700  1.00  0.00     0.010 C 
ATOM      2  C   UNL     1      56.808 -19.942  20.360  1.00  0.00     0.012 C 
ATOM      3  C   UNL     1      55.341 -19.507  20.267  1.00  0.00     0.011 C 
ATOM      4  C   UNL     1      54.473 -20.680  19.806  1.00  0.00     0.066 C 
ATOM      5  C   UNL     1      55.052 -21.340  18.529  1.00  0.00     0.171 C 
ATOM      6  C   UNL     1      54.226 -22.591  18.158  1.00  0.00     0.052 C 
ATOM      7  C   UNL     1      54.362 -22.625  16.640  1.00  0.00     0.033 C 
ATOM      8  C   UNL     1      54.470 -21.150  16.323  1.00  0.00     0.126 C 
ATOM      9  O   UNL     1      54.957 -20.440  17.440  1.00  0.00    -0.346 OA
ATOM     10  C   UNL     1      53.059 -20.678  15.978  1.00  0.00     0.037 C 
ATOM     11  C   UNL     1      52.239 -21.921  15.570  1.00  0.00     0.002 C 
ATOM     12  C   UNL     1      53.166 -23.151  15.786  1.00  0.00    -0.024 C 
ATOM     13  C   UNL     1      53.724 -23.629  14.422  1.00  0.00     0.008 C 
ATOM     14  C   UNL     1      52.632 -24.058  13.437  1.00  0.00     0.005 C 
ATOM     15  C   UNL     1      51.404 -23.095  13.381  1.00  0.00     0.003 C 
ATOM     16  C   UNL     1      51.647 -21.756  14.123  1.00  0.00     0.000 C 
ATOM     17  C   UNL     1      50.312 -20.993  14.224  1.00  0.00     0.031 C 
ATOM     18  C   UNL     1      49.608 -20.877  12.911  1.00  0.00    -0.027 C 
ATOM     19  C   UNL     1      49.748 -21.767  11.905  1.00  0.00    -0.065 C 
ATOM     20  C   UNL     1      50.819 -22.873  11.922  1.00  0.00    -0.008 C 
ATOM     21  C   UNL     1      51.910 -22.433  10.886  1.00  0.00     0.014 C 
ATOM     22  C   UNL     1      51.351 -22.001   9.508  1.00  0.00     0.033 C 
ATOM     23  C   UNL     1      50.196 -20.982   9.583  1.00  0.00     0.118 C 
ATOM     24  C   UNL     1      49.111 -21.424  10.576  1.00  0.00     0.063 C 
ATOM     25  C   UNL     1      50.183 -24.214  11.470  1.00  0.00     0.016 C 
ATOM     26  C   UNL     1      52.416 -24.327  16.472  1.00  0.00     0.012 C 
ATOM     27  C   UNL     1      54.720 -23.875  18.856  1.00  0.00     0.014 C 
ATOM     28  O   UNL     1      56.414 -21.711  18.726  1.00  0.00    -0.349 OA
ATOM     29  C   UNL     1      57.230 -20.592  19.032  1.00  0.00     0.167 C 
ENDROOT
BRANCH  23  30
ATOM     30  O   UNL     1      50.669 -19.691   9.880  1.00  0.00    -0.393 OA
ATOM     31  H   UNL     1      51.643 -19.667   9.704  1.00  0.00     0.210 HD
ENDBRANCH  23  30
TORSDOF 1
ENDMDL
MODEL 7
REMARK VINA RESULT:    -5.858      5.498      7.572
REMARK INTER + INTRA:          -6.029
REMARK INTER:                  -6.029
REMARK INTRA:                   0.000
REMARK UNBOUND:                 0.000
REMARK SMILES C[C@H]1CC[C@]2(OC1)O[C@@H]1C[C@H]3[C@@H]4CC=C5C[C@@H](O)CC[C@@]5(C)[C@H]4CC[C@@]3(C)[C@@H]1[C@H]2C
REMARK SMILES IDX 1 1 2 2 3 3 4 4 5 5 29 6 28 7 9 8 8 9 10 10 11 11 26 12
REMARK SMILES IDX 25 13 24 14 23 15 12 16 13 17 14 18 15 19 21 20 20 21 19 22
REMARK SMILES IDX 17 23 16 24 22 25 27 26 30 27 6 28 7 29 18 30
REMARK H PARENT 18 31
REMARK Flexibility Score: inf
ROOT
ATOM      1  C   UNL     1      53.484 -22.499  22.861  1.00  0.00     0.010 C 
ATOM      2  C   UNL     1      54.135 -22.024  21.556  1.00  0.00     0.012 C 
ATOM      3  C   UNL     1      54.451 -23.209  20.636  1.00  0.00     0.011 C 
ATOM      4  C   UNL     1      54.984 -22.703  19.293  1.00  0.00     0.066 C 
ATOM      5  C   UNL     1      54.052 -21.624  18.689  1.00  0.00     0.171 C 
ATOM      6  C   UNL     1      54.675 -21.048  17.398  1.00  0.00     0.052 C 
ATOM      7  C   UNL     1      53.441 -20.681  16.582  1.00  0.00     0.033 C 
ATOM      8  C   UNL     1      52.460 -21.736  17.047  1.00  0.00     0.126 C 
ATOM      9  O   UNL     1      52.813 -22.207  18.328  1.00  0.00    -0.346 OA
ATOM     10  C   UNL     1      52.538 -22.874  16.031  1.00  0.00     0.037 C 
ATOM     11  C   UNL     1      53.126 -22.295  14.726  1.00  0.00     0.002 C 
ATOM     12  C   UNL     1      53.495 -20.814  15.028  1.00  0.00    -0.024 C 
ATOM     13  C   UNL     1      52.418 -19.876  14.429  1.00  0.00     0.008 C 
ATOM     14  C   UNL     1      52.282 -20.004  12.908  1.00  0.00     0.005 C 
ATOM     15  C   UNL     1      52.285 -21.474  12.384  1.00  0.00     0.003 C 
ATOM     16  C   UNL     1      52.148 -22.524  13.517  1.00  0.00     0.000 C 
ATOM     17  C   UNL     1      52.411 -23.925  12.933  1.00  0.00     0.031 C 
ATOM     18  C   UNL     1      51.606 -24.203  11.704  1.00  0.00    -0.027 C 
ATOM     19  C   UNL     1      51.172 -23.242  10.861  1.00  0.00    -0.065 C 
ATOM     20  C   UNL     1      51.268 -21.742  11.194  1.00  0.00    -0.008 C 
ATOM     21  C   UNL     1      49.807 -21.278  11.523  1.00  0.00     0.014 C 
ATOM     22  C   UNL     1      48.746 -21.712  10.482  1.00  0.00     0.033 C 
ATOM     23  C   UNL     1      48.797 -23.207  10.109  1.00  0.00     0.118 C 
ATOM     24  C   UNL     1      50.222 -23.658   9.759  1.00  0.00     0.063 C 
ATOM     25  C   UNL     1      51.792 -20.970   9.955  1.00  0.00     0.016 C 
ATOM     26  C   UNL     1      54.885 -20.435  14.447  1.00  0.00     0.012 C 
ATOM     27  C   UNL     1      55.623 -19.859  17.659  1.00  0.00     0.014 C 
ATOM     28  O   UNL     1      53.830 -20.569  19.621  1.00  0.00    -0.349 OA
ATOM     29  C   UNL     1      53.221 -21.034  20.814  1.00  0.00     0.167 C 
ENDROOT
BRANCH  23  30
ATOM     30  O   UNL     1      48.238 -24.008  11.121  1.00  0.00    -0.393 OA
ATOM     31  H   UNL     1      47.258 -23.868  11.125  1.00  0.00     0.210 HD
ENDBRANCH  23  30
TORSDOF 1
ENDMDL
MODEL 8
REMARK VINA RESULT:    -5.839      5.053     10.628
REMARK INTER + INTRA:          -6.009
REMARK INTER:                  -6.009
REMARK INTRA:                   0.000
REMARK UNBOUND:                 0.000
REMARK SMILES C[C@H]1CC[C@]2(OC1)O[C@@H]1C[C@H]3[C@@H]4CC=C5C[C@@H](O)CC[C@@]5(C)[C@H]4CC[C@@]3(C)[C@@H]1[C@H]2C
REMARK SMILES IDX 1 1 2 2 3 3 4 4 5 5 29 6 28 7 9 8 8 9 10 10 11 11 26 12
REMARK SMILES IDX 25 13 24 14 23 15 12 16 13 17 14 18 15 19 21 20 20 21 19 22
REMARK SMILES IDX 17 23 16 24 22 25 27 26 30 27 6 28 7 29 18 30
REMARK H PARENT 18 31
REMARK Flexibility Score: inf
ROOT
ATOM      1  C   UNL     1      56.482 -16.707   8.085  1.00  0.00     0.010 C 
ATOM      2  C   UNL     1      55.245 -15.818   8.265  1.00  0.00     0.012 C 
ATOM      3  C   UNL     1      54.527 -16.135   9.582  1.00  0.00     0.011 C 
ATOM      4  C   UNL     1      53.372 -15.156   9.799  1.00  0.00     0.066 C 
ATOM      5  C   UNL     1      53.840 -13.688   9.634  1.00  0.00     0.171 C 
ATOM      6  C   UNL     1      52.631 -12.731   9.739  1.00  0.00     0.052 C 
ATOM      7  C   UNL     1      53.266 -11.477  10.330  1.00  0.00     0.033 C 
ATOM      8  C   UNL     1      54.369 -12.079  11.175  1.00  0.00     0.126 C 
ATOM      9  O   UNL     1      54.731 -13.348  10.680  1.00  0.00    -0.346 OA
ATOM     10  C   UNL     1      53.806 -12.208  12.589  1.00  0.00     0.037 C 
ATOM     11  C   UNL     1      52.621 -11.226  12.710  1.00  0.00     0.002 C 
ATOM     12  C   UNL     1      52.427 -10.592  11.304  1.00  0.00    -0.024 C 
ATOM     13  C   UNL     1      53.025  -9.164  11.289  1.00  0.00     0.008 C 
ATOM     14  C   UNL     1      52.366  -8.220  12.300  1.00  0.00     0.005 C 
ATOM     15  C   UNL     1      52.127  -8.854  13.707  1.00  0.00     0.003 C 
ATOM     16  C   UNL     1      52.847 -10.215  13.892  1.00  0.00     0.000 C 
ATOM     17  C   UNL     1      52.352 -10.867  15.197  1.00  0.00     0.031 C 
ATOM     18  C   UNL     1      52.419  -9.943  16.371  1.00  0.00    -0.027 C 
ATOM     19  C   UNL     1      52.341  -8.599  16.271  1.00  0.00    -0.065 C 
ATOM     20  C   UNL     1      52.397  -7.864  14.919  1.00  0.00    -0.008 C 
ATOM     21  C   UNL     1      53.810  -7.188  14.854  1.00  0.00     0.014 C 
ATOM     22  C   UNL     1      54.198  -6.386  16.120  1.00  0.00     0.033 C 
ATOM     23  C   UNL     1      53.995  -7.151  17.443  1.00  0.00     0.118 C 
ATOM     24  C   UNL     1      52.601  -7.790  17.523  1.00  0.00     0.063 C 
ATOM     25  C   UNL     1      51.296  -6.772  14.879  1.00  0.00     0.016 C 
ATOM     26  C   UNL     1      50.928 -10.524  10.902  1.00  0.00     0.012 C 
ATOM     27  C   UNL     1      51.926 -12.493   8.388  1.00  0.00     0.014 C 
ATOM     28  O   UNL     1      54.485 -13.502   8.377  1.00  0.00    -0.349 OA
ATOM     29  C   UNL     1      55.628 -14.330   8.240  1.00  0.00     0.167 C 
ENDROOT
BRANCH  23  30
ATOM     30  O   UNL     1      55.010  -8.104  17.646  1.00  0.00    -0.393 OA
ATOM     31  H   UNL     1      54.706  -8.738  18.343  1.00  0.00     0.210 HD
ENDBRANCH  23  30
TORSDOF 1
ENDMDL
MODEL 9
REMARK VINA RESULT:    -5.800      2.726      9.233
REMARK INTER + INTRA:          -5.969
REMARK INTER:                  -5.969
REMARK INTRA:                   0.000
REMARK UNBOUND:                 0.000
REMARK SMILES C[C@H]1CC[C@]2(OC1)O[C@@H]1C[C@H]3[C@@H]4CC=C5C[C@@H](O)CC[C@@]5(C)[C@H]4CC[C@@]3(C)[C@@H]1[C@H]2C
REMARK SMILES IDX 1 1 2 2 3 3 4 4 5 5 29 6 28 7 9 8 8 9 10 10 11 11 26 12
REMARK SMILES IDX 25 13 24 14 23 15 12 16 13 17 14 18 15 19 21 20 20 21 19 22
REMARK SMILES IDX 17 23 16 24 22 25 27 26 30 27 6 28 7 29 18 30
REMARK H PARENT 18 31
REMARK Flexibility Score: inf
ROOT
ATOM      1  C   UNL     1      51.190 -21.226  10.544  1.00  0.00     0.010 C 
ATOM      2  C   UNL     1      52.204 -20.122  10.222  1.00  0.00     0.012 C 
ATOM      3  C   UNL     1      51.493 -18.827   9.810  1.00  0.00     0.011 C 
ATOM      4  C   UNL     1      52.516 -17.706   9.613  1.00  0.00     0.066 C 
ATOM      5  C   UNL     1      53.460 -17.585  10.837  1.00  0.00     0.171 C 
ATOM      6  C   UNL     1      54.553 -16.530  10.560  1.00  0.00     0.052 C 
ATOM      7  C   UNL     1      54.836 -15.988  11.957  1.00  0.00     0.033 C 
ATOM      8  C   UNL     1      53.476 -16.132  12.606  1.00  0.00     0.126 C 
ATOM      9  O   UNL     1      52.728 -17.140  11.964  1.00  0.00    -0.346 OA
ATOM     10  C   UNL     1      52.779 -14.782  12.449  1.00  0.00     0.037 C 
ATOM     11  C   UNL     1      53.872 -13.718  12.209  1.00  0.00     0.002 C 
ATOM     12  C   UNL     1      55.222 -14.485  12.120  1.00  0.00    -0.024 C 
ATOM     13  C   UNL     1      55.997 -14.331  13.452  1.00  0.00     0.008 C 
ATOM     14  C   UNL     1      56.330 -12.875  13.794  1.00  0.00     0.005 C 
ATOM     15  C   UNL     1      55.153 -11.876  13.562  1.00  0.00     0.003 C 
ATOM     16  C   UNL     1      53.799 -12.582  13.293  1.00  0.00     0.000 C 
ATOM     17  C   UNL     1      52.771 -11.531  12.835  1.00  0.00     0.031 C 
ATOM     18  C   UNL     1      52.705 -10.347  13.744  1.00  0.00    -0.027 C 
ATOM     19  C   UNL     1      53.741  -9.924  14.500  1.00  0.00    -0.065 C 
ATOM     20  C   UNL     1      55.030 -10.748  14.673  1.00  0.00    -0.008 C 
ATOM     21  C   UNL     1      54.980 -11.326  16.129  1.00  0.00     0.014 C 
ATOM     22  C   UNL     1      54.647 -10.284  17.224  1.00  0.00     0.033 C 
ATOM     23  C   UNL     1      53.412  -9.413  16.916  1.00  0.00     0.118 C 
ATOM     24  C   UNL     1      53.471  -8.821  15.500  1.00  0.00     0.063 C 
ATOM     25  C   UNL     1      56.262  -9.817  14.525  1.00  0.00     0.016 C 
ATOM     26  C   UNL     1      56.104 -13.967  10.951  1.00  0.00     0.012 C 
ATOM     27  C   UNL     1      55.797 -17.114   9.857  1.00  0.00     0.014 C 
ATOM     28  O   UNL     1      54.071 -18.839  11.128  1.00  0.00    -0.349 OA
ATOM     29  C   UNL     1      53.113 -19.840  11.429  1.00  0.00     0.167 C 
ENDROOT
BRANCH  23  30
ATOM     30  O   UNL     1      52.216 -10.125  17.126  1.00  0.00    -0.393 OA
ATOM     31  H   UNL     1      51.464  -9.481  17.114  1.00  0.00     0.210 HD
ENDBRANCH  23  30
TORSDOF 1
ENDMDL
