MODEL 1
REMARK VINA RESULT:    -5.713      0.000      0.000
REMARK INTER + INTRA:          -6.214
REMARK INTER:                  -6.214
REMARK INTRA:                   0.000
REMARK UNBOUND:                 0.000
REMARK SMILES Cc1cc(O)c2c(c1)C(=O)c1cc(O)cc(O)c1C2=O
REMARK SMILES IDX 1 1 2 2 8 3 7 4 6 5 4 6 3 7 19 8 20 9 18 10 11 11 9 12 10 13
REMARK SMILES IDX 12 14 13 15 15 16 16 17 5 18 17 20 14 22
REMARK H PARENT 5 19 17 21 14 23
REMARK Flexibility Score: inf
ROOT
ATOM      1  C   UNL     1      13.039   5.563  53.300  1.00  0.00     0.044 C 
ATOM      2  C   UNL     1      13.979   4.482  52.855  1.00  0.00    -0.047 A 
ATOM      3  C   UNL     1      14.772   3.811  53.790  1.00  0.00     0.016 A 
ATOM      4  C   UNL     1      15.675   2.813  53.382  1.00  0.00     0.038 A 
ATOM      5  C   UNL     1      15.785   2.481  52.011  1.00  0.00     0.076 A 
ATOM      6  C   UNL     1      15.049   3.237  51.060  1.00  0.00     0.127 A 
ATOM      7  C   UNL     1      14.139   4.205  51.494  1.00  0.00     0.050 A 
ATOM      8  C   UNL     1      16.631   1.315  51.631  1.00  0.00     0.201 C 
ATOM      9  O   UNL     1      16.446   0.731  50.530  1.00  0.00    -0.288 OA
ATOM     10  C   UNL     1      17.619   0.762  52.596  1.00  0.00     0.076 A 
ATOM     11  C   UNL     1      17.546   1.150  53.951  1.00  0.00     0.041 A 
ATOM     12  C   UNL     1      16.517   2.120  54.386  1.00  0.00     0.194 C 
ATOM     13  O   UNL     1      16.370   2.372  55.614  1.00  0.00    -0.289 OA
ATOM     14  C   UNL     1      18.450   0.607  54.881  1.00  0.00     0.059 A 
ATOM     15  C   UNL     1      19.425  -0.307  54.473  1.00  0.00     0.120 A 
ATOM     16  C   UNL     1      19.505  -0.685  53.132  1.00  0.00     0.093 A 
ATOM     17  C   UNL     1      18.613  -0.158  52.189  1.00  0.00     0.131 A 
ENDROOT
BRANCH   6  18
ATOM     18  O   UNL     1      15.214   3.091  49.680  1.00  0.00    -0.507 OA
ATOM     19  H   UNL     1      15.765   3.719  49.111  1.00  0.00     0.293 HD
ENDBRANCH   6  18
BRANCH  17  20
ATOM     20  O   UNL     1      18.724  -0.544  50.853  1.00  0.00    -0.507 OA
ATOM     21  H   UNL     1      17.966  -0.409  50.194  1.00  0.00     0.293 HD
ENDBRANCH  17  20
BRANCH  15  22
ATOM     22  O   UNL     1      20.323  -0.846  55.393  1.00  0.00    -0.508 OA
ATOM     23  H   UNL     1      20.894  -1.651  55.166  1.00  0.00     0.293 HD
ENDBRANCH  15  22
TORSDOF 3
ENDMDL
MODEL 2
REMARK VINA RESULT:    -5.540     11.854     13.223
REMARK INTER + INTRA:          -6.026
REMARK INTER:                  -6.026
REMARK INTRA:                   0.000
REMARK UNBOUND:                 0.000
REMARK SMILES Cc1cc(O)c2c(c1)C(=O)c1cc(O)cc(O)c1C2=O
REMARK SMILES IDX 1 1 2 2 8 3 7 4 6 5 4 6 3 7 19 8 20 9 18 10 11 11 9 12 10 13
REMARK SMILES IDX 12 14 13 15 15 16 16 17 5 18 17 20 14 22
REMARK H PARENT 5 19 17 21 14 23
REMARK Flexibility Score: inf
ROOT
ATOM      1  C   UNL     1      26.064  -1.136  42.623  1.00  0.00     0.044 C 
ATOM      2  C   UNL     1      25.631  -2.053  43.729  1.00  0.00    -0.047 A 
ATOM      3  C   UNL     1      25.109  -3.315  43.432  1.00  0.00     0.016 A 
ATOM      4  C   UNL     1      24.677  -4.173  44.459  1.00  0.00     0.038 A 
ATOM      5  C   UNL     1      24.769  -3.758  45.809  1.00  0.00     0.076 A 
ATOM      6  C   UNL     1      25.207  -2.437  46.093  1.00  0.00     0.127 A 
ATOM      7  C   UNL     1      25.655  -1.613  45.056  1.00  0.00     0.050 A 
ATOM      8  C   UNL     1      24.453  -4.748  46.876  1.00  0.00     0.201 C 
ATOM      9  O   UNL     1      24.901  -4.585  48.043  1.00  0.00    -0.288 OA
ATOM     10  C   UNL     1      23.705  -5.990  46.546  1.00  0.00     0.076 A 
ATOM     11  C   UNL     1      23.557  -6.364  45.194  1.00  0.00     0.041 A 
ATOM     12  C   UNL     1      24.115  -5.504  44.126  1.00  0.00     0.194 C 
ATOM     13  O   UNL     1      24.095  -5.897  42.927  1.00  0.00    -0.289 OA
ATOM     14  C   UNL     1      22.885  -7.555  44.868  1.00  0.00     0.059 A 
ATOM     15  C   UNL     1      22.354  -8.368  45.873  1.00  0.00     0.120 A 
ATOM     16  C   UNL     1      22.491  -7.997  47.211  1.00  0.00     0.093 A 
ATOM     17  C   UNL     1      23.159  -6.815  47.557  1.00  0.00     0.131 A 
ENDROOT
BRANCH   6  18
ATOM     18  O   UNL     1      25.177  -1.886  47.377  1.00  0.00    -0.507 OA
ATOM     19  H   UNL     1      24.393  -1.975  48.008  1.00  0.00     0.293 HD
ENDBRANCH   6  18
BRANCH  17  20
ATOM     20  O   UNL     1      23.269  -6.462  48.902  1.00  0.00    -0.507 OA
ATOM     21  H   UNL     1      23.863  -5.699  49.207  1.00  0.00     0.293 HD
ENDBRANCH  17  20
BRANCH  15  22
ATOM     22  O   UNL     1      21.687  -9.549  45.553  1.00  0.00    -0.508 OA
ATOM     23  H   UNL     1      20.702  -9.553  45.315  1.00  0.00     0.293 HD
ENDBRANCH  15  22
TORSDOF 3
ENDMDL
MODEL 3
REMARK VINA RESULT:    -5.459      2.765      3.374
REMARK INTER + INTRA:          -5.938
REMARK INTER:                  -5.938
REMARK INTRA:                   0.000
REMARK UNBOUND:                 0.000
REMARK SMILES Cc1cc(O)c2c(c1)C(=O)c1cc(O)cc(O)c1C2=O
REMARK SMILES IDX 1 1 2 2 8 3 7 4 6 5 4 6 3 7 19 8 20 9 18 10 11 11 9 12 10 13
REMARK SMILES IDX 12 14 13 15 15 16 16 17 5 18 17 20 14 22
REMARK H PARENT 5 19 17 21 14 23
REMARK Flexibility Score: inf
ROOT
ATOM      1  C   UNL     1      16.802   8.033  48.892  1.00  0.00     0.044 C 
ATOM      2  C   UNL     1      16.636   6.638  49.418  1.00  0.00    -0.047 A 
ATOM      3  C   UNL     1      17.679   6.021  50.115  1.00  0.00     0.016 A 
ATOM      4  C   UNL     1      17.545   4.705  50.591  1.00  0.00     0.038 A 
ATOM      5  C   UNL     1      16.343   3.993  50.364  1.00  0.00     0.076 A 
ATOM      6  C   UNL     1      15.329   4.592  49.569  1.00  0.00     0.127 A 
ATOM      7  C   UNL     1      15.477   5.911  49.130  1.00  0.00     0.050 A 
ATOM      8  C   UNL     1      16.174   2.664  51.016  1.00  0.00     0.201 C 
ATOM      9  O   UNL     1      15.020   2.190  51.195  1.00  0.00    -0.288 OA
ATOM     10  C   UNL     1      17.355   1.944  51.562  1.00  0.00     0.076 A 
ATOM     11  C   UNL     1      18.571   2.641  51.723  1.00  0.00     0.041 A 
ATOM     12  C   UNL     1      18.665   4.062  51.318  1.00  0.00     0.194 C 
ATOM     13  O   UNL     1      19.710   4.721  51.576  1.00  0.00    -0.289 OA
ATOM     14  C   UNL     1      19.685   1.983  52.273  1.00  0.00     0.059 A 
ATOM     15  C   UNL     1      19.601   0.641  52.653  1.00  0.00     0.120 A 
ATOM     16  C   UNL     1      18.402  -0.054  52.487  1.00  0.00     0.093 A 
ATOM     17  C   UNL     1      17.279   0.584  51.943  1.00  0.00     0.131 A 
ENDROOT
BRANCH   6  18
ATOM     18  O   UNL     1      14.182   3.909  49.158  1.00  0.00    -0.507 OA
ATOM     19  H   UNL     1      13.647   3.298  49.760  1.00  0.00     0.293 HD
ENDBRANCH   6  18
BRANCH  17  20
ATOM     20  O   UNL     1      16.098  -0.139  51.776  1.00  0.00    -0.507 OA
ATOM     21  H   UNL     1      15.321  -0.047  52.420  1.00  0.00     0.293 HD
ENDBRANCH  17  20
BRANCH  15  22
ATOM     22  O   UNL     1      20.704  -0.014  53.197  1.00  0.00    -0.508 OA
ATOM     23  H   UNL     1      21.351  -0.534  52.616  1.00  0.00     0.293 HD
ENDBRANCH  15  22
TORSDOF 3
ENDMDL
MODEL 4
REMARK VINA RESULT:    -5.458      2.742      4.227
REMARK INTER + INTRA:          -5.936
REMARK INTER:                  -5.936
REMARK INTRA:                   0.000
REMARK UNBOUND:                 0.000
REMARK SMILES Cc1cc(O)c2c(c1)C(=O)c1cc(O)cc(O)c1C2=O
REMARK SMILES IDX 1 1 2 2 8 3 7 4 6 5 4 6 3 7 19 8 20 9 18 10 11 11 9 12 10 13
REMARK SMILES IDX 12 14 13 15 15 16 16 17 5 18 17 20 14 22
REMARK H PARENT 5 19 17 21 14 23
REMARK Flexibility Score: inf
ROOT
ATOM      1  C   UNL     1      17.982   5.035  50.387  1.00  0.00     0.044 C 
ATOM      2  C   UNL     1      18.198   3.902  51.347  1.00  0.00    -0.047 A 
ATOM      3  C   UNL     1      19.490   3.573  51.767  1.00  0.00     0.016 A 
ATOM      4  C   UNL     1      19.707   2.498  52.648  1.00  0.00     0.038 A 
ATOM      5  C   UNL     1      18.608   1.737  53.114  1.00  0.00     0.076 A 
ATOM      6  C   UNL     1      17.312   2.017  52.604  1.00  0.00     0.127 A 
ATOM      7  C   UNL     1      17.120   3.108  51.751  1.00  0.00     0.050 A 
ATOM      8  C   UNL     1      18.854   0.710  54.165  1.00  0.00     0.201 C 
ATOM      9  O   UNL     1      17.907   0.313  54.896  1.00  0.00    -0.288 OA
ATOM     10  C   UNL     1      20.237   0.234  54.435  1.00  0.00     0.076 A 
ATOM     11  C   UNL     1      21.328   0.958  53.909  1.00  0.00     0.041 A 
ATOM     12  C   UNL     1      21.084   2.155  53.073  1.00  0.00     0.194 C 
ATOM     13  O   UNL     1      22.054   2.874  52.708  1.00  0.00    -0.289 OA
ATOM     14  C   UNL     1      22.642   0.540  54.187  1.00  0.00     0.059 A 
ATOM     15  C   UNL     1      22.875  -0.591  54.973  1.00  0.00     0.120 A 
ATOM     16  C   UNL     1      21.798  -1.315  55.487  1.00  0.00     0.093 A 
ATOM     17  C   UNL     1      20.481  -0.915  55.224  1.00  0.00     0.131 A 
ENDROOT
BRANCH   6  18
ATOM     18  O   UNL     1      16.198   1.221  52.881  1.00  0.00    -0.507 OA
ATOM     19  H   UNL     1      15.664   1.281  53.737  1.00  0.00     0.293 HD
ENDBRANCH   6  18
BRANCH  17  20
ATOM     20  O   UNL     1      19.424  -1.664  55.740  1.00  0.00    -0.507 OA
ATOM     21  H   UNL     1      19.359  -2.665  55.595  1.00  0.00     0.293 HD
ENDBRANCH  17  20
BRANCH  15  22
ATOM     22  O   UNL     1      24.176  -1.008  55.249  1.00  0.00    -0.508 OA
ATOM     23  H   UNL     1      24.927  -0.343  55.391  1.00  0.00     0.293 HD
ENDBRANCH  15  22
TORSDOF 3
ENDMDL
MODEL 5
REMARK VINA RESULT:    -5.367      2.755      6.200
REMARK INTER + INTRA:          -5.837
REMARK INTER:                  -5.837
REMARK INTRA:                   0.000
REMARK UNBOUND:                 0.000
REMARK SMILES Cc1cc(O)c2c(c1)C(=O)c1cc(O)cc(O)c1C2=O
REMARK SMILES IDX 1 1 2 2 8 3 7 4 6 5 4 6 3 7 19 8 20 9 18 10 11 11 9 12 10 13
REMARK SMILES IDX 12 14 13 15 15 16 16 17 5 18 17 20 14 22
REMARK H PARENT 5 19 17 21 14 23
REMARK Flexibility Score: inf
ROOT
ATOM      1  C   UNL     1      20.816   0.622  53.910  1.00  0.00     0.044 C 
ATOM      2  C   UNL     1      19.682   1.124  53.067  1.00  0.00    -0.047 A 
ATOM      3  C   UNL     1      19.689   2.437  52.587  1.00  0.00     0.016 A 
ATOM      4  C   UNL     1      18.620   2.927  51.817  1.00  0.00     0.038 A 
ATOM      5  C   UNL     1      17.521   2.086  51.523  1.00  0.00     0.076 A 
ATOM      6  C   UNL     1      17.476   0.787  52.098  1.00  0.00     0.127 A 
ATOM      7  C   UNL     1      18.564   0.315  52.837  1.00  0.00     0.050 A 
ATOM      8  C   UNL     1      16.483   2.582  50.576  1.00  0.00     0.201 C 
ATOM      9  O   UNL     1      15.739   1.766  49.968  1.00  0.00    -0.288 OA
ATOM     10  C   UNL     1      16.397   4.031  50.254  1.00  0.00     0.076 A 
ATOM     11  C   UNL     1      17.467   4.879  50.611  1.00  0.00     0.041 A 
ATOM     12  C   UNL     1      18.639   4.326  51.327  1.00  0.00     0.194 C 
ATOM     13  O   UNL     1      19.649   5.053  51.535  1.00  0.00    -0.289 OA
ATOM     14  C   UNL     1      17.416   6.245  50.281  1.00  0.00     0.059 A 
ATOM     15  C   UNL     1      16.310   6.771  49.609  1.00  0.00     0.120 A 
ATOM     16  C   UNL     1      15.246   5.938  49.262  1.00  0.00     0.093 A 
ATOM     17  C   UNL     1      15.278   4.573  49.580  1.00  0.00     0.131 A 
ENDROOT
BRANCH   6  18
ATOM     18  O   UNL     1      16.363  -0.051  51.997  1.00  0.00    -0.507 OA
ATOM     19  H   UNL     1      15.537   0.175  51.460  1.00  0.00     0.293 HD
ENDBRANCH   6  18
BRANCH  17  20
ATOM     20  O   UNL     1      14.195   3.766  49.233  1.00  0.00    -0.507 OA
ATOM     21  H   UNL     1      13.690   3.896  48.364  1.00  0.00     0.293 HD
ENDBRANCH  17  20
BRANCH  15  22
ATOM     22  O   UNL     1      16.256   8.125  49.281  1.00  0.00    -0.508 OA
ATOM     23  H   UNL     1      15.784   8.796  49.875  1.00  0.00     0.293 HD
ENDBRANCH  15  22
TORSDOF 3
ENDMDL
MODEL 6
REMARK VINA RESULT:    -5.346      1.261      5.481
REMARK INTER + INTRA:          -5.815
REMARK INTER:                  -5.815
REMARK INTRA:                   0.000
REMARK UNBOUND:                 0.000
REMARK SMILES Cc1cc(O)c2c(c1)C(=O)c1cc(O)cc(O)c1C2=O
REMARK SMILES IDX 1 1 2 2 8 3 7 4 6 5 4 6 3 7 19 8 20 9 18 10 11 11 9 12 10 13
REMARK SMILES IDX 12 14 13 15 15 16 16 17 5 18 17 20 14 22
REMARK H PARENT 5 19 17 21 14 23
REMARK Flexibility Score: inf
ROOT
ATOM      1  C   UNL     1      20.622  -0.885  55.244  1.00  0.00     0.044 C 
ATOM      2  C   UNL     1      19.678  -0.203  54.299  1.00  0.00    -0.047 A 
ATOM      3  C   UNL     1      18.692   0.658  54.789  1.00  0.00     0.016 A 
ATOM      4  C   UNL     1      17.785   1.283  53.915  1.00  0.00     0.038 A 
ATOM      5  C   UNL     1      17.867   1.040  52.523  1.00  0.00     0.076 A 
ATOM      6  C   UNL     1      18.807   0.088  52.046  1.00  0.00     0.127 A 
ATOM      7  C   UNL     1      19.715  -0.499  52.933  1.00  0.00     0.050 A 
ATOM      8  C   UNL     1      16.998   1.838  51.613  1.00  0.00     0.201 C 
ATOM      9  O   UNL     1      17.307   1.971  50.399  1.00  0.00    -0.288 OA
ATOM     10  C   UNL     1      15.826   2.576  52.156  1.00  0.00     0.076 A 
ATOM     11  C   UNL     1      15.713   2.756  53.551  1.00  0.00     0.041 A 
ATOM     12  C   UNL     1      16.738   2.184  54.453  1.00  0.00     0.194 C 
ATOM     13  O   UNL     1      16.708   2.450  55.686  1.00  0.00    -0.289 OA
ATOM     14  C   UNL     1      14.630   3.483  54.075  1.00  0.00     0.059 A 
ATOM     15  C   UNL     1      13.659   4.021  53.227  1.00  0.00     0.120 A 
ATOM     16  C   UNL     1      13.763   3.837  51.848  1.00  0.00     0.093 A 
ATOM     17  C   UNL     1      14.836   3.118  51.304  1.00  0.00     0.131 A 
ENDROOT
BRANCH   6  18
ATOM     18  O   UNL     1      18.852  -0.335  50.715  1.00  0.00    -0.507 OA
ATOM     19  H   UNL     1      19.697  -0.642  50.252  1.00  0.00     0.293 HD
ENDBRANCH   6  18
BRANCH  17  20
ATOM     20  O   UNL     1      14.907   2.938  49.923  1.00  0.00    -0.507 OA
ATOM     21  H   UNL     1      14.796   2.025  49.497  1.00  0.00     0.293 HD
ENDBRANCH  17  20
BRANCH  15  22
ATOM     22  O   UNL     1      12.584   4.742  53.744  1.00  0.00    -0.508 OA
ATOM     23  H   UNL     1      12.056   4.407  54.540  1.00  0.00     0.293 HD
ENDBRANCH  15  22
TORSDOF 3
ENDMDL
MODEL 7
REMARK VINA RESULT:    -5.341      2.632      6.092
REMARK INTER + INTRA:          -5.810
REMARK INTER:                  -5.810
REMARK INTRA:                   0.000
REMARK UNBOUND:                 0.000
REMARK SMILES Cc1cc(O)c2c(c1)C(=O)c1cc(O)cc(O)c1C2=O
REMARK SMILES IDX 1 1 2 2 8 3 7 4 6 5 4 6 3 7 19 8 20 9 18 10 11 11 9 12 10 13
REMARK SMILES IDX 12 14 13 15 15 16 16 17 5 18 17 20 14 22
REMARK H PARENT 5 19 17 21 14 23
REMARK Flexibility Score: inf
ROOT
ATOM      1  C   UNL     1      23.424   2.724  55.214  1.00  0.00     0.044 C 
ATOM      2  C   UNL     1      22.203   2.169  54.541  1.00  0.00    -0.047 A 
ATOM      3  C   UNL     1      21.461   2.965  53.664  1.00  0.00     0.016 A 
ATOM      4  C   UNL     1      20.301   2.465  53.046  1.00  0.00     0.038 A 
ATOM      5  C   UNL     1      19.876   1.142  53.313  1.00  0.00     0.076 A 
ATOM      6  C   UNL     1      20.580   0.376  54.281  1.00  0.00     0.127 A 
ATOM      7  C   UNL     1      21.745   0.887  54.860  1.00  0.00     0.050 A 
ATOM      8  C   UNL     1      18.739   0.591  52.524  1.00  0.00     0.201 C 
ATOM      9  O   UNL     1      18.590  -0.656  52.414  1.00  0.00    -0.288 OA
ATOM     10  C   UNL     1      17.841   1.505  51.768  1.00  0.00     0.076 A 
ATOM     11  C   UNL     1      18.239   2.843  51.563  1.00  0.00     0.041 A 
ATOM     12  C   UNL     1      19.519   3.327  52.128  1.00  0.00     0.194 C 
ATOM     13  O   UNL     1      19.936   4.483  51.841  1.00  0.00    -0.289 OA
ATOM     14  C   UNL     1      17.419   3.709  50.818  1.00  0.00     0.059 A 
ATOM     15  C   UNL     1      16.208   3.257  50.287  1.00  0.00     0.120 A 
ATOM     16  C   UNL     1      15.808   1.937  50.495  1.00  0.00     0.093 A 
ATOM     17  C   UNL     1      16.612   1.057  51.232  1.00  0.00     0.131 A 
ENDROOT
BRANCH   6  18
ATOM     18  O   UNL     1      20.142  -0.874  54.727  1.00  0.00    -0.507 OA
ATOM     19  H   UNL     1      20.757  -1.661  54.883  1.00  0.00     0.293 HD
ENDBRANCH   6  18
BRANCH  17  20
ATOM     20  O   UNL     1      16.180  -0.254  51.436  1.00  0.00    -0.507 OA
ATOM     21  H   UNL     1      15.394  -0.469  52.037  1.00  0.00     0.293 HD
ENDBRANCH  17  20
BRANCH  15  22
ATOM     22  O   UNL     1      15.392   4.113  49.549  1.00  0.00    -0.508 OA
ATOM     23  H   UNL     1      14.623   4.612  49.979  1.00  0.00     0.293 HD
ENDBRANCH  15  22
TORSDOF 3
ENDMDL
MODEL 8
REMARK VINA RESULT:    -5.212      2.968      3.969
REMARK INTER + INTRA:          -5.669
REMARK INTER:                  -5.669
REMARK INTRA:                   0.000
REMARK UNBOUND:                 0.000
REMARK SMILES Cc1cc(O)c2c(c1)C(=O)c1cc(O)cc(O)c1C2=O
REMARK SMILES IDX 1 1 2 2 8 3 7 4 6 5 4 6 3 7 19 8 20 9 18 10 11 11 9 12 10 13
REMARK SMILES IDX 12 14 13 15 15 16 16 17 5 18 17 20 14 22
REMARK H PARENT 5 19 17 21 14 23
REMARK Flexibility Score: inf
ROOT
ATOM      1  C   UNL     1      15.080   3.551  50.391  1.00  0.00     0.044 C 
ATOM      2  C   UNL     1      16.204   2.708  50.915  1.00  0.00    -0.047 A 
ATOM      3  C   UNL     1      17.375   3.310  51.385  1.00  0.00     0.016 A 
ATOM      4  C   UNL     1      18.446   2.529  51.856  1.00  0.00     0.038 A 
ATOM      5  C   UNL     1      18.341   1.118  51.855  1.00  0.00     0.076 A 
ATOM      6  C   UNL     1      17.189   0.514  51.284  1.00  0.00     0.127 A 
ATOM      7  C   UNL     1      16.128   1.313  50.847  1.00  0.00     0.050 A 
ATOM      8  C   UNL     1      19.424   0.328  52.505  1.00  0.00     0.201 C 
ATOM      9  O   UNL     1      19.201  -0.848  52.898  1.00  0.00    -0.288 OA
ATOM     10  C   UNL     1      20.738   0.961  52.798  1.00  0.00     0.076 A 
ATOM     11  C   UNL     1      20.854   2.366  52.731  1.00  0.00     0.041 A 
ATOM     12  C   UNL     1      19.685   3.184  52.339  1.00  0.00     0.194 C 
ATOM     13  O   UNL     1      19.749   4.443  52.400  1.00  0.00    -0.289 OA
ATOM     14  C   UNL     1      22.080   2.980  53.041  1.00  0.00     0.059 A 
ATOM     15  C   UNL     1      23.187   2.211  53.408  1.00  0.00     0.120 A 
ATOM     16  C   UNL     1      23.078   0.821  53.467  1.00  0.00     0.093 A 
ATOM     17  C   UNL     1      21.865   0.188  53.164  1.00  0.00     0.131 A 
ENDROOT
BRANCH   6  18
ATOM     18  O   UNL     1      17.069  -0.865  51.093  1.00  0.00    -0.507 OA
ATOM     19  H   UNL     1      17.635  -1.550  51.574  1.00  0.00     0.293 HD
ENDBRANCH   6  18
BRANCH  17  20
ATOM     20  O   UNL     1      21.789  -1.203  53.218  1.00  0.00    -0.507 OA
ATOM     21  H   UNL     1      22.613  -1.786  53.133  1.00  0.00     0.293 HD
ENDBRANCH  17  20
BRANCH  15  22
ATOM     22  O   UNL     1      24.404   2.818  53.716  1.00  0.00    -0.508 OA
ATOM     23  H   UNL     1      24.805   2.760  54.644  1.00  0.00     0.293 HD
ENDBRANCH  15  22
TORSDOF 3
ENDMDL
MODEL 9
REMARK VINA RESULT:    -5.194     12.526     13.827
REMARK INTER + INTRA:          -5.650
REMARK INTER:                  -5.650
REMARK INTRA:                   0.000
REMARK UNBOUND:                 0.000
REMARK SMILES Cc1cc(O)c2c(c1)C(=O)c1cc(O)cc(O)c1C2=O
REMARK SMILES IDX 1 1 2 2 8 3 7 4 6 5 4 6 3 7 19 8 20 9 18 10 11 11 9 12 10 13
REMARK SMILES IDX 12 14 13 15 15 16 16 17 5 18 17 20 14 22
REMARK H PARENT 5 19 17 21 14 23
REMARK Flexibility Score: inf
ROOT
ATOM      1  C   UNL     1      23.469  -6.797  46.719  1.00  0.00     0.044 C 
ATOM      2  C   UNL     1      23.918  -5.494  46.127  1.00  0.00    -0.047 A 
ATOM      3  C   UNL     1      23.295  -4.990  44.981  1.00  0.00     0.016 A 
ATOM      4  C   UNL     1      23.723  -3.782  44.403  1.00  0.00     0.038 A 
ATOM      5  C   UNL     1      24.797  -3.066  44.982  1.00  0.00     0.076 A 
ATOM      6  C   UNL     1      25.488  -3.636  46.085  1.00  0.00     0.127 A 
ATOM      7  C   UNL     1      25.025  -4.824  46.658  1.00  0.00     0.050 A 
ATOM      8  C   UNL     1      25.121  -1.717  44.440  1.00  0.00     0.201 C 
ATOM      9  O   UNL     1      25.754  -0.886  45.147  1.00  0.00    -0.288 OA
ATOM     10  C   UNL     1      24.602  -1.300  43.110  1.00  0.00     0.076 A 
ATOM     11  C   UNL     1      23.577  -2.058  42.505  1.00  0.00     0.041 A 
ATOM     12  C   UNL     1      23.058  -3.269  43.181  1.00  0.00     0.194 C 
ATOM     13  O   UNL     1      22.060  -3.875  42.705  1.00  0.00    -0.289 OA
ATOM     14  C   UNL     1      23.050  -1.656  41.265  1.00  0.00     0.059 A 
ATOM     15  C   UNL     1      23.539  -0.516  40.623  1.00  0.00     0.120 A 
ATOM     16  C   UNL     1      24.559   0.231  41.214  1.00  0.00     0.093 A 
ATOM     17  C   UNL     1      25.097  -0.151  42.450  1.00  0.00     0.131 A 
ENDROOT
BRANCH   6  18
ATOM     18  O   UNL     1      26.655  -3.083  46.619  1.00  0.00    -0.507 OA
ATOM     19  H   UNL     1      27.575  -3.227  46.226  1.00  0.00     0.293 HD
ENDBRANCH   6  18
BRANCH  17  20
ATOM     20  O   UNL     1      26.124   0.607  43.012  1.00  0.00    -0.507 OA
ATOM     21  H   UNL     1      26.312   1.556  42.712  1.00  0.00     0.293 HD
ENDBRANCH  17  20
BRANCH  15  22
ATOM     22  O   UNL     1      23.020  -0.115  39.393  1.00  0.00    -0.508 OA
ATOM     23  H   UNL     1      23.378   0.698  38.906  1.00  0.00     0.293 HD
ENDBRANCH  15  22
TORSDOF 3
ENDMDL
