MODEL 1
REMARK VINA RESULT:    -3.499      0.000      0.000
REMARK INTER + INTRA:          -3.176
REMARK INTER:                  -4.419
REMARK INTRA:                   1.244
REMARK UNBOUND:                 1.244
REMARK SMILES C=C1CC[C@@H]2[C@H]([C@H]3[C@@H]1CC[C@]3(C)O)C2(C)C
REMARK SMILES IDX 2 1 1 2 8 3 7 4 11 5 9 6 10 7 12 8 6 9 15 10 14 11 5 12
REMARK SMILES IDX 16 13 13 15 3 17 4 18
REMARK H PARENT 13 16
REMARK Flexibility Score: 90.00
ROOT
ATOM      1  C   UNL     1      42.238 -40.042  -4.212  1.00  0.00    -0.074 C 
ATOM      2  C   UNL     1      42.987 -40.885  -4.951  1.00  0.00     0.008 C 
ENDROOT
BRANCH   1   3
ATOM      3  C   UNL     1      40.778 -39.770  -4.614  1.00  0.00     0.021 C 
ATOM      4  C   UNL     1      39.834 -39.334  -3.480  1.00  0.00     0.032 C 
ATOM      5  C   UNL     1      38.428 -39.548  -4.082  1.00  0.00     0.066 C 
ATOM      6  C   UNL     1      40.054 -40.968  -5.258  1.00  0.00     0.011 C 
ATOM      7  C   UNL     1      38.567 -40.824  -4.930  1.00  0.00     0.036 C 
ATOM      8  C   UNL     1      37.311 -39.668  -3.020  1.00  0.00     0.042 C 
BRANCH   4   9
ATOM      9  C   UNL     1      40.075 -40.211  -2.212  1.00  0.00     0.005 C 
ATOM     10  C   UNL     1      39.587 -38.171  -0.508  1.00  0.00     0.011 C 
ATOM     11  C   UNL     1      39.980 -39.635  -0.787  1.00  0.00    -0.029 C 
ATOM     12  C   UNL     1      41.356 -39.923  -1.412  1.00  0.00    -0.001 CG0
ATOM     13  C   UNL     1      39.568 -40.643   0.293  1.00  0.00     0.011 C 
ATOM     14  G   UNL     1      42.230 -38.767  -1.932  1.00  0.00     0.000 G0
ENDBRANCH   4   9
BRANCH   5  15
ATOM     15  O   UNL     1      38.145 -38.451  -4.924  1.00  0.00    -0.390 OA
ATOM     16  H   UNL     1      38.927 -38.304  -5.519  1.00  0.00     0.211 HD
ENDBRANCH   5  15
ENDBRANCH   1   3
BRANCH   1  17
ATOM     17  C   UNL     1      42.988 -39.150  -3.222  1.00  0.00     0.031 C 
BRANCH  17  18
ATOM     18  C   UNL     1      42.233 -38.762  -1.939  1.00  0.00     0.009 CG0
ATOM     19  G   UNL     1      41.362 -39.916  -1.409  1.00  0.00     0.000 G0
ENDBRANCH  17  18
ENDBRANCH   1  17
TORSDOF 1
ENDMDL
MODEL 2
REMARK VINA RESULT:    -3.408      2.213      3.938
REMARK INTER + INTRA:          -3.061
REMARK INTER:                  -4.297
REMARK INTRA:                   1.236
REMARK UNBOUND:                 1.244
REMARK SMILES C=C1CC[C@@H]2[C@H]([C@H]3[C@@H]1CC[C@]3(C)O)C2(C)C
REMARK SMILES IDX 2 1 1 2 8 3 7 4 11 5 9 6 10 7 12 8 6 9 15 10 14 11 5 12
REMARK SMILES IDX 16 13 13 15 3 17 4 18
REMARK H PARENT 13 16
REMARK Flexibility Score: 90.00
ROOT
ATOM      1  C   UNL     1      41.901 -40.771  -4.705  1.00  0.00    -0.074 C 
ATOM      2  C   UNL     1      43.120 -40.953  -5.251  1.00  0.00     0.008 C 
ENDROOT
BRANCH   1   3
ATOM      3  C   UNL     1      41.776 -40.497  -3.196  1.00  0.00     0.021 C 
ATOM      4  C   UNL     1      40.521 -39.727  -2.749  1.00  0.00     0.032 C 
ATOM      5  C   UNL     1      40.879 -39.255  -1.323  1.00  0.00     0.066 C 
ATOM      6  C   UNL     1      42.941 -39.690  -2.589  1.00  0.00     0.011 C 
ATOM      7  C   UNL     1      42.376 -38.911  -1.401  1.00  0.00     0.036 C 
ATOM      8  C   UNL     1      40.028 -38.061  -0.834  1.00  0.00     0.042 C 
BRANCH   4   9
ATOM      9  C   UNL     1      40.250 -38.534  -3.718  1.00  0.00     0.005 C 
ATOM     10  C   UNL     1      37.564 -38.757  -3.501  1.00  0.00     0.011 C 
ATOM     11  C   UNL     1      38.822 -38.093  -4.094  1.00  0.00    -0.029 C 
ATOM     12  C   UNL     1      39.673 -38.889  -5.098  1.00  0.00    -0.001 CG0
ATOM     13  C   UNL     1      38.676 -36.608  -4.447  1.00  0.00     0.011 C 
ATOM     14  G   UNL     1      39.388 -40.382  -5.347  1.00  0.00     0.000 G0
ENDBRANCH   4   9
BRANCH   5  15
ATOM     15  O   UNL     1      40.689 -40.343  -0.445  1.00  0.00    -0.390 OA
ATOM     16  H   UNL     1      41.392 -41.021  -0.633  1.00  0.00     0.211 HD
ENDBRANCH   5  15
ENDBRANCH   1   3
BRANCH   1  17
ATOM     17  C   UNL     1      40.701 -41.187  -5.556  1.00  0.00     0.031 C 
BRANCH  17  18
ATOM     18  C   UNL     1      39.400 -40.393  -5.345  1.00  0.00     0.009 CG0
ATOM     19  G   UNL     1      39.669 -38.898  -5.096  1.00  0.00     0.000 G0
ENDBRANCH  17  18
ENDBRANCH   1  17
TORSDOF 1
ENDMDL
MODEL 3
REMARK VINA RESULT:    -3.382     12.567     14.948
REMARK INTER + INTRA:          -3.028
REMARK INTER:                  -4.223
REMARK INTRA:                   1.195
REMARK UNBOUND:                 1.244
REMARK SMILES C=C1CC[C@@H]2[C@H]([C@H]3[C@@H]1CC[C@]3(C)O)C2(C)C
REMARK SMILES IDX 2 1 1 2 8 3 7 4 11 5 9 6 10 7 12 8 6 9 15 10 14 11 5 12
REMARK SMILES IDX 16 13 13 15 3 17 4 18
REMARK H PARENT 13 16
REMARK Flexibility Score: 90.00
ROOT
ATOM      1  C   UNL     1      29.944 -30.674   6.018  1.00  0.00    -0.074 C 
ATOM      2  C   UNL     1      29.226 -29.786   6.736  1.00  0.00     0.008 C 
ENDROOT
BRANCH   1   3
ATOM      3  C   UNL     1      29.442 -31.113   4.632  1.00  0.00     0.021 C 
ATOM      4  C   UNL     1      30.521 -31.589   3.642  1.00  0.00     0.032 C 
ATOM      5  C   UNL     1      29.796 -31.550   2.278  1.00  0.00     0.066 C 
ATOM      6  C   UNL     1      28.675 -30.029   3.851  1.00  0.00     0.011 C 
ATOM      7  C   UNL     1      28.891 -30.309   2.363  1.00  0.00     0.036 C 
ATOM      8  C   UNL     1      30.757 -31.494   1.068  1.00  0.00     0.042 C 
BRANCH   4   9
ATOM      9  C   UNL     1      31.751 -30.630   3.686  1.00  0.00     0.005 C 
ATOM     10  C   UNL     1      33.525 -32.625   3.258  1.00  0.00     0.011 C 
ATOM     11  C   UNL     1      33.195 -31.144   3.527  1.00  0.00    -0.029 C 
ATOM     12  C   UNL     1      32.666 -30.747   4.916  1.00  0.00    -0.001 CG0
ATOM     13  C   UNL     1      34.179 -30.132   2.927  1.00  0.00     0.011 C 
ATOM     14  G   UNL     1      32.285 -31.830   5.941  1.00  0.00     0.000 G0
ENDBRANCH   4   9
BRANCH   5  15
ATOM     15  O   UNL     1      28.999 -32.710   2.177  1.00  0.00    -0.390 OA
ATOM     16  H   UNL     1      29.581 -33.502   2.326  1.00  0.00     0.211 HD
ENDBRANCH   5  15
ENDBRANCH   1   3
BRANCH   1  17
ATOM     17  C   UNL     1      31.031 -31.443   6.771  1.00  0.00     0.031 C 
BRANCH  17  18
ATOM     18  C   UNL     1      32.283 -31.829   5.964  1.00  0.00     0.009 CG0
ATOM     19  G   UNL     1      32.656 -30.754   4.927  1.00  0.00     0.000 G0
ENDBRANCH  17  18
ENDBRANCH   1  17
TORSDOF 1
ENDMDL
MODEL 4
REMARK VINA RESULT:    -3.344      2.026      3.305
REMARK INTER + INTRA:          -2.980
REMARK INTER:                  -4.193
REMARK INTRA:                   1.213
REMARK UNBOUND:                 1.244
REMARK SMILES C=C1CC[C@@H]2[C@H]([C@H]3[C@@H]1CC[C@]3(C)O)C2(C)C
REMARK SMILES IDX 2 1 1 2 8 3 7 4 11 5 9 6 10 7 12 8 6 9 15 10 14 11 5 12
REMARK SMILES IDX 16 13 13 15 3 17 4 18
REMARK H PARENT 13 16
REMARK Flexibility Score: 90.00
ROOT
ATOM      1  C   UNL     1      40.580 -36.691  -4.597  1.00  0.00    -0.074 C 
ATOM      2  C   UNL     1      40.304 -35.770  -5.542  1.00  0.00     0.008 C 
ENDROOT
BRANCH   1   3
ATOM      3  C   UNL     1      39.528 -37.759  -4.247  1.00  0.00     0.021 C 
ATOM      4  C   UNL     1      40.071 -39.078  -3.667  1.00  0.00     0.032 C 
ATOM      5  C   UNL     1      38.881 -40.050  -3.817  1.00  0.00     0.066 C 
ATOM      6  C   UNL     1      38.648 -38.208  -5.428  1.00  0.00     0.011 C 
ATOM      7  C   UNL     1      38.231 -39.654  -5.154  1.00  0.00     0.036 C 
ATOM      8  C   UNL     1      39.291 -41.541  -3.784  1.00  0.00     0.042 C 
BRANCH   4   9
ATOM      9  C   UNL     1      41.323 -39.544  -4.473  1.00  0.00     0.005 C 
ATOM     10  C   UNL     1      42.539 -40.585  -2.295  1.00  0.00     0.011 C 
ATOM     11  C   UNL     1      42.517 -40.245  -3.798  1.00  0.00    -0.029 C 
ATOM     12  C   UNL     1      42.627 -38.771  -4.222  1.00  0.00    -0.001 CG0
ATOM     13  C   UNL     1      43.297 -41.208  -4.702  1.00  0.00     0.011 C 
ATOM     14  G   UNL     1      42.555 -37.651  -3.168  1.00  0.00     0.000 G0
ENDBRANCH   4   9
BRANCH   5  15
ATOM     15  O   UNL     1      37.979 -39.799  -2.761  1.00  0.00    -0.390 OA
ATOM     16  H   UNL     1      37.691 -40.673  -2.383  1.00  0.00     0.211 HD
ENDBRANCH   5  15
ENDBRANCH   1   3
BRANCH   1  17
ATOM     17  C   UNL     1      41.783 -36.409  -3.696  1.00  0.00     0.031 C 
BRANCH  17  18
ATOM     18  C   UNL     1      42.557 -37.634  -3.180  1.00  0.00     0.009 CG0
ATOM     19  G   UNL     1      42.624 -38.760  -4.229  1.00  0.00     0.000 G0
ENDBRANCH  17  18
ENDBRANCH   1  17
TORSDOF 1
ENDMDL
MODEL 5
REMARK VINA RESULT:    -3.332      2.403      4.014
REMARK INTER + INTRA:          -2.965
REMARK INTER:                  -4.165
REMARK INTRA:                   1.201
REMARK UNBOUND:                 1.244
REMARK SMILES C=C1CC[C@@H]2[C@H]([C@H]3[C@@H]1CC[C@]3(C)O)C2(C)C
REMARK SMILES IDX 2 1 1 2 8 3 7 4 11 5 9 6 10 7 12 8 6 9 15 10 14 11 5 12
REMARK SMILES IDX 16 13 13 15 3 17 4 18
REMARK H PARENT 13 16
REMARK Flexibility Score: 90.00
ROOT
ATOM      1  C   UNL     1      40.435 -40.793  -4.657  1.00  0.00    -0.074 C 
ATOM      2  C   UNL     1      40.974 -41.347  -5.761  1.00  0.00     0.008 C 
ENDROOT
BRANCH   1   3
ATOM      3  C   UNL     1      41.352 -40.149  -3.603  1.00  0.00     0.021 C 
ATOM      4  C   UNL     1      40.718 -39.047  -2.735  1.00  0.00     0.032 C 
ATOM      5  C   UNL     1      41.939 -38.338  -2.110  1.00  0.00     0.066 C 
ATOM      6  C   UNL     1      42.622 -39.488  -4.172  1.00  0.00     0.011 C 
ATOM      7  C   UNL     1      42.998 -38.348  -3.224  1.00  0.00     0.036 C 
ATOM      8  C   UNL     1      41.633 -36.910  -1.604  1.00  0.00     0.042 C 
BRANCH   4   9
ATOM      9  C   UNL     1      39.867 -38.087  -3.624  1.00  0.00     0.005 C 
ATOM     10  C   UNL     1      38.012 -37.687  -1.699  1.00  0.00     0.011 C 
ATOM     11  C   UNL     1      38.552 -37.460  -3.125  1.00  0.00    -0.029 C 
ATOM     12  C   UNL     1      38.518 -38.630  -4.122  1.00  0.00    -0.001 CG0
ATOM     13  C   UNL     1      38.204 -36.104  -3.751  1.00  0.00     0.011 C 
ATOM     14  G   UNL     1      38.143 -40.046  -3.646  1.00  0.00     0.000 G0
ENDBRANCH   4   9
BRANCH   5  15
ATOM     15  O   UNL     1      42.387 -39.122  -1.025  1.00  0.00    -0.390 OA
ATOM     16  H   UNL     1      41.916 -39.997  -1.057  1.00  0.00     0.211 HD
ENDBRANCH   5  15
ENDBRANCH   1   3
BRANCH   1  17
ATOM     17  C   UNL     1      38.975 -41.141  -4.360  1.00  0.00     0.031 C 
BRANCH  17  18
ATOM     18  C   UNL     1      38.138 -40.054  -3.664  1.00  0.00     0.009 CG0
ATOM     19  G   UNL     1      38.526 -38.639  -4.128  1.00  0.00     0.000 G0
ENDBRANCH  17  18
ENDBRANCH   1  17
TORSDOF 1
ENDMDL
MODEL 6
REMARK VINA RESULT:    -3.327      2.587      4.445
REMARK INTER + INTRA:          -2.959
REMARK INTER:                  -4.154
REMARK INTRA:                   1.195
REMARK UNBOUND:                 1.244
REMARK SMILES C=C1CC[C@@H]2[C@H]([C@H]3[C@@H]1CC[C@]3(C)O)C2(C)C
REMARK SMILES IDX 2 1 1 2 8 3 7 4 11 5 9 6 10 7 12 8 6 9 15 10 14 11 5 12
REMARK SMILES IDX 16 13 13 15 3 17 4 18
REMARK H PARENT 13 16
REMARK Flexibility Score: 90.00
ROOT
ATOM      1  C   UNL     1      37.970 -40.291  -4.152  1.00  0.00    -0.074 C 
ATOM      2  C   UNL     1      37.368 -41.211  -4.933  1.00  0.00     0.008 C 
ENDROOT
BRANCH   1   3
ATOM      3  C   UNL     1      39.456 -40.456  -3.790  1.00  0.00     0.021 C 
ATOM      4  C   UNL     1      40.222 -39.160  -3.467  1.00  0.00     0.032 C 
ATOM      5  C   UNL     1      41.703 -39.586  -3.564  1.00  0.00     0.066 C 
ATOM      6  C   UNL     1      40.313 -41.131  -4.878  1.00  0.00     0.011 C 
ATOM      7  C   UNL     1      41.735 -40.588  -4.731  1.00  0.00     0.036 C 
ATOM      8  C   UNL     1      42.675 -38.403  -3.779  1.00  0.00     0.042 C 
BRANCH   4   9
ATOM      9  C   UNL     1      39.856 -38.049  -4.500  1.00  0.00     0.005 C 
ATOM     10  C   UNL     1      40.010 -36.068  -2.666  1.00  0.00     0.011 C 
ATOM     11  C   UNL     1      39.730 -36.567  -4.098  1.00  0.00    -0.029 C 
ATOM     12  C   UNL     1      38.467 -37.406  -4.352  1.00  0.00    -0.001 CG0
ATOM     13  C   UNL     1      40.043 -35.564  -5.215  1.00  0.00     0.011 C 
ATOM     14  G   UNL     1      37.615 -37.906  -3.171  1.00  0.00     0.000 G0
ENDBRANCH   4   9
BRANCH   5  15
ATOM     15  O   UNL     1      42.044 -40.247  -2.365  1.00  0.00    -0.390 OA
ATOM     16  H   UNL     1      42.395 -39.571  -1.726  1.00  0.00     0.211 HD
ENDBRANCH   5  15
ENDBRANCH   1   3
BRANCH   1  17
ATOM     17  C   UNL     1      37.052 -39.328  -3.398  1.00  0.00     0.031 C 
BRANCH  17  18
ATOM     18  C   UNL     1      37.590 -37.905  -3.168  1.00  0.00     0.009 CG0
ATOM     19  G   UNL     1      38.463 -37.420  -4.340  1.00  0.00     0.000 G0
ENDBRANCH  17  18
ENDBRANCH   1  17
TORSDOF 1
ENDMDL
MODEL 7
REMARK VINA RESULT:    -3.262      2.906      4.363
REMARK INTER + INTRA:          -2.877
REMARK INTER:                  -4.111
REMARK INTRA:                   1.235
REMARK UNBOUND:                 1.244
REMARK SMILES C=C1CC[C@@H]2[C@H]([C@H]3[C@@H]1CC[C@]3(C)O)C2(C)C
REMARK SMILES IDX 2 1 1 2 8 3 7 4 11 5 9 6 10 7 12 8 6 9 15 10 14 11 5 12
REMARK SMILES IDX 16 13 13 15 3 17 4 18
REMARK H PARENT 13 16
REMARK Flexibility Score: 90.00
ROOT
ATOM      1  C   UNL     1      37.880 -38.744  -6.714  1.00  0.00    -0.074 C 
ATOM      2  C   UNL     1      38.296 -38.640  -7.993  1.00  0.00     0.008 C 
ENDROOT
BRANCH   1   3
ATOM      3  C   UNL     1      38.367 -39.920  -5.849  1.00  0.00     0.021 C 
ATOM      4  C   UNL     1      38.384 -39.680  -4.329  1.00  0.00     0.032 C 
ATOM      5  C   UNL     1      39.280 -40.819  -3.797  1.00  0.00     0.066 C 
ATOM      6  C   UNL     1      39.797 -40.401  -6.164  1.00  0.00     0.011 C 
ATOM      7  C   UNL     1      40.372 -40.977  -4.869  1.00  0.00     0.036 C 
ATOM      8  C   UNL     1      39.870 -40.539  -2.396  1.00  0.00     0.042 C 
BRANCH   4   9
ATOM      9  C   UNL     1      38.971 -38.268  -4.015  1.00  0.00     0.005 C 
ATOM     10  C   UNL     1      37.317 -37.870  -1.914  1.00  0.00     0.011 C 
ATOM     11  C   UNL     1      38.431 -37.395  -2.866  1.00  0.00    -0.029 C 
ATOM     12  C   UNL     1      38.065 -37.065  -4.323  1.00  0.00    -0.001 CG0
ATOM     13  C   UNL     1      39.453 -36.430  -2.252  1.00  0.00     0.011 C 
ATOM     14  G   UNL     1      36.663 -37.398  -4.867  1.00  0.00     0.000 G0
ENDBRANCH   4   9
BRANCH   5  15
ATOM     15  O   UNL     1      38.501 -41.994  -3.739  1.00  0.00    -0.390 OA
ATOM     16  H   UNL     1      39.080 -42.737  -3.424  1.00  0.00     0.211 HD
ENDBRANCH   5  15
ENDBRANCH   1   3
BRANCH   1  17
ATOM     17  C   UNL     1      36.684 -37.880  -6.311  1.00  0.00     0.031 C 
BRANCH  17  18
ATOM     18  C   UNL     1      36.655 -37.383  -4.856  1.00  0.00     0.009 CG0
ATOM     19  G   UNL     1      38.064 -37.052  -4.330  1.00  0.00     0.000 G0
ENDBRANCH  17  18
ENDBRANCH   1  17
TORSDOF 1
ENDMDL
MODEL 8
REMARK VINA RESULT:    -3.261     13.402     15.283
REMARK INTER + INTRA:          -2.875
REMARK INTER:                  -4.100
REMARK INTRA:                   1.226
REMARK UNBOUND:                 1.244
REMARK SMILES C=C1CC[C@@H]2[C@H]([C@H]3[C@@H]1CC[C@]3(C)O)C2(C)C
REMARK SMILES IDX 2 1 1 2 8 3 7 4 11 5 9 6 10 7 12 8 6 9 15 10 14 11 5 12
REMARK SMILES IDX 16 13 13 15 3 17 4 18
REMARK H PARENT 13 16
REMARK Flexibility Score: 90.00
ROOT
ATOM      1  C   UNL     1      30.757 -31.898   1.927  1.00  0.00    -0.074 C 
ATOM      2  C   UNL     1      31.311 -32.793   1.084  1.00  0.00     0.008 C 
ENDROOT
BRANCH   1   3
ATOM      3  C   UNL     1      29.234 -31.679   1.912  1.00  0.00     0.021 C 
ATOM      4  C   UNL     1      28.611 -31.168   3.223  1.00  0.00     0.032 C 
ATOM      5  C   UNL     1      27.104 -31.448   3.036  1.00  0.00     0.066 C 
ATOM      6  C   UNL     1      28.407 -32.933   1.572  1.00  0.00     0.011 C 
ATOM      7  C   UNL     1      27.057 -32.785   2.276  1.00  0.00     0.036 C 
ATOM      8  C   UNL     1      26.314 -31.500   4.363  1.00  0.00     0.042 C 
BRANCH   4   9
ATOM      9  C   UNL     1      29.211 -31.940   4.439  1.00  0.00     0.005 C 
ATOM     10  C   UNL     1      29.142 -29.775   6.056  1.00  0.00     0.011 C 
ATOM     11  C   UNL     1      29.487 -31.253   5.790  1.00  0.00    -0.029 C 
ATOM     12  C   UNL     1      30.651 -31.579   4.838  1.00  0.00    -0.001 CG0
ATOM     13  C   UNL     1      29.411 -32.176   7.013  1.00  0.00     0.011 C 
ATOM     14  G   UNL     1      31.319 -30.462   4.016  1.00  0.00     0.000 G0
ENDBRANCH   4   9
BRANCH   5  15
ATOM     15  O   UNL     1      26.570 -30.424   2.224  1.00  0.00    -0.390 OA
ATOM     16  H   UNL     1      26.956 -29.558   2.522  1.00  0.00     0.211 HD
ENDBRANCH   5  15
ENDBRANCH   1   3
BRANCH   1  17
ATOM     17  C   UNL     1      31.713 -30.914   2.604  1.00  0.00     0.031 C 
BRANCH  17  18
ATOM     18  C   UNL     1      31.334 -30.453   4.021  1.00  0.00     0.009 CG0
ATOM     19  G   UNL     1      30.662 -31.575   4.834  1.00  0.00     0.000 G0
ENDBRANCH  17  18
ENDBRANCH   1  17
TORSDOF 1
ENDMDL
MODEL 9
REMARK VINA RESULT:    -3.207     14.414     16.846
REMARK INTER + INTRA:          -2.808
REMARK INTER:                  -4.023
REMARK INTRA:                   1.216
REMARK UNBOUND:                 1.244
REMARK SMILES C=C1CC[C@@H]2[C@H]([C@H]3[C@@H]1CC[C@]3(C)O)C2(C)C
REMARK SMILES IDX 2 1 1 2 8 3 7 4 11 5 9 6 10 7 12 8 6 9 15 10 14 11 5 12
REMARK SMILES IDX 16 13 13 15 3 17 4 18
REMARK H PARENT 13 16
REMARK Flexibility Score: 90.00
ROOT
ATOM      1  C   UNL     1      26.178 -31.872   4.725  1.00  0.00    -0.074 C 
ATOM      2  C   UNL     1      25.259 -32.581   5.411  1.00  0.00     0.008 C 
ENDROOT
BRANCH   1   3
ATOM      3  C   UNL     1      27.332 -31.190   5.481  1.00  0.00     0.021 C 
ATOM      4  C   UNL     1      28.619 -30.945   4.673  1.00  0.00     0.032 C 
ATOM      5  C   UNL     1      29.676 -30.662   5.763  1.00  0.00     0.066 C 
ATOM      6  C   UNL     1      27.818 -31.945   6.733  1.00  0.00     0.011 C 
ATOM      7  C   UNL     1      29.298 -31.606   6.916  1.00  0.00     0.036 C 
ATOM      8  C   UNL     1      31.131 -30.874   5.284  1.00  0.00     0.042 C 
BRANCH   4   9
ATOM      9  C   UNL     1      28.968 -32.207   3.824  1.00  0.00     0.005 C 
ATOM     10  C   UNL     1      29.948 -30.752   1.768  1.00  0.00     0.011 C 
ATOM     11  C   UNL     1      29.582 -32.101   2.415  1.00  0.00    -0.029 C 
ATOM     12  C   UNL     1      28.096 -32.461   2.583  1.00  0.00    -0.001 CG0
ATOM     13  C   UNL     1      30.463 -33.288   2.003  1.00  0.00     0.011 C 
ATOM     14  G   UNL     1      27.006 -31.411   2.299  1.00  0.00     0.000 G0
ENDBRANCH   4   9
BRANCH   5  15
ATOM     15  O   UNL     1      29.522 -29.322   6.179  1.00  0.00    -0.390 OA
ATOM     16  H   UNL     1      28.882 -28.876   5.562  1.00  0.00     0.211 HD
ENDBRANCH   5  15
ENDBRANCH   1   3
BRANCH   1  17
ATOM     17  C   UNL     1      25.825 -31.508   3.283  1.00  0.00     0.031 C 
BRANCH  17  18
ATOM     18  C   UNL     1      26.996 -31.420   2.290  1.00  0.00     0.009 CG0
ATOM     19  G   UNL     1      28.081 -32.473   2.580  1.00  0.00     0.000 G0
ENDBRANCH  17  18
ENDBRANCH   1  17
TORSDOF 1
ENDMDL
