MODEL 1
REMARK VINA RESULT:    -0.149      0.000      0.000
REMARK INTER + INTRA:          -0.195
REMARK INTER:                  -0.157
REMARK INTRA:                  -0.038
REMARK UNBOUND:                -0.038
REMARK SMILES COc1ccc2ccc(=O)oc2c1
REMARK SMILES IDX 3 1 13 2 12 3 6 4 5 5 4 6 7 7 8 8 9 9 10 10 11 11 2 12 1 13
REMARK H PARENT
REMARK Flexibility Score: inf
ROOT
ATOM      1  C   UNL     1      -1.901   0.138   3.008  1.00  0.00     0.122 A 
ATOM      2  C   UNL     1      -2.181  -0.455   1.770  1.00  0.00     0.094 A 
ATOM      3  C   UNL     1      -3.454  -0.967   1.499  1.00  0.00     0.142 A 
ATOM      4  C   UNL     1      -4.466  -0.888   2.480  1.00  0.00     0.018 A 
ATOM      5  C   UNL     1      -4.191  -0.295   3.720  1.00  0.00     0.016 A 
ATOM      6  C   UNL     1      -2.916   0.215   3.984  1.00  0.00     0.047 A 
ATOM      7  C   UNL     1      -5.728  -1.408   2.181  1.00  0.00     0.019 A 
ATOM      8  C   UNL     1      -5.950  -1.987   0.931  1.00  0.00     0.094 A 
ATOM      9  C   UNL     1      -4.900  -2.032   0.008  1.00  0.00     0.336 A 
ATOM     10  O   UNL     1      -5.081  -2.550  -1.125  1.00  0.00    -0.246 OA
ATOM     11  O   UNL     1      -3.708  -1.528   0.318  1.00  0.00    -0.423 OA
ENDROOT
BRANCH   1  12
ATOM     12  O   UNL     1      -0.609   0.637   3.228  1.00  0.00    -0.497 OA
ATOM     13  C   UNL     1       0.588  -0.102   3.006  1.00  0.00     0.278 C 
ENDBRANCH   1  12
TORSDOF 1
ENDMDL
MODEL 2
REMARK VINA RESULT:     0.488      1.112      4.591
REMARK INTER + INTRA:           0.479
REMARK INTER:                   0.519
REMARK INTRA:                  -0.040
REMARK UNBOUND:                -0.038
REMARK SMILES COc1ccc2ccc(=O)oc2c1
REMARK SMILES IDX 3 1 13 2 12 3 6 4 5 5 4 6 7 7 8 8 9 9 10 10 11 11 2 12 1 13
REMARK H PARENT
REMARK Flexibility Score: inf
ROOT
ATOM      1  C   UNL     1      -5.085  -1.681   0.916  1.00  0.00     0.122 A 
ATOM      2  C   UNL     1      -3.762  -1.250   0.751  1.00  0.00     0.094 A 
ATOM      3  C   UNL     1      -3.060  -0.685   1.820  1.00  0.00     0.142 A 
ATOM      4  C   UNL     1      -3.688  -0.547   3.077  1.00  0.00     0.018 A 
ATOM      5  C   UNL     1      -5.011  -0.977   3.247  1.00  0.00     0.016 A 
ATOM      6  C   UNL     1      -5.707  -1.540   2.173  1.00  0.00     0.047 A 
ATOM      7  C   UNL     1      -2.961   0.021   4.127  1.00  0.00     0.019 A 
ATOM      8  C   UNL     1      -1.647   0.432   3.905  1.00  0.00     0.094 A 
ATOM      9  C   UNL     1      -1.090   0.265   2.633  1.00  0.00     0.336 A 
ATOM     10  O   UNL     1       0.095   0.629   2.414  1.00  0.00    -0.246 OA
ATOM     11  O   UNL     1      -1.803  -0.280   1.651  1.00  0.00    -0.423 OA
ENDROOT
BRANCH   1  12
ATOM     12  O   UNL     1      -5.744  -2.241  -0.189  1.00  0.00    -0.497 OA
ATOM     13  C   UNL     1      -5.136  -3.125  -1.125  1.00  0.00     0.278 C 
ENDBRANCH   1  12
TORSDOF 1
ENDMDL
