MODEL 1
REMARK VINA RESULT:    -3.572      0.000      0.000
REMARK INTER + INTRA:          -4.524
REMARK INTER:                  -4.303
REMARK INTRA:                  -0.222
REMARK UNBOUND:                -0.222
REMARK SMILES OCC(O)CO
REMARK SMILES IDX 3 1 5 2 6 3 2 5 1 6 4 8
REMARK H PARENT 6 4 1 7 4 9
REMARK Flexibility Score: inf
ROOT
ATOM      1  C   UNL     1      20.406  -6.898  15.936  1.00  0.00     0.165 C 
ENDROOT
BRANCH   1   2
ATOM      2  C   UNL     1      21.559  -6.533  16.881  1.00  0.00     0.190 C 
BRANCH   2   3
ATOM      3  O   UNL     1      21.191  -5.458  17.701  1.00  0.00    -0.394 OA
ATOM      4  H   UNL     1      20.204  -5.386  17.635  1.00  0.00     0.210 HD
ENDBRANCH   2   3
ENDBRANCH   1   2
BRANCH   1   5
ATOM      5  C   UNL     1      19.061  -6.890  16.676  1.00  0.00     0.190 C 
BRANCH   5   6
ATOM      6  O   UNL     1      19.185  -7.514  17.925  1.00  0.00    -0.394 OA
ATOM      7  H   UNL     1      19.045  -8.485  17.776  1.00  0.00     0.210 HD
ENDBRANCH   5   6
ENDBRANCH   1   5
BRANCH   1   8
ATOM      8  O   UNL     1      20.626  -8.176  15.398  1.00  0.00    -0.388 OA
ATOM      9  H   UNL     1      21.456  -8.526  15.817  1.00  0.00     0.211 HD
ENDBRANCH   1   8
TORSDOF 5
ENDMDL
MODEL 2
REMARK VINA RESULT:    -3.535      1.357      2.867
REMARK INTER + INTRA:          -4.479
REMARK INTER:                  -4.261
REMARK INTRA:                  -0.218
REMARK UNBOUND:                -0.222
REMARK SMILES OCC(O)CO
REMARK SMILES IDX 3 1 5 2 6 3 2 5 1 6 4 8
REMARK H PARENT 6 4 1 7 4 9
REMARK Flexibility Score: inf
ROOT
ATOM      1  C   UNL     1      19.764  -5.816  16.653  1.00  0.00     0.165 C 
ENDROOT
BRANCH   1   2
ATOM      2  C   UNL     1      19.152  -7.223  16.694  1.00  0.00     0.190 C 
BRANCH   2   3
ATOM      3  O   UNL     1      19.103  -7.692  18.013  1.00  0.00    -0.394 OA
ATOM      4  H   UNL     1      19.844  -7.240  18.495  1.00  0.00     0.210 HD
ENDBRANCH   2   3
ENDBRANCH   1   2
BRANCH   1   5
ATOM      5  C   UNL     1      21.276  -5.863  16.911  1.00  0.00     0.190 C 
BRANCH   5   6
ATOM      6  O   UNL     1      21.769  -7.159  16.702  1.00  0.00    -0.394 OA
ATOM      7  H   UNL     1      22.331  -7.383  17.489  1.00  0.00     0.210 HD
ENDBRANCH   5   6
ENDBRANCH   1   5
BRANCH   1   8
ATOM      8  O   UNL     1      19.155  -5.011  17.630  1.00  0.00    -0.388 OA
ATOM      9  H   UNL     1      19.489  -5.326  18.511  1.00  0.00     0.211 HD
ENDBRANCH   1   8
TORSDOF 5
ENDMDL
MODEL 3
REMARK VINA RESULT:    -3.501      1.351      1.351
REMARK INTER + INTRA:          -4.439
REMARK INTER:                  -4.232
REMARK INTRA:                  -0.207
REMARK UNBOUND:                -0.222
REMARK SMILES OCC(O)CO
REMARK SMILES IDX 3 1 5 2 6 3 2 5 1 6 4 8
REMARK H PARENT 6 4 1 7 4 9
REMARK Flexibility Score: inf
ROOT
ATOM      1  C   UNL     1      20.384  -6.470  16.266  1.00  0.00     0.165 C 
ENDROOT
BRANCH   1   2
ATOM      2  C   UNL     1      20.439  -5.201  17.126  1.00  0.00     0.190 C 
BRANCH   2   3
ATOM      3  O   UNL     1      19.161  -4.887  17.608  1.00  0.00    -0.394 OA
ATOM      4  H   UNL     1      18.611  -4.671  16.811  1.00  0.00     0.210 HD
ENDBRANCH   2   3
ENDBRANCH   1   2
BRANCH   1   5
ATOM      5  C   UNL     1      19.145  -7.312  16.600  1.00  0.00     0.190 C 
BRANCH   5   6
ATOM      6  O   UNL     1      19.135  -7.652  17.960  1.00  0.00    -0.394 OA
ATOM      7  H   UNL     1      19.196  -6.801  18.469  1.00  0.00     0.210 HD
ENDBRANCH   5   6
ENDBRANCH   1   5
BRANCH   1   8
ATOM      8  O   UNL     1      21.537  -7.240  16.490  1.00  0.00    -0.388 OA
ATOM      9  H   UNL     1      22.175  -6.665  16.990  1.00  0.00     0.211 HD
ENDBRANCH   1   8
TORSDOF 5
ENDMDL
MODEL 4
REMARK VINA RESULT:    -3.493      2.363      2.723
REMARK INTER + INTRA:          -4.429
REMARK INTER:                  -4.222
REMARK INTRA:                  -0.207
REMARK UNBOUND:                -0.222
REMARK SMILES OCC(O)CO
REMARK SMILES IDX 3 1 5 2 6 3 2 5 1 6 4 8
REMARK H PARENT 6 4 1 7 4 9
REMARK Flexibility Score: inf
ROOT
ATOM      1  C   UNL     1      20.717  -5.574  15.196  1.00  0.00     0.165 C 
ENDROOT
BRANCH   1   2
ATOM      2  C   UNL     1      22.145  -5.020  15.102  1.00  0.00     0.190 C 
BRANCH   2   3
ATOM      3  O   UNL     1      22.837  -5.641  14.054  1.00  0.00    -0.394 OA
ATOM      4  H   UNL     1      23.087  -6.542  14.385  1.00  0.00     0.210 HD
ENDBRANCH   2   3
ENDBRANCH   1   2
BRANCH   1   5
ATOM      5  C   UNL     1      20.677  -6.860  16.033  1.00  0.00     0.190 C 
BRANCH   5   6
ATOM      6  O   UNL     1      21.931  -7.111  16.606  1.00  0.00    -0.394 OA
ATOM      7  H   UNL     1      22.270  -7.951  16.201  1.00  0.00     0.210 HD
ENDBRANCH   5   6
ENDBRANCH   1   5
BRANCH   1   8
ATOM      8  O   UNL     1      20.234  -5.849  13.907  1.00  0.00    -0.388 OA
ATOM      9  H   UNL     1      19.534  -5.172  13.711  1.00  0.00     0.211 HD
ENDBRANCH   1   8
TORSDOF 5
ENDMDL
MODEL 5
REMARK VINA RESULT:    -3.489      2.971      3.851
REMARK INTER + INTRA:          -4.424
REMARK INTER:                  -4.203
REMARK INTRA:                  -0.221
REMARK UNBOUND:                -0.222
REMARK SMILES OCC(O)CO
REMARK SMILES IDX 3 1 5 2 6 3 2 5 1 6 4 8
REMARK H PARENT 6 4 1 7 4 9
REMARK Flexibility Score: inf
ROOT
ATOM      1  C   UNL     1      21.122  -5.654  15.189  1.00  0.00     0.165 C 
ENDROOT
BRANCH   1   2
ATOM      2  C   UNL     1      20.148  -4.623  14.603  1.00  0.00     0.190 C 
BRANCH   2   3
ATOM      3  O   UNL     1      20.771  -3.892  13.583  1.00  0.00    -0.394 OA
ATOM      4  H   UNL     1      20.681  -4.436  12.759  1.00  0.00     0.210 HD
ENDBRANCH   2   3
ENDBRANCH   1   2
BRANCH   1   5
ATOM      5  C   UNL     1      22.575  -5.175  15.064  1.00  0.00     0.190 C 
BRANCH   5   6
ATOM      6  O   UNL     1      23.157  -5.676  13.891  1.00  0.00    -0.394 OA
ATOM      7  H   UNL     1      22.803  -6.595  13.764  1.00  0.00     0.210 HD
ENDBRANCH   5   6
ENDBRANCH   1   5
BRANCH   1   8
ATOM      8  O   UNL     1      20.980  -6.874  14.508  1.00  0.00    -0.388 OA
ATOM      9  H   UNL     1      21.832  -7.035  14.024  1.00  0.00     0.211 HD
ENDBRANCH   1   8
TORSDOF 5
ENDMDL
MODEL 6
REMARK VINA RESULT:    -3.488      1.719      2.916
REMARK INTER + INTRA:          -4.424
REMARK INTER:                  -4.203
REMARK INTRA:                  -0.220
REMARK UNBOUND:                -0.222
REMARK SMILES OCC(O)CO
REMARK SMILES IDX 3 1 5 2 6 3 2 5 1 6 4 8
REMARK H PARENT 6 4 1 7 4 9
REMARK Flexibility Score: inf
ROOT
ATOM      1  C   UNL     1      20.121  -5.412  16.530  1.00  0.00     0.165 C 
ENDROOT
BRANCH   1   2
ATOM      2  C   UNL     1      19.313  -5.839  15.297  1.00  0.00     0.190 C 
BRANCH   2   3
ATOM      3  O   UNL     1      20.116  -5.790  14.150  1.00  0.00    -0.394 OA
ATOM      4  H   UNL     1      20.910  -6.353  14.345  1.00  0.00     0.210 HD
ENDBRANCH   2   3
ENDBRANCH   1   2
BRANCH   1   5
ATOM      5  C   UNL     1      21.259  -6.401  16.815  1.00  0.00     0.190 C 
BRANCH   5   6
ATOM      6  O   UNL     1      21.023  -7.620  16.164  1.00  0.00    -0.394 OA
ATOM      7  H   UNL     1      21.149  -7.456  15.193  1.00  0.00     0.210 HD
ENDBRANCH   5   6
ENDBRANCH   1   5
BRANCH   1   8
ATOM      8  O   UNL     1      19.275  -5.349  17.648  1.00  0.00    -0.388 OA
ATOM      9  H   UNL     1      18.750  -6.193  17.660  1.00  0.00     0.211 HD
ENDBRANCH   1   8
TORSDOF 5
ENDMDL
MODEL 7
REMARK VINA RESULT:    -3.437      2.908      3.634
REMARK INTER + INTRA:          -4.362
REMARK INTER:                  -4.149
REMARK INTRA:                  -0.213
REMARK UNBOUND:                -0.222
REMARK SMILES OCC(O)CO
REMARK SMILES IDX 3 1 5 2 6 3 2 5 1 6 4 8
REMARK H PARENT 6 4 1 7 4 9
REMARK Flexibility Score: inf
ROOT
ATOM      1  C   UNL     1      19.551  -4.880  16.303  1.00  0.00     0.165 C 
ENDROOT
BRANCH   1   2
ATOM      2  C   UNL     1      18.705  -3.650  15.950  1.00  0.00     0.190 C 
BRANCH   2   3
ATOM      3  O   UNL     1      17.712  -3.995  15.025  1.00  0.00    -0.394 OA
ATOM      4  H   UNL     1      18.177  -4.137  14.160  1.00  0.00     0.210 HD
ENDBRANCH   2   3
ENDBRANCH   1   2
BRANCH   1   5
ATOM      5  C   UNL     1      19.286  -6.033  15.326  1.00  0.00     0.190 C 
BRANCH   5   6
ATOM      6  O   UNL     1      19.977  -5.826  14.124  1.00  0.00    -0.394 OA
ATOM      7  H   UNL     1      19.479  -5.129  13.623  1.00  0.00     0.210 HD
ENDBRANCH   5   6
ENDBRANCH   1   5
BRANCH   1   8
ATOM      8  O   UNL     1      19.245  -5.302  17.607  1.00  0.00    -0.388 OA
ATOM      9  H   UNL     1      19.845  -6.067  17.811  1.00  0.00     0.211 HD
ENDBRANCH   1   8
TORSDOF 5
ENDMDL
MODEL 8
REMARK VINA RESULT:    -3.436      3.252      3.925
REMARK INTER + INTRA:          -4.361
REMARK INTER:                  -4.355
REMARK INTRA:                  -0.005
REMARK UNBOUND:                -0.222
REMARK SMILES OCC(O)CO
REMARK SMILES IDX 3 1 5 2 6 3 2 5 1 6 4 8
REMARK H PARENT 6 4 1 7 4 9
REMARK Flexibility Score: inf
ROOT
ATOM      1  C   UNL     1      20.266  -3.597  15.855  1.00  0.00     0.165 C 
ENDROOT
BRANCH   1   2
ATOM      2  C   UNL     1      20.028  -3.971  14.386  1.00  0.00     0.190 C 
BRANCH   2   3
ATOM      3  O   UNL     1      21.130  -4.673  13.880  1.00  0.00    -0.394 OA
ATOM      4  H   UNL     1      21.920  -4.090  14.026  1.00  0.00     0.210 HD
ENDBRANCH   2   3
ENDBRANCH   1   2
BRANCH   1   5
ATOM      5  C   UNL     1      19.032  -3.912  16.713  1.00  0.00     0.190 C 
BRANCH   5   6
ATOM      6  O   UNL     1      19.301  -4.976  17.585  1.00  0.00    -0.394 OA
ATOM      7  H   UNL     1      18.680  -4.881  18.353  1.00  0.00     0.210 HD
ENDBRANCH   5   6
ENDBRANCH   1   5
BRANCH   1   8
ATOM      8  O   UNL     1      20.554  -2.226  15.950  1.00  0.00    -0.388 OA
ATOM      9  H   UNL     1      20.653  -2.019  16.917  1.00  0.00     0.211 HD
ENDBRANCH   1   8
TORSDOF 5
ENDMDL
MODEL 9
REMARK VINA RESULT:    -3.435      1.759      2.690
REMARK INTER + INTRA:          -4.360
REMARK INTER:                  -4.138
REMARK INTRA:                  -0.222
REMARK UNBOUND:                -0.222
REMARK SMILES OCC(O)CO
REMARK SMILES IDX 3 1 5 2 6 3 2 5 1 6 4 8
REMARK H PARENT 6 4 1 7 4 9
REMARK Flexibility Score: inf
ROOT
ATOM      1  C   UNL     1      19.708  -6.016  16.664  1.00  0.00     0.165 C 
ENDROOT
BRANCH   1   2
ATOM      2  C   UNL     1      21.238  -5.991  16.790  1.00  0.00     0.190 C 
BRANCH   2   3
ATOM      3  O   UNL     1      21.766  -7.261  16.524  1.00  0.00    -0.394 OA
ATOM      4  H   UNL     1      20.988  -7.869  16.431  1.00  0.00     0.210 HD
ENDBRANCH   2   3
ENDBRANCH   1   2
BRANCH   1   5
ATOM      5  C   UNL     1      19.263  -5.613  15.251  1.00  0.00     0.190 C 
BRANCH   5   6
ATOM      6  O   UNL     1      20.183  -6.070  14.298  1.00  0.00    -0.394 OA
ATOM      7  H   UNL     1      20.429  -6.996  14.557  1.00  0.00     0.210 HD
ENDBRANCH   5   6
ENDBRANCH   1   5
BRANCH   1   8
ATOM      8  O   UNL     1      19.146  -5.127  17.594  1.00  0.00    -0.388 OA
ATOM      9  H   UNL     1      19.369  -5.476  18.497  1.00  0.00     0.211 HD
ENDBRANCH   1   8
TORSDOF 5
ENDMDL
