MODEL 1
REMARK VINA RESULT:    -4.349      0.000      0.000
REMARK INTER + INTRA:          -9.278
REMARK INTER:                  -6.637
REMARK INTRA:                  -2.641
REMARK UNBOUND:                -2.641
REMARK SMILES CC(=O)CCC=C(C)CCC=C(C)CCC=C(C)C
REMARK SMILES IDX 10 1 11 2 12 3 13 4 14 5 15 6 16 7 18 8 17 9 19 10 9 11 7 12
REMARK SMILES IDX 6 13 8 14 5 15 4 16 2 17 3 18 1 19
REMARK H PARENT
REMARK Flexibility Score: inf
ROOT
ATOM      1  C   UNL     1      14.233  -0.186  61.710  1.00  0.00     0.032 C 
ENDROOT
BRANCH   1   2
ATOM      2  C   UNL     1      14.736   1.018  60.951  1.00  0.00    -0.028 C 
ATOM      3  C   UNL     1      15.918   1.635  61.183  1.00  0.00    -0.077 C 
ATOM      4  C   UNL     1      16.898   1.124  62.212  1.00  0.00     0.039 C 
BRANCH   3   5
ATOM      5  C   UNL     1      16.295   2.844  60.354  1.00  0.00     0.034 C 
BRANCH   5   6
ATOM      6  C   UNL     1      16.062   2.605  58.857  1.00  0.00     0.032 C 
BRANCH   6   7
ATOM      7  C   UNL     1      17.037   1.593  58.301  1.00  0.00    -0.028 C 
ATOM      8  C   UNL     1      17.786  -0.400  57.077  1.00  0.00     0.039 C 
ATOM      9  C   UNL     1      16.689   0.474  57.629  1.00  0.00    -0.080 C 
ATOM     10  C   UNL     1      15.248   0.081  57.413  1.00  0.00     0.039 C 
ENDBRANCH   6   7
ENDBRANCH   5   6
ENDBRANCH   3   5
ENDBRANCH   1   2
BRANCH   1  11
ATOM     11  C   UNL     1      14.292  -1.462  60.858  1.00  0.00     0.034 C 
BRANCH  11  12
ATOM     12  C   UNL     1      15.606  -2.196  61.031  1.00  0.00    -0.077 C 
ATOM     13  C   UNL     1      16.049  -2.465  62.280  1.00  0.00    -0.028 C 
ATOM     14  C   UNL     1      16.396  -2.584  59.802  1.00  0.00     0.039 C 
BRANCH  13  15
ATOM     15  C   UNL     1      17.317  -3.223  62.596  1.00  0.00     0.035 C 
BRANCH  15  16
ATOM     16  C   UNL     1      18.462  -2.276  62.984  1.00  0.00     0.079 C 
BRANCH  16  17
ATOM     17  C   UNL     1      19.536  -2.239  61.929  1.00  0.00     0.130 C 
ATOM     18  O   UNL     1      20.386  -3.115  61.895  1.00  0.00    -0.300 OA
ATOM     19  C   UNL     1      19.577  -1.123  60.928  1.00  0.00     0.087 C 
ENDBRANCH  16  17
ENDBRANCH  15  16
ENDBRANCH  13  15
ENDBRANCH  11  12
ENDBRANCH   1  11
TORSDOF 9
ENDMDL
MODEL 2
REMARK VINA RESULT:    -4.343      1.742      4.356
REMARK INTER + INTRA:          -9.269
REMARK INTER:                  -6.531
REMARK INTRA:                  -2.738
REMARK UNBOUND:                -2.641
REMARK SMILES CC(=O)CCC=C(C)CCC=C(C)CCC=C(C)C
REMARK SMILES IDX 10 1 11 2 12 3 13 4 14 5 15 6 16 7 18 8 17 9 19 10 9 11 7 12
REMARK SMILES IDX 6 13 8 14 5 15 4 16 2 17 3 18 1 19
REMARK H PARENT
REMARK Flexibility Score: inf
ROOT
ATOM      1  C   UNL     1      15.939   0.080  56.980  1.00  0.00     0.032 C 
ENDROOT
BRANCH   1   2
ATOM      2  C   UNL     1      15.229   0.028  58.311  1.00  0.00    -0.028 C 
ATOM      3  C   UNL     1      15.504  -0.858  59.296  1.00  0.00    -0.077 C 
ATOM      4  C   UNL     1      16.621  -1.868  59.173  1.00  0.00     0.039 C 
BRANCH   3   5
ATOM      5  C   UNL     1      14.706  -0.807  60.581  1.00  0.00     0.034 C 
BRANCH   5   6
ATOM      6  C   UNL     1      14.426   0.635  61.021  1.00  0.00     0.032 C 
BRANCH   6   7
ATOM      7  C   UNL     1      15.573   1.199  61.827  1.00  0.00    -0.028 C 
ATOM      8  C   UNL     1      17.241   2.851  62.550  1.00  0.00     0.039 C 
ATOM      9  C   UNL     1      16.150   2.402  61.613  1.00  0.00    -0.080 C 
ATOM     10  C   UNL     1      15.732   3.302  60.475  1.00  0.00     0.039 C 
ENDBRANCH   6   7
ENDBRANCH   5   6
ENDBRANCH   3   5
ENDBRANCH   1   2
BRANCH   1  11
ATOM     11  C   UNL     1      16.920   1.258  56.903  1.00  0.00     0.034 C 
BRANCH  11  12
ATOM     12  C   UNL     1      18.207   0.970  57.650  1.00  0.00    -0.077 C 
ATOM     13  C   UNL     1      18.486   1.670  58.772  1.00  0.00    -0.028 C 
ATOM     14  C   UNL     1      19.153  -0.074  57.103  1.00  0.00     0.039 C 
BRANCH  13  15
ATOM     15  C   UNL     1      19.709   1.459  59.634  1.00  0.00     0.035 C 
BRANCH  15  16
ATOM     16  C   UNL     1      19.419   0.517  60.810  1.00  0.00     0.079 C 
BRANCH  16  17
ATOM     17  C   UNL     1      20.185  -0.775  60.692  1.00  0.00     0.130 C 
ATOM     18  O   UNL     1      19.683  -1.818  61.083  1.00  0.00    -0.300 OA
ATOM     19  C   UNL     1      21.566  -0.786  60.110  1.00  0.00     0.087 C 
ENDBRANCH  16  17
ENDBRANCH  15  16
ENDBRANCH  13  15
ENDBRANCH  11  12
ENDBRANCH   1  11
TORSDOF 9
ENDMDL
MODEL 3
REMARK VINA RESULT:    -4.273      1.705      5.156
REMARK INTER + INTRA:          -9.162
REMARK INTER:                  -7.150
REMARK INTRA:                  -2.012
REMARK UNBOUND:                -2.641
REMARK SMILES CC(=O)CCC=C(C)CCC=C(C)CCC=C(C)C
REMARK SMILES IDX 10 1 11 2 12 3 13 4 14 5 15 6 16 7 18 8 17 9 19 10 9 11 7 12
REMARK SMILES IDX 6 13 8 14 5 15 4 16 2 17 3 18 1 19
REMARK H PARENT
REMARK Flexibility Score: inf
ROOT
ATOM      1  C   UNL     1      14.021  -1.798  61.542  1.00  0.00     0.032 C 
ENDROOT
BRANCH   1   2
ATOM      2  C   UNL     1      15.204  -2.371  62.284  1.00  0.00    -0.028 C 
ATOM      3  C   UNL     1      16.230  -3.033  61.702  1.00  0.00    -0.077 C 
ATOM      4  C   UNL     1      16.319  -3.213  60.205  1.00  0.00     0.039 C 
BRANCH   3   5
ATOM      5  C   UNL     1      17.351  -3.568  62.568  1.00  0.00     0.034 C 
BRANCH   5   6
ATOM      6  C   UNL     1      18.269  -2.446  63.070  1.00  0.00     0.032 C 
BRANCH   6   7
ATOM      7  C   UNL     1      19.446  -2.241  62.146  1.00  0.00    -0.028 C 
ATOM      8  C   UNL     1      20.847  -1.113  60.473  1.00  0.00     0.039 C 
ATOM      9  C   UNL     1      19.578  -1.213  61.278  1.00  0.00    -0.080 C 
ATOM     10  C   UNL     1      18.500  -0.171  61.099  1.00  0.00     0.039 C 
ENDBRANCH   6   7
ENDBRANCH   5   6
ENDBRANCH   3   5
ENDBRANCH   1   2
BRANCH   1  11
ATOM     11  C   UNL     1      13.865  -0.292  61.795  1.00  0.00     0.034 C 
BRANCH  11  12
ATOM     12  C   UNL     1      14.726   0.530  60.856  1.00  0.00    -0.077 C 
ATOM     13  C   UNL     1      14.930   0.087  59.595  1.00  0.00    -0.028 C 
ATOM     14  C   UNL     1      15.351   1.807  61.365  1.00  0.00     0.039 C 
BRANCH  13  15
ATOM     15  C   UNL     1      15.730   0.823  58.546  1.00  0.00     0.035 C 
BRANCH  15  16
ATOM     16  C   UNL     1      15.505   0.237  57.145  1.00  0.00     0.079 C 
BRANCH  16  17
ATOM     17  C   UNL     1      16.727  -0.482  56.638  1.00  0.00     0.130 C 
ATOM     18  O   UNL     1      17.132  -1.478  57.219  1.00  0.00    -0.300 OA
ATOM     19  C   UNL     1      17.460   0.026  55.433  1.00  0.00     0.087 C 
ENDBRANCH  16  17
ENDBRANCH  15  16
ENDBRANCH  13  15
ENDBRANCH  11  12
ENDBRANCH   1  11
TORSDOF 9
ENDMDL
MODEL 4
REMARK VINA RESULT:    -4.222      9.883     12.905
REMARK INTER + INTRA:          -9.083
REMARK INTER:                  -6.916
REMARK INTRA:                  -2.167
REMARK UNBOUND:                -2.641
REMARK SMILES CC(=O)CCC=C(C)CCC=C(C)CCC=C(C)C
REMARK SMILES IDX 10 1 11 2 12 3 13 4 14 5 15 6 16 7 18 8 17 9 19 10 9 11 7 12
REMARK SMILES IDX 6 13 8 14 5 15 4 16 2 17 3 18 1 19
REMARK H PARENT
REMARK Flexibility Score: inf
ROOT
ATOM      1  C   UNL     1      24.947  -3.048  54.453  1.00  0.00     0.032 C 
ENDROOT
BRANCH   1   2
ATOM      2  C   UNL     1      25.057  -4.230  55.385  1.00  0.00    -0.028 C 
ATOM      3  C   UNL     1      26.189  -4.600  56.028  1.00  0.00    -0.077 C 
ATOM      4  C   UNL     1      27.468  -3.805  55.916  1.00  0.00     0.039 C 
BRANCH   3   5
ATOM      5  C   UNL     1      26.164  -5.817  56.928  1.00  0.00     0.034 C 
BRANCH   5   6
ATOM      6  C   UNL     1      26.216  -5.430  58.412  1.00  0.00     0.032 C 
BRANCH   6   7
ATOM      7  C   UNL     1      24.888  -4.892  58.890  1.00  0.00    -0.028 C 
ATOM      8  C   UNL     1      23.235  -3.208  59.571  1.00  0.00     0.039 C 
ATOM      9  C   UNL     1      24.634  -3.595  59.169  1.00  0.00    -0.080 C 
ATOM     10  C   UNL     1      25.703  -2.532  59.085  1.00  0.00     0.039 C 
ENDBRANCH   6   7
ENDBRANCH   5   6
ENDBRANCH   3   5
ENDBRANCH   1   2
BRANCH   1  11
ATOM     11  C   UNL     1      24.553  -3.478  53.033  1.00  0.00     0.034 C 
BRANCH  11  12
ATOM     12  C   UNL     1      25.767  -3.684  52.148  1.00  0.00    -0.077 C 
ATOM     13  C   UNL     1      26.857  -2.907  52.338  1.00  0.00    -0.028 C 
ATOM     14  C   UNL     1      25.712  -4.734  51.063  1.00  0.00     0.039 C 
BRANCH  13  15
ATOM     15  C   UNL     1      28.144  -3.031  51.557  1.00  0.00     0.035 C 
BRANCH  15  16
ATOM     16  C   UNL     1      29.220  -3.784  52.352  1.00  0.00     0.079 C 
BRANCH  16  17
ATOM     17  C   UNL     1      29.113  -5.274  52.163  1.00  0.00     0.130 C 
ATOM     18  O   UNL     1      29.384  -5.771  51.081  1.00  0.00    -0.300 OA
ATOM     19  C   UNL     1      28.659  -6.150  53.292  1.00  0.00     0.087 C 
ENDBRANCH  16  17
ENDBRANCH  15  16
ENDBRANCH  13  15
ENDBRANCH  11  12
ENDBRANCH   1  11
TORSDOF 9
ENDMDL
MODEL 5
REMARK VINA RESULT:    -4.140      1.551      3.830
REMARK INTER + INTRA:          -8.959
REMARK INTER:                  -6.376
REMARK INTRA:                  -2.584
REMARK UNBOUND:                -2.641
REMARK SMILES CC(=O)CCC=C(C)CCC=C(C)CCC=C(C)C
REMARK SMILES IDX 10 1 11 2 12 3 13 4 14 5 15 6 16 7 18 8 17 9 19 10 9 11 7 12
REMARK SMILES IDX 6 13 8 14 5 15 4 16 2 17 3 18 1 19
REMARK H PARENT
REMARK Flexibility Score: inf
ROOT
ATOM      1  C   UNL     1      15.080   0.828  57.865  1.00  0.00     0.032 C 
ENDROOT
BRANCH   1   2
ATOM      2  C   UNL     1      16.489   1.198  57.470  1.00  0.00    -0.028 C 
ATOM      3  C   UNL     1      17.440   0.314  57.091  1.00  0.00    -0.077 C 
ATOM      4  C   UNL     1      17.153  -1.164  56.967  1.00  0.00     0.039 C 
BRANCH   3   5
ATOM      5  C   UNL     1      18.820   0.821  56.731  1.00  0.00     0.034 C 
BRANCH   5   6
ATOM      6  C   UNL     1      19.556   1.389  57.951  1.00  0.00     0.032 C 
BRANCH   6   7
ATOM      7  C   UNL     1      20.131   0.287  58.811  1.00  0.00    -0.028 C 
ATOM      8  C   UNL     1      20.340  -1.195  60.758  1.00  0.00     0.039 C 
ATOM      9  C   UNL     1      19.707  -0.021  60.057  1.00  0.00    -0.080 C 
ATOM     10  C   UNL     1      18.626   0.767  60.756  1.00  0.00     0.039 C 
ENDBRANCH   6   7
ENDBRANCH   5   6
ENDBRANCH   3   5
ENDBRANCH   1   2
BRANCH   1  11
ATOM     11  C   UNL     1      14.724   1.353  59.263  1.00  0.00     0.034 C 
BRANCH  11  12
ATOM     12  C   UNL     1      14.971   0.312  60.337  1.00  0.00    -0.077 C 
ATOM     13  C   UNL     1      15.066  -0.989  59.982  1.00  0.00    -0.028 C 
ATOM     14  C   UNL     1      15.079   0.758  61.777  1.00  0.00     0.039 C 
BRANCH  13  15
ATOM     15  C   UNL     1      15.348  -2.121  60.940  1.00  0.00     0.035 C 
BRANCH  15  16
ATOM     16  C   UNL     1      16.817  -2.562  60.882  1.00  0.00     0.079 C 
BRANCH  16  17
ATOM     17  C   UNL     1      17.303  -3.061  62.218  1.00  0.00     0.130 C 
ATOM     18  O   UNL     1      17.317  -4.260  62.450  1.00  0.00    -0.300 OA
ATOM     19  C   UNL     1      17.756  -2.093  63.270  1.00  0.00     0.087 C 
ENDBRANCH  16  17
ENDBRANCH  15  16
ENDBRANCH  13  15
ENDBRANCH  11  12
ENDBRANCH   1  11
TORSDOF 9
ENDMDL
MODEL 6
REMARK VINA RESULT:    -4.126      3.529      6.729
REMARK INTER + INTRA:          -8.937
REMARK INTER:                  -6.546
REMARK INTRA:                  -2.391
REMARK UNBOUND:                -2.641
REMARK SMILES CC(=O)CCC=C(C)CCC=C(C)CCC=C(C)C
REMARK SMILES IDX 10 1 11 2 12 3 13 4 14 5 15 6 16 7 18 8 17 9 19 10 9 11 7 12
REMARK SMILES IDX 6 13 8 14 5 15 4 16 2 17 3 18 1 19
REMARK H PARENT
REMARK Flexibility Score: inf
ROOT
ATOM      1  C   UNL     1      16.459  -0.221  56.186  1.00  0.00     0.032 C 
ENDROOT
BRANCH   1   2
ATOM      2  C   UNL     1      16.271  -0.639  57.624  1.00  0.00    -0.028 C 
ATOM      3  C   UNL     1      15.466  -0.008  58.510  1.00  0.00    -0.077 C 
ATOM      4  C   UNL     1      14.609   1.170  58.113  1.00  0.00     0.039 C 
BRANCH   3   5
ATOM      5  C   UNL     1      15.379  -0.527  59.930  1.00  0.00     0.034 C 
BRANCH   5   6
ATOM      6  C   UNL     1      16.719  -0.399  60.666  1.00  0.00     0.032 C 
BRANCH   6   7
ATOM      7  C   UNL     1      17.145   1.045  60.792  1.00  0.00    -0.028 C 
ATOM      8  C   UNL     1      18.494   3.056  60.383  1.00  0.00     0.039 C 
ATOM      9  C   UNL     1      18.245   1.580  60.217  1.00  0.00    -0.080 C 
ATOM     10  C   UNL     1      19.219   0.747  59.418  1.00  0.00     0.039 C 
ENDBRANCH   6   7
ENDBRANCH   5   6
ENDBRANCH   3   5
ENDBRANCH   1   2
BRANCH   1  11
ATOM     11  C   UNL     1      17.847   0.389  55.946  1.00  0.00     0.034 C 
BRANCH  11  12
ATOM     12  C   UNL     1      17.774   1.885  55.712  1.00  0.00    -0.077 C 
ATOM     13  C   UNL     1      17.375   2.689  56.723  1.00  0.00    -0.028 C 
ATOM     14  C   UNL     1      18.126   2.430  54.348  1.00  0.00     0.039 C 
BRANCH  13  15
ATOM     15  C   UNL     1      17.295   4.195  56.641  1.00  0.00     0.035 C 
BRANCH  15  16
ATOM     16  C   UNL     1      15.899   4.667  56.211  1.00  0.00     0.079 C 
BRANCH  16  17
ATOM     17  C   UNL     1      15.088   5.151  57.385  1.00  0.00     0.130 C 
ATOM     18  O   UNL     1      13.984   5.642  57.201  1.00  0.00    -0.300 OA
ATOM     19  C   UNL     1      15.634   5.047  58.777  1.00  0.00     0.087 C 
ENDBRANCH  16  17
ENDBRANCH  15  16
ENDBRANCH  13  15
ENDBRANCH  11  12
ENDBRANCH   1  11
TORSDOF 9
ENDMDL
MODEL 7
REMARK VINA RESULT:    -4.121      1.673      2.642
REMARK INTER + INTRA:          -8.931
REMARK INTER:                  -7.001
REMARK INTRA:                  -1.930
REMARK UNBOUND:                -2.641
REMARK SMILES CC(=O)CCC=C(C)CCC=C(C)CCC=C(C)C
REMARK SMILES IDX 10 1 11 2 12 3 13 4 14 5 15 6 16 7 18 8 17 9 19 10 9 11 7 12
REMARK SMILES IDX 6 13 8 14 5 15 4 16 2 17 3 18 1 19
REMARK H PARENT
REMARK Flexibility Score: inf
ROOT
ATOM      1  C   UNL     1      15.626   0.789  61.750  1.00  0.00     0.032 C 
ENDROOT
BRANCH   1   2
ATOM      2  C   UNL     1      16.409   1.557  60.713  1.00  0.00    -0.028 C 
ATOM      3  C   UNL     1      17.557   1.127  60.140  1.00  0.00    -0.077 C 
ATOM      4  C   UNL     1      18.146  -0.229  60.451  1.00  0.00     0.039 C 
BRANCH   3   5
ATOM      5  C   UNL     1      18.249   2.006  59.120  1.00  0.00     0.034 C 
BRANCH   5   6
ATOM      6  C   UNL     1      17.350   2.289  57.909  1.00  0.00     0.032 C 
BRANCH   6   7
ATOM      7  C   UNL     1      17.460   1.195  56.872  1.00  0.00    -0.028 C 
ATOM      8  C   UNL     1      16.752  -0.735  55.528  1.00  0.00     0.039 C 
ATOM      9  C   UNL     1      16.524   0.247  56.648  1.00  0.00    -0.080 C 
ATOM     10  C   UNL     1      15.266   0.148  57.477  1.00  0.00     0.039 C 
ENDBRANCH   6   7
ENDBRANCH   5   6
ENDBRANCH   3   5
ENDBRANCH   1   2
BRANCH   1  11
ATOM     11  C   UNL     1      14.276   0.306  61.202  1.00  0.00     0.034 C 
BRANCH  11  12
ATOM     12  C   UNL     1      14.120  -1.196  61.327  1.00  0.00    -0.077 C 
ATOM     13  C   UNL     1      14.987  -2.003  60.675  1.00  0.00    -0.028 C 
ATOM     14  C   UNL     1      12.985  -1.748  62.158  1.00  0.00     0.039 C 
BRANCH  13  15
ATOM     15  C   UNL     1      14.972  -3.512  60.743  1.00  0.00     0.035 C 
BRANCH  15  16
ATOM     16  C   UNL     1      16.363  -4.106  60.481  1.00  0.00     0.079 C 
BRANCH  16  17
ATOM     17  C   UNL     1      16.975  -4.668  61.737  1.00  0.00     0.130 C 
ATOM     18  O   UNL     1      17.962  -5.384  61.666  1.00  0.00    -0.300 OA
ATOM     19  C   UNL     1      16.371  -4.364  63.076  1.00  0.00     0.087 C 
ENDBRANCH  16  17
ENDBRANCH  15  16
ENDBRANCH  13  15
ENDBRANCH  11  12
ENDBRANCH   1  11
TORSDOF 9
ENDMDL
MODEL 8
REMARK VINA RESULT:    -4.080      2.818      4.973
REMARK INTER + INTRA:          -8.867
REMARK INTER:                  -7.080
REMARK INTRA:                  -1.787
REMARK UNBOUND:                -2.641
REMARK SMILES CC(=O)CCC=C(C)CCC=C(C)CCC=C(C)C
REMARK SMILES IDX 10 1 11 2 12 3 13 4 14 5 15 6 16 7 18 8 17 9 19 10 9 11 7 12
REMARK SMILES IDX 6 13 8 14 5 15 4 16 2 17 3 18 1 19
REMARK H PARENT
REMARK Flexibility Score: inf
ROOT
ATOM      1  C   UNL     1      16.045  -1.619  60.016  1.00  0.00     0.032 C 
ENDROOT
BRANCH   1   2
ATOM      2  C   UNL     1      16.736  -1.515  58.678  1.00  0.00    -0.028 C 
ATOM      3  C   UNL     1      16.303  -0.758  57.644  1.00  0.00    -0.077 C 
ATOM      4  C   UNL     1      15.082   0.125  57.756  1.00  0.00     0.039 C 
BRANCH   3   5
ATOM      5  C   UNL     1      17.088  -0.754  56.350  1.00  0.00     0.034 C 
BRANCH   5   6
ATOM      6  C   UNL     1      18.184   0.319  56.351  1.00  0.00     0.032 C 
BRANCH   6   7
ATOM      7  C   UNL     1      17.710   1.594  55.693  1.00  0.00    -0.028 C 
ATOM      8  C   UNL     1      17.014   3.945  55.540  1.00  0.00     0.039 C 
ATOM      9  C   UNL     1      17.408   2.736  56.350  1.00  0.00    -0.080 C 
ATOM     10  C   UNL     1      17.459   2.835  57.855  1.00  0.00     0.039 C 
ENDBRANCH   6   7
ENDBRANCH   5   6
ENDBRANCH   3   5
ENDBRANCH   1   2
BRANCH   1  11
ATOM     11  C   UNL     1      16.871  -0.972  61.136  1.00  0.00     0.034 C 
BRANCH  11  12
ATOM     12  C   UNL     1      16.482   0.476  61.360  1.00  0.00    -0.077 C 
ATOM     13  C   UNL     1      17.454   1.413  61.435  1.00  0.00    -0.028 C 
ATOM     14  C   UNL     1      15.021   0.826  61.518  1.00  0.00     0.039 C 
BRANCH  13  15
ATOM     15  C   UNL     1      17.207   2.892  61.616  1.00  0.00     0.035 C 
BRANCH  15  16
ATOM     16  C   UNL     1      17.508   3.347  63.050  1.00  0.00     0.079 C 
BRANCH  16  17
ATOM     17  C   UNL     1      16.336   4.068  63.664  1.00  0.00     0.130 C 
ATOM     18  O   UNL     1      15.386   3.431  64.093  1.00  0.00    -0.300 OA
ATOM     19  C   UNL     1      16.322   5.566  63.737  1.00  0.00     0.087 C 
ENDBRANCH  16  17
ENDBRANCH  15  16
ENDBRANCH  13  15
ENDBRANCH  11  12
ENDBRANCH   1  11
TORSDOF 9
ENDMDL
MODEL 9
REMARK VINA RESULT:    -4.073     10.892     13.715
REMARK INTER + INTRA:          -8.857
REMARK INTER:                  -6.126
REMARK INTRA:                  -2.730
REMARK UNBOUND:                -2.641
REMARK SMILES CC(=O)CCC=C(C)CCC=C(C)CCC=C(C)C
REMARK SMILES IDX 10 1 11 2 12 3 13 4 14 5 15 6 16 7 18 8 17 9 19 10 9 11 7 12
REMARK SMILES IDX 6 13 8 14 5 15 4 16 2 17 3 18 1 19
REMARK H PARENT
REMARK Flexibility Score: inf
ROOT
ATOM      1  C   UNL     1      25.771  -4.171  51.583  1.00  0.00     0.032 C 
ENDROOT
BRANCH   1   2
ATOM      2  C   UNL     1      25.304  -3.676  52.930  1.00  0.00    -0.028 C 
ATOM      3  C   UNL     1      25.441  -2.405  53.373  1.00  0.00    -0.077 C 
ATOM      4  C   UNL     1      26.039  -1.318  52.511  1.00  0.00     0.039 C 
BRANCH   3   5
ATOM      5  C   UNL     1      24.937  -2.044  54.754  1.00  0.00     0.034 C 
BRANCH   5   6
ATOM      6  C   UNL     1      24.833  -3.276  55.662  1.00  0.00     0.032 C 
BRANCH   6   7
ATOM      7  C   UNL     1      26.131  -3.536  56.391  1.00  0.00    -0.028 C 
ATOM      8  C   UNL     1      28.086  -4.809  57.157  1.00  0.00     0.039 C 
ATOM      9  C   UNL     1      26.761  -4.730  56.445  1.00  0.00    -0.080 C 
ATOM     10  C   UNL     1      26.181  -5.973  55.815  1.00  0.00     0.039 C 
ENDBRANCH   6   7
ENDBRANCH   5   6
ENDBRANCH   3   5
ENDBRANCH   1   2
BRANCH   1  11
ATOM     11  C   UNL     1      26.873  -5.231  51.717  1.00  0.00     0.034 C 
BRANCH  11  12
ATOM     12  C   UNL     1      28.181  -4.630  52.194  1.00  0.00    -0.077 C 
ATOM     13  C   UNL     1      28.740  -3.626  51.481  1.00  0.00    -0.028 C 
ATOM     14  C   UNL     1      28.832  -5.187  53.437  1.00  0.00     0.039 C 
BRANCH  13  15
ATOM     15  C   UNL     1      30.015  -2.912  51.861  1.00  0.00     0.035 C 
BRANCH  15  16
ATOM     16  C   UNL     1      29.780  -1.412  52.087  1.00  0.00     0.079 C 
BRANCH  16  17
ATOM     17  C   UNL     1      29.926  -1.037  53.539  1.00  0.00     0.130 C 
ATOM     18  O   UNL     1      30.749  -0.197  53.871  1.00  0.00    -0.300 OA
ATOM     19  C   UNL     1      29.076  -1.700  54.582  1.00  0.00     0.087 C 
ENDBRANCH  16  17
ENDBRANCH  15  16
ENDBRANCH  13  15
ENDBRANCH  11  12
ENDBRANCH   1  11
TORSDOF 9
ENDMDL
