MODEL 1
REMARK VINA RESULT:    -3.987      0.000      0.000
REMARK INTER + INTRA:          -6.822
REMARK INTER:                  -6.318
REMARK INTRA:                  -0.504
REMARK UNBOUND:                -0.504
REMARK SMILES CCCCCCCCCCCC(=O)[O-]
REMARK SMILES IDX 7 1 8 2 9 3 10 4 11 5 12 6 13 7 14 8 6 9 5 10 4 11 3 12 2 13
REMARK SMILES IDX 1 14
REMARK H PARENT
REMARK Flexibility Score: inf
ROOT
ATOM      1  C   UNL     1     121.293  72.801   2.894  1.00  0.00     0.000 C 
ENDROOT
BRANCH   1   2
ATOM      2  C   UNL     1     120.309  72.499   4.036  1.00  0.00     0.000 C 
BRANCH   2   3
ATOM      3  C   UNL     1     120.645  71.192   4.775  1.00  0.00     0.000 C 
BRANCH   3   4
ATOM      4  C   UNL     1     120.117  71.173   6.222  1.00  0.00     0.006 C 
BRANCH   4   5
ATOM      5  C   UNL     1     119.918  72.565   6.844  1.00  0.00     0.053 C 
BRANCH   5   6
ATOM      6  C   UNL     1     120.412  72.626   8.257  1.00  0.00     0.041 C 
ATOM      7  O   UNL     1     120.772  73.725   8.755  1.00  0.00    -0.550 OA
ATOM      8  O   UNL     1     120.442  71.474   9.033  1.00  0.00    -0.550 OA
ENDBRANCH   5   6
ENDBRANCH   4   5
ENDBRANCH   3   4
ENDBRANCH   2   3
ENDBRANCH   1   2
BRANCH   1   9
ATOM      9  C   UNL     1     120.585  73.193   1.588  1.00  0.00     0.000 C 
BRANCH   9  10
ATOM     10  C   UNL     1     119.885  71.982   0.958  1.00  0.00    -0.000 C 
BRANCH  10  11
ATOM     11  C   UNL     1     120.877  70.838   0.713  1.00  0.00    -0.000 C 
BRANCH  11  12
ATOM     12  C   UNL     1     120.154  69.586   0.194  1.00  0.00    -0.000 C 
BRANCH  12  13
ATOM     13  C   UNL     1     121.121  68.547  -0.392  1.00  0.00    -0.003 C 
ATOM     14  C   UNL     1     120.527  67.140  -0.431  1.00  0.00     0.004 C 
ENDBRANCH  12  13
ENDBRANCH  11  12
ENDBRANCH  10  11
ENDBRANCH   9  10
ENDBRANCH   1   9
TORSDOF 10
ENDMDL
MODEL 2
REMARK VINA RESULT:    -3.731      3.973      7.473
REMARK INTER + INTRA:          -6.417
REMARK INTER:                  -5.919
REMARK INTRA:                  -0.497
REMARK UNBOUND:                -0.504
REMARK SMILES CCCCCCCCCCCC(=O)[O-]
REMARK SMILES IDX 7 1 8 2 9 3 10 4 11 5 12 6 13 7 14 8 6 9 5 10 4 11 3 12 2 13
REMARK SMILES IDX 1 14
REMARK H PARENT
REMARK Flexibility Score: inf
ROOT
ATOM      1  C   UNL     1     121.274  71.967   2.820  1.00  0.00     0.000 C 
ENDROOT
BRANCH   1   2
ATOM      2  C   UNL     1     120.569  72.480   1.555  1.00  0.00     0.000 C 
BRANCH   2   3
ATOM      3  C   UNL     1     119.998  71.339   0.694  1.00  0.00     0.000 C 
BRANCH   3   4
ATOM      4  C   UNL     1     121.065  70.303   0.294  1.00  0.00     0.006 C 
BRANCH   4   5
ATOM      5  C   UNL     1     120.681  69.428  -0.911  1.00  0.00     0.053 C 
BRANCH   5   6
ATOM      6  C   UNL     1     120.475  67.995  -0.522  1.00  0.00     0.041 C 
ATOM      7  O   UNL     1     120.341  67.681   0.690  1.00  0.00    -0.550 OA
ATOM      8  O   UNL     1     120.399  67.013  -1.501  1.00  0.00    -0.550 OA
ENDBRANCH   5   6
ENDBRANCH   4   5
ENDBRANCH   3   4
ENDBRANCH   2   3
ENDBRANCH   1   2
BRANCH   1   9
ATOM      9  C   UNL     1     120.483  72.264   4.104  1.00  0.00     0.000 C 
BRANCH   9  10
ATOM     10  C   UNL     1     120.263  70.984   4.921  1.00  0.00    -0.000 C 
BRANCH  10  11
ATOM     11  C   UNL     1     120.288  71.280   6.426  1.00  0.00    -0.000 C 
BRANCH  11  12
ATOM     12  C   UNL     1     119.962  72.756   6.701  1.00  0.00    -0.000 C 
BRANCH  12  13
ATOM     13  C   UNL     1     119.960  73.089   8.200  1.00  0.00    -0.003 C 
ATOM     14  C   UNL     1     120.731  72.068   9.035  1.00  0.00     0.004 C 
ENDBRANCH  12  13
ENDBRANCH  11  12
ENDBRANCH  10  11
ENDBRANCH   9  10
ENDBRANCH   1   9
TORSDOF 10
ENDMDL
MODEL 3
REMARK VINA RESULT:    -3.683      3.824      7.327
REMARK INTER + INTRA:          -6.341
REMARK INTER:                  -5.932
REMARK INTRA:                  -0.409
REMARK UNBOUND:                -0.504
REMARK SMILES CCCCCCCCCCCC(=O)[O-]
REMARK SMILES IDX 7 1 8 2 9 3 10 4 11 5 12 6 13 7 14 8 6 9 5 10 4 11 3 12 2 13
REMARK SMILES IDX 1 14
REMARK H PARENT
REMARK Flexibility Score: inf
ROOT
ATOM      1  C   UNL     1     121.275  72.811   2.840  1.00  0.00     0.000 C 
ENDROOT
BRANCH   1   2
ATOM      2  C   UNL     1     120.835  72.702   1.371  1.00  0.00     0.000 C 
BRANCH   2   3
ATOM      3  C   UNL     1     120.148  71.361   1.058  1.00  0.00     0.000 C 
BRANCH   3   4
ATOM      4  C   UNL     1     121.060  70.392   0.282  1.00  0.00     0.006 C 
BRANCH   4   5
ATOM      5  C   UNL     1     120.311  69.418  -0.642  1.00  0.00     0.053 C 
BRANCH   5   6
ATOM      6  C   UNL     1     120.389  68.005  -0.150  1.00  0.00     0.041 C 
ATOM      7  O   UNL     1     120.751  67.082  -0.928  1.00  0.00    -0.550 OA
ATOM      8  O   UNL     1     120.093  67.712   1.175  1.00  0.00    -0.550 OA
ENDBRANCH   5   6
ENDBRANCH   4   5
ENDBRANCH   3   4
ENDBRANCH   2   3
ENDBRANCH   1   2
BRANCH   1   9
ATOM      9  C   UNL     1     120.809  71.619   3.690  1.00  0.00     0.000 C 
BRANCH   9  10
ATOM     10  C   UNL     1     119.875  72.081   4.817  1.00  0.00    -0.000 C 
BRANCH  10  11
ATOM     11  C   UNL     1     119.937  71.122   6.012  1.00  0.00    -0.000 C 
BRANCH  11  12
ATOM     12  C   UNL     1     120.751  71.731   7.163  1.00  0.00    -0.000 C 
BRANCH  12  13
ATOM     13  C   UNL     1     120.207  71.336   8.544  1.00  0.00    -0.003 C 
ATOM     14  C   UNL     1     120.266  72.481   9.554  1.00  0.00     0.004 C 
ENDBRANCH  12  13
ENDBRANCH  11  12
ENDBRANCH  10  11
ENDBRANCH   9  10
ENDBRANCH   1   9
TORSDOF 10
ENDMDL
MODEL 4
REMARK VINA RESULT:    -3.618      2.903      4.334
REMARK INTER + INTRA:          -6.238
REMARK INTER:                  -5.783
REMARK INTRA:                  -0.454
REMARK UNBOUND:                -0.504
REMARK SMILES CCCCCCCCCCCC(=O)[O-]
REMARK SMILES IDX 7 1 8 2 9 3 10 4 11 5 12 6 13 7 14 8 6 9 5 10 4 11 3 12 2 13
REMARK SMILES IDX 1 14
REMARK H PARENT
REMARK Flexibility Score: inf
ROOT
ATOM      1  C   UNL     1     120.020  69.180   0.362  1.00  0.00     0.000 C 
ENDROOT
BRANCH   1   2
ATOM      2  C   UNL     1     120.605  70.594   0.500  1.00  0.00     0.000 C 
BRANCH   2   3
ATOM      3  C   UNL     1     119.950  71.395   1.639  1.00  0.00     0.000 C 
BRANCH   3   4
ATOM      4  C   UNL     1     120.983  72.046   2.579  1.00  0.00     0.006 C 
BRANCH   4   5
ATOM      5  C   UNL     1     120.390  72.613   3.879  1.00  0.00     0.053 C 
BRANCH   5   6
ATOM      6  C   UNL     1     120.515  71.651   5.021  1.00  0.00     0.041 C 
ATOM      7  O   UNL     1     121.122  70.559   4.864  1.00  0.00    -0.550 OA
ATOM      8  O   UNL     1     119.990  71.975   6.265  1.00  0.00    -0.550 OA
ENDBRANCH   5   6
ENDBRANCH   4   5
ENDBRANCH   3   4
ENDBRANCH   2   3
ENDBRANCH   1   2
BRANCH   1   9
ATOM      9  C   UNL     1     120.398  68.506  -0.966  1.00  0.00     0.000 C 
BRANCH   9  10
ATOM     10  C   UNL     1     120.856  69.546  -1.997  1.00  0.00    -0.000 C 
BRANCH  10  11
ATOM     11  C   UNL     1     119.875  69.625  -3.174  1.00  0.00    -0.000 C 
BRANCH  11  12
ATOM     12  C   UNL     1     120.005  68.394  -4.082  1.00  0.00    -0.000 C 
BRANCH  12  13
ATOM     13  C   UNL     1     120.272  68.767  -5.547  1.00  0.00    -0.003 C 
ATOM     14  C   UNL     1     120.580  70.253  -5.733  1.00  0.00     0.004 C 
ENDBRANCH  12  13
ENDBRANCH  11  12
ENDBRANCH  10  11
ENDBRANCH   9  10
ENDBRANCH   1   9
TORSDOF 10
ENDMDL
MODEL 5
REMARK VINA RESULT:    -3.532      1.328      1.581
REMARK INTER + INTRA:          -6.101
REMARK INTER:                  -5.755
REMARK INTRA:                  -0.346
REMARK UNBOUND:                -0.504
REMARK SMILES CCCCCCCCCCCC(=O)[O-]
REMARK SMILES IDX 7 1 8 2 9 3 10 4 11 5 12 6 13 7 14 8 6 9 5 10 4 11 3 12 2 13
REMARK SMILES IDX 1 14
REMARK H PARENT
REMARK Flexibility Score: inf
ROOT
ATOM      1  C   UNL     1     121.425  72.047   2.703  1.00  0.00     0.000 C 
ENDROOT
BRANCH   1   2
ATOM      2  C   UNL     1     120.433  72.436   3.810  1.00  0.00     0.000 C 
BRANCH   2   3
ATOM      3  C   UNL     1     120.464  71.461   5.000  1.00  0.00     0.000 C 
BRANCH   3   4
ATOM      4  C   UNL     1     120.097  72.137   6.334  1.00  0.00     0.006 C 
BRANCH   4   5
ATOM      5  C   UNL     1     120.719  71.475   7.575  1.00  0.00     0.053 C 
BRANCH   5   6
ATOM      6  C   UNL     1     120.666  72.369   8.776  1.00  0.00     0.041 C 
ATOM      7  O   UNL     1     120.687  73.620   8.635  1.00  0.00    -0.550 OA
ATOM      8  O   UNL     1     120.560  71.821  10.048  1.00  0.00    -0.550 OA
ENDBRANCH   5   6
ENDBRANCH   4   5
ENDBRANCH   3   4
ENDBRANCH   2   3
ENDBRANCH   1   2
BRANCH   1   9
ATOM      9  C   UNL     1     120.726  71.609   1.406  1.00  0.00     0.000 C 
BRANCH   9  10
ATOM     10  C   UNL     1     119.876  70.353   1.638  1.00  0.00    -0.000 C 
BRANCH  10  11
ATOM     11  C   UNL     1     120.105  69.320   0.528  1.00  0.00    -0.000 C 
BRANCH  11  12
ATOM     12  C   UNL     1     120.336  70.009  -0.825  1.00  0.00    -0.000 C 
BRANCH  12  13
ATOM     13  C   UNL     1     120.194  69.043  -2.010  1.00  0.00    -0.003 C 
ATOM     14  C   UNL     1     119.877  69.759  -3.323  1.00  0.00     0.004 C 
ENDBRANCH  12  13
ENDBRANCH  11  12
ENDBRANCH  10  11
ENDBRANCH   9  10
ENDBRANCH   1   9
TORSDOF 10
ENDMDL
MODEL 6
REMARK VINA RESULT:    -3.496      4.306      6.288
REMARK INTER + INTRA:          -6.045
REMARK INTER:                  -5.711
REMARK INTRA:                  -0.334
REMARK UNBOUND:                -0.504
REMARK SMILES CCCCCCCCCCCC(=O)[O-]
REMARK SMILES IDX 7 1 8 2 9 3 10 4 11 5 12 6 13 7 14 8 6 9 5 10 4 11 3 12 2 13
REMARK SMILES IDX 1 14
REMARK H PARENT
REMARK Flexibility Score: inf
ROOT
ATOM      1  C   UNL     1     120.203  69.529  -2.655  1.00  0.00     0.000 C 
ENDROOT
BRANCH   1   2
ATOM      2  C   UNL     1     119.936  68.881  -1.287  1.00  0.00     0.000 C 
BRANCH   2   3
ATOM      3  C   UNL     1     120.743  69.539  -0.155  1.00  0.00     0.000 C 
BRANCH   3   4
ATOM      4  C   UNL     1     119.986  70.699   0.520  1.00  0.00     0.006 C 
BRANCH   4   5
ATOM      5  C   UNL     1     120.894  71.784   1.123  1.00  0.00     0.053 C 
BRANCH   5   6
ATOM      6  C   UNL     1     120.861  71.775   2.621  1.00  0.00     0.041 C 
ATOM      7  O   UNL     1     121.123  72.824   3.267  1.00  0.00    -0.550 OA
ATOM      8  O   UNL     1     120.509  70.617   3.303  1.00  0.00    -0.550 OA
ENDBRANCH   5   6
ENDBRANCH   4   5
ENDBRANCH   3   4
ENDBRANCH   2   3
ENDBRANCH   1   2
BRANCH   1   9
ATOM      9  C   UNL     1     119.947  68.569  -3.828  1.00  0.00     0.000 C 
BRANCH   9  10
ATOM     10  C   UNL     1     119.919  69.328  -5.161  1.00  0.00    -0.000 C 
BRANCH  10  11
ATOM     11  C   UNL     1     120.598  68.516  -6.271  1.00  0.00    -0.000 C 
BRANCH  11  12
ATOM     12  C   UNL     1     120.098  67.064  -6.274  1.00  0.00    -0.000 C 
BRANCH  12  13
ATOM     13  C   UNL     1     121.231  66.050  -6.059  1.00  0.00    -0.003 C 
ATOM     14  C   UNL     1     120.803  64.613  -6.351  1.00  0.00     0.004 C 
ENDBRANCH  12  13
ENDBRANCH  11  12
ENDBRANCH  10  11
ENDBRANCH   9  10
ENDBRANCH   1   9
TORSDOF 10
ENDMDL
MODEL 7
REMARK VINA RESULT:    -3.481      6.008      9.065
REMARK INTER + INTRA:          -6.021
REMARK INTER:                  -5.579
REMARK INTRA:                  -0.442
REMARK UNBOUND:                -0.504
REMARK SMILES CCCCCCCCCCCC(=O)[O-]
REMARK SMILES IDX 7 1 8 2 9 3 10 4 11 5 12 6 13 7 14 8 6 9 5 10 4 11 3 12 2 13
REMARK SMILES IDX 1 14
REMARK H PARENT
REMARK Flexibility Score: inf
ROOT
ATOM      1  C   UNL     1     121.087  69.319  -0.828  1.00  0.00     0.000 C 
ENDROOT
BRANCH   1   2
ATOM      2  C   UNL     1     120.606  67.976  -0.256  1.00  0.00     0.000 C 
BRANCH   2   3
ATOM      3  C   UNL     1     120.246  66.962  -1.355  1.00  0.00     0.000 C 
BRANCH   3   4
ATOM      4  C   UNL     1     119.875  67.637  -2.690  1.00  0.00     0.006 C 
BRANCH   4   5
ATOM      5  C   UNL     1     120.201  66.798  -3.937  1.00  0.00     0.053 C 
BRANCH   5   6
ATOM      6  C   UNL     1     120.340  67.648  -5.164  1.00  0.00     0.041 C 
ATOM      7  O   UNL     1     120.185  67.140  -6.306  1.00  0.00    -0.550 OA
ATOM      8  O   UNL     1     120.608  69.005  -5.044  1.00  0.00    -0.550 OA
ENDBRANCH   5   6
ENDBRANCH   4   5
ENDBRANCH   3   4
ENDBRANCH   2   3
ENDBRANCH   1   2
BRANCH   1   9
ATOM      9  C   UNL     1     120.381  70.525  -0.188  1.00  0.00     0.000 C 
BRANCH   9  10
ATOM     10  C   UNL     1     121.054  70.918   1.133  1.00  0.00    -0.000 C 
BRANCH  10  11
ATOM     11  C   UNL     1     120.617  72.318   1.580  1.00  0.00    -0.000 C 
BRANCH  11  12
ATOM     12  C   UNL     1     120.899  72.531   3.075  1.00  0.00    -0.000 C 
BRANCH  12  13
ATOM     13  C   UNL     1     120.145  71.532   3.965  1.00  0.00    -0.003 C 
ATOM     14  C   UNL     1     120.988  71.030   5.137  1.00  0.00     0.004 C 
ENDBRANCH  12  13
ENDBRANCH  11  12
ENDBRANCH  10  11
ENDBRANCH   9  10
ENDBRANCH   1   9
TORSDOF 10
ENDMDL
MODEL 8
REMARK VINA RESULT:    -3.457      6.275      9.431
REMARK INTER + INTRA:          -5.983
REMARK INTER:                  -5.372
REMARK INTRA:                  -0.611
REMARK UNBOUND:                -0.504
REMARK SMILES CCCCCCCCCCCC(=O)[O-]
REMARK SMILES IDX 7 1 8 2 9 3 10 4 11 5 12 6 13 7 14 8 6 9 5 10 4 11 3 12 2 13
REMARK SMILES IDX 1 14
REMARK H PARENT
REMARK Flexibility Score: inf
ROOT
ATOM      1  C   UNL     1     121.414  67.635  -0.804  1.00  0.00     0.000 C 
ENDROOT
BRANCH   1   2
ATOM      2  C   UNL     1     119.996  67.188  -1.192  1.00  0.00     0.000 C 
BRANCH   2   3
ATOM      3  C   UNL     1     119.875  66.838  -2.686  1.00  0.00     0.000 C 
BRANCH   3   4
ATOM      4  C   UNL     1     119.903  68.083  -3.593  1.00  0.00     0.006 C 
BRANCH   4   5
ATOM      5  C   UNL     1     119.924  67.770  -5.099  1.00  0.00     0.053 C 
BRANCH   5   6
ATOM      6  C   UNL     1     120.673  68.808  -5.877  1.00  0.00     0.041 C 
ATOM      7  O   UNL     1     121.158  68.526  -7.005  1.00  0.00    -0.550 OA
ATOM      8  O   UNL     1     120.808  70.095  -5.372  1.00  0.00    -0.550 OA
ENDBRANCH   5   6
ENDBRANCH   4   5
ENDBRANCH   3   4
ENDBRANCH   2   3
ENDBRANCH   1   2
BRANCH   1   9
ATOM      9  C   UNL     1     121.481  69.116  -0.398  1.00  0.00     0.000 C 
BRANCH   9  10
ATOM     10  C   UNL     1     120.074  69.706  -0.241  1.00  0.00    -0.000 C 
BRANCH  10  11
ATOM     11  C   UNL     1     120.132  71.123   0.342  1.00  0.00    -0.000 C 
BRANCH  11  12
ATOM     12  C   UNL     1     120.780  71.119   1.735  1.00  0.00    -0.000 C 
BRANCH  12  13
ATOM     13  C   UNL     1     120.967  72.533   2.303  1.00  0.00    -0.003 C 
ATOM     14  C   UNL     1     120.118  73.578   1.580  1.00  0.00     0.004 C 
ENDBRANCH  12  13
ENDBRANCH  11  12
ENDBRANCH  10  11
ENDBRANCH   9  10
ENDBRANCH   1   9
TORSDOF 10
ENDMDL
MODEL 9
REMARK VINA RESULT:    -3.382      7.586     10.928
REMARK INTER + INTRA:          -5.864
REMARK INTER:                  -5.617
REMARK INTRA:                  -0.247
REMARK UNBOUND:                -0.504
REMARK SMILES CCCCCCCCCCCC(=O)[O-]
REMARK SMILES IDX 7 1 8 2 9 3 10 4 11 5 12 6 13 7 14 8 6 9 5 10 4 11 3 12 2 13
REMARK SMILES IDX 1 14
REMARK H PARENT
REMARK Flexibility Score: inf
ROOT
ATOM      1  C   UNL     1     119.959  67.762  -2.135  1.00  0.00     0.000 C 
ENDROOT
BRANCH   1   2
ATOM      2  C   UNL     1     119.939  67.735  -3.671  1.00  0.00     0.000 C 
BRANCH   2   3
ATOM      3  C   UNL     1     119.875  66.305  -4.235  1.00  0.00     0.000 C 
BRANCH   3   4
ATOM      4  C   UNL     1     120.769  66.113  -5.476  1.00  0.00     0.006 C 
BRANCH   4   5
ATOM      5  C   UNL     1     120.943  67.378  -6.334  1.00  0.00     0.053 C 
BRANCH   5   6
ATOM      6  C   UNL     1     121.258  67.049  -7.761  1.00  0.00     0.041 C 
ATOM      7  O   UNL     1     120.699  66.070  -8.323  1.00  0.00    -0.550 OA
ATOM      8  O   UNL     1     122.142  67.843  -8.480  1.00  0.00    -0.550 OA
ENDBRANCH   5   6
ENDBRANCH   4   5
ENDBRANCH   3   4
ENDBRANCH   2   3
ENDBRANCH   1   2
BRANCH   1   9
ATOM      9  C   UNL     1     119.976  69.190  -1.566  1.00  0.00     0.000 C 
BRANCH   9  10
ATOM     10  C   UNL     1     120.617  69.217  -0.172  1.00  0.00    -0.000 C 
BRANCH  10  11
ATOM     11  C   UNL     1     121.055  70.637   0.206  1.00  0.00    -0.000 C 
BRANCH  11  12
ATOM     12  C   UNL     1     120.350  71.107   1.487  1.00  0.00    -0.000 C 
BRANCH  12  13
ATOM     13  C   UNL     1     121.074  72.281   2.162  1.00  0.00    -0.003 C 
ATOM     14  C   UNL     1     120.643  72.487   3.613  1.00  0.00     0.004 C 
ENDBRANCH  12  13
ENDBRANCH  11  12
ENDBRANCH  10  11
ENDBRANCH   9  10
ENDBRANCH   1   9
TORSDOF 10
ENDMDL
