MODEL 1
REMARK VINA RESULT:    -3.494      0.000      0.000
REMARK INTER + INTRA:          -8.399
REMARK INTER:                  -6.354
REMARK INTRA:                  -2.044
REMARK UNBOUND:                -2.044
REMARK SMILES CCCCCCCCCCCCCCCCC
REMARK SMILES IDX 9 1 8 2 7 3 6 4 5 5 4 6 3 7 2 8 1 9 10 10 11 11 12 12 13 13
REMARK SMILES IDX 14 14 15 15 16 16 17 17
REMARK H PARENT
REMARK Flexibility Score: inf
ROOT
ATOM      1  C   UNL     1      44.199  18.500  -5.133  1.00  0.00    -0.000 C 
ENDROOT
BRANCH   1   2
ATOM      2  C   UNL     1      45.365  17.545  -5.423  1.00  0.00    -0.000 C 
BRANCH   2   3
ATOM      3  C   UNL     1      45.951  16.983  -4.118  1.00  0.00    -0.000 C 
BRANCH   3   4
ATOM      4  C   UNL     1      45.595  15.504  -3.898  1.00  0.00    -0.000 C 
BRANCH   4   5
ATOM      5  C   UNL     1      44.805  15.271  -2.602  1.00  0.00    -0.000 C 
BRANCH   5   6
ATOM      6  C   UNL     1      43.293  15.320  -2.866  1.00  0.00    -0.000 C 
BRANCH   6   7
ATOM      7  C   UNL     1      42.616  16.538  -2.216  1.00  0.00    -0.000 C 
BRANCH   7   8
ATOM      8  C   UNL     1      41.596  17.213  -3.145  1.00  0.00    -0.003 C 
ATOM      9  C   UNL     1      41.167  16.271  -4.266  1.00  0.00     0.004 C 
ENDBRANCH   7   8
ENDBRANCH   6   7
ENDBRANCH   5   6
ENDBRANCH   4   5
ENDBRANCH   3   4
ENDBRANCH   2   3
ENDBRANCH   1   2
BRANCH   1  10
ATOM     10  C   UNL     1      44.426  19.863  -5.804  1.00  0.00    -0.000 C 
BRANCH  10  11
ATOM     11  C   UNL     1      43.653  21.000  -5.116  1.00  0.00    -0.000 C 
BRANCH  11  12
ATOM     12  C   UNL     1      42.281  20.548  -4.588  1.00  0.00    -0.000 C 
BRANCH  12  13
ATOM     13  C   UNL     1      42.001  21.058  -3.164  1.00  0.00    -0.000 C 
BRANCH  13  14
ATOM     14  C   UNL     1      42.995  20.499  -2.132  1.00  0.00    -0.000 C 
BRANCH  14  15
ATOM     15  C   UNL     1      42.473  20.591  -0.687  1.00  0.00    -0.000 C 
BRANCH  15  16
ATOM     16  C   UNL     1      41.229  19.736  -0.391  1.00  0.00    -0.003 C 
ATOM     17  C   UNL     1      39.976  20.571  -0.132  1.00  0.00     0.004 C 
ENDBRANCH  15  16
ENDBRANCH  14  15
ENDBRANCH  13  14
ENDBRANCH  12  13
ENDBRANCH  11  12
ENDBRANCH  10  11
ENDBRANCH   1  10
TORSDOF 14
ENDMDL
MODEL 2
REMARK VINA RESULT:    -3.481      1.427      6.096
REMARK INTER + INTRA:          -8.375
REMARK INTER:                  -6.135
REMARK INTRA:                  -2.239
REMARK UNBOUND:                -2.044
REMARK SMILES CCCCCCCCCCCCCCCCC
REMARK SMILES IDX 9 1 8 2 7 3 6 4 5 5 4 6 3 7 2 8 1 9 10 10 11 11 12 12 13 13
REMARK SMILES IDX 14 14 15 15 16 16 17 17
REMARK H PARENT
REMARK Flexibility Score: inf
ROOT
ATOM      1  C   UNL     1      42.095  16.773  -1.780  1.00  0.00    -0.000 C 
ENDROOT
BRANCH   1   2
ATOM      2  C   UNL     1      40.878  17.329  -2.532  1.00  0.00    -0.000 C 
BRANCH   2   3
ATOM      3  C   UNL     1      41.253  17.719  -3.970  1.00  0.00    -0.000 C 
BRANCH   3   4
ATOM      4  C   UNL     1      41.452  19.234  -4.140  1.00  0.00    -0.000 C 
BRANCH   4   5
ATOM      5  C   UNL     1      42.925  19.655  -4.023  1.00  0.00    -0.000 C 
BRANCH   5   6
ATOM      6  C   UNL     1      43.118  20.659  -2.877  1.00  0.00    -0.000 C 
BRANCH   6   7
ATOM      7  C   UNL     1      41.803  20.991  -2.152  1.00  0.00    -0.000 C 
BRANCH   7   8
ATOM      8  C   UNL     1      41.791  20.498  -0.697  1.00  0.00    -0.003 C 
ATOM      9  C   UNL     1      40.363  20.335  -0.185  1.00  0.00     0.004 C 
ENDBRANCH   7   8
ENDBRANCH   6   7
ENDBRANCH   5   6
ENDBRANCH   4   5
ENDBRANCH   3   4
ENDBRANCH   2   3
ENDBRANCH   1   2
BRANCH   1  10
ATOM     10  C   UNL     1      43.041  16.035  -2.738  1.00  0.00    -0.000 C 
BRANCH  10  11
ATOM     11  C   UNL     1      44.481  16.570  -2.680  1.00  0.00    -0.000 C 
BRANCH  11  12
ATOM     12  C   UNL     1      45.138  16.655  -4.069  1.00  0.00    -0.000 C 
BRANCH  12  13
ATOM     13  C   UNL     1      46.651  16.381  -4.023  1.00  0.00    -0.000 C 
BRANCH  13  14
ATOM     14  C   UNL     1      46.980  14.881  -4.104  1.00  0.00    -0.000 C 
BRANCH  14  15
ATOM     15  C   UNL     1      47.598  14.333  -2.805  1.00  0.00    -0.000 C 
BRANCH  15  16
ATOM     16  C   UNL     1      46.661  13.450  -1.962  1.00  0.00    -0.003 C 
ATOM     17  C   UNL     1      45.415  13.001  -2.724  1.00  0.00     0.004 C 
ENDBRANCH  15  16
ENDBRANCH  14  15
ENDBRANCH  13  14
ENDBRANCH  12  13
ENDBRANCH  11  12
ENDBRANCH  10  11
ENDBRANCH   1  10
TORSDOF 14
ENDMDL
MODEL 3
REMARK VINA RESULT:    -3.466      1.030      4.538
REMARK INTER + INTRA:          -8.348
REMARK INTER:                  -6.173
REMARK INTRA:                  -2.175
REMARK UNBOUND:                -2.044
REMARK SMILES CCCCCCCCCCCCCCCCC
REMARK SMILES IDX 9 1 8 2 7 3 6 4 5 5 4 6 3 7 2 8 1 9 10 10 11 11 12 12 13 13
REMARK SMILES IDX 14 14 15 15 16 16 17 17
REMARK H PARENT
REMARK Flexibility Score: inf
ROOT
ATOM      1  C   UNL     1      44.863  19.125  -6.010  1.00  0.00    -0.000 C 
ENDROOT
BRANCH   1   2
ATOM      2  C   UNL     1      44.102  20.456  -6.077  1.00  0.00    -0.000 C 
BRANCH   2   3
ATOM      3  C   UNL     1      43.745  20.957  -4.669  1.00  0.00    -0.000 C 
BRANCH   3   4
ATOM      4  C   UNL     1      42.228  21.071  -4.448  1.00  0.00    -0.000 C 
BRANCH   4   5
ATOM      5  C   UNL     1      41.720  20.143  -3.334  1.00  0.00    -0.000 C 
BRANCH   5   6
ATOM      6  C   UNL     1      42.652  20.190  -2.114  1.00  0.00    -0.000 C 
BRANCH   6   7
ATOM      7  C   UNL     1      41.911  19.941  -0.791  1.00  0.00    -0.000 C 
BRANCH   7   8
ATOM      8  C   UNL     1      40.927  21.068  -0.443  1.00  0.00    -0.003 C 
ATOM      9  C   UNL     1      39.559  20.505  -0.069  1.00  0.00     0.004 C 
ENDBRANCH   7   8
ENDBRANCH   6   7
ENDBRANCH   5   6
ENDBRANCH   4   5
ENDBRANCH   3   4
ENDBRANCH   2   3
ENDBRANCH   1   2
BRANCH   1  10
ATOM     10  C   UNL     1      43.945  17.992  -5.525  1.00  0.00    -0.000 C 
BRANCH  10  11
ATOM     11  C   UNL     1      44.712  16.695  -5.221  1.00  0.00    -0.000 C 
BRANCH  11  12
ATOM     12  C   UNL     1      45.253  16.650  -3.782  1.00  0.00    -0.000 C 
BRANCH  12  13
ATOM     13  C   UNL     1      44.190  17.040  -2.741  1.00  0.00    -0.000 C 
BRANCH  13  14
ATOM     14  C   UNL     1      43.133  15.940  -2.539  1.00  0.00    -0.000 C 
BRANCH  14  15
ATOM     15  C   UNL     1      41.830  16.471  -1.914  1.00  0.00    -0.000 C 
BRANCH  15  16
ATOM     16  C   UNL     1      40.619  16.497  -2.862  1.00  0.00    -0.003 C 
ATOM     17  C   UNL     1      39.541  17.490  -2.431  1.00  0.00     0.004 C 
ENDBRANCH  15  16
ENDBRANCH  14  15
ENDBRANCH  13  14
ENDBRANCH  12  13
ENDBRANCH  11  12
ENDBRANCH  10  11
ENDBRANCH   1  10
TORSDOF 14
ENDMDL
MODEL 4
REMARK VINA RESULT:    -3.465      1.259      5.269
REMARK INTER + INTRA:          -8.345
REMARK INTER:                  -6.109
REMARK INTRA:                  -2.236
REMARK UNBOUND:                -2.044
REMARK SMILES CCCCCCCCCCCCCCCCC
REMARK SMILES IDX 9 1 8 2 7 3 6 4 5 5 4 6 3 7 2 8 1 9 10 10 11 11 12 12 13 13
REMARK SMILES IDX 14 14 15 15 16 16 17 17
REMARK H PARENT
REMARK Flexibility Score: inf
ROOT
ATOM      1  C   UNL     1      43.385  20.580  -1.775  1.00  0.00    -0.000 C 
ENDROOT
BRANCH   1   2
ATOM      2  C   UNL     1      42.416  20.390  -0.601  1.00  0.00    -0.000 C 
BRANCH   2   3
ATOM      3  C   UNL     1      41.050  21.024  -0.907  1.00  0.00    -0.000 C 
BRANCH   3   4
ATOM      4  C   UNL     1      39.893  20.319  -0.183  1.00  0.00    -0.000 C 
BRANCH   4   5
ATOM      5  C   UNL     1      38.877  19.697  -1.153  1.00  0.00    -0.000 C 
BRANCH   5   6
ATOM      6  C   UNL     1      39.548  19.327  -2.484  1.00  0.00    -0.000 C 
BRANCH   6   7
ATOM      7  C   UNL     1      39.500  17.818  -2.773  1.00  0.00    -0.000 C 
BRANCH   7   8
ATOM      8  C   UNL     1      40.898  17.204  -2.939  1.00  0.00    -0.003 C 
ATOM      9  C   UNL     1      41.576  17.011  -1.585  1.00  0.00     0.004 C 
ENDBRANCH   7   8
ENDBRANCH   6   7
ENDBRANCH   5   6
ENDBRANCH   4   5
ENDBRANCH   3   4
ENDBRANCH   2   3
ENDBRANCH   1   2
BRANCH   1  10
ATOM     10  C   UNL     1      42.628  20.960  -3.056  1.00  0.00    -0.000 C 
BRANCH  10  11
ATOM     11  C   UNL     1      43.416  20.626  -4.333  1.00  0.00    -0.000 C 
BRANCH  11  12
ATOM     12  C   UNL     1      43.546  19.112  -4.569  1.00  0.00    -0.000 C 
BRANCH  12  13
ATOM     13  C   UNL     1      44.673  18.765  -5.557  1.00  0.00    -0.000 C 
BRANCH  13  14
ATOM     14  C   UNL     1      45.509  17.558  -5.096  1.00  0.00    -0.000 C 
BRANCH  14  15
ATOM     15  C   UNL     1      44.934  16.878  -3.841  1.00  0.00    -0.000 C 
BRANCH  15  16
ATOM     16  C   UNL     1      44.144  15.585  -4.107  1.00  0.00    -0.003 C 
ATOM     17  C   UNL     1      44.160  14.618  -2.924  1.00  0.00     0.004 C 
ENDBRANCH  15  16
ENDBRANCH  14  15
ENDBRANCH  13  14
ENDBRANCH  12  13
ENDBRANCH  11  12
ENDBRANCH  10  11
ENDBRANCH   1  10
TORSDOF 14
ENDMDL
MODEL 5
REMARK VINA RESULT:    -3.445      1.185      4.677
REMARK INTER + INTRA:          -8.309
REMARK INTER:                  -6.020
REMARK INTRA:                  -2.289
REMARK UNBOUND:                -2.044
REMARK SMILES CCCCCCCCCCCCCCCCC
REMARK SMILES IDX 9 1 8 2 7 3 6 4 5 5 4 6 3 7 2 8 1 9 10 10 11 11 12 12 13 13
REMARK SMILES IDX 14 14 15 15 16 16 17 17
REMARK H PARENT
REMARK Flexibility Score: inf
ROOT
ATOM      1  C   UNL     1      43.734  19.065  -5.059  1.00  0.00    -0.000 C 
ENDROOT
BRANCH   1   2
ATOM      2  C   UNL     1      43.746  20.573  -4.779  1.00  0.00    -0.000 C 
BRANCH   2   3
ATOM      3  C   UNL     1      42.835  20.919  -3.591  1.00  0.00    -0.000 C 
BRANCH   3   4
ATOM      4  C   UNL     1      43.025  19.965  -2.401  1.00  0.00    -0.000 C 
BRANCH   4   5
ATOM      5  C   UNL     1      42.479  20.540  -1.086  1.00  0.00    -0.000 C 
BRANCH   5   6
ATOM      6  C   UNL     1      41.338  19.668  -0.539  1.00  0.00    -0.000 C 
BRANCH   6   7
ATOM      7  C   UNL     1      39.986  19.975  -1.204  1.00  0.00    -0.000 C 
BRANCH   7   8
ATOM      8  C   UNL     1      39.515  18.845  -2.133  1.00  0.00    -0.003 C 
ATOM      9  C   UNL     1      39.526  19.294  -3.591  1.00  0.00     0.004 C 
ENDBRANCH   7   8
ENDBRANCH   6   7
ENDBRANCH   5   6
ENDBRANCH   4   5
ENDBRANCH   3   4
ENDBRANCH   2   3
ENDBRANCH   1   2
BRANCH   1  10
ATOM     10  C   UNL     1      44.981  18.644  -5.850  1.00  0.00    -0.000 C 
BRANCH  10  11
ATOM     11  C   UNL     1      45.341  17.163  -5.649  1.00  0.00    -0.000 C 
BRANCH  11  12
ATOM     12  C   UNL     1      46.032  16.899  -4.300  1.00  0.00    -0.000 C 
BRANCH  12  13
ATOM     13  C   UNL     1      45.950  15.423  -3.875  1.00  0.00    -0.000 C 
BRANCH  13  14
ATOM     14  C   UNL     1      44.887  15.183  -2.789  1.00  0.00    -0.000 C 
BRANCH  14  15
ATOM     15  C   UNL     1      44.122  16.462  -2.407  1.00  0.00    -0.000 C 
BRANCH  15  16
ATOM     16  C   UNL     1      42.597  16.295  -2.285  1.00  0.00    -0.003 C 
ATOM     17  C   UNL     1      41.881  16.325  -3.635  1.00  0.00     0.004 C 
ENDBRANCH  15  16
ENDBRANCH  14  15
ENDBRANCH  13  14
ENDBRANCH  12  13
ENDBRANCH  11  12
ENDBRANCH  10  11
ENDBRANCH   1  10
TORSDOF 14
ENDMDL
MODEL 6
REMARK VINA RESULT:    -3.418      1.365      4.842
REMARK INTER + INTRA:          -8.260
REMARK INTER:                  -5.623
REMARK INTRA:                  -2.636
REMARK UNBOUND:                -2.044
REMARK SMILES CCCCCCCCCCCCCCCCC
REMARK SMILES IDX 9 1 8 2 7 3 6 4 5 5 4 6 3 7 2 8 1 9 10 10 11 11 12 12 13 13
REMARK SMILES IDX 14 14 15 15 16 16 17 17
REMARK H PARENT
REMARK Flexibility Score: inf
ROOT
ATOM      1  C   UNL     1      38.875  19.734  -1.233  1.00  0.00    -0.000 C 
ENDROOT
BRANCH   1   2
ATOM      2  C   UNL     1      39.354  19.455  -2.663  1.00  0.00    -0.000 C 
BRANCH   2   3
ATOM      3  C   UNL     1      39.036  18.010  -3.077  1.00  0.00    -0.000 C 
BRANCH   3   4
ATOM      4  C   UNL     1      40.100  17.009  -2.598  1.00  0.00    -0.000 C 
BRANCH   4   5
ATOM      5  C   UNL     1      41.504  17.337  -3.127  1.00  0.00    -0.000 C 
BRANCH   5   6
ATOM      6  C   UNL     1      42.583  16.647  -2.279  1.00  0.00    -0.000 C 
BRANCH   6   7
ATOM      7  C   UNL     1      44.009  16.999  -2.733  1.00  0.00    -0.000 C 
BRANCH   7   8
ATOM      8  C   UNL     1      44.153  17.026  -4.262  1.00  0.00    -0.003 C 
ATOM      9  C   UNL     1      45.622  17.066  -4.674  1.00  0.00     0.004 C 
ENDBRANCH   7   8
ENDBRANCH   6   7
ENDBRANCH   5   6
ENDBRANCH   4   5
ENDBRANCH   3   4
ENDBRANCH   2   3
ENDBRANCH   1   2
BRANCH   1  10
ATOM     10  C   UNL     1      39.929  20.528  -0.446  1.00  0.00    -0.000 C 
BRANCH  10  11
ATOM     11  C   UNL     1      41.253  19.762  -0.286  1.00  0.00    -0.000 C 
BRANCH  11  12
ATOM     12  C   UNL     1      42.485  20.661  -0.483  1.00  0.00    -0.000 C 
BRANCH  12  13
ATOM     13  C   UNL     1      43.266  20.318  -1.763  1.00  0.00    -0.000 C 
BRANCH  13  14
ATOM     14  C   UNL     1      42.691  21.015  -3.008  1.00  0.00    -0.000 C 
BRANCH  14  15
ATOM     15  C   UNL     1      43.398  20.593  -4.309  1.00  0.00    -0.000 C 
BRANCH  15  16
ATOM     16  C   UNL     1      42.457  20.207  -5.463  1.00  0.00    -0.003 C 
ATOM     17  C   UNL     1      41.123  20.951  -5.424  1.00  0.00     0.004 C 
ENDBRANCH  15  16
ENDBRANCH  14  15
ENDBRANCH  13  14
ENDBRANCH  12  13
ENDBRANCH  11  12
ENDBRANCH  10  11
ENDBRANCH   1  10
TORSDOF 14
ENDMDL
MODEL 7
REMARK VINA RESULT:    -3.348      1.343      3.664
REMARK INTER + INTRA:          -8.133
REMARK INTER:                  -5.878
REMARK INTRA:                  -2.255
REMARK UNBOUND:                -2.044
REMARK SMILES CCCCCCCCCCCCCCCCC
REMARK SMILES IDX 9 1 8 2 7 3 6 4 5 5 4 6 3 7 2 8 1 9 10 10 11 11 12 12 13 13
REMARK SMILES IDX 14 14 15 15 16 16 17 17
REMARK H PARENT
REMARK Flexibility Score: inf
ROOT
ATOM      1  C   UNL     1      40.846  16.873  -3.138  1.00  0.00    -0.000 C 
ENDROOT
BRANCH   1   2
ATOM      2  C   UNL     1      41.852  16.801  -1.982  1.00  0.00    -0.000 C 
BRANCH   2   3
ATOM      3  C   UNL     1      43.123  16.048  -2.406  1.00  0.00    -0.000 C 
BRANCH   3   4
ATOM      4  C   UNL     1      44.290  16.994  -2.735  1.00  0.00    -0.000 C 
BRANCH   4   5
ATOM      5  C   UNL     1      44.543  17.121  -4.245  1.00  0.00    -0.000 C 
BRANCH   5   6
ATOM      6  C   UNL     1      46.042  17.003  -4.560  1.00  0.00    -0.000 C 
BRANCH   6   7
ATOM      7  C   UNL     1      46.351  15.880  -5.563  1.00  0.00    -0.000 C 
BRANCH   7   8
ATOM      8  C   UNL     1      47.031  14.671  -4.904  1.00  0.00    -0.003 C 
ATOM      9  C   UNL     1      47.659  15.055  -3.567  1.00  0.00     0.004 C 
ENDBRANCH   7   8
ENDBRANCH   6   7
ENDBRANCH   5   6
ENDBRANCH   4   5
ENDBRANCH   3   4
ENDBRANCH   2   3
ENDBRANCH   1   2
BRANCH   1  10
ATOM     10  C   UNL     1      40.318  18.304  -3.317  1.00  0.00    -0.000 C 
BRANCH  10  11
ATOM     11  C   UNL     1      41.086  19.091  -4.392  1.00  0.00    -0.000 C 
BRANCH  11  12
ATOM     12  C   UNL     1      41.556  20.468  -3.894  1.00  0.00    -0.000 C 
BRANCH  12  13
ATOM     13  C   UNL     1      42.982  20.431  -3.318  1.00  0.00    -0.000 C 
BRANCH  13  14
ATOM     14  C   UNL     1      42.994  20.390  -1.780  1.00  0.00    -0.000 C 
BRANCH  14  15
ATOM     15  C   UNL     1      41.744  21.036  -1.155  1.00  0.00    -0.000 C 
BRANCH  15  16
ATOM     16  C   UNL     1      40.919  20.109  -0.247  1.00  0.00    -0.003 C 
ATOM     17  C   UNL     1      39.451  20.521  -0.146  1.00  0.00     0.004 C 
ENDBRANCH  15  16
ENDBRANCH  14  15
ENDBRANCH  13  14
ENDBRANCH  12  13
ENDBRANCH  11  12
ENDBRANCH  10  11
ENDBRANCH   1  10
TORSDOF 14
ENDMDL
MODEL 8
REMARK VINA RESULT:    -3.340      1.175      3.974
REMARK INTER + INTRA:          -8.119
REMARK INTER:                  -5.873
REMARK INTRA:                  -2.246
REMARK UNBOUND:                -2.044
REMARK SMILES CCCCCCCCCCCCCCCCC
REMARK SMILES IDX 9 1 8 2 7 3 6 4 5 5 4 6 3 7 2 8 1 9 10 10 11 11 12 12 13 13
REMARK SMILES IDX 14 14 15 15 16 16 17 17
REMARK H PARENT
REMARK Flexibility Score: inf
ROOT
ATOM      1  C   UNL     1      40.518  17.824  -3.873  1.00  0.00    -0.000 C 
ENDROOT
BRANCH   1   2
ATOM      2  C   UNL     1      41.961  17.330  -4.038  1.00  0.00    -0.000 C 
BRANCH   2   3
ATOM      3  C   UNL     1      42.568  16.944  -2.680  1.00  0.00    -0.000 C 
BRANCH   3   4
ATOM      4  C   UNL     1      44.105  16.959  -2.692  1.00  0.00    -0.000 C 
BRANCH   4   5
ATOM      5  C   UNL     1      44.713  15.551  -2.609  1.00  0.00    -0.000 C 
BRANCH   5   6
ATOM      6  C   UNL     1      45.613  15.271  -3.823  1.00  0.00    -0.000 C 
BRANCH   6   7
ATOM      7  C   UNL     1      46.736  16.309  -3.980  1.00  0.00    -0.000 C 
BRANCH   7   8
ATOM      8  C   UNL     1      46.564  17.180  -5.234  1.00  0.00    -0.003 C 
ATOM      9  C   UNL     1      45.446  16.644  -6.124  1.00  0.00     0.004 C 
ENDBRANCH   7   8
ENDBRANCH   6   7
ENDBRANCH   5   6
ENDBRANCH   4   5
ENDBRANCH   3   4
ENDBRANCH   2   3
ENDBRANCH   1   2
BRANCH   1  10
ATOM     10  C   UNL     1      40.092  17.793  -2.398  1.00  0.00    -0.000 C 
BRANCH  10  11
ATOM     11  C   UNL     1      39.107  18.917  -2.040  1.00  0.00    -0.000 C 
BRANCH  11  12
ATOM     12  C   UNL     1      39.746  20.007  -1.162  1.00  0.00    -0.000 C 
BRANCH  12  13
ATOM     13  C   UNL     1      41.079  19.556  -0.541  1.00  0.00    -0.000 C 
BRANCH  13  14
ATOM     14  C   UNL     1      42.153  20.656  -0.591  1.00  0.00    -0.000 C 
BRANCH  14  15
ATOM     15  C   UNL     1      43.119  20.494  -1.779  1.00  0.00    -0.000 C 
BRANCH  15  16
ATOM     16  C   UNL     1      42.547  20.915  -3.143  1.00  0.00    -0.003 C 
ATOM     17  C   UNL     1      43.436  20.508  -4.318  1.00  0.00     0.004 C 
ENDBRANCH  15  16
ENDBRANCH  14  15
ENDBRANCH  13  14
ENDBRANCH  12  13
ENDBRANCH  11  12
ENDBRANCH  10  11
ENDBRANCH   1  10
TORSDOF 14
ENDMDL
MODEL 9
REMARK VINA RESULT:    -3.303      1.682      3.800
REMARK INTER + INTRA:          -8.051
REMARK INTER:                  -6.431
REMARK INTRA:                  -1.620
REMARK UNBOUND:                -2.044
REMARK SMILES CCCCCCCCCCCCCCCCC
REMARK SMILES IDX 9 1 8 2 7 3 6 4 5 5 4 6 3 7 2 8 1 9 10 10 11 11 12 12 13 13
REMARK SMILES IDX 14 14 15 15 16 16 17 17
REMARK H PARENT
REMARK Flexibility Score: inf
ROOT
ATOM      1  C   UNL     1      44.470  16.163  -2.399  1.00  0.00    -0.000 C 
ENDROOT
BRANCH   1   2
ATOM      2  C   UNL     1      43.901  14.810  -2.844  1.00  0.00    -0.000 C 
BRANCH   2   3
ATOM      3  C   UNL     1      45.021  13.873  -3.322  1.00  0.00    -0.000 C 
BRANCH   3   4
ATOM      4  C   UNL     1      46.212  13.830  -2.351  1.00  0.00    -0.000 C 
BRANCH   4   5
ATOM      5  C   UNL     1      47.566  13.958  -3.067  1.00  0.00    -0.000 C 
BRANCH   5   6
ATOM      6  C   UNL     1      47.429  14.792  -4.350  1.00  0.00    -0.000 C 
BRANCH   6   7
ATOM      7  C   UNL     1      47.776  16.274  -4.134  1.00  0.00    -0.000 C 
BRANCH   7   8
ATOM      8  C   UNL     1      47.589  17.115  -5.406  1.00  0.00    -0.003 C 
ATOM      9  C   UNL     1      48.933  17.575  -5.962  1.00  0.00     0.004 C 
ENDBRANCH   7   8
ENDBRANCH   6   7
ENDBRANCH   5   6
ENDBRANCH   4   5
ENDBRANCH   3   4
ENDBRANCH   2   3
ENDBRANCH   1   2
BRANCH   1  10
ATOM     10  C   UNL     1      43.630  17.322  -2.957  1.00  0.00    -0.000 C 
BRANCH  10  11
ATOM     11  C   UNL     1      44.198  17.890  -4.268  1.00  0.00    -0.000 C 
BRANCH  11  12
ATOM     12  C   UNL     1      43.654  19.293  -4.590  1.00  0.00    -0.000 C 
BRANCH  12  13
ATOM     13  C   UNL     1      42.436  19.665  -3.727  1.00  0.00    -0.000 C 
BRANCH  13  14
ATOM     14  C   UNL     1      42.688  20.910  -2.859  1.00  0.00    -0.000 C 
BRANCH  14  15
ATOM     15  C   UNL     1      42.899  20.570  -1.372  1.00  0.00    -0.000 C 
BRANCH  15  16
ATOM     16  C   UNL     1      41.731  19.821  -0.706  1.00  0.00    -0.003 C 
ATOM     17  C   UNL     1      40.529  20.719  -0.420  1.00  0.00     0.004 C 
ENDBRANCH  15  16
ENDBRANCH  14  15
ENDBRANCH  13  14
ENDBRANCH  12  13
ENDBRANCH  11  12
ENDBRANCH  10  11
ENDBRANCH   1  10
TORSDOF 14
ENDMDL
