MODEL 1
REMARK VINA RESULT:    -6.531      0.000      0.000
REMARK INTER + INTRA:         -12.155
REMARK INTER:                 -11.494
REMARK INTRA:                  -0.662
REMARK UNBOUND:                -0.662
REMARK SMILES CCCCCCCCCCCCCCC(=O)[O-]
REMARK SMILES IDX 9 1 10 2 11 3 12 4 13 5 14 6 15 7 16 8 17 9 8 10 7 11 6 12
REMARK SMILES IDX 5 13 4 14 3 15 2 16 1 17
REMARK H PARENT
REMARK Flexibility Score: inf
ROOT
ATOM      1  C   UNL     1      32.417  -8.486  21.179  1.00  0.00     0.000 C 
ENDROOT
BRANCH   1   2
ATOM      2  C   UNL     1      33.008  -9.298  20.015  1.00  0.00     0.000 C 
BRANCH   2   3
ATOM      3  C   UNL     1      34.489  -9.647  20.226  1.00  0.00     0.000 C 
BRANCH   3   4
ATOM      4  C   UNL     1      35.084  -8.836  21.384  1.00  0.00     0.000 C 
BRANCH   4   5
ATOM      5  C   UNL     1      36.325  -9.531  21.962  1.00  0.00     0.006 C 
BRANCH   5   6
ATOM      6  C   UNL     1      36.749 -10.749  21.132  1.00  0.00     0.053 C 
BRANCH   6   7
ATOM      7  C   UNL     1      37.985 -11.394  21.679  1.00  0.00     0.041 C 
ATOM      8  O   UNL     1      38.552 -12.320  21.042  1.00  0.00    -0.550 OA
ATOM      9  O   UNL     1      38.492 -10.996  22.910  1.00  0.00    -0.550 OA
ENDBRANCH   6   7
ENDBRANCH   5   6
ENDBRANCH   4   5
ENDBRANCH   3   4
ENDBRANCH   2   3
ENDBRANCH   1   2
BRANCH   1  10
ATOM     10  C   UNL     1      31.256  -9.215  21.878  1.00  0.00     0.000 C 
BRANCH  10  11
ATOM     11  C   UNL     1      29.987  -9.272  21.012  1.00  0.00    -0.000 C 
BRANCH  11  12
ATOM     12  C   UNL     1      28.698  -9.339  21.851  1.00  0.00    -0.000 C 
BRANCH  12  13
ATOM     13  C   UNL     1      28.109 -10.761  21.893  1.00  0.00    -0.000 C 
BRANCH  13  14
ATOM     14  C   UNL     1      27.634 -11.267  20.512  1.00  0.00    -0.000 C 
BRANCH  14  15
ATOM     15  C   UNL     1      28.122 -12.690  20.177  1.00  0.00    -0.000 C 
BRANCH  15  16
ATOM     16  C   UNL     1      27.293 -13.410  19.101  1.00  0.00    -0.003 C 
ATOM     17  C   UNL     1      26.270 -12.493  18.428  1.00  0.00     0.004 C 
ENDBRANCH  15  16
ENDBRANCH  14  15
ENDBRANCH  13  14
ENDBRANCH  12  13
ENDBRANCH  11  12
ENDBRANCH  10  11
ENDBRANCH   1  10
TORSDOF 13
ENDMDL
MODEL 2
REMARK VINA RESULT:    -6.438      1.046      1.297
REMARK INTER + INTRA:         -11.992
REMARK INTER:                 -11.563
REMARK INTRA:                  -0.430
REMARK UNBOUND:                -0.662
REMARK SMILES CCCCCCCCCCCCCCC(=O)[O-]
REMARK SMILES IDX 9 1 10 2 11 3 12 4 13 5 14 6 15 7 16 8 17 9 8 10 7 11 6 12
REMARK SMILES IDX 5 13 4 14 3 15 2 16 1 17
REMARK H PARENT
REMARK Flexibility Score: inf
ROOT
ATOM      1  C   UNL     1      32.065  -7.960  21.625  1.00  0.00     0.000 C 
ENDROOT
BRANCH   1   2
ATOM      2  C   UNL     1      33.444  -8.053  20.954  1.00  0.00     0.000 C 
BRANCH   2   3
ATOM      3  C   UNL     1      34.444  -8.893  21.766  1.00  0.00     0.000 C 
BRANCH   3   4
ATOM      4  C   UNL     1      35.339  -9.725  20.840  1.00  0.00     0.000 C 
BRANCH   4   5
ATOM      5  C   UNL     1      36.509 -10.346  21.617  1.00  0.00     0.006 C 
BRANCH   5   6
ATOM      6  C   UNL     1      37.431 -11.177  20.715  1.00  0.00     0.053 C 
BRANCH   6   7
ATOM      7  C   UNL     1      38.867 -10.788  20.878  1.00  0.00     0.041 C 
ATOM      8  O   UNL     1      39.748 -11.287  20.130  1.00  0.00    -0.550 OA
ATOM      9  O   UNL     1      39.239  -9.899  21.879  1.00  0.00    -0.550 OA
ENDBRANCH   6   7
ENDBRANCH   5   6
ENDBRANCH   4   5
ENDBRANCH   3   4
ENDBRANCH   2   3
ENDBRANCH   1   2
BRANCH   1  10
ATOM     10  C   UNL     1      31.109  -9.076  21.167  1.00  0.00     0.000 C 
BRANCH  10  11
ATOM     11  C   UNL     1      29.741  -9.007  21.864  1.00  0.00    -0.000 C 
BRANCH  11  12
ATOM     12  C   UNL     1      28.610  -9.613  21.015  1.00  0.00    -0.000 C 
BRANCH  12  13
ATOM     13  C   UNL     1      28.214 -11.020  21.497  1.00  0.00    -0.000 C 
BRANCH  13  14
ATOM     14  C   UNL     1      27.882 -11.992  20.343  1.00  0.00    -0.000 C 
BRANCH  14  15
ATOM     15  C   UNL     1      26.627 -11.593  19.544  1.00  0.00    -0.000 C 
BRANCH  15  16
ATOM     16  C   UNL     1      26.344 -12.480  18.320  1.00  0.00    -0.003 C 
ATOM     17  C   UNL     1      27.198 -13.748  18.295  1.00  0.00     0.004 C 
ENDBRANCH  15  16
ENDBRANCH  14  15
ENDBRANCH  13  14
ENDBRANCH  12  13
ENDBRANCH  11  12
ENDBRANCH  10  11
ENDBRANCH   1  10
TORSDOF 13
ENDMDL
MODEL 3
REMARK VINA RESULT:    -6.342      1.548      2.198
REMARK INTER + INTRA:         -11.824
REMARK INTER:                 -11.207
REMARK INTRA:                  -0.617
REMARK UNBOUND:                -0.662
REMARK SMILES CCCCCCCCCCCCCCC(=O)[O-]
REMARK SMILES IDX 9 1 10 2 11 3 12 4 13 5 14 6 15 7 16 8 17 9 8 10 7 11 6 12
REMARK SMILES IDX 5 13 4 14 3 15 2 16 1 17
REMARK H PARENT
REMARK Flexibility Score: inf
ROOT
ATOM      1  C   UNL     1      32.676  -9.229  19.916  1.00  0.00     0.000 C 
ENDROOT
BRANCH   1   2
ATOM      2  C   UNL     1      34.015  -9.973  19.789  1.00  0.00     0.000 C 
BRANCH   2   3
ATOM      3  C   UNL     1      35.056  -9.501  20.817  1.00  0.00     0.000 C 
BRANCH   3   4
ATOM      4  C   UNL     1      36.266 -10.444  20.844  1.00  0.00     0.000 C 
BRANCH   4   5
ATOM      5  C   UNL     1      37.402  -9.856  21.693  1.00  0.00     0.006 C 
BRANCH   5   6
ATOM      6  C   UNL     1      36.996  -8.545  22.380  1.00  0.00     0.053 C 
BRANCH   6   7
ATOM      7  C   UNL     1      38.079  -8.028  23.276  1.00  0.00     0.041 C 
ATOM      8  O   UNL     1      38.984  -8.800  23.686  1.00  0.00    -0.550 OA
ATOM      9  O   UNL     1      38.069  -6.701  23.686  1.00  0.00    -0.550 OA
ENDBRANCH   6   7
ENDBRANCH   5   6
ENDBRANCH   4   5
ENDBRANCH   3   4
ENDBRANCH   2   3
ENDBRANCH   1   2
BRANCH   1  10
ATOM     10  C   UNL     1      32.494  -8.572  21.295  1.00  0.00     0.000 C 
BRANCH  10  11
ATOM     11  C   UNL     1      31.162  -8.952  21.962  1.00  0.00    -0.000 C 
BRANCH  11  12
ATOM     12  C   UNL     1      30.072  -9.324  20.941  1.00  0.00    -0.000 C 
BRANCH  12  13
ATOM     13  C   UNL     1      29.027 -10.285  21.535  1.00  0.00    -0.000 C 
BRANCH  13  14
ATOM     14  C   UNL     1      27.839 -10.560  20.586  1.00  0.00    -0.000 C 
BRANCH  14  15
ATOM     15  C   UNL     1      27.654 -12.052  20.247  1.00  0.00    -0.000 C 
BRANCH  15  16
ATOM     16  C   UNL     1      26.620 -12.330  19.144  1.00  0.00    -0.003 C 
ATOM     17  C   UNL     1      27.111 -13.345  18.111  1.00  0.00     0.004 C 
ENDBRANCH  15  16
ENDBRANCH  14  15
ENDBRANCH  13  14
ENDBRANCH  12  13
ENDBRANCH  11  12
ENDBRANCH  10  11
ENDBRANCH   1  10
TORSDOF 13
ENDMDL
MODEL 4
REMARK VINA RESULT:    -6.336      1.388      1.821
REMARK INTER + INTRA:         -11.813
REMARK INTER:                 -11.192
REMARK INTRA:                  -0.621
REMARK UNBOUND:                -0.662
REMARK SMILES CCCCCCCCCCCCCCC(=O)[O-]
REMARK SMILES IDX 9 1 10 2 11 3 12 4 13 5 14 6 15 7 16 8 17 9 8 10 7 11 6 12
REMARK SMILES IDX 5 13 4 14 3 15 2 16 1 17
REMARK H PARENT
REMARK Flexibility Score: inf
ROOT
ATOM      1  C   UNL     1      31.389  -9.216  20.658  1.00  0.00     0.000 C 
ENDROOT
BRANCH   1   2
ATOM      2  C   UNL     1      32.877  -8.871  20.484  1.00  0.00     0.000 C 
BRANCH   2   3
ATOM      3  C   UNL     1      33.561  -9.723  19.403  1.00  0.00     0.000 C 
BRANCH   3   4
ATOM      4  C   UNL     1      34.842 -10.370  19.943  1.00  0.00     0.000 C 
BRANCH   4   5
ATOM      5  C   UNL     1      35.428  -9.547  21.099  1.00  0.00     0.006 C 
BRANCH   5   6
ATOM      6  C   UNL     1      36.876  -9.943  21.419  1.00  0.00     0.053 C 
BRANCH   6   7
ATOM      7  C   UNL     1      37.366  -9.294  22.676  1.00  0.00     0.041 C 
ATOM      8  O   UNL     1      37.738 -10.000  23.650  1.00  0.00    -0.550 OA
ATOM      9  O   UNL     1      37.380  -7.909  22.786  1.00  0.00    -0.550 OA
ENDBRANCH   6   7
ENDBRANCH   5   6
ENDBRANCH   4   5
ENDBRANCH   3   4
ENDBRANCH   2   3
ENDBRANCH   1   2
BRANCH   1  10
ATOM     10  C   UNL     1      30.931  -9.134  22.125  1.00  0.00     0.000 C 
BRANCH  10  11
ATOM     11  C   UNL     1      29.441  -9.467  22.299  1.00  0.00    -0.000 C 
BRANCH  11  12
ATOM     12  C   UNL     1      28.809 -10.050  21.023  1.00  0.00    -0.000 C 
BRANCH  12  13
ATOM     13  C   UNL     1      27.356  -9.579  20.830  1.00  0.00    -0.000 C 
BRANCH  13  14
ATOM     14  C   UNL     1      26.616 -10.326  19.697  1.00  0.00    -0.000 C 
BRANCH  14  15
ATOM     15  C   UNL     1      26.779 -11.857  19.760  1.00  0.00    -0.000 C 
BRANCH  15  16
ATOM     16  C   UNL     1      26.326 -12.597  18.490  1.00  0.00    -0.003 C 
ATOM     17  C   UNL     1      27.299 -13.698  18.066  1.00  0.00     0.004 C 
ENDBRANCH  15  16
ENDBRANCH  14  15
ENDBRANCH  13  14
ENDBRANCH  12  13
ENDBRANCH  11  12
ENDBRANCH  10  11
ENDBRANCH   1  10
TORSDOF 13
ENDMDL
MODEL 5
REMARK VINA RESULT:    -6.254      1.043      1.496
REMARK INTER + INTRA:         -11.669
REMARK INTER:                 -11.259
REMARK INTRA:                  -0.410
REMARK UNBOUND:                -0.662
REMARK SMILES CCCCCCCCCCCCCCC(=O)[O-]
REMARK SMILES IDX 9 1 10 2 11 3 12 4 13 5 14 6 15 7 16 8 17 9 8 10 7 11 6 12
REMARK SMILES IDX 5 13 4 14 3 15 2 16 1 17
REMARK H PARENT
REMARK Flexibility Score: inf
ROOT
ATOM      1  C   UNL     1      32.767  -8.863  21.109  1.00  0.00     0.000 C 
ENDROOT
BRANCH   1   2
ATOM      2  C   UNL     1      33.865  -9.108  22.156  1.00  0.00     0.000 C 
BRANCH   2   3
ATOM      3  C   UNL     1      35.270  -8.768  21.633  1.00  0.00     0.000 C 
BRANCH   3   4
ATOM      4  C   UNL     1      35.925  -9.995  20.986  1.00  0.00     0.000 C 
BRANCH   4   5
ATOM      5  C   UNL     1      37.382 -10.148  21.448  1.00  0.00     0.006 C 
BRANCH   5   6
ATOM      6  C   UNL     1      37.981 -11.500  21.038  1.00  0.00     0.053 C 
BRANCH   6   7
ATOM      7  C   UNL     1      39.478 -11.471  21.048  1.00  0.00     0.041 C 
ATOM      8  O   UNL     1      40.103 -11.379  22.137  1.00  0.00    -0.550 OA
ATOM      9  O   UNL     1      40.184 -11.511  19.852  1.00  0.00    -0.550 OA
ENDBRANCH   6   7
ENDBRANCH   5   6
ENDBRANCH   4   5
ENDBRANCH   3   4
ENDBRANCH   2   3
ENDBRANCH   1   2
BRANCH   1  10
ATOM     10  C   UNL     1      31.364  -8.773  21.736  1.00  0.00     0.000 C 
BRANCH  10  11
ATOM     11  C   UNL     1      30.259  -9.266  20.787  1.00  0.00    -0.000 C 
BRANCH  11  12
ATOM     12  C   UNL     1      29.074  -9.903  21.535  1.00  0.00    -0.000 C 
BRANCH  12  13
ATOM     13  C   UNL     1      27.847 -10.088  20.624  1.00  0.00    -0.000 C 
BRANCH  13  14
ATOM     14  C   UNL     1      27.226 -11.500  20.713  1.00  0.00    -0.000 C 
BRANCH  14  15
ATOM     15  C   UNL     1      28.115 -12.603  20.107  1.00  0.00    -0.000 C 
BRANCH  15  16
ATOM     16  C   UNL     1      27.448 -13.412  18.983  1.00  0.00    -0.003 C 
ATOM     17  C   UNL     1      26.311 -12.652  18.299  1.00  0.00     0.004 C 
ENDBRANCH  15  16
ENDBRANCH  14  15
ENDBRANCH  13  14
ENDBRANCH  12  13
ENDBRANCH  11  12
ENDBRANCH  10  11
ENDBRANCH   1  10
TORSDOF 13
ENDMDL
MODEL 6
REMARK VINA RESULT:    -6.169      3.312      4.113
REMARK INTER + INTRA:         -11.519
REMARK INTER:                 -10.765
REMARK INTRA:                  -0.753
REMARK UNBOUND:                -0.662
REMARK SMILES CCCCCCCCCCCCCCC(=O)[O-]
REMARK SMILES IDX 9 1 10 2 11 3 12 4 13 5 14 6 15 7 16 8 17 9 8 10 7 11 6 12
REMARK SMILES IDX 5 13 4 14 3 15 2 16 1 17
REMARK H PARENT
REMARK Flexibility Score: inf
ROOT
ATOM      1  C   UNL     1      32.220  -9.070  20.737  1.00  0.00     0.000 C 
ENDROOT
BRANCH   1   2
ATOM      2  C   UNL     1      33.580  -8.354  20.752  1.00  0.00     0.000 C 
BRANCH   2   3
ATOM      3  C   UNL     1      34.618  -9.069  21.631  1.00  0.00     0.000 C 
BRANCH   3   4
ATOM      4  C   UNL     1      34.921  -8.253  22.894  1.00  0.00     0.000 C 
BRANCH   4   5
ATOM      5  C   UNL     1      35.304  -6.809  22.538  1.00  0.00     0.006 C 
BRANCH   5   6
ATOM      6  C   UNL     1      34.445  -5.780  23.285  1.00  0.00     0.053 C 
BRANCH   6   7
ATOM      7  C   UNL     1      33.643  -4.936  22.343  1.00  0.00     0.041 C 
ATOM      8  O   UNL     1      32.625  -4.320  22.753  1.00  0.00    -0.550 OA
ATOM      9  O   UNL     1      34.001  -4.856  21.002  1.00  0.00    -0.550 OA
ENDBRANCH   6   7
ENDBRANCH   5   6
ENDBRANCH   4   5
ENDBRANCH   3   4
ENDBRANCH   2   3
ENDBRANCH   1   2
BRANCH   1  10
ATOM     10  C   UNL     1      31.170  -8.361  21.610  1.00  0.00     0.000 C 
BRANCH  10  11
ATOM     11  C   UNL     1      30.084  -9.319  22.125  1.00  0.00    -0.000 C 
BRANCH  11  12
ATOM     12  C   UNL     1      29.126  -9.784  21.013  1.00  0.00    -0.000 C 
BRANCH  12  13
ATOM     13  C   UNL     1      28.187 -10.907  21.490  1.00  0.00    -0.000 C 
BRANCH  13  14
ATOM     14  C   UNL     1      27.875 -11.950  20.395  1.00  0.00    -0.000 C 
BRANCH  14  15
ATOM     15  C   UNL     1      26.548 -11.689  19.656  1.00  0.00    -0.000 C 
BRANCH  15  16
ATOM     16  C   UNL     1      26.353 -12.530  18.383  1.00  0.00    -0.003 C 
ATOM     17  C   UNL     1      27.186 -13.812  18.385  1.00  0.00     0.004 C 
ENDBRANCH  15  16
ENDBRANCH  14  15
ENDBRANCH  13  14
ENDBRANCH  12  13
ENDBRANCH  11  12
ENDBRANCH  10  11
ENDBRANCH   1  10
TORSDOF 13
ENDMDL
MODEL 7
REMARK VINA RESULT:    -6.103      5.954      7.716
REMARK INTER + INTRA:         -11.402
REMARK INTER:                  -9.813
REMARK INTRA:                  -1.589
REMARK UNBOUND:                -0.662
REMARK SMILES CCCCCCCCCCCCCCC(=O)[O-]
REMARK SMILES IDX 9 1 10 2 11 3 12 4 13 5 14 6 15 7 16 8 17 9 8 10 7 11 6 12
REMARK SMILES IDX 5 13 4 14 3 15 2 16 1 17
REMARK H PARENT
REMARK Flexibility Score: inf
ROOT
ATOM      1  C   UNL     1      27.911  -6.931  23.021  1.00  0.00     0.000 C 
ENDROOT
BRANCH   1   2
ATOM      2  C   UNL     1      26.985  -6.111  22.108  1.00  0.00     0.000 C 
BRANCH   2   3
ATOM      3  C   UNL     1      26.131  -6.993  21.183  1.00  0.00     0.000 C 
BRANCH   3   4
ATOM      4  C   UNL     1      26.066  -6.402  19.769  1.00  0.00     0.000 C 
BRANCH   4   5
ATOM      5  C   UNL     1      27.357  -6.693  18.990  1.00  0.00     0.006 C 
BRANCH   5   6
ATOM      6  C   UNL     1      27.790  -5.506  18.120  1.00  0.00     0.053 C 
BRANCH   6   7
ATOM      7  C   UNL     1      27.842  -4.231  18.904  1.00  0.00     0.041 C 
ATOM      8  O   UNL     1      27.026  -3.304  18.661  1.00  0.00    -0.550 OA
ATOM      9  O   UNL     1      28.814  -4.052  19.881  1.00  0.00    -0.550 OA
ENDBRANCH   6   7
ENDBRANCH   5   6
ENDBRANCH   4   5
ENDBRANCH   3   4
ENDBRANCH   2   3
ENDBRANCH   1   2
BRANCH   1  10
ATOM     10  C   UNL     1      29.231  -7.316  22.331  1.00  0.00     0.000 C 
BRANCH  10  11
ATOM     11  C   UNL     1      29.429  -8.838  22.238  1.00  0.00    -0.000 C 
BRANCH  11  12
ATOM     12  C   UNL     1      29.008  -9.410  20.873  1.00  0.00    -0.000 C 
BRANCH  12  13
ATOM     13  C   UNL     1      28.093 -10.639  21.017  1.00  0.00    -0.000 C 
BRANCH  13  14
ATOM     14  C   UNL     1      26.758 -10.502  20.252  1.00  0.00    -0.000 C 
BRANCH  14  15
ATOM     15  C   UNL     1      26.310 -11.801  19.556  1.00  0.00    -0.000 C 
BRANCH  15  16
ATOM     16  C   UNL     1      27.408 -12.871  19.438  1.00  0.00    -0.003 C 
ATOM     17  C   UNL     1      27.317 -13.674  18.140  1.00  0.00     0.004 C 
ENDBRANCH  15  16
ENDBRANCH  14  15
ENDBRANCH  13  14
ENDBRANCH  12  13
ENDBRANCH  11  12
ENDBRANCH  10  11
ENDBRANCH   1  10
TORSDOF 13
ENDMDL
MODEL 8
REMARK VINA RESULT:    -5.993      5.676      7.427
REMARK INTER + INTRA:         -11.210
REMARK INTER:                  -9.968
REMARK INTRA:                  -1.242
REMARK UNBOUND:                -0.662
REMARK SMILES CCCCCCCCCCCCCCC(=O)[O-]
REMARK SMILES IDX 9 1 10 2 11 3 12 4 13 5 14 6 15 7 16 8 17 9 8 10 7 11 6 12
REMARK SMILES IDX 5 13 4 14 3 15 2 16 1 17
REMARK H PARENT
REMARK Flexibility Score: inf
ROOT
ATOM      1  C   UNL     1      30.445  -6.869  22.131  1.00  0.00     0.000 C 
ENDROOT
BRANCH   1   2
ATOM      2  C   UNL     1      29.233  -6.401  22.952  1.00  0.00     0.000 C 
BRANCH   2   3
ATOM      3  C   UNL     1      28.103  -5.839  22.074  1.00  0.00     0.000 C 
BRANCH   3   4
ATOM      4  C   UNL     1      26.838  -6.698  22.192  1.00  0.00     0.000 C 
BRANCH   4   5
ATOM      5  C   UNL     1      25.907  -6.477  20.991  1.00  0.00     0.006 C 
BRANCH   5   6
ATOM      6  C   UNL     1      26.427  -5.384  20.048  1.00  0.00     0.053 C 
BRANCH   6   7
ATOM      7  C   UNL     1      27.021  -5.963  18.800  1.00  0.00     0.041 C 
ATOM      8  O   UNL     1      27.801  -5.275  18.092  1.00  0.00    -0.550 OA
ATOM      9  O   UNL     1      26.685  -7.250  18.401  1.00  0.00    -0.550 OA
ENDBRANCH   6   7
ENDBRANCH   5   6
ENDBRANCH   4   5
ENDBRANCH   3   4
ENDBRANCH   2   3
ENDBRANCH   1   2
BRANCH   1  10
ATOM     10  C   UNL     1      30.580  -8.401  22.100  1.00  0.00     0.000 C 
BRANCH  10  11
ATOM     11  C   UNL     1      29.843  -9.036  20.909  1.00  0.00    -0.000 C 
BRANCH  11  12
ATOM     12  C   UNL     1      28.813 -10.094  21.343  1.00  0.00    -0.000 C 
BRANCH  12  13
ATOM     13  C   UNL     1      27.494  -9.974  20.561  1.00  0.00    -0.000 C 
BRANCH  13  14
ATOM     14  C   UNL     1      26.769 -11.325  20.372  1.00  0.00    -0.000 C 
BRANCH  14  15
ATOM     15  C   UNL     1      27.717 -12.490  20.029  1.00  0.00    -0.000 C 
BRANCH  15  16
ATOM     16  C   UNL     1      27.300 -13.308  18.795  1.00  0.00    -0.003 C 
ATOM     17  C   UNL     1      26.232 -12.609  17.953  1.00  0.00     0.004 C 
ENDBRANCH  15  16
ENDBRANCH  14  15
ENDBRANCH  13  14
ENDBRANCH  12  13
ENDBRANCH  11  12
ENDBRANCH  10  11
ENDBRANCH   1  10
TORSDOF 13
ENDMDL
MODEL 9
REMARK VINA RESULT:    -5.971      1.832      2.062
REMARK INTER + INTRA:         -11.171
REMARK INTER:                 -10.478
REMARK INTRA:                  -0.693
REMARK UNBOUND:                -0.662
REMARK SMILES CCCCCCCCCCCCCCC(=O)[O-]
REMARK SMILES IDX 9 1 10 2 11 3 12 4 13 5 14 6 15 7 16 8 17 9 8 10 7 11 6 12
REMARK SMILES IDX 5 13 4 14 3 15 2 16 1 17
REMARK H PARENT
REMARK Flexibility Score: inf
ROOT
ATOM      1  C   UNL     1      32.266  -9.152  20.583  1.00  0.00     0.000 C 
ENDROOT
BRANCH   1   2
ATOM      2  C   UNL     1      32.738  -8.094  21.593  1.00  0.00     0.000 C 
BRANCH   2   3
ATOM      3  C   UNL     1      34.216  -7.714  21.408  1.00  0.00     0.000 C 
BRANCH   3   4
ATOM      4  C   UNL     1      34.638  -6.642  22.420  1.00  0.00     0.000 C 
BRANCH   4   5
ATOM      5  C   UNL     1      36.001  -6.979  23.042  1.00  0.00     0.006 C 
BRANCH   5   6
ATOM      6  C   UNL     1      36.425  -8.427  22.764  1.00  0.00     0.053 C 
BRANCH   6   7
ATOM      7  C   UNL     1      37.725  -8.763  23.426  1.00  0.00     0.041 C 
ATOM      8  O   UNL     1      38.812  -8.375  22.922  1.00  0.00    -0.550 OA
ATOM      9  O   UNL     1      37.740  -9.535  24.582  1.00  0.00    -0.550 OA
ENDBRANCH   6   7
ENDBRANCH   5   6
ENDBRANCH   4   5
ENDBRANCH   3   4
ENDBRANCH   2   3
ENDBRANCH   1   2
BRANCH   1  10
ATOM     10  C   UNL     1      30.740  -9.350  20.605  1.00  0.00     0.000 C 
BRANCH  10  11
ATOM     11  C   UNL     1      30.161  -9.331  22.029  1.00  0.00    -0.000 C 
BRANCH  11  12
ATOM     12  C   UNL     1      28.706  -9.827  22.086  1.00  0.00    -0.000 C 
BRANCH  12  13
ATOM     13  C   UNL     1      28.106 -10.023  20.682  1.00  0.00    -0.000 C 
BRANCH  13  14
ATOM     14  C   UNL     1      27.256 -11.307  20.554  1.00  0.00    -0.000 C 
BRANCH  14  15
ATOM     15  C   UNL     1      28.073 -12.548  20.146  1.00  0.00    -0.000 C 
BRANCH  15  16
ATOM     16  C   UNL     1      27.437 -13.390  19.027  1.00  0.00    -0.003 C 
ATOM     17  C   UNL     1      26.333 -12.642  18.277  1.00  0.00     0.004 C 
ENDBRANCH  15  16
ENDBRANCH  14  15
ENDBRANCH  13  14
ENDBRANCH  12  13
ENDBRANCH  11  12
ENDBRANCH  10  11
ENDBRANCH   1  10
TORSDOF 13
ENDMDL
