MODEL 1
REMARK VINA RESULT:    44.528      0.000      0.000
REMARK INTER + INTRA:          49.037
REMARK INTER:                  48.432
REMARK INTRA:                   0.605
REMARK UNBOUND:                 0.605
REMARK SMILES C[C@@H]1[C@H](C)CC[C@]2(C(=O)[O-])CC[C@]3(C)C(=CC[C@@H]4[C@]5(C)CC[C@@H](O)C(C)(C)[C@H]5CC[C@@]43C)[C@H]12
REMARK SMILES IDX 7 1 6 2 11 3 33 4 5 5 12 6 15 7 2 8 3 9 13 10 16 11 1 12
REMARK SMILES IDX 4 13 14 14 31 15 17 16 18 17 30 18 32 19 19 20 29 21 28 22
REMARK SMILES IDX 21 23 20 24 25 25 22 26 23 27 26 28 27 29 8 30 9 31 10 32
REMARK SMILES IDX 24 33
REMARK H PARENT 24 34
REMARK Flexibility Score: inf
ROOT
ATOM      1  C   UNL     1      15.836  -5.383  15.578  1.00  0.00     0.017 C 
ATOM      2  C   UNL     1      15.132  -4.059  16.017  1.00  0.00     0.014 C 
ATOM      3  C   UNL     1      16.901  -5.028  14.525  1.00  0.00     0.014 C 
ATOM      4  C   UNL     1      14.797  -6.410  14.977  1.00  0.00     0.030 C 
ATOM      5  C   UNL     1      13.762  -4.322  16.632  1.00  0.00     0.004 C 
ATOM      6  C   UNL     1      17.666  -6.262  14.052  1.00  0.00     0.013 C 
ATOM      7  C   UNL     1      15.387  -7.441  13.989  1.00  0.00    -0.063 C 
ATOM      8  C   UNL     1      13.469  -5.750  14.463  1.00  0.00    -0.003 C 
ATOM      9  C   UNL     1      12.772  -4.932  15.608  1.00  0.00    -0.011 C 
ATOM     10  C   UNL     1      16.782  -7.348  13.347  1.00  0.00    -0.006 C 
ATOM     11  C   UNL     1      14.635  -8.523  13.723  1.00  0.00    -0.027 C 
ATOM     12  C   UNL     1      13.633  -4.998  13.126  1.00  0.00     0.008 C 
ATOM     13  C   UNL     1      11.772  -3.876  15.105  1.00  0.00     0.008 C 
ATOM     14  C   UNL     1      16.576  -6.866  11.877  1.00  0.00     0.017 C 
ATOM     15  C   UNL     1      17.484  -8.807  13.376  1.00  0.00    -0.020 C 
ATOM     16  C   UNL     1      15.062  -9.680  12.870  1.00  0.00     0.032 C 
ATOM     17  C   UNL     1      16.596  -9.844  12.551  1.00  0.00     0.006 C 
ATOM     18  C   UNL     1      17.620  -9.349  14.843  1.00  0.00     0.008 C 
ATOM     19  C   UNL     1      18.922  -8.675  12.773  1.00  0.00     0.012 C 
ATOM     20  C   UNL     1      17.067 -11.376  12.631  1.00  0.00    -0.025 C 
ATOM     21  C   UNL     1      18.064 -10.822  14.952  1.00  0.00     0.005 C 
ATOM     22  C   UNL     1      17.145 -11.783  14.154  1.00  0.00     0.003 C 
ATOM     23  C   UNL     1      16.052 -12.316  11.882  1.00  0.00     0.010 C 
ATOM     24  C   UNL     1      18.433 -11.552  11.880  1.00  0.00     0.012 C 
ATOM     25  C   UNL     1      17.365 -13.324  14.447  1.00  0.00    -0.006 C 
ATOM     26  C   UNL     1      16.288 -13.815  12.134  1.00  0.00     0.033 C 
ATOM     27  C   UNL     1      16.301 -14.142  13.638  1.00  0.00     0.120 C 
ATOM     28  C   UNL     1      18.805 -13.811  14.135  1.00  0.00     0.014 C 
ATOM     29  C   UNL     1      17.109 -13.609  15.954  1.00  0.00     0.014 C 
ENDROOT
BRANCH   1  30
ATOM     30  C   UNL     1      16.549  -5.961  16.805  1.00  0.00     0.048 C 
ATOM     31  O   UNL     1      17.118  -7.085  16.769  1.00  0.00    -0.550 OA
ATOM     32  O   UNL     1      16.639  -5.211  17.974  1.00  0.00    -0.550 OA
ENDBRANCH   1  30
BRANCH  27  33
ATOM     33  O   UNL     1      16.433 -15.529  13.843  1.00  0.00    -0.393 OA
ATOM     34  H   UNL     1      17.388 -15.726  14.028  1.00  0.00     0.210 HD
ENDBRANCH  27  33
TORSDOF 2
ENDMDL
