MODEL 1
REMARK VINA RESULT:    -3.992      0.000      0.000
REMARK INTER + INTRA:          -6.300
REMARK INTER:                  -5.625
REMARK INTRA:                  -0.674
REMARK UNBOUND:                -0.674
REMARK SMILES CCCCCCCCC(=O)[O-]
REMARK SMILES IDX 6 1 7 2 8 3 9 4 10 5 11 6 5 7 4 8 3 9 2 10 1 11
REMARK H PARENT
REMARK Flexibility Score: inf
ROOT
ATOM      1  C   UNL     1     -41.235  21.028 -28.282  1.00  0.00     0.000 C 
ENDROOT
BRANCH   1   2
ATOM      2  C   UNL     1     -41.444  22.430 -28.885  1.00  0.00     0.006 C 
BRANCH   2   3
ATOM      3  C   UNL     1     -40.148  23.134 -29.316  1.00  0.00     0.053 C 
BRANCH   3   4
ATOM      4  C   UNL     1     -39.754  22.777 -30.716  1.00  0.00     0.041 C 
ATOM      5  O   UNL     1     -40.636  22.536 -31.581  1.00  0.00    -0.550 OA
ATOM      6  O   UNL     1     -38.411  22.742 -31.073  1.00  0.00    -0.550 OA
ENDBRANCH   3   4
ENDBRANCH   2   3
ENDBRANCH   1   2
BRANCH   1   7
ATOM      7  C   UNL     1     -39.852  20.861 -27.630  1.00  0.00     0.000 C 
BRANCH   7   8
ATOM      8  C   UNL     1     -39.168  19.543 -28.028  1.00  0.00    -0.000 C 
BRANCH   8   9
ATOM      9  C   UNL     1     -38.899  19.447 -29.541  1.00  0.00    -0.000 C 
BRANCH   9  10
ATOM     10  C   UNL     1     -39.653  18.282 -30.198  1.00  0.00    -0.003 C 
ATOM     11  C   UNL     1     -40.849  18.748 -31.029  1.00  0.00     0.004 C 
ENDBRANCH   9  10
ENDBRANCH   8   9
ENDBRANCH   7   8
ENDBRANCH   1   7
TORSDOF 7
ENDMDL
MODEL 2
REMARK VINA RESULT:    -3.989      1.840      3.992
REMARK INTER + INTRA:          -6.296
REMARK INTER:                  -5.562
REMARK INTRA:                  -0.734
REMARK UNBOUND:                -0.674
REMARK SMILES CCCCCCCCC(=O)[O-]
REMARK SMILES IDX 6 1 7 2 8 3 9 4 10 5 11 6 5 7 4 8 3 9 2 10 1 11
REMARK H PARENT
REMARK Flexibility Score: inf
ROOT
ATOM      1  C   UNL     1     -38.019  20.549 -28.723  1.00  0.00     0.000 C 
ENDROOT
BRANCH   1   2
ATOM      2  C   UNL     1     -38.133  19.581 -29.915  1.00  0.00     0.006 C 
BRANCH   2   3
ATOM      3  C   UNL     1     -39.347  18.640 -29.856  1.00  0.00     0.053 C 
BRANCH   3   4
ATOM      4  C   UNL     1     -40.427  19.059 -30.804  1.00  0.00     0.041 C 
ATOM      5  O   UNL     1     -40.417  20.212 -31.308  1.00  0.00    -0.550 OA
ATOM      6  O   UNL     1     -41.429  18.163 -31.156  1.00  0.00    -0.550 OA
ENDBRANCH   3   4
ENDBRANCH   2   3
ENDBRANCH   1   2
BRANCH   1   7
ATOM      7  C   UNL     1     -38.076  22.026 -29.149  1.00  0.00     0.000 C 
BRANCH   7   8
ATOM      8  C   UNL     1     -39.241  22.784 -28.491  1.00  0.00    -0.000 C 
BRANCH   8   9
ATOM      9  C   UNL     1     -40.398  23.059 -29.468  1.00  0.00    -0.000 C 
BRANCH   9  10
ATOM     10  C   UNL     1     -41.762  22.648 -28.892  1.00  0.00    -0.003 C 
ATOM     11  C   UNL     1     -41.720  21.292 -28.188  1.00  0.00     0.004 C 
ENDBRANCH   9  10
ENDBRANCH   8   9
ENDBRANCH   7   8
ENDBRANCH   1   7
TORSDOF 7
ENDMDL
MODEL 3
REMARK VINA RESULT:    -3.901      2.344      3.570
REMARK INTER + INTRA:          -6.172
REMARK INTER:                  -5.467
REMARK INTRA:                  -0.705
REMARK UNBOUND:                -0.674
REMARK SMILES CCCCCCCCC(=O)[O-]
REMARK SMILES IDX 6 1 7 2 8 3 9 4 10 5 11 6 5 7 4 8 3 9 2 10 1 11
REMARK H PARENT
REMARK Flexibility Score: inf
ROOT
ATOM      1  C   UNL     1     -40.033  18.922 -30.347  1.00  0.00     0.000 C 
ENDROOT
BRANCH   1   2
ATOM      2  C   UNL     1     -40.457  20.379 -30.080  1.00  0.00     0.006 C 
BRANCH   2   3
ATOM      3  C   UNL     1     -40.690  20.710 -28.598  1.00  0.00     0.053 C 
BRANCH   3   4
ATOM      4  C   UNL     1     -41.922  21.538 -28.396  1.00  0.00     0.041 C 
ATOM      5  O   UNL     1     -42.893  21.080 -27.739  1.00  0.00    -0.550 OA
ATOM      6  O   UNL     1     -41.984  22.828 -28.908  1.00  0.00    -0.550 OA
ENDBRANCH   3   4
ENDBRANCH   2   3
ENDBRANCH   1   2
BRANCH   1   7
ATOM      7  C   UNL     1     -38.806  18.499 -29.522  1.00  0.00     0.000 C 
BRANCH   7   8
ATOM      8  C   UNL     1     -37.504  19.138 -30.033  1.00  0.00    -0.000 C 
BRANCH   8   9
ATOM      9  C   UNL     1     -36.757  19.921 -28.938  1.00  0.00    -0.000 C 
BRANCH   9  10
ATOM     10  C   UNL     1     -37.043  21.429 -28.997  1.00  0.00    -0.003 C 
ATOM     11  C   UNL     1     -37.057  21.971 -30.427  1.00  0.00     0.004 C 
ENDBRANCH   9  10
ENDBRANCH   8   9
ENDBRANCH   7   8
ENDBRANCH   1   7
TORSDOF 7
ENDMDL
MODEL 4
REMARK VINA RESULT:    -3.867      1.916      3.157
REMARK INTER + INTRA:          -6.123
REMARK INTER:                  -5.391
REMARK INTRA:                  -0.732
REMARK UNBOUND:                -0.674
REMARK SMILES CCCCCCCCC(=O)[O-]
REMARK SMILES IDX 6 1 7 2 8 3 9 4 10 5 11 6 5 7 4 8 3 9 2 10 1 11
REMARK H PARENT
REMARK Flexibility Score: inf
ROOT
ATOM      1  C   UNL     1     -39.243  21.369 -30.881  1.00  0.00     0.000 C 
ENDROOT
BRANCH   1   2
ATOM      2  C   UNL     1     -39.908  22.740 -30.658  1.00  0.00     0.006 C 
BRANCH   2   3
ATOM      3  C   UNL     1     -40.289  23.031 -29.198  1.00  0.00     0.053 C 
BRANCH   3   4
ATOM      4  C   UNL     1     -41.745  22.795 -28.941  1.00  0.00     0.041 C 
ATOM      5  O   UNL     1     -42.606  23.590 -29.400  1.00  0.00    -0.550 OA
ATOM      6  O   UNL     1     -42.152  21.679 -28.220  1.00  0.00    -0.550 OA
ENDBRANCH   3   4
ENDBRANCH   2   3
ENDBRANCH   1   2
BRANCH   1   7
ATOM      7  C   UNL     1     -40.263  20.220 -30.967  1.00  0.00     0.000 C 
BRANCH   7   8
ATOM      8  C   UNL     1     -39.963  19.091 -29.968  1.00  0.00    -0.000 C 
BRANCH   8   9
ATOM      9  C   UNL     1     -38.723  19.377 -29.102  1.00  0.00    -0.000 C 
BRANCH   9  10
ATOM     10  C   UNL     1     -39.078  19.611 -27.626  1.00  0.00    -0.003 C 
ATOM     11  C   UNL     1     -38.076  20.522 -26.916  1.00  0.00     0.004 C 
ENDBRANCH   9  10
ENDBRANCH   8   9
ENDBRANCH   7   8
ENDBRANCH   1   7
TORSDOF 7
ENDMDL
MODEL 5
REMARK VINA RESULT:    -3.865      2.451      4.548
REMARK INTER + INTRA:          -6.121
REMARK INTER:                  -5.571
REMARK INTRA:                  -0.549
REMARK UNBOUND:                -0.674
REMARK SMILES CCCCCCCCC(=O)[O-]
REMARK SMILES IDX 6 1 7 2 8 3 9 4 10 5 11 6 5 7 4 8 3 9 2 10 1 11
REMARK H PARENT
REMARK Flexibility Score: inf
ROOT
ATOM      1  C   UNL     1     -40.452  20.741 -28.754  1.00  0.00     0.000 C 
ENDROOT
BRANCH   1   2
ATOM      2  C   UNL     1     -40.292  20.384 -30.244  1.00  0.00     0.006 C 
BRANCH   2   3
ATOM      3  C   UNL     1     -40.214  18.877 -30.531  1.00  0.00     0.053 C 
BRANCH   3   4
ATOM      4  C   UNL     1     -39.020  18.244 -29.886  1.00  0.00     0.041 C 
ATOM      5  O   UNL     1     -39.147  17.185 -29.217  1.00  0.00    -0.550 OA
ATOM      6  O   UNL     1     -37.761  18.808 -30.051  1.00  0.00    -0.550 OA
ENDBRANCH   3   4
ENDBRANCH   2   3
ENDBRANCH   1   2
BRANCH   1   7
ATOM      7  C   UNL     1     -41.634  21.691 -28.494  1.00  0.00     0.000 C 
BRANCH   7   8
ATOM      8  C   UNL     1     -41.528  22.997 -29.298  1.00  0.00    -0.000 C 
BRANCH   8   9
ATOM      9  C   UNL     1     -41.040  24.182 -28.445  1.00  0.00    -0.000 C 
BRANCH   9  10
ATOM     10  C   UNL     1     -39.524  24.400 -28.557  1.00  0.00    -0.003 C 
ATOM     11  C   UNL     1     -38.972  24.007 -29.928  1.00  0.00     0.004 C 
ENDBRANCH   9  10
ENDBRANCH   8   9
ENDBRANCH   7   8
ENDBRANCH   1   7
TORSDOF 7
ENDMDL
MODEL 6
REMARK VINA RESULT:    -3.823      2.433      3.908
REMARK INTER + INTRA:          -6.061
REMARK INTER:                  -5.289
REMARK INTRA:                  -0.772
REMARK UNBOUND:                -0.674
REMARK SMILES CCCCCCCCC(=O)[O-]
REMARK SMILES IDX 6 1 7 2 8 3 9 4 10 5 11 6 5 7 4 8 3 9 2 10 1 11
REMARK H PARENT
REMARK Flexibility Score: inf
ROOT
ATOM      1  C   UNL     1     -40.113  20.767 -27.801  1.00  0.00     0.000 C 
ENDROOT
BRANCH   1   2
ATOM      2  C   UNL     1     -40.931  20.840 -29.104  1.00  0.00     0.006 C 
BRANCH   2   3
ATOM      3  C   UNL     1     -40.190  20.323 -30.348  1.00  0.00     0.053 C 
BRANCH   3   4
ATOM      4  C   UNL     1     -40.342  18.843 -30.516  1.00  0.00     0.041 C 
ATOM      5  O   UNL     1     -41.295  18.376 -31.194  1.00  0.00    -0.550 OA
ATOM      6  O   UNL     1     -39.412  17.980 -29.949  1.00  0.00    -0.550 OA
ENDBRANCH   3   4
ENDBRANCH   2   3
ENDBRANCH   1   2
BRANCH   1   7
ATOM      7  C   UNL     1     -38.597  20.861 -28.045  1.00  0.00     0.000 C 
BRANCH   7   8
ATOM      8  C   UNL     1     -38.081  22.309 -27.993  1.00  0.00    -0.000 C 
BRANCH   8   9
ATOM      9  C   UNL     1     -37.785  22.884 -29.389  1.00  0.00    -0.000 C 
BRANCH   9  10
ATOM     10  C   UNL     1     -38.789  23.972 -29.800  1.00  0.00    -0.003 C 
ATOM     11  C   UNL     1     -39.698  24.401 -28.648  1.00  0.00     0.004 C 
ENDBRANCH   9  10
ENDBRANCH   8   9
ENDBRANCH   7   8
ENDBRANCH   1   7
TORSDOF 7
ENDMDL
MODEL 7
REMARK VINA RESULT:    -3.802      1.881      2.649
REMARK INTER + INTRA:          -6.033
REMARK INTER:                  -5.246
REMARK INTRA:                  -0.786
REMARK UNBOUND:                -0.674
REMARK SMILES CCCCCCCCC(=O)[O-]
REMARK SMILES IDX 6 1 7 2 8 3 9 4 10 5 11 6 5 7 4 8 3 9 2 10 1 11
REMARK H PARENT
REMARK Flexibility Score: inf
ROOT
ATOM      1  C   UNL     1     -38.130  22.262 -30.668  1.00  0.00     0.000 C 
ENDROOT
BRANCH   1   2
ATOM      2  C   UNL     1     -39.585  22.739 -30.498  1.00  0.00     0.006 C 
BRANCH   2   3
ATOM      3  C   UNL     1     -40.052  22.842 -29.037  1.00  0.00     0.053 C 
BRANCH   3   4
ATOM      4  C   UNL     1     -41.515  22.557 -28.895  1.00  0.00     0.041 C 
ATOM      5  O   UNL     1     -41.904  21.508 -28.318  1.00  0.00    -0.550 OA
ATOM      6  O   UNL     1     -42.450  23.467 -29.374  1.00  0.00    -0.550 OA
ENDBRANCH   3   4
ENDBRANCH   2   3
ENDBRANCH   1   2
BRANCH   1   7
ATOM      7  C   UNL     1     -37.601  21.516 -29.431  1.00  0.00     0.000 C 
BRANCH   7   8
ATOM      8  C   UNL     1     -37.599  19.990 -29.618  1.00  0.00    -0.000 C 
BRANCH   8   9
ATOM      9  C   UNL     1     -38.860  19.320 -29.044  1.00  0.00    -0.000 C 
BRANCH   9  10
ATOM     10  C   UNL     1     -39.578  18.437 -30.076  1.00  0.00    -0.003 C 
ATOM     11  C   UNL     1     -40.729  19.162 -30.773  1.00  0.00     0.004 C 
ENDBRANCH   9  10
ENDBRANCH   8   9
ENDBRANCH   7   8
ENDBRANCH   1   7
TORSDOF 7
ENDMDL
MODEL 8
REMARK VINA RESULT:    -3.772      1.881      3.896
REMARK INTER + INTRA:          -5.989
REMARK INTER:                  -5.347
REMARK INTRA:                  -0.642
REMARK UNBOUND:                -0.674
REMARK SMILES CCCCCCCCC(=O)[O-]
REMARK SMILES IDX 6 1 7 2 8 3 9 4 10 5 11 6 5 7 4 8 3 9 2 10 1 11
REMARK H PARENT
REMARK Flexibility Score: inf
ROOT
ATOM      1  C   UNL     1     -39.842  20.917 -27.730  1.00  0.00     0.000 C 
ENDROOT
BRANCH   1   2
ATOM      2  C   UNL     1     -39.219  19.526 -27.952  1.00  0.00     0.006 C 
BRANCH   2   3
ATOM      3  C   UNL     1     -39.271  19.032 -29.406  1.00  0.00     0.053 C 
BRANCH   3   4
ATOM      4  C   UNL     1     -37.918  19.031 -30.047  1.00  0.00     0.041 C 
ATOM      5  O   UNL     1     -37.237  20.089 -30.092  1.00  0.00    -0.550 OA
ATOM      6  O   UNL     1     -37.395  17.853 -30.566  1.00  0.00    -0.550 OA
ENDBRANCH   3   4
ENDBRANCH   2   3
ENDBRANCH   1   2
BRANCH   1   7
ATOM      7  C   UNL     1     -41.270  21.025 -28.293  1.00  0.00     0.000 C 
BRANCH   7   8
ATOM      8  C   UNL     1     -41.572  22.419 -28.867  1.00  0.00    -0.000 C 
BRANCH   8   9
ATOM      9  C   UNL     1     -40.400  22.992 -29.684  1.00  0.00    -0.000 C 
BRANCH   9  10
ATOM     10  C   UNL     1     -40.272  22.336 -31.066  1.00  0.00    -0.003 C 
ATOM     11  C   UNL     1     -39.035  22.807 -31.831  1.00  0.00     0.004 C 
ENDBRANCH   9  10
ENDBRANCH   8   9
ENDBRANCH   7   8
ENDBRANCH   1   7
TORSDOF 7
ENDMDL
MODEL 9
REMARK VINA RESULT:    -3.678      2.375      4.271
REMARK INTER + INTRA:          -5.858
REMARK INTER:                  -4.960
REMARK INTRA:                  -0.898
REMARK UNBOUND:                -0.674
REMARK SMILES CCCCCCCCC(=O)[O-]
REMARK SMILES IDX 6 1 7 2 8 3 9 4 10 5 11 6 5 7 4 8 3 9 2 10 1 11
REMARK H PARENT
REMARK Flexibility Score: inf
ROOT
ATOM      1  C   UNL     1     -38.078  18.648 -30.016  1.00  0.00     0.000 C 
ENDROOT
BRANCH   1   2
ATOM      2  C   UNL     1     -37.363  20.002 -29.853  1.00  0.00     0.006 C 
BRANCH   2   3
ATOM      3  C   UNL     1     -36.606  20.163 -28.525  1.00  0.00     0.053 C 
BRANCH   3   4
ATOM      4  C   UNL     1     -37.444  20.833 -27.480  1.00  0.00     0.041 C 
ATOM      5  O   UNL     1     -37.281  22.054 -27.223  1.00  0.00    -0.550 OA
ATOM      6  O   UNL     1     -38.428  20.114 -26.812  1.00  0.00    -0.550 OA
ENDBRANCH   3   4
ENDBRANCH   2   3
ENDBRANCH   1   2
BRANCH   1   7
ATOM      7  C   UNL     1     -39.611  18.783 -30.026  1.00  0.00     0.000 C 
BRANCH   7   8
ATOM      8  C   UNL     1     -40.073  20.235 -30.229  1.00  0.00    -0.000 C 
BRANCH   8   9
ATOM      9  C   UNL     1     -40.992  20.730 -29.098  1.00  0.00    -0.000 C 
BRANCH   9  10
ATOM     10  C   UNL     1     -40.838  22.235 -28.833  1.00  0.00    -0.003 C 
ATOM     11  C   UNL     1     -39.769  22.882 -29.713  1.00  0.00     0.004 C 
ENDBRANCH   9  10
ENDBRANCH   8   9
ENDBRANCH   7   8
ENDBRANCH   1   7
TORSDOF 7
ENDMDL
