MODEL 1
REMARK VINA RESULT:     3.037      0.000      0.000
REMARK INTER + INTRA:           3.887
REMARK INTER:                   4.103
REMARK INTRA:                  -0.216
REMARK UNBOUND:                -0.216
REMARK SMILES CCCCCCCC(=O)[O-]
REMARK SMILES IDX 5 1 6 2 7 3 8 4 9 5 10 6 4 7 3 8 2 9 1 10
REMARK H PARENT
REMARK Flexibility Score: inf
ROOT
ATOM      1  C   UNL     1       1.480   7.140  -3.245  1.00  0.00     0.000 C 
ENDROOT
BRANCH   1   2
ATOM      2  C   UNL     1       2.949   7.583  -3.362  1.00  0.00     0.006 C 
BRANCH   2   3
ATOM      3  C   UNL     1       3.783   7.226  -2.125  1.00  0.00     0.053 C 
BRANCH   3   4
ATOM      4  C   UNL     1       5.241   7.243  -2.456  1.00  0.00     0.041 C 
ATOM      5  O   UNL     1       5.770   6.262  -3.043  1.00  0.00    -0.550 OA
ATOM      6  O   UNL     1       6.029   8.321  -2.073  1.00  0.00    -0.550 OA
ENDBRANCH   3   4
ENDBRANCH   2   3
ENDBRANCH   1   2
BRANCH   1   7
ATOM      7  C   UNL     1       0.498   7.898  -4.158  1.00  0.00     0.000 C 
BRANCH   7   8
ATOM      8  C   UNL     1       1.205   8.723  -5.244  1.00  0.00    -0.000 C 
BRANCH   8   9
ATOM      9  C   UNL     1       0.399   8.720  -6.547  1.00  0.00    -0.003 C 
ATOM     10  C   UNL     1       1.280   8.363  -7.740  1.00  0.00     0.004 C 
ENDBRANCH   8   9
ENDBRANCH   7   8
ENDBRANCH   1   7
TORSDOF 6
ENDMDL
MODEL 2
REMARK VINA RESULT:     3.454      3.018      5.323
REMARK INTER + INTRA:           4.450
REMARK INTER:                   4.643
REMARK INTRA:                  -0.194
REMARK UNBOUND:                -0.216
REMARK SMILES CCCCCCCC(=O)[O-]
REMARK SMILES IDX 5 1 6 2 7 3 8 4 9 5 10 6 4 7 3 8 2 9 1 10
REMARK H PARENT
REMARK Flexibility Score: inf
ROOT
ATOM      1  C   UNL     1       1.272   7.685  -3.512  1.00  0.00     0.000 C 
ENDROOT
BRANCH   1   2
ATOM      2  C   UNL     1       0.493   7.726  -4.839  1.00  0.00     0.006 C 
BRANCH   2   3
ATOM      3  C   UNL     1       0.822   8.960  -5.689  1.00  0.00     0.053 C 
BRANCH   3   4
ATOM      4  C   UNL     1       1.428   8.549  -6.993  1.00  0.00     0.041 C 
ATOM      5  O   UNL     1       2.655   8.734  -7.208  1.00  0.00    -0.550 OA
ATOM      6  O   UNL     1       0.629   8.008  -7.992  1.00  0.00    -0.550 OA
ENDBRANCH   3   4
ENDBRANCH   2   3
ENDBRANCH   1   2
BRANCH   1   7
ATOM      7  C   UNL     1       2.804   7.607  -3.660  1.00  0.00     0.000 C 
BRANCH   7   8
ATOM      8  C   UNL     1       3.503   7.107  -2.387  1.00  0.00    -0.000 C 
BRANCH   8   9
ATOM      9  C   UNL     1       5.026   7.118  -2.558  1.00  0.00    -0.003 C 
ATOM     10  C   UNL     1       5.657   8.287  -1.807  1.00  0.00     0.004 C 
ENDBRANCH   8   9
ENDBRANCH   7   8
ENDBRANCH   1   7
TORSDOF 6
ENDMDL
MODEL 3
REMARK VINA RESULT:     3.839      3.004      5.290
REMARK INTER + INTRA:           4.970
REMARK INTER:                   5.181
REMARK INTRA:                  -0.211
REMARK UNBOUND:                -0.216
REMARK SMILES CCCCCCCC(=O)[O-]
REMARK SMILES IDX 5 1 6 2 7 3 8 4 9 5 10 6 4 7 3 8 2 9 1 10
REMARK H PARENT
REMARK Flexibility Score: inf
ROOT
ATOM      1  C   UNL     1       2.699   7.678  -3.618  1.00  0.00     0.000 C 
ENDROOT
BRANCH   1   2
ATOM      2  C   UNL     1       1.172   7.623  -3.430  1.00  0.00     0.006 C 
BRANCH   2   3
ATOM      3  C   UNL     1       0.405   7.612  -4.758  1.00  0.00     0.053 C 
BRANCH   3   4
ATOM      4  C   UNL     1       0.757   8.815  -5.574  1.00  0.00     0.041 C 
ATOM      5  O   UNL     1       0.377   9.960  -5.212  1.00  0.00    -0.550 OA
ATOM      6  O   UNL     1       1.463   8.669  -6.761  1.00  0.00    -0.550 OA
ENDBRANCH   3   4
ENDBRANCH   2   3
ENDBRANCH   1   2
BRANCH   1   7
ATOM      7  C   UNL     1       3.513   6.932  -2.543  1.00  0.00     0.000 C 
BRANCH   7   8
ATOM      8  C   UNL     1       4.909   7.535  -2.324  1.00  0.00    -0.000 C 
BRANCH   8   9
ATOM      9  C   UNL     1       6.001   6.480  -2.536  1.00  0.00    -0.003 C 
ATOM     10  C   UNL     1       5.549   5.409  -3.523  1.00  0.00     0.004 C 
ENDBRANCH   8   9
ENDBRANCH   7   8
ENDBRANCH   1   7
TORSDOF 6
ENDMDL
MODEL 4
REMARK VINA RESULT:     3.874      3.112      5.207
REMARK INTER + INTRA:           5.017
REMARK INTER:                   5.087
REMARK INTRA:                  -0.070
REMARK UNBOUND:                -0.216
REMARK SMILES CCCCCCCC(=O)[O-]
REMARK SMILES IDX 5 1 6 2 7 3 8 4 9 5 10 6 4 7 3 8 2 9 1 10
REMARK H PARENT
REMARK Flexibility Score: inf
ROOT
ATOM      1  C   UNL     1       3.632   7.271  -2.351  1.00  0.00     0.000 C 
ENDROOT
BRANCH   1   2
ATOM      2  C   UNL     1       2.964   7.705  -3.669  1.00  0.00     0.006 C 
BRANCH   2   3
ATOM      3  C   UNL     1       1.467   7.375  -3.718  1.00  0.00     0.053 C 
BRANCH   3   4
ATOM      4  C   UNL     1       0.715   8.464  -4.414  1.00  0.00     0.041 C 
ATOM      5  O   UNL     1       1.018   8.790  -5.593  1.00  0.00    -0.550 OA
ATOM      6  O   UNL     1      -0.288   9.153  -3.746  1.00  0.00    -0.550 OA
ENDBRANCH   3   4
ENDBRANCH   2   3
ENDBRANCH   1   2
BRANCH   1   7
ATOM      7  C   UNL     1       5.130   7.615  -2.238  1.00  0.00     0.000 C 
BRANCH   7   8
ATOM      8  C   UNL     1       6.045   6.449  -2.640  1.00  0.00    -0.000 C 
BRANCH   8   9
ATOM      9  C   UNL     1       5.249   5.345  -3.345  1.00  0.00    -0.003 C 
ATOM     10  C   UNL     1       6.069   4.696  -4.455  1.00  0.00     0.004 C 
ENDBRANCH   8   9
ENDBRANCH   7   8
ENDBRANCH   1   7
TORSDOF 6
ENDMDL
MODEL 5
REMARK VINA RESULT:     4.568      1.598      2.174
REMARK INTER + INTRA:           5.955
REMARK INTER:                   6.060
REMARK INTRA:                  -0.105
REMARK UNBOUND:                -0.216
REMARK SMILES CCCCCCCC(=O)[O-]
REMARK SMILES IDX 5 1 6 2 7 3 8 4 9 5 10 6 4 7 3 8 2 9 1 10
REMARK H PARENT
REMARK Flexibility Score: inf
ROOT
ATOM      1  C   UNL     1       3.283   7.696  -3.385  1.00  0.00     0.000 C 
ENDROOT
BRANCH   1   2
ATOM      2  C   UNL     1       4.287   7.367  -2.265  1.00  0.00     0.006 C 
BRANCH   2   3
ATOM      3  C   UNL     1       5.591   6.754  -2.791  1.00  0.00     0.053 C 
BRANCH   3   4
ATOM      4  C   UNL     1       5.310   5.485  -3.530  1.00  0.00     0.041 C 
ATOM      5  O   UNL     1       4.391   4.715  -3.143  1.00  0.00    -0.550 OA
ATOM      6  O   UNL     1       6.094   5.125  -4.619  1.00  0.00    -0.550 OA
ENDBRANCH   3   4
ENDBRANCH   2   3
ENDBRANCH   1   2
BRANCH   1   7
ATOM      7  C   UNL     1       1.801   7.605  -2.976  1.00  0.00     0.000 C 
BRANCH   7   8
ATOM      8  C   UNL     1       0.861   7.397  -4.173  1.00  0.00    -0.000 C 
BRANCH   8   9
ATOM      9  C   UNL     1       0.517   8.735  -4.838  1.00  0.00    -0.003 C 
ATOM     10  C   UNL     1       0.917   8.738  -6.310  1.00  0.00     0.004 C 
ENDBRANCH   8   9
ENDBRANCH   7   8
ENDBRANCH   1   7
TORSDOF 6
ENDMDL
MODEL 6
REMARK VINA RESULT:     5.170      3.537      5.792
REMARK INTER + INTRA:           6.768
REMARK INTER:                   6.387
REMARK INTRA:                   0.381
REMARK UNBOUND:                -0.216
REMARK SMILES CCCCCCCC(=O)[O-]
REMARK SMILES IDX 5 1 6 2 7 3 8 4 9 5 10 6 4 7 3 8 2 9 1 10
REMARK H PARENT
REMARK Flexibility Score: inf
ROOT
ATOM      1  C   UNL     1       5.660   5.408  -3.251  1.00  0.00     0.000 C 
ENDROOT
BRANCH   1   2
ATOM      2  C   UNL     1       4.484   6.400  -3.304  1.00  0.00     0.006 C 
BRANCH   2   3
ATOM      3  C   UNL     1       4.368   7.259  -2.039  1.00  0.00     0.053 C 
BRANCH   3   4
ATOM      4  C   UNL     1       5.631   8.024  -1.809  1.00  0.00     0.041 C 
ATOM      5  O   UNL     1       5.607   9.282  -1.740  1.00  0.00    -0.550 OA
ATOM      6  O   UNL     1       6.844   7.354  -1.719  1.00  0.00    -0.550 OA
ENDBRANCH   3   4
ENDBRANCH   2   3
ENDBRANCH   1   2
BRANCH   1   7
ATOM      7  C   UNL     1       5.940   4.662  -4.570  1.00  0.00     0.000 C 
BRANCH   7   8
ATOM      8  C   UNL     1       6.764   3.381  -4.370  1.00  0.00    -0.000 C 
BRANCH   8   9
ATOM      9  C   UNL     1       7.116   3.181  -2.893  1.00  0.00    -0.003 C 
ATOM     10  C   UNL     1       7.320   1.704  -2.569  1.00  0.00     0.004 C 
ENDBRANCH   8   9
ENDBRANCH   7   8
ENDBRANCH   1   7
TORSDOF 6
ENDMDL
