MODEL 1
REMARK VINA RESULT:    -6.279      0.000      0.000
REMARK INTER + INTRA:          -9.075
REMARK INTER:                  -7.747
REMARK INTRA:                  -1.328
REMARK UNBOUND:                -1.328
REMARK SMILES CC(C)=CCC[C@@H](C)c1ccc(C)cc1
REMARK SMILES IDX 6 1 7 2 8 3 9 4 13 5 12 6 11 7 14 8 10 9 15 10 5 11 4 12
REMARK SMILES IDX 2 13 1 14 3 15
REMARK H PARENT
REMARK Flexibility Score: inf
ROOT
ATOM      1  C   UNL     1       8.988 195.529   2.086  1.00  0.00     0.012 C 
ENDROOT
BRANCH   1   2
ATOM      2  C   UNL     1       8.517 196.984   2.295  1.00  0.00     0.016 C 
ATOM      3  C   UNL     1       8.180 197.241   3.769  1.00  0.00     0.013 C 
BRANCH   2   4
ATOM      4  C   UNL     1       9.540 197.991   1.797  1.00  0.00    -0.045 A 
ATOM      5  C   UNL     1      12.477 200.823   0.377  1.00  0.00     0.044 C 
ATOM      6  C   UNL     1      11.470 199.839   0.897  1.00  0.00    -0.051 A 
ATOM      7  C   UNL     1      11.671 198.463   0.721  1.00  0.00     0.004 A 
ATOM      8  C   UNL     1      10.290 200.290   1.504  1.00  0.00     0.004 A 
ATOM      9  C   UNL     1      10.717 197.546   1.173  1.00  0.00     0.004 A 
ATOM     10  C   UNL     1       9.336 199.375   1.957  1.00  0.00     0.004 A 
ENDBRANCH   2   4
ENDBRANCH   1   2
BRANCH   1  11
ATOM     11  C   UNL     1       9.470 194.883   3.394  1.00  0.00     0.028 C 
BRANCH  11  12
ATOM     12  C   UNL     1      10.922 194.490   3.292  1.00  0.00    -0.028 C 
ATOM     13  C   UNL     1      11.948 195.216   3.788  1.00  0.00    -0.080 C 
ATOM     14  C   UNL     1      11.722 196.496   4.560  1.00  0.00     0.039 C 
ATOM     15  C   UNL     1      13.353 194.717   3.573  1.00  0.00     0.039 C 
ENDBRANCH  11  12
ENDBRANCH   1  11
TORSDOF 4
ENDMDL
MODEL 2
REMARK VINA RESULT:    -6.251      0.347      1.298
REMARK INTER + INTRA:          -9.041
REMARK INTER:                  -7.684
REMARK INTRA:                  -1.357
REMARK UNBOUND:                -1.328
REMARK SMILES CC(C)=CCC[C@@H](C)c1ccc(C)cc1
REMARK SMILES IDX 6 1 7 2 8 3 9 4 13 5 12 6 11 7 14 8 10 9 15 10 5 11 4 12
REMARK SMILES IDX 2 13 1 14 3 15
REMARK H PARENT
REMARK Flexibility Score: inf
ROOT
ATOM      1  C   UNL     1       9.246 195.624   2.045  1.00  0.00     0.012 C 
ENDROOT
BRANCH   1   2
ATOM      2  C   UNL     1       8.796 197.097   2.144  1.00  0.00     0.016 C 
ATOM      3  C   UNL     1       8.397 197.449   3.582  1.00  0.00     0.013 C 
BRANCH   2   4
ATOM      4  C   UNL     1       9.861 198.054   1.635  1.00  0.00    -0.045 A 
ATOM      5  C   UNL     1      12.862 200.807   0.196  1.00  0.00     0.044 C 
ATOM      6  C   UNL     1      11.807 199.851   0.669  1.00  0.00    -0.051 A 
ATOM      7  C   UNL     1      10.650 200.331   1.299  1.00  0.00     0.004 A 
ATOM      8  C   UNL     1      11.999 198.468   0.543  1.00  0.00     0.004 A 
ATOM      9  C   UNL     1       9.683 199.441   1.773  1.00  0.00     0.004 A 
ATOM     10  C   UNL     1      11.032 197.577   1.016  1.00  0.00     0.004 A 
ENDBRANCH   2   4
ENDBRANCH   1   2
BRANCH   1  11
ATOM     11  C   UNL     1       9.689 195.061   3.404  1.00  0.00     0.028 C 
BRANCH  11  12
ATOM     12  C   UNL     1      11.139 194.649   3.364  1.00  0.00    -0.028 C 
ATOM     13  C   UNL     1      12.159 195.396   3.841  1.00  0.00    -0.080 C 
ATOM     14  C   UNL     1      11.927 196.722   4.527  1.00  0.00     0.039 C 
ATOM     15  C   UNL     1      13.564 194.871   3.694  1.00  0.00     0.039 C 
ENDBRANCH  11  12
ENDBRANCH   1  11
TORSDOF 4
ENDMDL
MODEL 3
REMARK VINA RESULT:    -6.033      0.937      1.129
REMARK INTER + INTRA:          -8.772
REMARK INTER:                  -7.184
REMARK INTRA:                  -1.589
REMARK UNBOUND:                -1.328
REMARK SMILES CC(C)=CCC[C@@H](C)c1ccc(C)cc1
REMARK SMILES IDX 6 1 7 2 8 3 9 4 13 5 12 6 11 7 14 8 10 9 15 10 5 11 4 12
REMARK SMILES IDX 2 13 1 14 3 15
REMARK H PARENT
REMARK Flexibility Score: inf
ROOT
ATOM      1  C   UNL     1       9.725 195.074   2.706  1.00  0.00     0.012 C 
ENDROOT
BRANCH   1   2
ATOM      2  C   UNL     1       8.946 196.187   1.972  1.00  0.00     0.016 C 
ATOM      3  C   UNL     1       7.773 196.684   2.826  1.00  0.00     0.013 C 
BRANCH   2   4
ATOM      4  C   UNL     1       9.846 197.344   1.573  1.00  0.00    -0.045 A 
ATOM      5  C   UNL     1      12.435 200.607   0.428  1.00  0.00     0.044 C 
ATOM      6  C   UNL     1      11.549 199.472   0.852  1.00  0.00    -0.051 A 
ATOM      7  C   UNL     1      11.894 198.150   0.535  1.00  0.00     0.004 A 
ATOM      8  C   UNL     1      10.339 199.729   1.510  1.00  0.00     0.004 A 
ATOM      9  C   UNL     1      11.052 197.095   0.898  1.00  0.00     0.004 A 
ATOM     10  C   UNL     1       9.497 198.675   1.874  1.00  0.00     0.004 A 
ENDBRANCH   2   4
ENDBRANCH   1   2
BRANCH   1  11
ATOM     11  C   UNL     1      10.194 195.518   4.099  1.00  0.00     0.028 C 
BRANCH  11  12
ATOM     12  C   UNL     1      11.701 195.564   4.166  1.00  0.00    -0.028 C 
ATOM     13  C   UNL     1      12.422 196.679   4.414  1.00  0.00    -0.080 C 
ATOM     14  C   UNL     1      11.764 198.008   4.709  1.00  0.00     0.039 C 
ATOM     15  C   UNL     1      13.925 196.579   4.409  1.00  0.00     0.039 C 
ENDBRANCH  11  12
ENDBRANCH   1  11
TORSDOF 4
ENDMDL
MODEL 4
REMARK VINA RESULT:    -5.906      1.014      4.542
REMARK INTER + INTRA:          -8.615
REMARK INTER:                  -7.071
REMARK INTRA:                  -1.544
REMARK UNBOUND:                -1.328
REMARK SMILES CC(C)=CCC[C@@H](C)c1ccc(C)cc1
REMARK SMILES IDX 6 1 7 2 8 3 9 4 13 5 12 6 11 7 14 8 10 9 15 10 5 11 4 12
REMARK SMILES IDX 2 13 1 14 3 15
REMARK H PARENT
REMARK Flexibility Score: inf
ROOT
ATOM      1  C   UNL     1       8.127 197.272   3.767  1.00  0.00     0.012 C 
ENDROOT
BRANCH   1   2
ATOM      2  C   UNL     1       8.704 195.844   3.878  1.00  0.00     0.016 C 
ATOM      3  C   UNL     1       8.316 195.003   2.656  1.00  0.00     0.013 C 
BRANCH   2   4
ATOM      4  C   UNL     1      10.212 195.852   4.065  1.00  0.00    -0.045 A 
ATOM      5  C   UNL     1      14.496 195.915   4.611  1.00  0.00     0.044 C 
ATOM      6  C   UNL     1      13.011 195.908   4.396  1.00  0.00    -0.051 A 
ATOM      7  C   UNL     1      12.212 196.916   4.952  1.00  0.00     0.004 A 
ATOM      8  C   UNL     1      12.404 194.858   3.693  1.00  0.00     0.004 A 
ATOM      9  C   UNL     1      10.825 196.892   4.783  1.00  0.00     0.004 A 
ATOM     10  C   UNL     1      11.018 194.832   3.522  1.00  0.00     0.004 A 
ENDBRANCH   2   4
ENDBRANCH   1   2
BRANCH   1  11
ATOM     11  C   UNL     1       8.091 197.769   2.314  1.00  0.00     0.028 C 
BRANCH  11  12
ATOM     12  C   UNL     1       9.072 198.897   2.111  1.00  0.00    -0.028 C 
ATOM     13  C   UNL     1      10.286 198.759   1.533  1.00  0.00    -0.080 C 
ATOM     14  C   UNL     1      10.759 197.438   0.971  1.00  0.00     0.039 C 
ATOM     15  C   UNL     1      11.177 199.970   1.437  1.00  0.00     0.039 C 
ENDBRANCH  11  12
ENDBRANCH   1  11
TORSDOF 4
ENDMDL
MODEL 5
REMARK VINA RESULT:    -5.870      1.172      2.408
REMARK INTER + INTRA:          -8.571
REMARK INTER:                  -7.538
REMARK INTRA:                  -1.033
REMARK UNBOUND:                -1.328
REMARK SMILES CC(C)=CCC[C@@H](C)c1ccc(C)cc1
REMARK SMILES IDX 6 1 7 2 8 3 9 4 13 5 12 6 11 7 14 8 10 9 15 10 5 11 4 12
REMARK SMILES IDX 2 13 1 14 3 15
REMARK H PARENT
REMARK Flexibility Score: inf
ROOT
ATOM      1  C   UNL     1      10.136 194.893   3.519  1.00  0.00     0.012 C 
ENDROOT
BRANCH   1   2
ATOM      2  C   UNL     1       9.601 195.362   2.149  1.00  0.00     0.016 C 
ATOM      3  C   UNL     1       8.156 194.892   1.938  1.00  0.00     0.013 C 
BRANCH   2   4
ATOM      4  C   UNL     1       9.702 196.869   1.982  1.00  0.00    -0.045 A 
ATOM      5  C   UNL     1       9.949 201.156   1.522  1.00  0.00     0.044 C 
ATOM      6  C   UNL     1       9.850 199.665   1.655  1.00  0.00    -0.051 A 
ATOM      7  C   UNL     1       8.739 199.083   2.280  1.00  0.00     0.004 A 
ATOM      8  C   UNL     1      10.899 198.846   1.214  1.00  0.00     0.004 A 
ATOM      9  C   UNL     1       8.662 197.696   2.437  1.00  0.00     0.004 A 
ATOM     10  C   UNL     1      10.824 197.459   1.370  1.00  0.00     0.004 A 
ENDBRANCH   2   4
ENDBRANCH   1   2
BRANCH   1  11
ATOM     11  C   UNL     1      11.640 194.585   3.478  1.00  0.00     0.028 C 
BRANCH  11  12
ATOM     12  C   UNL     1      12.425 195.664   4.182  1.00  0.00    -0.028 C 
ATOM     13  C   UNL     1      13.558 196.222   3.701  1.00  0.00    -0.080 C 
ATOM     14  C   UNL     1      14.126 195.844   2.353  1.00  0.00     0.039 C 
ATOM     15  C   UNL     1      14.257 197.262   4.537  1.00  0.00     0.039 C 
ENDBRANCH  11  12
ENDBRANCH   1  11
TORSDOF 4
ENDMDL
MODEL 6
REMARK VINA RESULT:    -5.700      1.261      2.469
REMARK INTER + INTRA:          -8.361
REMARK INTER:                  -6.963
REMARK INTRA:                  -1.398
REMARK UNBOUND:                -1.328
REMARK SMILES CC(C)=CCC[C@@H](C)c1ccc(C)cc1
REMARK SMILES IDX 6 1 7 2 8 3 9 4 13 5 12 6 11 7 14 8 10 9 15 10 5 11 4 12
REMARK SMILES IDX 2 13 1 14 3 15
REMARK H PARENT
REMARK Flexibility Score: inf
ROOT
ATOM      1  C   UNL     1      10.376 195.109   3.003  1.00  0.00     0.012 C 
ENDROOT
BRANCH   1   2
ATOM      2  C   UNL     1       9.522 195.868   1.966  1.00  0.00     0.016 C 
ATOM      3  C   UNL     1       8.073 196.009   2.451  1.00  0.00     0.013 C 
BRANCH   2   4
ATOM      4  C   UNL     1      10.108 197.229   1.631  1.00  0.00    -0.045 A 
ATOM      5  C   UNL     1      11.738 201.117   0.689  1.00  0.00     0.044 C 
ATOM      6  C   UNL     1      11.158 199.766   0.989  1.00  0.00    -0.051 A 
ATOM      7  C   UNL     1       9.929 199.656   1.654  1.00  0.00     0.004 A 
ATOM      8  C   UNL     1      11.873 198.604   0.666  1.00  0.00     0.004 A 
ATOM      9  C   UNL     1       9.405 198.398   1.967  1.00  0.00     0.004 A 
ATOM     10  C   UNL     1      11.350 197.346   0.978  1.00  0.00     0.004 A 
ENDBRANCH   2   4
ENDBRANCH   1   2
BRANCH   1  11
ATOM     11  C   UNL     1      10.022 195.504   4.445  1.00  0.00     0.028 C 
BRANCH  11  12
ATOM     12  C   UNL     1      10.906 196.629   4.922  1.00  0.00    -0.028 C 
ATOM     13  C   UNL     1      10.452 197.791   5.441  1.00  0.00    -0.080 C 
ATOM     14  C   UNL     1       8.977 198.053   5.646  1.00  0.00     0.039 C 
ATOM     15  C   UNL     1      11.455 198.842   5.837  1.00  0.00     0.039 C 
ENDBRANCH  11  12
ENDBRANCH   1  11
TORSDOF 4
ENDMDL
MODEL 7
REMARK VINA RESULT:    -5.634      1.238      5.225
REMARK INTER + INTRA:          -8.280
REMARK INTER:                  -6.810
REMARK INTRA:                  -1.469
REMARK UNBOUND:                -1.328
REMARK SMILES CC(C)=CCC[C@@H](C)c1ccc(C)cc1
REMARK SMILES IDX 6 1 7 2 8 3 9 4 13 5 12 6 11 7 14 8 10 9 15 10 5 11 4 12
REMARK SMILES IDX 2 13 1 14 3 15
REMARK H PARENT
REMARK Flexibility Score: inf
ROOT
ATOM      1  C   UNL     1      13.894 196.256   2.353  1.00  0.00     0.012 C 
ENDROOT
BRANCH   1   2
ATOM      2  C   UNL     1      13.248 195.134   3.193  1.00  0.00     0.016 C 
ATOM      3  C   UNL     1      14.198 194.670   4.305  1.00  0.00     0.013 C 
BRANCH   2   4
ATOM      4  C   UNL     1      11.909 195.555   3.775  1.00  0.00    -0.045 A 
ATOM      5  C   UNL     1       8.124 196.784   5.454  1.00  0.00     0.044 C 
ATOM      6  C   UNL     1       9.444 196.341   4.896  1.00  0.00    -0.051 A 
ATOM      7  C   UNL     1      10.595 197.114   5.104  1.00  0.00     0.004 A 
ATOM      8  C   UNL     1       9.524 195.186   4.106  1.00  0.00     0.004 A 
ATOM      9  C   UNL     1      11.818 196.722   4.553  1.00  0.00     0.004 A 
ATOM     10  C   UNL     1      10.747 194.791   3.556  1.00  0.00     0.004 A 
ENDBRANCH   2   4
ENDBRANCH   1   2
BRANCH   1  11
ATOM     11  C   UNL     1      13.054 196.610   1.117  1.00  0.00     0.028 C 
BRANCH  11  12
ATOM     12  C   UNL     1      12.647 198.062   1.145  1.00  0.00    -0.028 C 
ATOM     13  C   UNL     1      11.368 198.497   1.193  1.00  0.00    -0.080 C 
ATOM     14  C   UNL     1      10.201 197.541   1.281  1.00  0.00     0.039 C 
ATOM     15  C   UNL     1      11.113 199.982   1.174  1.00  0.00     0.039 C 
ENDBRANCH  11  12
ENDBRANCH   1  11
TORSDOF 4
ENDMDL
MODEL 8
REMARK VINA RESULT:    -5.466      0.974      4.530
REMARK INTER + INTRA:          -8.072
REMARK INTER:                  -6.543
REMARK INTRA:                  -1.529
REMARK UNBOUND:                -1.328
REMARK SMILES CC(C)=CCC[C@@H](C)c1ccc(C)cc1
REMARK SMILES IDX 6 1 7 2 8 3 9 4 13 5 12 6 11 7 14 8 10 9 15 10 5 11 4 12
REMARK SMILES IDX 2 13 1 14 3 15
REMARK H PARENT
REMARK Flexibility Score: inf
ROOT
ATOM      1  C   UNL     1       9.220 199.225   3.523  1.00  0.00     0.012 C 
ENDROOT
BRANCH   1   2
ATOM      2  C   UNL     1       9.021 197.886   4.265  1.00  0.00     0.016 C 
ATOM      3  C   UNL     1       7.724 197.201   3.814  1.00  0.00     0.013 C 
BRANCH   2   4
ATOM      4  C   UNL     1      10.207 196.953   4.086  1.00  0.00    -0.045 A 
ATOM      5  C   UNL     1      13.553 194.270   3.571  1.00  0.00     0.044 C 
ATOM      6  C   UNL     1      12.387 195.192   3.778  1.00  0.00    -0.051 A 
ATOM      7  C   UNL     1      11.091 194.780   3.439  1.00  0.00     0.004 A 
ATOM      8  C   UNL     1      12.594 196.496   4.250  1.00  0.00     0.004 A 
ATOM      9  C   UNL     1      10.009 195.651   3.597  1.00  0.00     0.004 A 
ATOM     10  C   UNL     1      11.514 197.368   4.409  1.00  0.00     0.004 A 
ENDBRANCH   2   4
ENDBRANCH   1   2
BRANCH   1  11
ATOM     11  C   UNL     1       9.253 199.043   1.998  1.00  0.00     0.028 C 
BRANCH  11  12
ATOM     12  C   UNL     1      10.526 199.608   1.420  1.00  0.00    -0.028 C 
ATOM     13  C   UNL     1      11.498 198.868   0.843  1.00  0.00    -0.080 C 
ATOM     14  C   UNL     1      11.368 197.372   0.669  1.00  0.00     0.039 C 
ATOM     15  C   UNL     1      12.736 199.569   0.346  1.00  0.00     0.039 C 
ENDBRANCH  11  12
ENDBRANCH   1  11
TORSDOF 4
ENDMDL
MODEL 9
REMARK VINA RESULT:    -5.437      1.587      4.286
REMARK INTER + INTRA:          -8.036
REMARK INTER:                  -6.641
REMARK INTRA:                  -1.395
REMARK UNBOUND:                -1.328
REMARK SMILES CC(C)=CCC[C@@H](C)c1ccc(C)cc1
REMARK SMILES IDX 6 1 7 2 8 3 9 4 13 5 12 6 11 7 14 8 10 9 15 10 5 11 4 12
REMARK SMILES IDX 2 13 1 14 3 15
REMARK H PARENT
REMARK Flexibility Score: inf
ROOT
ATOM      1  C   UNL     1       8.137 197.300   2.457  1.00  0.00     0.012 C 
ENDROOT
BRANCH   1   2
ATOM      2  C   UNL     1       9.478 197.555   1.735  1.00  0.00     0.016 C 
ATOM      3  C   UNL     1       9.818 199.051   1.732  1.00  0.00     0.013 C 
BRANCH   2   4
ATOM      4  C   UNL     1      10.614 196.749   2.341  1.00  0.00    -0.045 A 
ATOM      5  C   UNL     1      13.816 194.430   4.081  1.00  0.00     0.044 C 
ATOM      6  C   UNL     1      12.700 195.250   3.503  1.00  0.00    -0.051 A 
ATOM      7  C   UNL     1      11.387 194.758   3.507  1.00  0.00     0.004 A 
ATOM      8  C   UNL     1      12.971 196.483   2.894  1.00  0.00     0.004 A 
ATOM      9  C   UNL     1      10.352 195.504   2.936  1.00  0.00     0.004 A 
ATOM     10  C   UNL     1      11.937 197.230   2.324  1.00  0.00     0.004 A 
ENDBRANCH   2   4
ENDBRANCH   1   2
BRANCH   1  11
ATOM     11  C   UNL     1       7.921 198.263   3.633  1.00  0.00     0.028 C 
BRANCH  11  12
ATOM     12  C   UNL     1       7.611 197.501   4.898  1.00  0.00    -0.028 C 
ATOM     13  C   UNL     1       8.501 197.271   5.888  1.00  0.00    -0.080 C 
ATOM     14  C   UNL     1       9.908 197.819   5.843  1.00  0.00     0.039 C 
ATOM     15  C   UNL     1       8.059 196.455   7.076  1.00  0.00     0.039 C 
ENDBRANCH  11  12
ENDBRANCH   1  11
TORSDOF 4
ENDMDL
