MODEL 1
REMARK VINA RESULT:    -5.601      0.000      0.000
REMARK INTER + INTRA:          -6.147
REMARK INTER:                  -6.093
REMARK INTRA:                  -0.054
REMARK UNBOUND:                -0.054
REMARK SMILES C[C@H]1[C@H](C)CC[C@@]2(C(=O)[O-])CC[C@]3(C)C(=CC[C@@H]4[C@]5(C)CC[C@H](O)C(C)(C)[C@H]5CC[C@@]43C)[C@@H]12
REMARK SMILES IDX 7 1 6 2 11 3 33 4 5 5 12 6 15 7 2 8 3 9 13 10 16 11 1 12
REMARK SMILES IDX 4 13 14 14 31 15 17 16 18 17 30 18 32 19 19 20 29 21 28 22
REMARK SMILES IDX 21 23 20 24 25 25 22 26 23 27 26 28 27 29 8 30 9 31 10 32
REMARK SMILES IDX 24 33
REMARK H PARENT 24 34
REMARK Flexibility Score: inf
ROOT
ATOM      1  C   UNL     1      24.456  -0.834 123.009  1.00  0.00     0.017 C 
ATOM      2  C   UNL     1      23.914  -2.199 122.467  1.00  0.00     0.014 C 
ATOM      3  C   UNL     1      23.356  -0.085 123.775  1.00  0.00     0.014 C 
ATOM      4  C   UNL     1      25.690  -1.081 123.953  1.00  0.00     0.030 C 
ATOM      5  C   UNL     1      24.983  -3.028 121.749  1.00  0.00     0.004 C 
ATOM      6  C   UNL     1      22.808  -0.882 124.953  1.00  0.00     0.013 C 
ATOM      7  C   UNL     1      25.253  -1.658 125.340  1.00  0.00    -0.063 C 
ATOM      8  C   UNL     1      26.766  -1.899 123.118  1.00  0.00    -0.003 C 
ATOM      9  C   UNL     1      26.204  -3.271 122.654  1.00  0.00    -0.011 C 
ATOM     10  C   UNL     1      23.887  -1.342 125.997  1.00  0.00    -0.006 C 
ATOM     11  C   UNL     1      26.187  -2.159 126.173  1.00  0.00    -0.027 C 
ATOM     12  C   UNL     1      28.188  -1.972 123.708  1.00  0.00     0.008 C 
ATOM     13  C   UNL     1      27.234  -4.120 121.888  1.00  0.00     0.008 C 
ATOM     14  C   UNL     1      24.114  -0.111 126.934  1.00  0.00     0.017 C 
ATOM     15  C   UNL     1      23.389  -2.619 126.852  1.00  0.00    -0.020 C 
ATOM     16  C   UNL     1      25.925  -2.811 127.497  1.00  0.00     0.032 C 
ATOM     17  C   UNL     1      24.442  -2.948 128.000  1.00  0.00     0.006 C 
ATOM     18  C   UNL     1      23.250  -3.879 125.932  1.00  0.00     0.008 C 
ATOM     19  C   UNL     1      21.987  -2.296 127.475  1.00  0.00     0.012 C 
ATOM     20  C   UNL     1      24.209  -4.325 128.792  1.00  0.00    -0.025 C 
ATOM     21  C   UNL     1      23.018  -5.209 126.670  1.00  0.00     0.005 C 
ATOM     22  C   UNL     1      24.105  -5.491 127.737  1.00  0.00     0.003 C 
ATOM     23  C   UNL     1      25.395  -4.595 129.813  1.00  0.00     0.010 C 
ATOM     24  C   UNL     1      22.919  -4.242 129.673  1.00  0.00     0.012 C 
ATOM     25  C   UNL     1      24.073  -6.973 128.324  1.00  0.00    -0.006 C 
ATOM     26  C   UNL     1      25.950  -6.027 129.788  1.00  0.00     0.033 C 
ATOM     27  C   UNL     1      24.817  -7.052 129.705  1.00  0.00     0.120 C 
ATOM     28  C   UNL     1      22.629  -7.503 128.520  1.00  0.00     0.014 C 
ATOM     29  C   UNL     1      24.774  -7.917 127.303  1.00  0.00     0.014 C 
ENDROOT
BRANCH   1  30
ATOM     30  C   UNL     1      24.819   0.075 121.835  1.00  0.00     0.048 C 
ATOM     31  O   UNL     1      25.663   1.003 121.974  1.00  0.00    -0.550 OA
ATOM     32  O   UNL     1      24.131  -0.031 120.626  1.00  0.00    -0.550 OA
ENDBRANCH   1  30
BRANCH  27  33
ATOM     33  O   UNL     1      25.322  -8.345 129.936  1.00  0.00    -0.393 OA
ATOM     34  H   UNL     1      26.303  -8.261 130.072  1.00  0.00     0.210 HD
ENDBRANCH  27  33
TORSDOF 2
ENDMDL
MODEL 2
REMARK VINA RESULT:    -5.396      1.602      3.045
REMARK INTER + INTRA:          -5.923
REMARK INTER:                  -6.338
REMARK INTRA:                   0.415
REMARK UNBOUND:                -0.054
REMARK SMILES C[C@H]1[C@H](C)CC[C@@]2(C(=O)[O-])CC[C@]3(C)C(=CC[C@@H]4[C@]5(C)CC[C@H](O)C(C)(C)[C@H]5CC[C@@]43C)[C@@H]12
REMARK SMILES IDX 7 1 6 2 11 3 33 4 5 5 12 6 15 7 2 8 3 9 13 10 16 11 1 12
REMARK SMILES IDX 4 13 14 14 31 15 17 16 18 17 30 18 32 19 19 20 29 21 28 22
REMARK SMILES IDX 21 23 20 24 25 25 22 26 23 27 26 28 27 29 8 30 9 31 10 32
REMARK SMILES IDX 24 33
REMARK H PARENT 24 34
REMARK Flexibility Score: inf
ROOT
ATOM      1  C   UNL     1      25.226  -0.256 124.747  1.00  0.00     0.017 C 
ATOM      2  C   UNL     1      23.715  -0.150 125.139  1.00  0.00     0.014 C 
ATOM      3  C   UNL     1      26.118   0.013 125.968  1.00  0.00     0.014 C 
ATOM      4  C   UNL     1      25.533  -1.686 124.168  1.00  0.00     0.030 C 
ATOM      5  C   UNL     1      22.768  -0.474 123.980  1.00  0.00     0.004 C 
ATOM      6  C   UNL     1      25.855  -0.952 127.117  1.00  0.00     0.013 C 
ATOM      7  C   UNL     1      25.568  -2.773 125.291  1.00  0.00    -0.063 C 
ATOM      8  C   UNL     1      24.547  -1.920 122.943  1.00  0.00    -0.003 C 
ATOM      9  C   UNL     1      23.061  -1.866 123.391  1.00  0.00    -0.011 C 
ATOM     10  C   UNL     1      25.998  -2.472 126.748  1.00  0.00    -0.006 C 
ATOM     11  C   UNL     1      25.569  -4.077 124.952  1.00  0.00    -0.027 C 
ATOM     12  C   UNL     1      24.877  -3.099 122.007  1.00  0.00     0.008 C 
ATOM     13  C   UNL     1      22.072  -2.143 122.244  1.00  0.00     0.008 C 
ATOM     14  C   UNL     1      27.528  -2.781 126.838  1.00  0.00     0.017 C 
ATOM     15  C   UNL     1      25.170  -3.416 127.764  1.00  0.00    -0.020 C 
ATOM     16  C   UNL     1      25.528  -5.233 125.905  1.00  0.00     0.032 C 
ATOM     17  C   UNL     1      25.473  -4.948 127.450  1.00  0.00     0.006 C 
ATOM     18  C   UNL     1      23.630  -3.175 127.611  1.00  0.00     0.008 C 
ATOM     19  C   UNL     1      25.588  -3.069 129.234  1.00  0.00     0.012 C 
ATOM     20  C   UNL     1      24.555  -6.016 128.220  1.00  0.00    -0.025 C 
ATOM     21  C   UNL     1      22.731  -4.183 128.347  1.00  0.00     0.005 C 
ATOM     22  C   UNL     1      23.044  -5.650 127.958  1.00  0.00     0.003 C 
ATOM     23  C   UNL     1      24.869  -7.491 127.721  1.00  0.00     0.010 C 
ATOM     24  C   UNL     1      24.879  -6.022 129.750  1.00  0.00     0.012 C 
ATOM     25  C   UNL     1      21.964  -6.705 128.469  1.00  0.00    -0.006 C 
ATOM     26  C   UNL     1      23.628  -8.346 127.422  1.00  0.00     0.033 C 
ATOM     27  C   UNL     1      22.560  -8.157 128.501  1.00  0.00     0.120 C 
ATOM     28  C   UNL     1      21.428  -6.369 129.885  1.00  0.00     0.014 C 
ATOM     29  C   UNL     1      20.747  -6.666 127.497  1.00  0.00     0.014 C 
ENDROOT
BRANCH   1  30
ATOM     30  C   UNL     1      25.573   0.844 123.744  1.00  0.00     0.048 C 
ATOM     31  O   UNL     1      26.723   1.363 123.727  1.00  0.00    -0.550 OA
ATOM     32  O   UNL     1      24.585   1.376 122.916  1.00  0.00    -0.550 OA
ENDBRANCH   1  30
BRANCH  27  33
ATOM     33  O   UNL     1      21.550  -9.125 128.349  1.00  0.00    -0.393 OA
ATOM     34  H   UNL     1      21.332  -9.473 129.253  1.00  0.00     0.210 HD
ENDBRANCH  27  33
TORSDOF 2
ENDMDL
MODEL 3
REMARK VINA RESULT:    -5.256      3.440      6.171
REMARK INTER + INTRA:          -5.771
REMARK INTER:                  -6.393
REMARK INTRA:                   0.623
REMARK UNBOUND:                -0.054
REMARK SMILES C[C@H]1[C@H](C)CC[C@@]2(C(=O)[O-])CC[C@]3(C)C(=CC[C@@H]4[C@]5(C)CC[C@H](O)C(C)(C)[C@H]5CC[C@@]43C)[C@@H]12
REMARK SMILES IDX 7 1 6 2 11 3 33 4 5 5 12 6 15 7 2 8 3 9 13 10 16 11 1 12
REMARK SMILES IDX 4 13 14 14 31 15 17 16 18 17 30 18 32 19 19 20 29 21 28 22
REMARK SMILES IDX 21 23 20 24 25 25 22 26 23 27 26 28 27 29 8 30 9 31 10 32
REMARK SMILES IDX 24 33
REMARK H PARENT 24 34
REMARK Flexibility Score: inf
ROOT
ATOM      1  C   UNL     1      21.684   0.043 125.730  1.00  0.00     0.017 C 
ATOM      2  C   UNL     1      22.383  -0.566 126.992  1.00  0.00     0.014 C 
ATOM      3  C   UNL     1      22.357   1.362 125.327  1.00  0.00     0.014 C 
ATOM      4  C   UNL     1      21.750  -0.977 124.534  1.00  0.00     0.030 C 
ATOM      5  C   UNL     1      21.802  -1.920 127.408  1.00  0.00     0.004 C 
ATOM      6  C   UNL     1      23.841   1.200 125.019  1.00  0.00     0.013 C 
ATOM      7  C   UNL     1      23.185  -1.055 123.917  1.00  0.00    -0.063 C 
ATOM      8  C   UNL     1      21.084  -2.331 125.031  1.00  0.00    -0.003 C 
ATOM      9  C   UNL     1      21.847  -2.929 126.245  1.00  0.00    -0.011 C 
ATOM     10  C   UNL     1      24.171   0.138 123.909  1.00  0.00    -0.006 C 
ATOM     11  C   UNL     1      23.482  -2.049 123.056  1.00  0.00    -0.027 C 
ATOM     12  C   UNL     1      20.727  -3.364 123.945  1.00  0.00     0.008 C 
ATOM     13  C   UNL     1      21.266  -4.271 126.724  1.00  0.00     0.008 C 
ATOM     14  C   UNL     1      23.967   0.880 122.547  1.00  0.00     0.017 C 
ATOM     15  C   UNL     1      25.685  -0.409 124.034  1.00  0.00    -0.020 C 
ATOM     16  C   UNL     1      24.824  -2.305 122.438  1.00  0.00     0.032 C 
ATOM     17  C   UNL     1      26.024  -1.357 122.800  1.00  0.00     0.006 C 
ATOM     18  C   UNL     1      25.868  -1.232 125.354  1.00  0.00     0.008 C 
ATOM     19  C   UNL     1      26.666   0.814 124.067  1.00  0.00     0.012 C 
ATOM     20  C   UNL     1      27.410  -2.162 122.893  1.00  0.00    -0.025 C 
ATOM     21  C   UNL     1      27.193  -2.005 125.469  1.00  0.00     0.005 C 
ATOM     22  C   UNL     1      27.436  -2.945 124.261  1.00  0.00     0.003 C 
ATOM     23  C   UNL     1      27.563  -3.163 121.670  1.00  0.00     0.010 C 
ATOM     24  C   UNL     1      28.625  -1.183 122.778  1.00  0.00     0.012 C 
ATOM     25  C   UNL     1      28.640  -3.970 124.464  1.00  0.00    -0.006 C 
ATOM     26  C   UNL     1      28.032  -4.575 122.051  1.00  0.00     0.033 C 
ATOM     27  C   UNL     1      29.157  -4.518 123.086  1.00  0.00     0.120 C 
ATOM     28  C   UNL     1      29.840  -3.336 125.215  1.00  0.00     0.014 C 
ATOM     29  C   UNL     1      28.128  -5.156 125.334  1.00  0.00     0.014 C 
ENDROOT
BRANCH   1  30
ATOM     30  C   UNL     1      20.242   0.414 126.074  1.00  0.00     0.048 C 
ATOM     31  O   UNL     1      19.392  -0.479 126.346  1.00  0.00    -0.550 OA
ATOM     32  O   UNL     1      19.814   1.738 125.971  1.00  0.00    -0.550 OA
ENDBRANCH   1  30
BRANCH  27  33
ATOM     33  O   UNL     1      29.739  -5.791 123.232  1.00  0.00    -0.393 OA
ATOM     34  H   UNL     1      29.056  -6.385 123.639  1.00  0.00     0.210 HD
ENDBRANCH  27  33
TORSDOF 2
ENDMDL
MODEL 4
REMARK VINA RESULT:    -5.064      1.032      1.203
REMARK INTER + INTRA:          -5.562
REMARK INTER:                  -5.527
REMARK INTRA:                  -0.035
REMARK UNBOUND:                -0.054
REMARK SMILES C[C@H]1[C@H](C)CC[C@@]2(C(=O)[O-])CC[C@]3(C)C(=CC[C@@H]4[C@]5(C)CC[C@H](O)C(C)(C)[C@H]5CC[C@@]43C)[C@@H]12
REMARK SMILES IDX 7 1 6 2 11 3 33 4 5 5 12 6 15 7 2 8 3 9 13 10 16 11 1 12
REMARK SMILES IDX 4 13 14 14 31 15 17 16 18 17 30 18 32 19 19 20 29 21 28 22
REMARK SMILES IDX 21 23 20 24 25 25 22 26 23 27 26 28 27 29 8 30 9 31 10 32
REMARK SMILES IDX 24 33
REMARK H PARENT 24 34
REMARK Flexibility Score: inf
ROOT
ATOM      1  C   UNL     1      25.178  -0.623 123.850  1.00  0.00     0.017 C 
ATOM      2  C   UNL     1      25.095  -1.938 123.005  1.00  0.00     0.014 C 
ATOM      3  C   UNL     1      23.786  -0.220 124.355  1.00  0.00     0.014 C 
ATOM      4  C   UNL     1      26.149  -0.829 125.071  1.00  0.00     0.030 C 
ATOM      5  C   UNL     1      26.463  -2.434 122.527  1.00  0.00     0.004 C 
ATOM      6  C   UNL     1      23.131  -1.296 125.212  1.00  0.00     0.013 C 
ATOM      7  C   UNL     1      25.500  -1.711 126.187  1.00  0.00    -0.063 C 
ATOM      8  C   UNL     1      27.552  -1.291 124.486  1.00  0.00    -0.003 C 
ATOM      9  C   UNL     1      27.431  -2.629 123.708  1.00  0.00    -0.011 C 
ATOM     10  C   UNL     1      23.976  -1.752 126.455  1.00  0.00    -0.006 C 
ATOM     11  C   UNL     1      26.270  -2.192 127.183  1.00  0.00    -0.027 C 
ATOM     12  C   UNL     1      28.755  -1.232 125.447  1.00  0.00     0.008 C 
ATOM     13  C   UNL     1      28.779  -3.142 123.170  1.00  0.00     0.008 C 
ATOM     14  C   UNL     1      23.687  -0.690 127.567  1.00  0.00     0.017 C 
ATOM     15  C   UNL     1      23.553  -3.227 126.960  1.00  0.00    -0.020 C 
ATOM     16  C   UNL     1      25.817  -3.108 128.280  1.00  0.00     0.032 C 
ATOM     17  C   UNL     1      24.318  -3.579 128.311  1.00  0.00     0.006 C 
ATOM     18  C   UNL     1      23.925  -4.305 125.886  1.00  0.00     0.008 C 
ATOM     19  C   UNL     1      22.002  -3.261 127.187  1.00  0.00     0.012 C 
ATOM     20  C   UNL     1      24.182  -5.096 128.820  1.00  0.00    -0.025 C 
ATOM     21  C   UNL     1      23.795  -5.766 126.349  1.00  0.00     0.005 C 
ATOM     22  C   UNL     1      24.603  -6.052 127.640  1.00  0.00     0.003 C 
ATOM     23  C   UNL     1      25.093  -5.345 130.096  1.00  0.00     0.010 C 
ATOM     24  C   UNL     1      22.721  -5.390 129.293  1.00  0.00     0.012 C 
ATOM     25  C   UNL     1      24.733  -7.600 127.998  1.00  0.00    -0.006 C 
ATOM     26  C   UNL     1      25.924  -6.636 130.051  1.00  0.00     0.033 C 
ATOM     27  C   UNL     1      25.093  -7.803 129.513  1.00  0.00     0.120 C 
ATOM     28  C   UNL     1      23.432  -8.390 127.699  1.00  0.00     0.014 C 
ATOM     29  C   UNL     1      25.856  -8.213 127.111  1.00  0.00     0.014 C 
ENDROOT
BRANCH   1  30
ATOM     30  C   UNL     1      25.634   0.531 122.957  1.00  0.00     0.048 C 
ATOM     31  O   UNL     1      26.361   1.454 123.416  1.00  0.00    -0.550 OA
ATOM     32  O   UNL     1      25.149   0.644 121.654  1.00  0.00    -0.550 OA
ENDBRANCH   1  30
BRANCH  27  33
ATOM     33  O   UNL     1      25.782  -9.014 129.714  1.00  0.00    -0.393 OA
ATOM     34  H   UNL     1      25.123  -9.751 129.616  1.00  0.00     0.210 HD
ENDBRANCH  27  33
TORSDOF 2
ENDMDL
MODEL 5
REMARK VINA RESULT:    -4.115      3.249      6.369
REMARK INTER + INTRA:          -4.530
REMARK INTER:                  -4.482
REMARK INTRA:                  -0.048
REMARK UNBOUND:                -0.054
REMARK SMILES C[C@H]1[C@H](C)CC[C@@]2(C(=O)[O-])CC[C@]3(C)C(=CC[C@@H]4[C@]5(C)CC[C@H](O)C(C)(C)[C@H]5CC[C@@]43C)[C@@H]12
REMARK SMILES IDX 7 1 6 2 11 3 33 4 5 5 12 6 15 7 2 8 3 9 13 10 16 11 1 12
REMARK SMILES IDX 4 13 14 14 31 15 17 16 18 17 30 18 32 19 19 20 29 21 28 22
REMARK SMILES IDX 21 23 20 24 25 25 22 26 23 27 26 28 27 29 8 30 9 31 10 32
REMARK SMILES IDX 24 33
REMARK H PARENT 24 34
REMARK Flexibility Score: inf
ROOT
ATOM      1  C   UNL     1      22.138   0.069 126.211  1.00  0.00     0.017 C 
ATOM      2  C   UNL     1      23.481   0.565 126.844  1.00  0.00     0.014 C 
ATOM      3  C   UNL     1      21.929   0.704 124.829  1.00  0.00     0.014 C 
ATOM      4  C   UNL     1      22.152  -1.499 126.081  1.00  0.00     0.030 C 
ATOM      5  C   UNL     1      23.784  -0.084 128.198  1.00  0.00     0.004 C 
ATOM      6  C   UNL     1      23.060   0.391 123.856  1.00  0.00     0.013 C 
ATOM      7  C   UNL     1      23.080  -1.977 124.917  1.00  0.00    -0.063 C 
ATOM      8  C   UNL     1      22.420  -2.090 127.531  1.00  0.00    -0.003 C 
ATOM      9  C   UNL     1      23.789  -1.620 128.093  1.00  0.00    -0.011 C 
ATOM     10  C   UNL     1      23.338  -1.140 123.640  1.00  0.00    -0.006 C 
ATOM     11  C   UNL     1      23.404  -3.282 124.821  1.00  0.00    -0.027 C 
ATOM     12  C   UNL     1      22.147  -3.594 127.725  1.00  0.00     0.008 C 
ATOM     13  C   UNL     1      24.114  -2.215 129.475  1.00  0.00     0.008 C 
ATOM     14  C   UNL     1      22.291  -1.609 122.577  1.00  0.00     0.017 C 
ATOM     15  C   UNL     1      24.840  -1.408 123.111  1.00  0.00    -0.020 C 
ATOM     16  C   UNL     1      24.336  -3.884 123.814  1.00  0.00     0.032 C 
ATOM     17  C   UNL     1      25.025  -2.949 122.755  1.00  0.00     0.006 C 
ATOM     18  C   UNL     1      25.889  -1.025 124.210  1.00  0.00     0.008 C 
ATOM     19  C   UNL     1      25.097  -0.521 121.844  1.00  0.00     0.012 C 
ATOM     20  C   UNL     1      26.525  -3.420 122.432  1.00  0.00    -0.025 C 
ATOM     21  C   UNL     1      27.335  -1.460 123.918  1.00  0.00     0.005 C 
ATOM     22  C   UNL     1      27.450  -2.978 123.629  1.00  0.00     0.003 C 
ATOM     23  C   UNL     1      26.589  -4.993 122.225  1.00  0.00     0.010 C 
ATOM     24  C   UNL     1      27.017  -2.806 121.080  1.00  0.00     0.012 C 
ATOM     25  C   UNL     1      28.947  -3.526 123.603  1.00  0.00    -0.006 C 
ATOM     26  C   UNL     1      27.742  -5.692 122.960  1.00  0.00     0.033 C 
ATOM     27  C   UNL     1      29.039  -4.890 122.831  1.00  0.00     0.120 C 
ATOM     28  C   UNL     1      29.933  -2.527 122.941  1.00  0.00     0.014 C 
ATOM     29  C   UNL     1      29.417  -3.729 125.074  1.00  0.00     0.014 C 
ENDROOT
BRANCH   1  30
ATOM     30  C   UNL     1      20.963   0.553 127.059  1.00  0.00     0.048 C 
ATOM     31  O   UNL     1      19.835  -0.009 126.981  1.00  0.00    -0.550 OA
ATOM     32  O   UNL     1      21.086   1.702 127.840  1.00  0.00    -0.550 OA
ENDBRANCH   1  30
BRANCH  27  33
ATOM     33  O   UNL     1      30.125  -5.660 123.288  1.00  0.00    -0.393 OA
ATOM     34  H   UNL     1      30.190  -6.460 122.703  1.00  0.00     0.210 HD
ENDBRANCH  27  33
TORSDOF 2
ENDMDL
MODEL 6
REMARK VINA RESULT:    -3.970      3.268      7.077
REMARK INTER + INTRA:          -4.372
REMARK INTER:                  -4.442
REMARK INTRA:                   0.070
REMARK UNBOUND:                -0.054
REMARK SMILES C[C@H]1[C@H](C)CC[C@@]2(C(=O)[O-])CC[C@]3(C)C(=CC[C@@H]4[C@]5(C)CC[C@H](O)C(C)(C)[C@H]5CC[C@@]43C)[C@@H]12
REMARK SMILES IDX 7 1 6 2 11 3 33 4 5 5 12 6 15 7 2 8 3 9 13 10 16 11 1 12
REMARK SMILES IDX 4 13 14 14 31 15 17 16 18 17 30 18 32 19 19 20 29 21 28 22
REMARK SMILES IDX 21 23 20 24 25 25 22 26 23 27 26 28 27 29 8 30 9 31 10 32
REMARK SMILES IDX 24 33
REMARK H PARENT 24 34
REMARK Flexibility Score: inf
ROOT
ATOM      1  C   UNL     1      22.562  -3.051 125.547  1.00  0.00     0.017 C 
ATOM      2  C   UNL     1      22.776  -2.360 124.159  1.00  0.00     0.014 C 
ATOM      3  C   UNL     1      23.496  -4.261 125.694  1.00  0.00     0.014 C 
ATOM      4  C   UNL     1      22.833  -2.024 126.707  1.00  0.00     0.030 C 
ATOM      5  C   UNL     1      21.921  -1.103 123.974  1.00  0.00     0.004 C 
ATOM      6  C   UNL     1      24.969  -3.891 125.567  1.00  0.00     0.013 C 
ATOM      7  C   UNL     1      24.361  -1.742 126.887  1.00  0.00    -0.063 C 
ATOM      8  C   UNL     1      21.874  -0.780 126.469  1.00  0.00    -0.003 C 
ATOM      9  C   UNL     1      22.163  -0.090 125.108  1.00  0.00    -0.011 C 
ATOM     10  C   UNL     1      25.459  -2.786 126.570  1.00  0.00    -0.006 C 
ATOM     11  C   UNL     1      24.757  -0.710 127.659  1.00  0.00    -0.027 C 
ATOM     12  C   UNL     1      21.710   0.201 127.646  1.00  0.00     0.008 C 
ATOM     13  C   UNL     1      21.292   1.155 124.862  1.00  0.00     0.008 C 
ATOM     14  C   UNL     1      25.762  -3.539 127.907  1.00  0.00     0.017 C 
ATOM     15  C   UNL     1      26.783  -2.033 126.033  1.00  0.00    -0.020 C 
ATOM     16  C   UNL     1      26.172  -0.265 127.873  1.00  0.00     0.032 C 
ATOM     17  C   UNL     1      27.334  -1.039 127.148  1.00  0.00     0.006 C 
ATOM     18  C   UNL     1      26.461  -1.202 124.744  1.00  0.00     0.008 C 
ATOM     19  C   UNL     1      27.869  -3.107 125.678  1.00  0.00     0.012 C 
ATOM     20  C   UNL     1      28.510  -0.048 126.687  1.00  0.00    -0.025 C 
ATOM     21  C   UNL     1      27.579  -0.252 124.280  1.00  0.00     0.005 C 
ATOM     22  C   UNL     1      28.032   0.721 125.397  1.00  0.00     0.003 C 
ATOM     23  C   UNL     1      28.873   0.973 127.848  1.00  0.00     0.010 C 
ATOM     24  C   UNL     1      29.827  -0.847 126.414  1.00  0.00     0.012 C 
ATOM     25  C   UNL     1      28.974   1.903 124.891  1.00  0.00    -0.006 C 
ATOM     26  C   UNL     1      29.016   2.434 127.396  1.00  0.00     0.033 C 
ATOM     27  C   UNL     1      29.789   2.527 126.079  1.00  0.00     0.120 C 
ATOM     28  C   UNL     1      29.979   1.438 123.805  1.00  0.00     0.014 C 
ATOM     29  C   UNL     1      28.075   3.000 124.246  1.00  0.00     0.014 C 
ENDROOT
BRANCH   1  30
ATOM     30  C   UNL     1      21.147  -3.624 125.621  1.00  0.00     0.048 C 
ATOM     31  O   UNL     1      20.737  -4.201 126.666  1.00  0.00    -0.550 OA
ATOM     32  O   UNL     1      20.330  -3.625 124.490  1.00  0.00    -0.550 OA
ENDBRANCH   1  30
BRANCH  27  33
ATOM     33  O   UNL     1      30.125   3.868 125.815  1.00  0.00    -0.393 OA
ATOM     34  H   UNL     1      31.105   3.962 125.948  1.00  0.00     0.210 HD
ENDBRANCH  27  33
TORSDOF 2
ENDMDL
MODEL 7
REMARK VINA RESULT:    -3.918      3.653      6.540
REMARK INTER + INTRA:          -4.316
REMARK INTER:                  -4.307
REMARK INTRA:                  -0.009
REMARK UNBOUND:                -0.054
REMARK SMILES C[C@H]1[C@H](C)CC[C@@]2(C(=O)[O-])CC[C@]3(C)C(=CC[C@@H]4[C@]5(C)CC[C@H](O)C(C)(C)[C@H]5CC[C@@]43C)[C@@H]12
REMARK SMILES IDX 7 1 6 2 11 3 33 4 5 5 12 6 15 7 2 8 3 9 13 10 16 11 1 12
REMARK SMILES IDX 4 13 14 14 31 15 17 16 18 17 30 18 32 19 19 20 29 21 28 22
REMARK SMILES IDX 21 23 20 24 25 25 22 26 23 27 26 28 27 29 8 30 9 31 10 32
REMARK SMILES IDX 24 33
REMARK H PARENT 24 34
REMARK Flexibility Score: inf
ROOT
ATOM      1  C   UNL     1      28.049  -2.509 124.827  1.00  0.00     0.017 C 
ATOM      2  C   UNL     1      27.840  -2.377 126.373  1.00  0.00     0.014 C 
ATOM      3  C   UNL     1      27.198  -3.657 124.266  1.00  0.00     0.014 C 
ATOM      4  C   UNL     1      27.662  -1.161 124.115  1.00  0.00     0.030 C 
ATOM      5  C   UNL     1      28.611  -1.205 126.987  1.00  0.00     0.004 C 
ATOM      6  C   UNL     1      25.709  -3.475 124.532  1.00  0.00     0.013 C 
ATOM      7  C   UNL     1      26.113  -0.955 124.064  1.00  0.00    -0.063 C 
ATOM      8  C   UNL     1      28.540  -0.011 124.773  1.00  0.00    -0.003 C 
ATOM      9  C   UNL     1      28.255   0.123 126.294  1.00  0.00    -0.011 C 
ATOM     10  C   UNL     1      25.104  -2.127 123.998  1.00  0.00    -0.006 C 
ATOM     11  C   UNL     1      25.615   0.249 123.718  1.00  0.00    -0.027 C 
ATOM     12  C   UNL     1      28.588   1.335 124.024  1.00  0.00     0.008 C 
ATOM     13  C   UNL     1      29.044   1.263 126.961  1.00  0.00     0.008 C 
ATOM     14  C   UNL     1      24.804  -2.376 122.483  1.00  0.00     0.017 C 
ATOM     15  C   UNL     1      23.751  -1.724 124.783  1.00  0.00    -0.020 C 
ATOM     16  C   UNL     1      24.165   0.627 123.693  1.00  0.00     0.032 C 
ATOM     17  C   UNL     1      23.090  -0.444 124.104  1.00  0.00     0.006 C 
ATOM     18  C   UNL     1      24.063  -1.384 126.280  1.00  0.00     0.008 C 
ATOM     19  C   UNL     1      22.759  -2.937 124.741  1.00  0.00     0.012 C 
ATOM     20  C   UNL     1      21.865   0.219 124.902  1.00  0.00    -0.025 C 
ATOM     21  C   UNL     1      22.900  -0.754 127.067  1.00  0.00     0.005 C 
ATOM     22  C   UNL     1      22.337   0.514 126.377  1.00  0.00     0.003 C 
ATOM     23  C   UNL     1      21.386   1.555 124.189  1.00  0.00     0.010 C 
ATOM     24  C   UNL     1      20.619  -0.726 124.885  1.00  0.00     0.012 C 
ATOM     25  C   UNL     1      21.334   1.358 127.283  1.00  0.00    -0.006 C 
ATOM     26  C   UNL     1      21.159   2.743 125.136  1.00  0.00     0.033 C 
ATOM     27  C   UNL     1      20.432   2.298 126.407  1.00  0.00     0.120 C 
ATOM     28  C   UNL     1      20.407   0.458 128.141  1.00  0.00     0.014 C 
ATOM     29  C   UNL     1      22.177   2.220 128.270  1.00  0.00     0.014 C 
ENDROOT
BRANCH   1  30
ATOM     30  C   UNL     1      29.498  -2.903 124.538  1.00  0.00     0.048 C 
ATOM     31  O   UNL     1      30.117  -2.409 123.555  1.00  0.00    -0.550 OA
ATOM     32  O   UNL     1      30.115  -3.907 125.284  1.00  0.00    -0.550 OA
ENDBRANCH   1  30
BRANCH  27  33
ATOM     33  O   UNL     1      20.012   3.426 127.137  1.00  0.00    -0.393 OA
ATOM     34  H   UNL     1      20.724   4.114 127.058  1.00  0.00     0.210 HD
ENDBRANCH  27  33
TORSDOF 2
ENDMDL
MODEL 8
REMARK VINA RESULT:    -3.557      2.380      7.331
REMARK INTER + INTRA:          -3.923
REMARK INTER:                  -3.900
REMARK INTRA:                  -0.023
REMARK UNBOUND:                -0.054
REMARK SMILES C[C@H]1[C@H](C)CC[C@@]2(C(=O)[O-])CC[C@]3(C)C(=CC[C@@H]4[C@]5(C)CC[C@H](O)C(C)(C)[C@H]5CC[C@@]43C)[C@@H]12
REMARK SMILES IDX 7 1 6 2 11 3 33 4 5 5 12 6 15 7 2 8 3 9 13 10 16 11 1 12
REMARK SMILES IDX 4 13 14 14 31 15 17 16 18 17 30 18 32 19 19 20 29 21 28 22
REMARK SMILES IDX 21 23 20 24 25 25 22 26 23 27 26 28 27 29 8 30 9 31 10 32
REMARK SMILES IDX 24 33
REMARK H PARENT 24 34
REMARK Flexibility Score: inf
ROOT
ATOM      1  C   UNL     1      23.620  -7.187 128.827  1.00  0.00     0.017 C 
ATOM      2  C   UNL     1      24.867  -6.902 129.729  1.00  0.00     0.014 C 
ATOM      3  C   UNL     1      22.525  -6.140 129.077  1.00  0.00     0.014 C 
ATOM      4  C   UNL     1      24.037  -7.171 127.311  1.00  0.00     0.030 C 
ATOM      5  C   UNL     1      26.024  -7.874 129.480  1.00  0.00     0.004 C 
ATOM      6  C   UNL     1      22.996  -4.716 128.804  1.00  0.00     0.013 C 
ATOM      7  C   UNL     1      24.296  -5.718 126.794  1.00  0.00    -0.063 C 
ATOM      8  C   UNL     1      25.201  -8.238 127.130  1.00  0.00    -0.003 C 
ATOM      9  C   UNL     1      26.439  -7.881 127.997  1.00  0.00    -0.011 C 
ATOM     10  C   UNL     1      23.566  -4.476 127.360  1.00  0.00    -0.006 C 
ATOM     11  C   UNL     1      24.897  -5.536 125.602  1.00  0.00    -0.027 C 
ATOM     12  C   UNL     1      25.545  -8.648 125.685  1.00  0.00     0.008 C 
ATOM     13  C   UNL     1      27.612  -8.860 127.810  1.00  0.00     0.008 C 
ATOM     14  C   UNL     1      22.315  -4.238 126.452  1.00  0.00     0.017 C 
ATOM     15  C   UNL     1      24.552  -3.198 127.309  1.00  0.00    -0.020 C 
ATOM     16  C   UNL     1      25.280  -4.216 125.004  1.00  0.00     0.032 C 
ATOM     17  C   UNL     1      24.976  -2.897 125.804  1.00  0.00     0.006 C 
ATOM     18  C   UNL     1      25.850  -3.469 128.144  1.00  0.00     0.008 C 
ATOM     19  C   UNL     1      23.811  -1.960 127.924  1.00  0.00     0.012 C 
ATOM     20  C   UNL     1      26.132  -1.802 125.606  1.00  0.00    -0.025 C 
ATOM     21  C   UNL     1      26.969  -2.426 127.975  1.00  0.00     0.005 C 
ATOM     22  C   UNL     1      27.367  -2.220 126.492  1.00  0.00     0.003 C 
ATOM     23  C   UNL     1      26.550  -1.694 124.077  1.00  0.00     0.010 C 
ATOM     24  C   UNL     1      25.615  -0.378 125.992  1.00  0.00     0.012 C 
ATOM     25  C   UNL     1      28.702  -1.373 126.287  1.00  0.00    -0.006 C 
ATOM     26  C   UNL     1      28.065  -1.676 123.825  1.00  0.00     0.033 C 
ATOM     27  C   UNL     1      28.777  -0.776 124.837  1.00  0.00     0.120 C 
ATOM     28  C   UNL     1      28.825  -0.205 127.300  1.00  0.00     0.014 C 
ATOM     29  C   UNL     1      29.918  -2.316 126.524  1.00  0.00     0.014 C 
ENDROOT
BRANCH   1  30
ATOM     30  C   UNL     1      22.995  -8.525 129.225  1.00  0.00     0.048 C 
ATOM     31  O   UNL     1      22.154  -9.093 128.476  1.00  0.00    -0.550 OA
ATOM     32  O   UNL     1      23.255  -9.074 130.480  1.00  0.00    -0.550 OA
ENDBRANCH   1  30
BRANCH  27  33
ATOM     33  O   UNL     1      30.112  -0.573 124.440  1.00  0.00    -0.393 OA
ATOM     34  H   UNL     1      30.129  -0.558 123.447  1.00  0.00     0.210 HD
ENDBRANCH  27  33
TORSDOF 2
ENDMDL
MODEL 9
REMARK VINA RESULT:    -3.159      2.448      4.051
REMARK INTER + INTRA:          -3.490
REMARK INTER:                  -3.437
REMARK INTRA:                  -0.053
REMARK UNBOUND:                -0.054
REMARK SMILES C[C@H]1[C@H](C)CC[C@@]2(C(=O)[O-])CC[C@]3(C)C(=CC[C@@H]4[C@]5(C)CC[C@H](O)C(C)(C)[C@H]5CC[C@@]43C)[C@@H]12
REMARK SMILES IDX 7 1 6 2 11 3 33 4 5 5 12 6 15 7 2 8 3 9 13 10 16 11 1 12
REMARK SMILES IDX 4 13 14 14 31 15 17 16 18 17 30 18 32 19 19 20 29 21 28 22
REMARK SMILES IDX 21 23 20 24 25 25 22 26 23 27 26 28 27 29 8 30 9 31 10 32
REMARK SMILES IDX 24 33
REMARK H PARENT 24 34
REMARK Flexibility Score: inf
ROOT
ATOM      1  C   UNL     1      26.268  -1.853 126.249  1.00  0.00     0.017 C 
ATOM      2  C   UNL     1      24.929  -1.399 125.577  1.00  0.00     0.014 C 
ATOM      3  C   UNL     1      26.242  -1.554 127.754  1.00  0.00     0.014 C 
ATOM      4  C   UNL     1      26.492  -3.393 126.015  1.00  0.00     0.030 C 
ATOM      5  C   UNL     1      24.863  -1.731 124.083  1.00  0.00     0.004 C 
ATOM      6  C   UNL     1      25.089  -2.241 128.475  1.00  0.00     0.013 C 
ATOM      7  C   UNL     1      25.546  -4.259 126.909  1.00  0.00    -0.063 C 
ATOM      8  C   UNL     1      26.459  -3.641 124.446  1.00  0.00    -0.003 C 
ATOM      9  C   UNL     1      25.092  -3.233 123.833  1.00  0.00    -0.011 C 
ATOM     10  C   UNL     1      25.038  -3.801 128.298  1.00  0.00    -0.006 C 
ATOM     11  C   UNL     1      25.426  -5.579 126.662  1.00  0.00    -0.027 C 
ATOM     12  C   UNL     1      26.985  -5.003 123.952  1.00  0.00     0.008 C 
ATOM     13  C   UNL     1      24.998  -3.509 122.322  1.00  0.00     0.008 C 
ATOM     14  C   UNL     1      26.041  -4.374 129.354  1.00  0.00     0.017 C 
ATOM     15  C   UNL     1      23.554  -4.386 128.553  1.00  0.00    -0.020 C 
ATOM     16  C   UNL     1      24.511  -6.527 127.376  1.00  0.00     0.032 C 
ATOM     17  C   UNL     1      23.585  -5.978 128.522  1.00  0.00     0.006 C 
ATOM     18  C   UNL     1      22.567  -3.888 127.444  1.00  0.00     0.008 C 
ATOM     19  C   UNL     1      23.041  -3.878 129.945  1.00  0.00     0.012 C 
ATOM     20  C   UNL     1      22.155  -6.707 128.532  1.00  0.00    -0.025 C 
ATOM     21  C   UNL     1      21.187  -4.568 127.440  1.00  0.00     0.005 C 
ATOM     22  C   UNL     1      21.288  -6.112 127.357  1.00  0.00     0.003 C 
ATOM     23  C   UNL     1      22.323  -8.278 128.365  1.00  0.00     0.010 C 
ATOM     24  C   UNL     1      21.446  -6.513 129.912  1.00  0.00     0.012 C 
ATOM     25  C   UNL     1      19.902  -6.842 127.064  1.00  0.00    -0.006 C 
ATOM     26  C   UNL     1      21.370  -8.922 127.347  1.00  0.00     0.033 C 
ATOM     27  C   UNL     1      19.956  -8.354 127.486  1.00  0.00     0.120 C 
ATOM     28  C   UNL     1      18.711  -6.175 127.802  1.00  0.00     0.014 C 
ATOM     29  C   UNL     1      19.611  -6.740 125.537  1.00  0.00     0.014 C 
ENDROOT
BRANCH   1  30
ATOM     30  C   UNL     1      27.426  -1.025 125.693  1.00  0.00     0.048 C 
ATOM     31  O   UNL     1      28.602  -1.485 125.681  1.00  0.00    -0.550 OA
ATOM     32  O   UNL     1      27.221   0.299 125.305  1.00  0.00    -0.550 OA
ENDBRANCH   1  30
BRANCH  27  33
ATOM     33  O   UNL     1      19.054  -9.125 126.729  1.00  0.00    -0.393 OA
ATOM     34  H   UNL     1      19.416 -10.049 126.685  1.00  0.00     0.210 HD
ENDBRANCH  27  33
TORSDOF 2
ENDMDL
