MODEL 1
REMARK VINA RESULT:    -3.894      0.000      0.000
REMARK INTER + INTRA:          -6.124
REMARK INTER:                  -5.943
REMARK INTRA:                  -0.181
REMARK UNBOUND:                -0.181
REMARK SMILES CC1=CCC[C@@H](C)C(=O)C[C@@H](C(C)C)C(=O)C1
REMARK SMILES IDX 8 1 9 2 6 3 7 4 5 5 4 6 3 7 2 8 1 9 10 11 11 12 15 13 16 14
REMARK SMILES IDX 17 15 12 17 13 18 14 19
REMARK H PARENT
REMARK Flexibility Score: 70.00
ROOT
ATOM      1  C   UNL     1       9.234  20.296 -21.015  1.00  0.00     0.136 C 
ATOM      2  O   UNL     1       8.108  19.828 -21.088  1.00  0.00    -0.299 OA
ENDROOT
BRANCH   1   3
ATOM      3  C   UNL     1      10.256  19.619 -20.116  1.00  0.00     0.053 C 
ATOM      4  C   UNL     1      11.543  20.455 -20.102  1.00  0.00     0.016 C 
BRANCH   3   5
ATOM      5  C   UNL     1      10.557  18.153 -20.532  1.00  0.00     0.015 C 
BRANCH   5   6
ATOM      6  C   UNL     1      11.371  17.973 -21.829  1.00  0.00     0.028 C 
BRANCH   6   7
ATOM      7  C   UNL     1      10.590  17.904 -23.119  1.00  0.00    -0.028 C 
ATOM      8  C   UNL     1      10.578  18.839 -24.096  1.00  0.00    -0.070 CG0
ATOM      9  C   UNL     1       9.967  18.448 -25.421  1.00  0.00     0.039 C 
ATOM     10  G   UNL     1      11.152  20.238 -23.936  1.00  0.00     0.000 G0
ENDBRANCH   6   7
ENDBRANCH   5   6
ENDBRANCH   3   5
ENDBRANCH   1   3
BRANCH   1  11
ATOM     11  C   UNL     1       9.533  21.610 -21.711  1.00  0.00     0.087 C 
BRANCH  11  12
ATOM     12  C   UNL     1       9.052  21.716 -23.190  1.00  0.00     0.066 C 
BRANCH  12  13
ATOM     13  C   UNL     1      10.105  21.318 -24.214  1.00  0.00     0.140 C 
ATOM     14  O   UNL     1      10.147  21.941 -25.265  1.00  0.00    -0.299 OA
BRANCH  13  15
ATOM     15  C   UNL     1      11.151  20.254 -23.955  1.00  0.00     0.106 CG0
ATOM     16  G   UNL     1      10.549  18.866 -24.104  1.00  0.00     0.000 G0
ENDBRANCH  13  15
ENDBRANCH  12  13
BRANCH  12  17
ATOM     17  C   UNL     1       8.458  23.123 -23.508  1.00  0.00    -0.006 C 
ATOM     18  C   UNL     1       7.115  23.025 -24.260  1.00  0.00     0.008 C 
ATOM     19  C   UNL     1       8.248  23.954 -22.228  1.00  0.00     0.008 C 
ENDBRANCH  12  17
ENDBRANCH  11  12
ENDBRANCH   1  11
TORSDOF 1
ENDMDL
MODEL 2
REMARK VINA RESULT:    -3.709     13.934     15.145
REMARK INTER + INTRA:          -5.842
REMARK INTER:                  -5.817
REMARK INTRA:                  -0.025
REMARK UNBOUND:                -0.181
REMARK SMILES CC1=CCC[C@@H](C)C(=O)C[C@@H](C(C)C)C(=O)C1
REMARK SMILES IDX 8 1 9 2 6 3 7 4 5 5 4 6 3 7 2 8 1 9 10 11 11 12 15 13 16 14
REMARK SMILES IDX 17 15 12 17 13 18 14 19
REMARK H PARENT
REMARK Flexibility Score: 70.00
ROOT
ATOM      1  C   UNL     1      20.487   9.427 -25.076  1.00  0.00     0.136 C 
ATOM      2  O   UNL     1      20.934   8.823 -24.111  1.00  0.00    -0.299 OA
ENDROOT
BRANCH   1   3
ATOM      3  C   UNL     1      21.431  10.270 -25.918  1.00  0.00     0.053 C 
ATOM      4  C   UNL     1      22.878   9.864 -25.609  1.00  0.00     0.016 C 
BRANCH   3   5
ATOM      5  C   UNL     1      21.232  11.797 -25.713  1.00  0.00     0.015 C 
BRANCH   5   6
ATOM      6  C   UNL     1      20.127  12.454 -26.563  1.00  0.00     0.028 C 
BRANCH   6   7
ATOM      7  C   UNL     1      20.057  12.053 -28.017  1.00  0.00    -0.028 C 
ATOM      8  C   UNL     1      19.044  11.384 -28.613  1.00  0.00    -0.070 CG0
ATOM      9  C   UNL     1      19.039  11.338 -30.123  1.00  0.00     0.039 C 
ATOM     10  G   UNL     1      17.920  10.698 -27.853  1.00  0.00     0.000 G0
ENDBRANCH   6   7
ENDBRANCH   5   6
ENDBRANCH   3   5
ENDBRANCH   1   3
BRANCH   1  11
ATOM     11  C   UNL     1      18.990   9.425 -25.318  1.00  0.00     0.087 C 
BRANCH  11  12
ATOM     12  C   UNL     1      18.491   8.485 -26.457  1.00  0.00     0.066 C 
BRANCH  12  13
ATOM     13  C   UNL     1      18.136   9.211 -27.747  1.00  0.00     0.140 C 
ATOM     14  O   UNL     1      17.944   8.537 -28.750  1.00  0.00    -0.299 OA
BRANCH  13  15
ATOM     15  C   UNL     1      17.925  10.708 -27.823  1.00  0.00     0.106 CG0
ATOM     16  G   UNL     1      19.038  11.365 -28.623  1.00  0.00     0.000 G0
ENDBRANCH  13  15
ENDBRANCH  12  13
BRANCH  12  17
ATOM     17  C   UNL     1      17.320   7.569 -25.983  1.00  0.00    -0.006 C 
ATOM     18  C   UNL     1      17.660   6.074 -26.139  1.00  0.00     0.008 C 
ATOM     19  C   UNL     1      16.945   7.841 -24.515  1.00  0.00     0.008 C 
ENDBRANCH  12  17
ENDBRANCH  11  12
ENDBRANCH   1  11
TORSDOF 1
ENDMDL
MODEL 3
REMARK VINA RESULT:    -3.644      1.828      4.368
REMARK INTER + INTRA:          -5.743
REMARK INTER:                  -5.425
REMARK INTRA:                  -0.318
REMARK UNBOUND:                -0.181
REMARK SMILES CC1=CCC[C@@H](C)C(=O)C[C@@H](C(C)C)C(=O)C1
REMARK SMILES IDX 8 1 9 2 6 3 7 4 5 5 4 6 3 7 2 8 1 9 10 11 11 12 15 13 16 14
REMARK SMILES IDX 17 15 12 17 13 18 14 19
REMARK H PARENT
REMARK Flexibility Score: 70.00
ROOT
ATOM      1  C   UNL     1       8.938  20.848 -21.519  1.00  0.00     0.136 C 
ATOM      2  O   UNL     1       9.661  21.284 -20.635  1.00  0.00    -0.299 OA
ENDROOT
BRANCH   1   3
ATOM      3  C   UNL     1       8.411  21.804 -22.577  1.00  0.00     0.053 C 
ATOM      4  C   UNL     1       7.216  21.156 -23.288  1.00  0.00     0.016 C 
BRANCH   3   5
ATOM      5  C   UNL     1       9.494  22.235 -23.603  1.00  0.00     0.015 C 
BRANCH   5   6
ATOM      6  C   UNL     1       9.835  21.203 -24.697  1.00  0.00     0.028 C 
BRANCH   6   7
ATOM      7  C   UNL     1      11.050  20.339 -24.463  1.00  0.00    -0.028 C 
ATOM      8  C   UNL     1      11.054  18.997 -24.293  1.00  0.00    -0.070 CG0
ATOM      9  C   UNL     1      12.390  18.296 -24.363  1.00  0.00     0.039 C 
ATOM     10  G   UNL     1       9.801  18.171 -24.051  1.00  0.00     0.000 G0
ENDBRANCH   6   7
ENDBRANCH   5   6
ENDBRANCH   3   5
ENDBRANCH   1   3
BRANCH   1  11
ATOM     11  C   UNL     1       8.482  19.403 -21.454  1.00  0.00     0.087 C 
BRANCH  11  12
ATOM     12  C   UNL     1       9.617  18.339 -21.378  1.00  0.00     0.066 C 
BRANCH  12  13
ATOM     13  C   UNL     1       9.816  17.553 -22.667  1.00  0.00     0.140 C 
ATOM     14  O   UNL     1       9.943  16.340 -22.585  1.00  0.00    -0.299 OA
BRANCH  13  15
ATOM     15  C   UNL     1       9.777  18.192 -24.039  1.00  0.00     0.106 CG0
ATOM     16  G   UNL     1      11.043  18.995 -24.292  1.00  0.00     0.000 G0
ENDBRANCH  13  15
ENDBRANCH  12  13
BRANCH  12  17
ATOM     17  C   UNL     1       9.438  17.384 -20.157  1.00  0.00    -0.006 C 
ATOM     18  C   UNL     1      10.424  17.713 -19.019  1.00  0.00     0.008 C 
ATOM     19  C   UNL     1       8.003  17.438 -19.600  1.00  0.00     0.008 C 
ENDBRANCH  12  17
ENDBRANCH  11  12
ENDBRANCH   1  11
TORSDOF 1
ENDMDL
MODEL 4
REMARK VINA RESULT:    -3.635      2.118      2.511
REMARK INTER + INTRA:          -5.729
REMARK INTER:                  -5.425
REMARK INTRA:                  -0.304
REMARK UNBOUND:                -0.181
REMARK SMILES CC1=CCC[C@@H](C)C(=O)C[C@@H](C(C)C)C(=O)C1
REMARK SMILES IDX 8 1 9 2 6 3 7 4 5 5 4 6 3 7 2 8 1 9 10 11 11 12 15 13 16 14
REMARK SMILES IDX 17 15 12 17 13 18 14 19
REMARK H PARENT
REMARK Flexibility Score: 70.00
ROOT
ATOM      1  C   UNL     1       9.791  21.032 -21.975  1.00  0.00     0.136 C 
ATOM      2  O   UNL     1      10.622  20.578 -22.746  1.00  0.00    -0.299 OA
ENDROOT
BRANCH   1   3
ATOM      3  C   UNL     1       9.376  20.205 -20.768  1.00  0.00     0.053 C 
ATOM      4  C   UNL     1      10.504  20.235 -19.728  1.00  0.00     0.016 C 
BRANCH   3   5
ATOM      5  C   UNL     1       9.001  18.742 -21.131  1.00  0.00     0.015 C 
BRANCH   5   6
ATOM      6  C   UNL     1       7.761  18.566 -22.030  1.00  0.00     0.028 C 
BRANCH   6   7
ATOM      7  C   UNL     1       8.014  18.238 -23.482  1.00  0.00    -0.028 C 
ATOM      8  C   UNL     1       7.694  19.014 -24.543  1.00  0.00    -0.070 CG0
ATOM      9  C   UNL     1       8.290  18.638 -25.879  1.00  0.00     0.039 C 
ATOM     10  G   UNL     1       6.790  20.233 -24.458  1.00  0.00     0.000 G0
ENDBRANCH   6   7
ENDBRANCH   5   6
ENDBRANCH   3   5
ENDBRANCH   1   3
BRANCH   1  11
ATOM     11  C   UNL     1       9.102  22.339 -22.318  1.00  0.00     0.087 C 
BRANCH  11  12
ATOM     12  C   UNL     1       7.659  22.212 -22.892  1.00  0.00     0.066 C 
BRANCH  12  13
ATOM     13  C   UNL     1       7.588  21.511 -24.241  1.00  0.00     0.140 C 
ATOM     14  O   UNL     1       8.272  21.953 -25.154  1.00  0.00    -0.299 OA
BRANCH  13  15
ATOM     15  C   UNL     1       6.784  20.251 -24.478  1.00  0.00     0.106 CG0
ATOM     16  G   UNL     1       7.699  19.038 -24.547  1.00  0.00     0.000 G0
ENDBRANCH  13  15
ENDBRANCH  12  13
BRANCH  12  17
ATOM     17  C   UNL     1       6.926  23.589 -22.932  1.00  0.00    -0.006 C 
ATOM     18  C   UNL     1       5.512  23.507 -22.323  1.00  0.00     0.008 C 
ATOM     19  C   UNL     1       7.723  24.678 -22.189  1.00  0.00     0.008 C 
ENDBRANCH  12  17
ENDBRANCH  11  12
ENDBRANCH   1  11
TORSDOF 1
ENDMDL
MODEL 5
REMARK VINA RESULT:    -3.614      2.148      4.541
REMARK INTER + INTRA:          -5.697
REMARK INTER:                  -5.364
REMARK INTRA:                  -0.333
REMARK UNBOUND:                -0.181
REMARK SMILES CC1=CCC[C@@H](C)C(=O)C[C@@H](C(C)C)C(=O)C1
REMARK SMILES IDX 8 1 9 2 6 3 7 4 5 5 4 6 3 7 2 8 1 9 10 11 11 12 15 13 16 14
REMARK SMILES IDX 17 15 12 17 13 18 14 19
REMARK H PARENT
REMARK Flexibility Score: 70.00
ROOT
ATOM      1  C   UNL     1      11.453  17.616 -20.379  1.00  0.00     0.136 C 
ATOM      2  O   UNL     1      12.457  16.964 -20.133  1.00  0.00    -0.299 OA
ENDROOT
BRANCH   1   3
ATOM      3  C   UNL     1      11.025  18.705 -19.408  1.00  0.00     0.053 C 
ATOM      4  C   UNL     1       9.614  18.391 -18.893  1.00  0.00     0.016 C 
BRANCH   3   5
ATOM      5  C   UNL     1      11.081  20.129 -20.025  1.00  0.00     0.015 C 
BRANCH   5   6
ATOM      6  C   UNL     1       9.741  20.698 -20.533  1.00  0.00     0.028 C 
BRANCH   6   7
ATOM      7  C   UNL     1       9.737  21.294 -21.920  1.00  0.00    -0.028 C 
ATOM      8  C   UNL     1       9.178  20.745 -23.022  1.00  0.00    -0.070 CG0
ATOM      9  C   UNL     1       9.031  21.630 -24.237  1.00  0.00     0.039 C 
ATOM     10  G   UNL     1       8.685  19.308 -23.096  1.00  0.00     0.000 G0
ENDBRANCH   6   7
ENDBRANCH   5   6
ENDBRANCH   3   5
ENDBRANCH   1   3
BRANCH   1  11
ATOM     11  C   UNL     1      10.595  17.228 -21.568  1.00  0.00     0.087 C 
BRANCH  11  12
ATOM     12  C   UNL     1      10.956  17.919 -22.917  1.00  0.00     0.066 C 
BRANCH  12  13
ATOM     13  C   UNL     1       9.749  18.407 -23.705  1.00  0.00     0.140 C 
ATOM     14  O   UNL     1       9.605  17.994 -24.847  1.00  0.00    -0.299 OA
BRANCH  13  15
ATOM     15  C   UNL     1       8.681  19.303 -23.114  1.00  0.00     0.106 CG0
ATOM     16  G   UNL     1       9.180  20.736 -23.015  1.00  0.00     0.000 G0
ENDBRANCH  13  15
ENDBRANCH  12  13
BRANCH  12  17
ATOM     17  C   UNL     1      11.883  17.026 -23.798  1.00  0.00    -0.006 C 
ATOM     18  C   UNL     1      13.375  17.306 -23.533  1.00  0.00     0.008 C 
ATOM     19  C   UNL     1      11.613  15.527 -23.568  1.00  0.00     0.008 C 
ENDBRANCH  12  17
ENDBRANCH  11  12
ENDBRANCH   1  11
TORSDOF 1
ENDMDL
MODEL 6
REMARK VINA RESULT:    -3.586      2.575      3.366
REMARK INTER + INTRA:          -5.654
REMARK INTER:                  -5.265
REMARK INTRA:                  -0.389
REMARK UNBOUND:                -0.181
REMARK SMILES CC1=CCC[C@@H](C)C(=O)C[C@@H](C(C)C)C(=O)C1
REMARK SMILES IDX 8 1 9 2 6 3 7 4 5 5 4 6 3 7 2 8 1 9 10 11 11 12 15 13 16 14
REMARK SMILES IDX 17 15 12 17 13 18 14 19
REMARK H PARENT
REMARK Flexibility Score: 70.00
ROOT
ATOM      1  C   UNL     1       8.334  21.150 -22.026  1.00  0.00     0.136 C 
ATOM      2  O   UNL     1       9.070  21.048 -21.056  1.00  0.00    -0.299 OA
ENDROOT
BRANCH   1   3
ATOM      3  C   UNL     1       7.577  19.922 -22.507  1.00  0.00     0.053 C 
ATOM      4  C   UNL     1       6.800  19.318 -21.329  1.00  0.00     0.016 C 
BRANCH   3   5
ATOM      5  C   UNL     1       8.497  18.857 -23.163  1.00  0.00     0.015 C 
BRANCH   5   6
ATOM      6  C   UNL     1       9.070  19.221 -24.547  1.00  0.00     0.028 C 
BRANCH   6   7
ATOM      7  C   UNL     1       8.075  19.424 -25.665  1.00  0.00    -0.028 C 
ATOM      8  C   UNL     1       7.807  20.591 -26.293  1.00  0.00    -0.070 CG0
ATOM      9  C   UNL     1       6.999  20.521 -27.567  1.00  0.00     0.039 C 
ATOM     10  G   UNL     1       8.281  21.948 -25.796  1.00  0.00     0.000 G0
ENDBRANCH   6   7
ENDBRANCH   5   6
ENDBRANCH   3   5
ENDBRANCH   1   3
BRANCH   1  11
ATOM     11  C   UNL     1       8.304  22.456 -22.797  1.00  0.00     0.087 C 
BRANCH  11  12
ATOM     12  C   UNL     1       6.994  22.743 -23.590  1.00  0.00     0.066 C 
BRANCH  12  13
ATOM     13  C   UNL     1       7.164  22.701 -25.102  1.00  0.00     0.140 C 
ATOM     14  O   UNL     1       6.393  23.362 -25.784  1.00  0.00    -0.299 OA
BRANCH  13  15
ATOM     15  C   UNL     1       8.288  21.954 -25.787  1.00  0.00     0.106 CG0
ATOM     16  G   UNL     1       7.805  20.602 -26.287  1.00  0.00     0.000 G0
ENDBRANCH  13  15
ENDBRANCH  12  13
BRANCH  12  17
ATOM     17  C   UNL     1       6.319  24.074 -23.134  1.00  0.00    -0.006 C 
ATOM     18  C   UNL     1       5.195  23.828 -22.108  1.00  0.00     0.008 C 
ATOM     19  C   UNL     1       7.343  25.049 -22.522  1.00  0.00     0.008 C 
ENDBRANCH  12  17
ENDBRANCH  11  12
ENDBRANCH   1  11
TORSDOF 1
ENDMDL
MODEL 7
REMARK VINA RESULT:    -3.564      3.338      5.231
REMARK INTER + INTRA:          -5.621
REMARK INTER:                  -5.354
REMARK INTRA:                  -0.266
REMARK UNBOUND:                -0.181
REMARK SMILES CC1=CCC[C@@H](C)C(=O)C[C@@H](C(C)C)C(=O)C1
REMARK SMILES IDX 8 1 9 2 6 3 7 4 5 5 4 6 3 7 2 8 1 9 10 11 11 12 15 13 16 14
REMARK SMILES IDX 17 15 12 17 13 18 14 19
REMARK H PARENT
REMARK Flexibility Score: 70.00
ROOT
ATOM      1  C   UNL     1      13.179  17.474 -22.689  1.00  0.00     0.136 C 
ATOM      2  O   UNL     1      13.785  17.739 -21.661  1.00  0.00    -0.299 OA
ENDROOT
BRANCH   1   3
ATOM      3  C   UNL     1      13.916  16.771 -23.818  1.00  0.00     0.053 C 
ATOM      4  C   UNL     1      13.869  17.652 -25.073  1.00  0.00     0.016 C 
BRANCH   3   5
ATOM      5  C   UNL     1      13.359  15.354 -24.120  1.00  0.00     0.015 C 
BRANCH   5   6
ATOM      6  C   UNL     1      12.338  15.261 -25.271  1.00  0.00     0.028 C 
BRANCH   6   7
ATOM      7  C   UNL     1      11.075  14.480 -25.000  1.00  0.00    -0.028 C 
ATOM      8  C   UNL     1       9.864  15.000 -24.698  1.00  0.00    -0.070 CG0
ATOM      9  C   UNL     1       8.677  14.067 -24.751  1.00  0.00     0.039 C 
ATOM     10  G   UNL     1       9.637  16.457 -24.328  1.00  0.00     0.000 G0
ENDBRANCH   6   7
ENDBRANCH   5   6
ENDBRANCH   3   5
ENDBRANCH   1   3
BRANCH   1  11
ATOM     11  C   UNL     1      11.758  17.975 -22.857  1.00  0.00     0.087 C 
BRANCH  11  12
ATOM     12  C   UNL     1      10.679  17.245 -22.001  1.00  0.00     0.066 C 
BRANCH  12  13
ATOM     13  C   UNL     1       9.556  16.624 -22.819  1.00  0.00     0.140 C 
ATOM     14  O   UNL     1       8.529  16.307 -22.236  1.00  0.00    -0.299 OA
BRANCH  13  15
ATOM     15  C   UNL     1       9.619  16.464 -24.323  1.00  0.00     0.106 CG0
ATOM     16  G   UNL     1       9.878  15.013 -24.696  1.00  0.00     0.000 G0
ENDBRANCH  13  15
ENDBRANCH  12  13
BRANCH  12  17
ATOM     17  C   UNL     1      10.114  18.163 -20.872  1.00  0.00    -0.006 C 
ATOM     18  C   UNL     1      10.655  17.768 -19.484  1.00  0.00     0.008 C 
ATOM     19  C   UNL     1      10.444  19.646 -21.128  1.00  0.00     0.008 C 
ENDBRANCH  12  17
ENDBRANCH  11  12
ENDBRANCH   1  11
TORSDOF 1
ENDMDL
MODEL 8
REMARK VINA RESULT:    -3.542      2.753      3.957
REMARK INTER + INTRA:          -5.587
REMARK INTER:                  -5.147
REMARK INTRA:                  -0.440
REMARK UNBOUND:                -0.181
REMARK SMILES CC1=CCC[C@@H](C)C(=O)C[C@@H](C(C)C)C(=O)C1
REMARK SMILES IDX 8 1 9 2 6 3 7 4 5 5 4 6 3 7 2 8 1 9 10 11 11 12 15 13 16 14
REMARK SMILES IDX 17 15 12 17 13 18 14 19
REMARK H PARENT
REMARK Flexibility Score: 70.00
ROOT
ATOM      1  C   UNL     1       8.973  22.066 -24.128  1.00  0.00     0.136 C 
ATOM      2  O   UNL     1      10.110  22.372 -24.458  1.00  0.00    -0.299 OA
ENDROOT
BRANCH   1   3
ATOM      3  C   UNL     1       8.774  21.178 -22.910  1.00  0.00     0.053 C 
ATOM      4  C   UNL     1       9.567  21.758 -21.731  1.00  0.00     0.016 C 
BRANCH   3   5
ATOM      5  C   UNL     1       9.170  19.698 -23.163  1.00  0.00     0.015 C 
BRANCH   5   6
ATOM      6  C   UNL     1       8.022  18.753 -23.570  1.00  0.00     0.028 C 
BRANCH   6   7
ATOM      7  C   UNL     1       7.924  18.390 -25.032  1.00  0.00    -0.028 C 
ATOM      8  C   UNL     1       6.969  18.805 -25.895  1.00  0.00    -0.070 CG0
ATOM      9  C   UNL     1       7.215  18.565 -27.366  1.00  0.00     0.039 C 
ATOM     10  G   UNL     1       5.687  19.501 -25.468  1.00  0.00     0.000 G0
ENDBRANCH   6   7
ENDBRANCH   5   6
ENDBRANCH   3   5
ENDBRANCH   1   3
BRANCH   1  11
ATOM     11  C   UNL     1       7.813  22.468 -25.018  1.00  0.00     0.087 C 
BRANCH  11  12
ATOM     12  C   UNL     1       6.419  21.908 -24.605  1.00  0.00     0.066 C 
BRANCH  12  13
ATOM     13  C   UNL     1       5.783  20.998 -25.646  1.00  0.00     0.140 C 
ATOM     14  O   UNL     1       5.415  21.501 -26.699  1.00  0.00    -0.299 OA
BRANCH  13  15
ATOM     15  C   UNL     1       5.668  19.499 -25.475  1.00  0.00     0.106 CG0
ATOM     16  G   UNL     1       6.961  18.812 -25.885  1.00  0.00     0.000 G0
ENDBRANCH  13  15
ENDBRANCH  12  13
BRANCH  12  17
ATOM     17  C   UNL     1       5.440  23.045 -24.175  1.00  0.00    -0.006 C 
ATOM     18  C   UNL     1       5.117  22.989 -22.669  1.00  0.00     0.008 C 
ATOM     19  C   UNL     1       6.007  24.438 -24.508  1.00  0.00     0.008 C 
ENDBRANCH  12  17
ENDBRANCH  11  12
ENDBRANCH   1  11
TORSDOF 1
ENDMDL
MODEL 9
REMARK VINA RESULT:    -3.541      2.307      3.479
REMARK INTER + INTRA:          -5.585
REMARK INTER:                  -5.553
REMARK INTRA:                  -0.032
REMARK UNBOUND:                -0.181
REMARK SMILES CC1=CCC[C@@H](C)C(=O)C[C@@H](C(C)C)C(=O)C1
REMARK SMILES IDX 8 1 9 2 6 3 7 4 5 5 4 6 3 7 2 8 1 9 10 11 11 12 15 13 16 14
REMARK SMILES IDX 17 15 12 17 13 18 14 19
REMARK H PARENT
REMARK Flexibility Score: 70.00
ROOT
ATOM      1  C   UNL     1      11.533  19.987 -20.707  1.00  0.00     0.136 C 
ATOM      2  O   UNL     1      11.489  20.932 -19.933  1.00  0.00    -0.299 OA
ENDROOT
BRANCH   1   3
ATOM      3  C   UNL     1      12.325  18.750 -20.314  1.00  0.00     0.053 C 
ATOM      4  C   UNL     1      12.403  17.801 -21.518  1.00  0.00     0.016 C 
BRANCH   3   5
ATOM      5  C   UNL     1      11.739  18.019 -19.076  1.00  0.00     0.015 C 
BRANCH   5   6
ATOM      6  C   UNL     1      10.523  17.109 -19.341  1.00  0.00     0.028 C 
BRANCH   6   7
ATOM      7  C   UNL     1       9.165  17.767 -19.334  1.00  0.00    -0.028 C 
ATOM      8  C   UNL     1       8.313  17.851 -20.381  1.00  0.00    -0.070 CG0
ATOM      9  C   UNL     1       6.898  18.289 -20.088  1.00  0.00     0.039 C 
ATOM     10  G   UNL     1       8.697  17.518 -21.814  1.00  0.00     0.000 G0
ENDBRANCH   6   7
ENDBRANCH   5   6
ENDBRANCH   3   5
ENDBRANCH   1   3
BRANCH   1  11
ATOM     11  C   UNL     1      10.914  20.132 -22.085  1.00  0.00     0.087 C 
BRANCH  11  12
ATOM     12  C   UNL     1       9.358  20.084 -22.135  1.00  0.00     0.066 C 
BRANCH  12  13
ATOM     13  C   UNL     1       8.795  18.773 -22.665  1.00  0.00     0.140 C 
ATOM     14  O   UNL     1       8.483  18.718 -23.846  1.00  0.00    -0.299 OA
BRANCH  13  15
ATOM     15  C   UNL     1       8.687  17.519 -21.823  1.00  0.00     0.106 CG0
ATOM     16  G   UNL     1       8.309  17.866 -20.392  1.00  0.00     0.000 G0
ENDBRANCH  13  15
ENDBRANCH  12  13
BRANCH  12  17
ATOM     17  C   UNL     1       8.763  21.305 -22.903  1.00  0.00    -0.006 C 
ATOM     18  C   UNL     1       8.356  22.444 -21.948  1.00  0.00     0.008 C 
ATOM     19  C   UNL     1       9.757  21.861 -23.940  1.00  0.00     0.008 C 
ENDBRANCH  12  17
ENDBRANCH  11  12
ENDBRANCH   1  11
TORSDOF 1
ENDMDL
