MODEL 1
REMARK VINA RESULT:    -2.994      0.000      0.000
REMARK INTER + INTRA:          -6.908
REMARK INTER:                  -4.657
REMARK INTRA:                  -2.251
REMARK UNBOUND:                -2.251
REMARK SMILES COc1cc(CNC(=O)CCCCC=CC(C)C)ccc1O
REMARK SMILES IDX 11 1 12 2 13 3 14 4 15 5 16 6 17 7 18 8 10 9 8 10 9 11 7 12
REMARK SMILES IDX 6 14 5 15 4 16 19 17 3 18 20 19 21 20 2 21 1 22 22 23
REMARK H PARENT 7 13 22 24
REMARK Flexibility Score: inf
ROOT
ATOM      1  C   UNL     1     104.232 103.662 101.996  1.00  0.00     0.010 C 
ENDROOT
BRANCH   1   2
ATOM      2  C   UNL     1     103.749 104.501 103.189  1.00  0.00     0.005 C 
BRANCH   2   3
ATOM      3  C   UNL     1     102.412 105.202 102.910  1.00  0.00     0.027 C 
BRANCH   3   4
ATOM      4  C   UNL     1     101.648 104.489 101.830  1.00  0.00    -0.031 C 
ATOM      5  C   UNL     1     100.304 104.477 101.811  1.00  0.00    -0.028 C 
BRANCH   5   6
ATOM      6  C   UNL     1      99.507 103.772 100.737  1.00  0.00     0.005 C 
ATOM      7  C   UNL     1     100.280 102.579 100.164  1.00  0.00     0.012 C 
ATOM      8  C   UNL     1      98.128 103.345 101.251  1.00  0.00     0.012 C 
ENDBRANCH   5   6
ENDBRANCH   3   4
ENDBRANCH   2   3
ENDBRANCH   1   2
BRANCH   1   9
ATOM      9  C   UNL     1     104.780 102.295 102.423  1.00  0.00     0.100 C 
BRANCH   9  10
ATOM     10  C   UNL     1     103.744 101.237 102.193  1.00  0.00     0.220 C 
ATOM     11  O   UNL     1     103.807 100.521 101.155  1.00  0.00    -0.275 OA
ATOM     12  N   UNL     1     102.650 101.090 103.107  1.00  0.00    -0.352 N 
ATOM     13  H   UNL     1     102.668 101.622 104.008  1.00  0.00     0.163 HD
BRANCH  12  14
ATOM     14  C   UNL     1     101.437 100.358 102.759  1.00  0.00     0.151 C 
BRANCH  14  15
ATOM     15  C   UNL     1     100.258 100.958 103.476  1.00  0.00    -0.025 A 
ATOM     16  C   UNL     1      98.977 100.411 103.297  1.00  0.00     0.056 A 
ATOM     17  C   UNL     1     100.436 102.015 104.380  1.00  0.00     0.009 A 
ATOM     18  C   UNL     1      97.874 100.926 104.005  1.00  0.00     0.160 A 
ATOM     19  C   UNL     1      99.345 102.532 105.080  1.00  0.00     0.050 A 
ATOM     20  C   UNL     1      98.065 101.992 104.895  1.00  0.00     0.157 A 
BRANCH  18  21
ATOM     21  O   UNL     1      96.580 100.404 103.857  1.00  0.00    -0.493 OA
ATOM     22  C   UNL     1      96.197  99.473 102.849  1.00  0.00     0.278 C 
ENDBRANCH  18  21
BRANCH  20  23
ATOM     23  O   UNL     1      96.977 102.507 105.598  1.00  0.00    -0.504 OA
ATOM     24  H   UNL     1      96.074 102.636 105.155  1.00  0.00     0.293 HD
ENDBRANCH  20  23
ENDBRANCH  14  15
ENDBRANCH  12  14
ENDBRANCH   9  10
ENDBRANCH   1   9
TORSDOF 10
ENDMDL
MODEL 2
REMARK VINA RESULT:    -2.926      6.462      9.429
REMARK INTER + INTRA:          -6.803
REMARK INTER:                  -6.121
REMARK INTRA:                  -0.682
REMARK UNBOUND:                -2.251
REMARK SMILES COc1cc(CNC(=O)CCCCC=CC(C)C)ccc1O
REMARK SMILES IDX 11 1 12 2 13 3 14 4 15 5 16 6 17 7 18 8 10 9 8 10 9 11 7 12
REMARK SMILES IDX 6 14 5 15 4 16 19 17 3 18 20 19 21 20 2 21 1 22 22 23
REMARK H PARENT 7 13 22 24
REMARK Flexibility Score: inf
ROOT
ATOM      1  C   UNL     1     100.394 107.501 103.059  1.00  0.00     0.010 C 
ENDROOT
BRANCH   1   2
ATOM      2  C   UNL     1     100.098 106.198 103.816  1.00  0.00     0.005 C 
BRANCH   2   3
ATOM      3  C   UNL     1     101.210 105.153 103.642  1.00  0.00     0.027 C 
BRANCH   3   4
ATOM      4  C   UNL     1     100.639 103.764 103.601  1.00  0.00    -0.031 C 
ATOM      5  C   UNL     1     100.080 103.203 104.687  1.00  0.00    -0.028 C 
BRANCH   5   6
ATOM      6  C   UNL     1      99.494 101.809 104.678  1.00  0.00     0.005 C 
ATOM      7  C   UNL     1      97.962 101.850 104.666  1.00  0.00     0.012 C 
ATOM      8  C   UNL     1     100.037 100.979 103.510  1.00  0.00     0.012 C 
ENDBRANCH   5   6
ENDBRANCH   3   4
ENDBRANCH   2   3
ENDBRANCH   1   2
BRANCH   1   9
ATOM      9  C   UNL     1      99.131 108.130 102.457  1.00  0.00     0.100 C 
BRANCH   9  10
ATOM     10  C   UNL     1      99.430 109.520 101.985  1.00  0.00     0.220 C 
ATOM     11  O   UNL     1      99.453 109.764 100.747  1.00  0.00    -0.275 OA
ATOM     12  N   UNL     1      99.759 110.546 102.930  1.00  0.00    -0.352 N 
ATOM     13  H   UNL     1      99.638 110.352 103.951  1.00  0.00     0.163 HD
BRANCH  12  14
ATOM     14  C   UNL     1     100.411 111.790 102.535  1.00  0.00     0.151 C 
BRANCH  14  15
ATOM     15  C   UNL     1     101.678 111.974 103.325  1.00  0.00    -0.025 A 
ATOM     16  C   UNL     1     102.870 111.379 102.885  1.00  0.00     0.056 A 
ATOM     17  C   UNL     1     101.695 112.796 104.461  1.00  0.00     0.009 A 
ATOM     18  C   UNL     1     104.075 111.588 103.584  1.00  0.00     0.160 A 
ATOM     19  C   UNL     1     102.885 113.004 105.160  1.00  0.00     0.050 A 
ATOM     20  C   UNL     1     104.075 112.402 104.726  1.00  0.00     0.157 A 
BRANCH  18  21
ATOM     21  O   UNL     1     105.288 111.015 103.174  1.00  0.00    -0.493 OA
ATOM     22  C   UNL     1     105.482 109.624 102.937  1.00  0.00     0.278 C 
ENDBRANCH  18  21
BRANCH  20  23
ATOM     23  O   UNL     1     105.264 112.613 105.423  1.00  0.00    -0.504 OA
ATOM     24  H   UNL     1     106.121 112.863 104.943  1.00  0.00     0.293 HD
ENDBRANCH  20  23
ENDBRANCH  14  15
ENDBRANCH  12  14
ENDBRANCH   9  10
ENDBRANCH   1   9
TORSDOF 10
ENDMDL
MODEL 3
REMARK VINA RESULT:    -2.890      8.971     11.383
REMARK INTER + INTRA:          -6.746
REMARK INTER:                  -4.396
REMARK INTRA:                  -2.350
REMARK UNBOUND:                -2.251
REMARK SMILES COc1cc(CNC(=O)CCCCC=CC(C)C)ccc1O
REMARK SMILES IDX 11 1 12 2 13 3 14 4 15 5 16 6 17 7 18 8 10 9 8 10 9 11 7 12
REMARK SMILES IDX 6 14 5 15 4 16 19 17 3 18 20 19 21 20 2 21 1 22 22 23
REMARK H PARENT 7 13 22 24
REMARK Flexibility Score: inf
ROOT
ATOM      1  C   UNL     1     106.927 112.846 101.991  1.00  0.00     0.010 C 
ENDROOT
BRANCH   1   2
ATOM      2  C   UNL     1     106.810 113.158 103.491  1.00  0.00     0.005 C 
BRANCH   2   3
ATOM      3  C   UNL     1     105.721 112.323 104.180  1.00  0.00     0.027 C 
BRANCH   3   4
ATOM      4  C   UNL     1     105.106 111.345 103.219  1.00  0.00    -0.031 C 
ATOM      5  C   UNL     1     104.640 110.154 103.632  1.00  0.00    -0.028 C 
BRANCH   5   6
ATOM      6  C   UNL     1     104.014 109.149 102.692  1.00  0.00     0.005 C 
ATOM      7  C   UNL     1     103.919 109.707 101.267  1.00  0.00     0.012 C 
ATOM      8  C   UNL     1     104.764 107.813 102.717  1.00  0.00     0.012 C 
ENDBRANCH   5   6
ENDBRANCH   3   4
ENDBRANCH   2   3
ENDBRANCH   1   2
BRANCH   1   9
ATOM      9  C   UNL     1     107.096 114.111 101.140  1.00  0.00     0.100 C 
BRANCH   9  10
ATOM     10  C   UNL     1     105.835 114.919 101.173  1.00  0.00     0.220 C 
ATOM     11  O   UNL     1     105.876 116.117 101.569  1.00  0.00    -0.275 OA
ATOM     12  N   UNL     1     104.583 114.314 100.827  1.00  0.00    -0.352 N 
ATOM     13  H   UNL     1     104.582 113.356 100.408  1.00  0.00     0.163 HD
BRANCH  12  14
ATOM     14  C   UNL     1     103.302 114.913 101.187  1.00  0.00     0.151 C 
BRANCH  14  15
ATOM     15  C   UNL     1     102.735 114.213 102.392  1.00  0.00    -0.025 A 
ATOM     16  C   UNL     1     102.115 112.962 102.248  1.00  0.00     0.056 A 
ATOM     17  C   UNL     1     102.882 114.768 103.672  1.00  0.00     0.009 A 
ATOM     18  C   UNL     1     101.629 112.271 103.376  1.00  0.00     0.160 A 
ATOM     19  C   UNL     1     102.398 114.089 104.792  1.00  0.00     0.050 A 
ATOM     20  C   UNL     1     101.772 112.843 104.648  1.00  0.00     0.157 A 
BRANCH  18  21
ATOM     21  O   UNL     1     101.009 111.016 103.273  1.00  0.00    -0.493 OA
ATOM     22  C   UNL     1     100.164 110.620 102.198  1.00  0.00     0.278 C 
ENDBRANCH  18  21
BRANCH  20  23
ATOM     23  O   UNL     1     101.292 112.164 105.767  1.00  0.00    -0.504 OA
ATOM     24  H   UNL     1     101.674 112.330 106.691  1.00  0.00     0.293 HD
ENDBRANCH  20  23
ENDBRANCH  14  15
ENDBRANCH  12  14
ENDBRANCH   9  10
ENDBRANCH   1   9
TORSDOF 10
ENDMDL
MODEL 4
REMARK VINA RESULT:    -2.846      5.573      8.255
REMARK INTER + INTRA:          -6.678
REMARK INTER:                  -4.585
REMARK INTRA:                  -2.093
REMARK UNBOUND:                -2.251
REMARK SMILES COc1cc(CNC(=O)CCCCC=CC(C)C)ccc1O
REMARK SMILES IDX 11 1 12 2 13 3 14 4 15 5 16 6 17 7 18 8 10 9 8 10 9 11 7 12
REMARK SMILES IDX 6 14 5 15 4 16 19 17 3 18 20 19 21 20 2 21 1 22 22 23
REMARK H PARENT 7 13 22 24
REMARK Flexibility Score: inf
ROOT
ATOM      1  C   UNL     1     110.933  99.118 104.723  1.00  0.00     0.010 C 
ENDROOT
BRANCH   1   2
ATOM      2  C   UNL     1     111.661 100.307 104.078  1.00  0.00     0.005 C 
BRANCH   2   3
ATOM      3  C   UNL     1     110.699 101.261 103.354  1.00  0.00     0.027 C 
BRANCH   3   4
ATOM      4  C   UNL     1     110.097 100.601 102.146  1.00  0.00    -0.031 C 
ATOM      5  C   UNL     1     109.608 101.322 101.123  1.00  0.00    -0.028 C 
BRANCH   5   6
ATOM      6  C   UNL     1     108.999 100.688  99.892  1.00  0.00     0.005 C 
ATOM      7  C   UNL     1     109.473  99.240  99.720  1.00  0.00     0.012 C 
ATOM      8  C   UNL     1     107.470 100.773  99.916  1.00  0.00     0.012 C 
ENDBRANCH   5   6
ENDBRANCH   3   4
ENDBRANCH   2   3
ENDBRANCH   1   2
BRANCH   1   9
ATOM      9  C   UNL     1     111.409  97.769 104.170  1.00  0.00     0.100 C 
BRANCH   9  10
ATOM     10  C   UNL     1     110.416  97.246 103.177  1.00  0.00     0.220 C 
ATOM     11  O   UNL     1     110.823  96.789 102.073  1.00  0.00    -0.275 OA
ATOM     12  N   UNL     1     109.012  97.334 103.450  1.00  0.00    -0.352 N 
ATOM     13  H   UNL     1     108.698  97.622 104.405  1.00  0.00     0.163 HD
BRANCH  12  14
ATOM     14  C   UNL     1     108.005  97.197 102.403  1.00  0.00     0.151 C 
BRANCH  14  15
ATOM     15  C   UNL     1     106.947  98.254 102.573  1.00  0.00    -0.025 A 
ATOM     16  C   UNL     1     105.695  98.095 101.959  1.00  0.00     0.056 A 
ATOM     17  C   UNL     1     107.176  99.363 103.399  1.00  0.00     0.009 A 
ATOM     18  C   UNL     1     104.676  99.049 102.155  1.00  0.00     0.160 A 
ATOM     19  C   UNL     1     106.172 100.314 103.593  1.00  0.00     0.050 A 
ATOM     20  C   UNL     1     104.924 100.161 102.973  1.00  0.00     0.157 A 
BRANCH  18  21
ATOM     21  O   UNL     1     103.411  98.925 101.563  1.00  0.00    -0.493 OA
ATOM     22  C   UNL     1     103.108  99.297 100.222  1.00  0.00     0.278 C 
ENDBRANCH  18  21
BRANCH  20  23
ATOM     23  O   UNL     1     103.921 101.109 103.170  1.00  0.00    -0.504 OA
ATOM     24  H   UNL     1     102.944 100.886 103.014  1.00  0.00     0.293 HD
ENDBRANCH  20  23
ENDBRANCH  14  15
ENDBRANCH  12  14
ENDBRANCH   9  10
ENDBRANCH   1   9
TORSDOF 10
ENDMDL
MODEL 5
REMARK VINA RESULT:    -2.802      3.132      5.315
REMARK INTER + INTRA:          -6.609
REMARK INTER:                  -4.719
REMARK INTRA:                  -1.890
REMARK UNBOUND:                -2.251
REMARK SMILES COc1cc(CNC(=O)CCCCC=CC(C)C)ccc1O
REMARK SMILES IDX 11 1 12 2 13 3 14 4 15 5 16 6 17 7 18 8 10 9 8 10 9 11 7 12
REMARK SMILES IDX 6 14 5 15 4 16 19 17 3 18 20 19 21 20 2 21 1 22 22 23
REMARK H PARENT 7 13 22 24
REMARK Flexibility Score: inf
ROOT
ATOM      1  C   UNL     1      98.486 107.683 101.297  1.00  0.00     0.010 C 
ENDROOT
BRANCH   1   2
ATOM      2  C   UNL     1      99.022 108.589 102.416  1.00  0.00     0.005 C 
BRANCH   2   3
ATOM      3  C   UNL     1     100.546 108.488 102.574  1.00  0.00     0.027 C 
BRANCH   3   4
ATOM      4  C   UNL     1     100.957 107.083 102.914  1.00  0.00    -0.031 C 
ATOM      5  C   UNL     1     100.331 106.382 103.875  1.00  0.00    -0.028 C 
BRANCH   5   6
ATOM      6  C   UNL     1     100.719 104.967 104.239  1.00  0.00     0.005 C 
ATOM      7  C   UNL     1     102.032 104.559 103.562  1.00  0.00     0.012 C 
ATOM      8  C   UNL     1     100.796 104.779 105.758  1.00  0.00     0.012 C 
ENDBRANCH   5   6
ENDBRANCH   3   4
ENDBRANCH   2   3
ENDBRANCH   1   2
BRANCH   1   9
ATOM      9  C   UNL     1      97.019 107.290 101.512  1.00  0.00     0.100 C 
BRANCH   9  10
ATOM     10  C   UNL     1      96.896 105.799 101.577  1.00  0.00     0.220 C 
ATOM     11  O   UNL     1      96.508 105.163 100.557  1.00  0.00    -0.275 OA
ATOM     12  N   UNL     1      97.146 105.109 102.807  1.00  0.00    -0.352 N 
ATOM     13  H   UNL     1      97.560 105.637 103.609  1.00  0.00     0.163 HD
BRANCH  12  14
ATOM     14  C   UNL     1      96.694 103.741 103.040  1.00  0.00     0.151 C 
BRANCH  14  15
ATOM     15  C   UNL     1      97.882 102.840 103.241  1.00  0.00    -0.025 A 
ATOM     16  C   UNL     1      98.739 102.560 102.164  1.00  0.00     0.056 A 
ATOM     17  C   UNL     1      98.183 102.332 104.512  1.00  0.00     0.009 A 
ATOM     18  C   UNL     1      99.885 101.763 102.351  1.00  0.00     0.160 A 
ATOM     19  C   UNL     1      99.315 101.538 104.702  1.00  0.00     0.050 A 
ATOM     20  C   UNL     1     100.167 101.251 103.626  1.00  0.00     0.157 A 
BRANCH  18  21
ATOM     21  O   UNL     1     100.768 101.465 101.302  1.00  0.00    -0.493 OA
ATOM     22  C   UNL     1     101.436 102.442 100.509  1.00  0.00     0.278 C 
ENDBRANCH  18  21
BRANCH  20  23
ATOM     23  O   UNL     1     101.300 100.462 103.817  1.00  0.00    -0.504 OA
ATOM     24  H   UNL     1     101.352  99.784 104.568  1.00  0.00     0.293 HD
ENDBRANCH  20  23
ENDBRANCH  14  15
ENDBRANCH  12  14
ENDBRANCH   9  10
ENDBRANCH   1   9
TORSDOF 10
ENDMDL
MODEL 6
REMARK VINA RESULT:    -2.752      8.015     10.731
REMARK INTER + INTRA:          -6.531
REMARK INTER:                  -4.765
REMARK INTRA:                  -1.766
REMARK UNBOUND:                -2.251
REMARK SMILES COc1cc(CNC(=O)CCCCC=CC(C)C)ccc1O
REMARK SMILES IDX 11 1 12 2 13 3 14 4 15 5 16 6 17 7 18 8 10 9 8 10 9 11 7 12
REMARK SMILES IDX 6 14 5 15 4 16 19 17 3 18 20 19 21 20 2 21 1 22 22 23
REMARK H PARENT 7 13 22 24
REMARK Flexibility Score: inf
ROOT
ATOM      1  C   UNL     1     109.921 105.029 101.418  1.00  0.00     0.010 C 
ENDROOT
BRANCH   1   2
ATOM      2  C   UNL     1     108.538 104.449 101.751  1.00  0.00     0.005 C 
BRANCH   2   3
ATOM      3  C   UNL     1     108.548 103.609 103.036  1.00  0.00     0.027 C 
BRANCH   3   4
ATOM      4  C   UNL     1     108.387 102.149 102.723  1.00  0.00    -0.031 C 
ATOM      5  C   UNL     1     107.689 101.331 103.530  1.00  0.00    -0.028 C 
BRANCH   5   6
ATOM      6  C   UNL     1     107.507  99.857 103.242  1.00  0.00     0.005 C 
ATOM      7  C   UNL     1     106.031  99.516 103.003  1.00  0.00     0.012 C 
ATOM      8  C   UNL     1     108.379  99.403 102.067  1.00  0.00     0.012 C 
ENDBRANCH   5   6
ENDBRANCH   3   4
ENDBRANCH   2   3
ENDBRANCH   1   2
BRANCH   1   9
ATOM      9  C   UNL     1     110.904 104.912 102.590  1.00  0.00     0.100 C 
BRANCH   9  10
ATOM     10  C   UNL     1     111.904 103.832 102.310  1.00  0.00     0.220 C 
ATOM     11  O   UNL     1     112.641 103.918 101.289  1.00  0.00    -0.275 OA
ATOM     12  N   UNL     1     111.969 102.676 103.154  1.00  0.00    -0.352 N 
ATOM     13  H   UNL     1     111.423 102.668 104.046  1.00  0.00     0.163 HD
BRANCH  12  14
ATOM     14  C   UNL     1     112.636 101.446 102.740  1.00  0.00     0.151 C 
BRANCH  14  15
ATOM     15  C   UNL     1     111.959 100.261 103.375  1.00  0.00    -0.025 A 
ATOM     16  C   UNL     1     112.174  98.973 102.860  1.00  0.00     0.056 A 
ATOM     17  C   UNL     1     111.170 100.424 104.523  1.00  0.00     0.009 A 
ATOM     18  C   UNL     1     111.591  97.849 103.479  1.00  0.00     0.160 A 
ATOM     19  C   UNL     1     110.587  99.314 105.137  1.00  0.00     0.050 A 
ATOM     20  C   UNL     1     110.793  98.028 104.619  1.00  0.00     0.157 A 
BRANCH  18  21
ATOM     21  O   UNL     1     111.785  96.546 102.998  1.00  0.00    -0.493 OA
ATOM     22  C   UNL     1     111.147  96.010 101.843  1.00  0.00     0.278 C 
ENDBRANCH  18  21
BRANCH  20  23
ATOM     23  O   UNL     1     110.213  96.920 105.234  1.00  0.00    -0.504 OA
ATOM     24  H   UNL     1     109.208  96.838 105.338  1.00  0.00     0.293 HD
ENDBRANCH  20  23
ENDBRANCH  14  15
ENDBRANCH  12  14
ENDBRANCH   9  10
ENDBRANCH   1   9
TORSDOF 10
ENDMDL
MODEL 7
REMARK VINA RESULT:    -2.697      2.711      5.312
REMARK INTER + INTRA:          -6.445
REMARK INTER:                  -4.290
REMARK INTRA:                  -2.155
REMARK UNBOUND:                -2.251
REMARK SMILES COc1cc(CNC(=O)CCCCC=CC(C)C)ccc1O
REMARK SMILES IDX 11 1 12 2 13 3 14 4 15 5 16 6 17 7 18 8 10 9 8 10 9 11 7 12
REMARK SMILES IDX 6 14 5 15 4 16 19 17 3 18 20 19 21 20 2 21 1 22 22 23
REMARK H PARENT 7 13 22 24
REMARK Flexibility Score: inf
ROOT
ATOM      1  C   UNL     1      98.127 106.311 100.380  1.00  0.00     0.010 C 
ENDROOT
BRANCH   1   2
ATOM      2  C   UNL     1      97.473 104.922 100.348  1.00  0.00     0.005 C 
BRANCH   2   3
ATOM      3  C   UNL     1      98.501 103.787 100.457  1.00  0.00     0.027 C 
BRANCH   3   4
ATOM      4  C   UNL     1      98.073 102.774 101.481  1.00  0.00    -0.031 C 
ATOM      5  C   UNL     1      96.831 102.775 101.994  1.00  0.00    -0.028 C 
BRANCH   5   6
ATOM      6  C   UNL     1      96.369 101.767 103.023  1.00  0.00     0.005 C 
ATOM      7  C   UNL     1      97.183 100.471 102.935  1.00  0.00     0.012 C 
ATOM      8  C   UNL     1      96.408 102.353 104.438  1.00  0.00     0.012 C 
ENDBRANCH   5   6
ENDBRANCH   3   4
ENDBRANCH   2   3
ENDBRANCH   1   2
BRANCH   1   9
ATOM      9  C   UNL     1      97.898 107.038 101.711  1.00  0.00     0.100 C 
BRANCH   9  10
ATOM     10  C   UNL     1      99.088 106.856 102.602  1.00  0.00     0.220 C 
ATOM     11  O   UNL     1     100.065 107.649 102.502  1.00  0.00    -0.275 OA
ATOM     12  N   UNL     1      99.146 105.748 103.509  1.00  0.00    -0.352 N 
ATOM     13  H   UNL     1      98.292 105.162 103.649  1.00  0.00     0.163 HD
BRANCH  12  14
ATOM     14  C   UNL     1     100.396 105.305 104.118  1.00  0.00     0.151 C 
BRANCH  14  15
ATOM     15  C   UNL     1     100.547 103.818 103.946  1.00  0.00    -0.025 A 
ATOM     16  C   UNL     1     101.354 103.310 102.915  1.00  0.00     0.056 A 
ATOM     17  C   UNL     1      99.944 102.932 104.850  1.00  0.00     0.009 A 
ATOM     18  C   UNL     1     101.548 101.922 102.777  1.00  0.00     0.160 A 
ATOM     19  C   UNL     1     100.130 101.555 104.715  1.00  0.00     0.050 A 
ATOM     20  C   UNL     1     100.929 101.047 103.681  1.00  0.00     0.157 A 
BRANCH  18  21
ATOM     21  O   UNL     1     102.351 101.376 101.764  1.00  0.00    -0.493 OA
ATOM     22  C   UNL     1     102.083 101.497 100.370  1.00  0.00     0.278 C 
ENDBRANCH  18  21
BRANCH  20  23
ATOM     23  O   UNL     1     101.117  99.672 103.549  1.00  0.00    -0.504 OA
ATOM     24  H   UNL     1     102.022  99.244 103.708  1.00  0.00     0.293 HD
ENDBRANCH  20  23
ENDBRANCH  14  15
ENDBRANCH  12  14
ENDBRANCH   9  10
ENDBRANCH   1   9
TORSDOF 10
ENDMDL
MODEL 8
REMARK VINA RESULT:    -2.689      7.917     11.270
REMARK INTER + INTRA:          -6.434
REMARK INTER:                  -3.987
REMARK INTRA:                  -2.446
REMARK UNBOUND:                -2.251
REMARK SMILES COc1cc(CNC(=O)CCCCC=CC(C)C)ccc1O
REMARK SMILES IDX 11 1 12 2 13 3 14 4 15 5 16 6 17 7 18 8 10 9 8 10 9 11 7 12
REMARK SMILES IDX 6 14 5 15 4 16 19 17 3 18 20 19 21 20 2 21 1 22 22 23
REMARK H PARENT 7 13 22 24
REMARK Flexibility Score: inf
ROOT
ATOM      1  C   UNL     1     113.805  97.382 103.029  1.00  0.00     0.010 C 
ENDROOT
BRANCH   1   2
ATOM      2  C   UNL     1     113.485  97.184 101.540  1.00  0.00     0.005 C 
BRANCH   2   3
ATOM      3  C   UNL     1     112.796  98.408 100.920  1.00  0.00     0.027 C 
BRANCH   3   4
ATOM      4  C   UNL     1     111.334  98.145 100.699  1.00  0.00    -0.031 C 
ATOM      5  C   UNL     1     110.475  99.143 100.427  1.00  0.00    -0.028 C 
BRANCH   5   6
ATOM      6  C   UNL     1     108.999  98.911 100.196  1.00  0.00     0.005 C 
ATOM      7  C   UNL     1     108.340  98.263 101.420  1.00  0.00     0.012 C 
ATOM      8  C   UNL     1     108.282 100.207  99.801  1.00  0.00     0.012 C 
ENDBRANCH   5   6
ENDBRANCH   3   4
ENDBRANCH   2   3
ENDBRANCH   1   2
BRANCH   1   9
ATOM      9  C   UNL     1     112.974  96.465 103.936  1.00  0.00     0.100 C 
BRANCH   9  10
ATOM     10  C   UNL     1     111.649  97.101 104.227  1.00  0.00     0.220 C 
ATOM     11  O   UNL     1     110.593  96.565 103.789  1.00  0.00    -0.275 OA
ATOM     12  N   UNL     1     111.589  98.347 104.933  1.00  0.00    -0.352 N 
ATOM     13  H   UNL     1     112.460  98.723 105.371  1.00  0.00     0.163 HD
BRANCH  12  14
ATOM     14  C   UNL     1     110.399  99.191 104.923  1.00  0.00     0.151 C 
BRANCH  14  15
ATOM     15  C   UNL     1     110.589 100.328 103.956  1.00  0.00    -0.025 A 
ATOM     16  C   UNL     1     109.475 101.040 103.485  1.00  0.00     0.056 A 
ATOM     17  C   UNL     1     111.877 100.730 103.575  1.00  0.00     0.009 A 
ATOM     18  C   UNL     1     109.642 102.141 102.623  1.00  0.00     0.160 A 
ATOM     19  C   UNL     1     112.049 101.818 102.717  1.00  0.00     0.050 A 
ATOM     20  C   UNL     1     110.936 102.524 102.239  1.00  0.00     0.157 A 
BRANCH  18  21
ATOM     21  O   UNL     1     108.555 102.881 102.134  1.00  0.00    -0.493 OA
ATOM     22  C   UNL     1     107.210 102.725 102.577  1.00  0.00     0.278 C 
ENDBRANCH  18  21
BRANCH  20  23
ATOM     23  O   UNL     1     111.108 103.613 101.386  1.00  0.00    -0.504 OA
ATOM     24  H   UNL     1     112.022 104.019 101.223  1.00  0.00     0.293 HD
ENDBRANCH  20  23
ENDBRANCH  14  15
ENDBRANCH  12  14
ENDBRANCH   9  10
ENDBRANCH   1   9
TORSDOF 10
ENDMDL
MODEL 9
REMARK VINA RESULT:    -2.637      6.336      9.663
REMARK INTER + INTRA:          -6.353
REMARK INTER:                  -3.902
REMARK INTRA:                  -2.450
REMARK UNBOUND:                -2.251
REMARK SMILES COc1cc(CNC(=O)CCCCC=CC(C)C)ccc1O
REMARK SMILES IDX 11 1 12 2 13 3 14 4 15 5 16 6 17 7 18 8 10 9 8 10 9 11 7 12
REMARK SMILES IDX 6 14 5 15 4 16 19 17 3 18 20 19 21 20 2 21 1 22 22 23
REMARK H PARENT 7 13 22 24
REMARK Flexibility Score: inf
ROOT
ATOM      1  C   UNL     1     107.038 102.867 100.412  1.00  0.00     0.010 C 
ENDROOT
BRANCH   1   2
ATOM      2  C   UNL     1     106.842 103.342 101.859  1.00  0.00     0.005 C 
BRANCH   2   3
ATOM      3  C   UNL     1     108.174 103.559 102.591  1.00  0.00     0.027 C 
BRANCH   3   4
ATOM      4  C   UNL     1     109.294 102.847 101.886  1.00  0.00    -0.031 C 
ATOM      5  C   UNL     1     110.501 102.698 102.460  1.00  0.00    -0.028 C 
BRANCH   5   6
ATOM      6  C   UNL     1     111.647 101.984 101.779  1.00  0.00     0.005 C 
ATOM      7  C   UNL     1     112.672 101.478 102.801  1.00  0.00     0.012 C 
ATOM      8  C   UNL     1     111.147 100.846 100.883  1.00  0.00     0.012 C 
ENDBRANCH   5   6
ENDBRANCH   3   4
ENDBRANCH   2   3
ENDBRANCH   1   2
BRANCH   1   9
ATOM      9  C   UNL     1     105.851 102.042  99.899  1.00  0.00     0.100 C 
BRANCH   9  10
ATOM     10  C   UNL     1     105.636 100.854 100.786  1.00  0.00     0.220 C 
ATOM     11  O   UNL     1     104.505 100.674 101.318  1.00  0.00    -0.275 OA
ATOM     12  N   UNL     1     106.725  99.973 101.086  1.00  0.00    -0.352 N 
ATOM     13  H   UNL     1     107.623 100.080 100.561  1.00  0.00     0.163 HD
BRANCH  12  14
ATOM     14  C   UNL     1     106.687  99.041 102.208  1.00  0.00     0.151 C 
BRANCH  14  15
ATOM     15  C   UNL     1     107.787  99.369 103.180  1.00  0.00    -0.025 A 
ATOM     16  C   UNL     1     109.026  98.716 103.082  1.00  0.00     0.056 A 
ATOM     17  C   UNL     1     107.611 100.375 104.141  1.00  0.00     0.009 A 
ATOM     18  C   UNL     1     110.083  99.054 103.950  1.00  0.00     0.160 A 
ATOM     19  C   UNL     1     108.654 100.710 105.007  1.00  0.00     0.050 A 
ATOM     20  C   UNL     1     109.889 100.053 104.915  1.00  0.00     0.157 A 
BRANCH  18  21
ATOM     21  O   UNL     1     111.337  98.428 103.881  1.00  0.00    -0.493 OA
ATOM     22  C   UNL     1     111.795  97.661 102.771  1.00  0.00     0.278 C 
ENDBRANCH  18  21
BRANCH  20  23
ATOM     23  O   UNL     1     110.931 100.390 105.777  1.00  0.00    -0.504 OA
ATOM     24  H   UNL     1     111.252 101.347 105.870  1.00  0.00     0.293 HD
ENDBRANCH  20  23
ENDBRANCH  14  15
ENDBRANCH  12  14
ENDBRANCH   9  10
ENDBRANCH   1   9
TORSDOF 10
ENDMDL
