MODEL 1
REMARK VINA RESULT:    -3.326      0.000      0.000
REMARK INTER + INTRA:          -3.965
REMARK INTER:                  -3.910
REMARK INTRA:                  -0.055
REMARK UNBOUND:                -0.055
REMARK SMILES O=C([O-])CCC(=O)[O-]
REMARK SMILES IDX 4 1 2 2 1 3 3 4 5 5 6 6 7 7 8 8
REMARK H PARENT
REMARK Flexibility Score: inf
ROOT
ATOM      1  C   UNL     1     -14.125   6.623 -15.462  1.00  0.00     0.059 C 
ENDROOT
BRANCH   1   2
ATOM      2  C   UNL     1     -14.390   8.087 -15.303  1.00  0.00     0.042 C 
ATOM      3  O   UNL     1     -13.432   8.899 -15.222  1.00  0.00    -0.550 OA
ATOM      4  O   UNL     1     -15.697   8.560 -15.294  1.00  0.00    -0.550 OA
ENDBRANCH   1   2
BRANCH   1   5
ATOM      5  C   UNL     1     -12.620   6.352 -15.493  1.00  0.00     0.059 C 
BRANCH   5   6
ATOM      6  C   UNL     1     -12.276   5.439 -16.628  1.00  0.00     0.042 C 
ATOM      7  O   UNL     1     -11.696   5.889 -17.650  1.00  0.00    -0.550 OA
ATOM      8  O   UNL     1     -12.642   4.099 -16.578  1.00  0.00    -0.550 OA
ENDBRANCH   5   6
ENDBRANCH   1   5
TORSDOF 3
ENDMDL
MODEL 2
REMARK VINA RESULT:    -3.324      0.024      4.012
REMARK INTER + INTRA:          -3.962
REMARK INTER:                  -3.906
REMARK INTRA:                  -0.056
REMARK UNBOUND:                -0.055
REMARK SMILES O=C([O-])CCC(=O)[O-]
REMARK SMILES IDX 4 1 2 2 1 3 3 4 5 5 6 6 7 7 8 8
REMARK H PARENT
REMARK Flexibility Score: inf
ROOT
ATOM      1  C   UNL     1     -12.622   6.353 -15.486  1.00  0.00     0.059 C 
ENDROOT
BRANCH   1   2
ATOM      2  C   UNL     1     -12.303   5.440 -16.627  1.00  0.00     0.042 C 
ATOM      3  O   UNL     1     -11.684   5.875 -17.633  1.00  0.00    -0.550 OA
ATOM      4  O   UNL     1     -12.645   4.095 -16.559  1.00  0.00    -0.550 OA
ENDBRANCH   1   2
BRANCH   1   5
ATOM      5  C   UNL     1     -14.126   6.622 -15.421  1.00  0.00     0.059 C 
BRANCH   5   6
ATOM      6  C   UNL     1     -14.391   8.092 -15.328  1.00  0.00     0.042 C 
ATOM      7  O   UNL     1     -13.434   8.903 -15.222  1.00  0.00    -0.550 OA
ATOM      8  O   UNL     1     -15.698   8.563 -15.308  1.00  0.00    -0.550 OA
ENDBRANCH   5   6
ENDBRANCH   1   5
TORSDOF 3
ENDMDL
MODEL 3
REMARK VINA RESULT:    -3.258      0.175      4.190
REMARK INTER + INTRA:          -3.885
REMARK INTER:                  -3.840
REMARK INTRA:                  -0.045
REMARK UNBOUND:                -0.055
REMARK SMILES O=C([O-])CCC(=O)[O-]
REMARK SMILES IDX 4 1 2 2 1 3 3 4 5 5 6 6 7 7 8 8
REMARK H PARENT
REMARK Flexibility Score: inf
ROOT
ATOM      1  C   UNL     1     -12.657   6.192 -15.513  1.00  0.00     0.059 C 
ENDROOT
BRANCH   1   2
ATOM      2  C   UNL     1     -12.309   5.242 -16.615  1.00  0.00     0.042 C 
ATOM      3  O   UNL     1     -12.686   4.042 -16.560  1.00  0.00    -0.550 OA
ATOM      4  O   UNL     1     -11.610   5.693 -17.728  1.00  0.00    -0.550 OA
ENDBRANCH   1   2
BRANCH   1   5
ATOM      5  C   UNL     1     -14.158   6.485 -15.515  1.00  0.00     0.059 C 
BRANCH   5   6
ATOM      6  C   UNL     1     -14.408   7.940 -15.270  1.00  0.00     0.042 C 
ATOM      7  O   UNL     1     -15.585   8.375 -15.180  1.00  0.00    -0.550 OA
ATOM      8  O   UNL     1     -13.340   8.825 -15.191  1.00  0.00    -0.550 OA
ENDBRANCH   5   6
ENDBRANCH   1   5
TORSDOF 3
ENDMDL
MODEL 4
REMARK VINA RESULT:    -3.245     15.893     17.026
REMARK INTER + INTRA:          -3.870
REMARK INTER:                  -3.823
REMARK INTRA:                  -0.047
REMARK UNBOUND:                -0.055
REMARK SMILES O=C([O-])CCC(=O)[O-]
REMARK SMILES IDX 4 1 2 2 1 3 3 4 5 5 6 6 7 7 8 8
REMARK H PARENT
REMARK Flexibility Score: inf
ROOT
ATOM      1  C   UNL     1      -4.316  -2.818  -6.144  1.00  0.00     0.059 C 
ENDROOT
BRANCH   1   2
ATOM      2  C   UNL     1      -4.532  -1.370  -6.452  1.00  0.00     0.042 C 
ATOM      3  O   UNL     1      -5.694  -0.888  -6.447  1.00  0.00    -0.550 OA
ATOM      4  O   UNL     1      -3.443  -0.541  -6.695  1.00  0.00    -0.550 OA
ENDBRANCH   1   2
BRANCH   1   5
ATOM      5  C   UNL     1      -5.249  -3.271  -5.020  1.00  0.00     0.059 C 
BRANCH   5   6
ATOM      6  C   UNL     1      -4.514  -4.136  -4.045  1.00  0.00     0.042 C 
ATOM      7  O   UNL     1      -3.350  -4.538  -4.307  1.00  0.00    -0.550 OA
ATOM      8  O   UNL     1      -5.133  -4.539  -2.868  1.00  0.00    -0.550 OA
ENDBRANCH   5   6
ENDBRANCH   1   5
TORSDOF 3
ENDMDL
MODEL 5
REMARK VINA RESULT:    -3.227     15.940     17.194
REMARK INTER + INTRA:          -3.848
REMARK INTER:                  -3.799
REMARK INTRA:                  -0.049
REMARK UNBOUND:                -0.055
REMARK SMILES O=C([O-])CCC(=O)[O-]
REMARK SMILES IDX 4 1 2 2 1 3 3 4 5 5 6 6 7 7 8 8
REMARK H PARENT
REMARK Flexibility Score: inf
ROOT
ATOM      1  C   UNL     1      -5.182  -3.277  -5.029  1.00  0.00     0.059 C 
ENDROOT
BRANCH   1   2
ATOM      2  C   UNL     1      -4.473  -4.127  -4.022  1.00  0.00     0.042 C 
ATOM      3  O   UNL     1      -3.263  -4.430  -4.187  1.00  0.00    -0.550 OA
ATOM      4  O   UNL     1      -5.136  -4.542  -2.873  1.00  0.00    -0.550 OA
ENDBRANCH   1   2
BRANCH   1   5
ATOM      5  C   UNL     1      -4.218  -2.842  -6.134  1.00  0.00     0.059 C 
BRANCH   5   6
ATOM      6  C   UNL     1      -4.399  -1.390  -6.445  1.00  0.00     0.042 C 
ATOM      7  O   UNL     1      -3.401  -0.665  -6.693  1.00  0.00    -0.550 OA
ATOM      8  O   UNL     1      -5.668  -0.825  -6.412  1.00  0.00    -0.550 OA
ENDBRANCH   5   6
ENDBRANCH   1   5
TORSDOF 3
ENDMDL
MODEL 6
REMARK VINA RESULT:    -3.114     17.952     18.394
REMARK INTER + INTRA:          -3.715
REMARK INTER:                  -3.597
REMARK INTRA:                  -0.118
REMARK UNBOUND:                -0.055
REMARK SMILES O=C([O-])CCC(=O)[O-]
REMARK SMILES IDX 4 1 2 2 1 3 3 4 5 5 6 6 7 7 8 8
REMARK H PARENT
REMARK Flexibility Score: inf
ROOT
ATOM      1  C   UNL     1     -18.258  -5.950  -2.896  1.00  0.00     0.059 C 
ENDROOT
BRANCH   1   2
ATOM      2  C   UNL     1     -17.052  -5.098  -2.652  1.00  0.00     0.042 C 
ATOM      3  O   UNL     1     -15.898  -5.569  -2.823  1.00  0.00    -0.550 OA
ATOM      4  O   UNL     1     -17.204  -3.767  -2.285  1.00  0.00    -0.550 OA
ENDBRANCH   1   2
BRANCH   1   5
ATOM      5  C   UNL     1     -18.617  -5.956  -4.382  1.00  0.00     0.059 C 
BRANCH   5   6
ATOM      6  C   UNL     1     -18.381  -7.312  -4.972  1.00  0.00     0.042 C 
ATOM      7  O   UNL     1     -17.608  -8.125  -4.402  1.00  0.00    -0.550 OA
ATOM      8  O   UNL     1     -18.977  -7.658  -6.178  1.00  0.00    -0.550 OA
ENDBRANCH   5   6
ENDBRANCH   1   5
TORSDOF 3
ENDMDL
MODEL 7
REMARK VINA RESULT:    -3.085     10.594     11.909
REMARK INTER + INTRA:          -3.682
REMARK INTER:                  -3.562
REMARK INTRA:                  -0.120
REMARK UNBOUND:                -0.055
REMARK SMILES O=C([O-])CCC(=O)[O-]
REMARK SMILES IDX 4 1 2 2 1 3 3 4 5 5 6 6 7 7 8 8
REMARK H PARENT
REMARK Flexibility Score: inf
ROOT
ATOM      1  C   UNL     1      -2.470   3.012 -12.527  1.00  0.00     0.059 C 
ENDROOT
BRANCH   1   2
ATOM      2  C   UNL     1      -2.009   3.080 -11.105  1.00  0.00     0.042 C 
ATOM      3  O   UNL     1      -2.606   3.819 -10.280  1.00  0.00    -0.550 OA
ATOM      4  O   UNL     1      -0.950   2.287 -10.679  1.00  0.00    -0.550 OA
ENDBRANCH   1   2
BRANCH   1   5
ATOM      5  C   UNL     1      -3.912   3.508 -12.646  1.00  0.00     0.059 C 
BRANCH   5   6
ATOM      6  C   UNL     1      -3.968   4.762 -13.460  1.00  0.00     0.042 C 
ATOM      7  O   UNL     1      -4.363   4.725 -14.655  1.00  0.00    -0.550 OA
ATOM      8  O   UNL     1      -3.537   5.965 -12.915  1.00  0.00    -0.550 OA
ENDBRANCH   5   6
ENDBRANCH   1   5
TORSDOF 3
ENDMDL
MODEL 8
REMARK VINA RESULT:    -3.042     14.522     15.818
REMARK INTER + INTRA:          -3.631
REMARK INTER:                  -3.562
REMARK INTRA:                  -0.069
REMARK UNBOUND:                -0.055
REMARK SMILES O=C([O-])CCC(=O)[O-]
REMARK SMILES IDX 4 1 2 2 1 3 3 4 5 5 6 6 7 7 8 8
REMARK H PARENT
REMARK Flexibility Score: inf
ROOT
ATOM      1  C   UNL     1      -4.783  -1.468  -6.534  1.00  0.00     0.059 C 
ENDROOT
BRANCH   1   2
ATOM      2  C   UNL     1      -4.585  -2.433  -5.408  1.00  0.00     0.042 C 
ATOM      3  O   UNL     1      -5.544  -3.141  -5.004  1.00  0.00    -0.550 OA
ATOM      4  O   UNL     1      -3.328  -2.588  -4.838  1.00  0.00    -0.550 OA
ENDBRANCH   1   2
BRANCH   1   5
ATOM      5  C   UNL     1      -4.016  -0.172  -6.268  1.00  0.00     0.059 C 
BRANCH   5   6
ATOM      6  C   UNL     1      -4.962   0.937  -5.932  1.00  0.00     0.042 C 
ATOM      7  O   UNL     1      -4.624   1.835  -5.117  1.00  0.00    -0.550 OA
ATOM      8  O   UNL     1      -6.239   0.953  -6.481  1.00  0.00    -0.550 OA
ENDBRANCH   5   6
ENDBRANCH   1   5
TORSDOF 3
ENDMDL
MODEL 9
REMARK VINA RESULT:    -3.037     14.627     15.561
REMARK INTER + INTRA:          -3.625
REMARK INTER:                  -3.545
REMARK INTRA:                  -0.080
REMARK UNBOUND:                -0.055
REMARK SMILES O=C([O-])CCC(=O)[O-]
REMARK SMILES IDX 4 1 2 2 1 3 3 4 5 5 6 6 7 7 8 8
REMARK H PARENT
REMARK Flexibility Score: inf
ROOT
ATOM      1  C   UNL     1      -3.917  -0.188  -6.337  1.00  0.00     0.059 C 
ENDROOT
BRANCH   1   2
ATOM      2  C   UNL     1      -4.774   0.934  -5.841  1.00  0.00     0.042 C 
ATOM      3  O   UNL     1      -4.341   1.719  -4.958  1.00  0.00    -0.550 OA
ATOM      4  O   UNL     1      -6.032   1.144  -6.392  1.00  0.00    -0.550 OA
ENDBRANCH   1   2
BRANCH   1   5
ATOM      5  C   UNL     1      -4.753  -1.455  -6.528  1.00  0.00     0.059 C 
BRANCH   5   6
ATOM      6  C   UNL     1      -4.332  -2.512  -5.557  1.00  0.00     0.042 C 
ATOM      7  O   UNL     1      -4.350  -3.725  -5.892  1.00  0.00    -0.550 OA
ATOM      8  O   UNL     1      -3.967  -2.161  -4.263  1.00  0.00    -0.550 OA
ENDBRANCH   5   6
ENDBRANCH   1   5
TORSDOF 3
ENDMDL
