MODEL 1
REMARK VINA RESULT:    -7.402      0.000      0.000
REMARK INTER + INTRA:         -11.715
REMARK INTER:                 -10.431
REMARK INTRA:                  -1.284
REMARK UNBOUND:                -1.284
REMARK SMILES COc1c(O[C@@H]2O[C@H](C(=O)[O-])[C@@H](O)[C@H](O)[C@H]2O)cc(O)c2c(=O)cc(-c3ccccc3)oc12
REMARK SMILES IDX 5 1 6 2 8 3 12 4 7 5 14 6 16 7 9 8 10 9 11 10 13 11 15 13
REMARK SMILES IDX 17 15 4 17 3 18 18 19 33 20 19 21 21 22 32 23 22 24 25 25
REMARK SMILES IDX 24 26 23 27 2 28 1 29 20 30 26 32 27 33 31 34 28 35 30 36
REMARK SMILES IDX 29 37
REMARK H PARENT 13 12 15 14 17 16 20 31
REMARK Flexibility Score: inf
ROOT
ATOM      1  O   UNL     1      31.754  22.020 -16.593  1.00  0.00    -0.458 OA
ENDROOT
BRANCH   1   2
ATOM      2  C   UNL     1      32.741  21.055 -16.970  1.00  0.00     0.339 C 
ATOM      3  C   UNL     1      34.534  21.728 -15.533  1.00  0.00     0.199 C 
ATOM      4  C   UNL     1      35.498  22.024 -16.723  1.00  0.00     0.180 C 
ATOM      5  O   UNL     1      33.554  20.741 -15.841  1.00  0.00    -0.328 OA
ATOM      6  C   UNL     1      35.060  21.271 -17.992  1.00  0.00     0.181 C 
ATOM      7  C   UNL     1      33.558  21.494 -18.219  1.00  0.00     0.214 C 
BRANCH   3   8
ATOM      8  C   UNL     1      33.918  22.971 -14.936  1.00  0.00     0.073 C 
ATOM      9  O   UNL     1      34.163  24.098 -15.443  1.00  0.00    -0.547 OA
ATOM     10  O   UNL     1      33.110  22.900 -13.806  1.00  0.00    -0.547 OA
ENDBRANCH   3   8
BRANCH   4  11
ATOM     11  O   UNL     1      36.829  21.701 -16.396  1.00  0.00    -0.387 OA
ATOM     12  H   UNL     1      37.125  22.320 -15.679  1.00  0.00     0.211 HD
ENDBRANCH   4  11
BRANCH   6  13
ATOM     13  O   UNL     1      35.813  21.683 -19.108  1.00  0.00    -0.387 OA
ATOM     14  H   UNL     1      35.618  21.054 -19.854  1.00  0.00     0.211 HD
ENDBRANCH   6  13
BRANCH   7  15
ATOM     15  O   UNL     1      33.140  20.753 -19.338  1.00  0.00    -0.384 OA
ATOM     16  H   UNL     1      33.105  21.381 -20.106  1.00  0.00     0.211 HD
ENDBRANCH   7  15
ENDBRANCH   1   2
BRANCH   1  17
ATOM     17  C   UNL     1      30.839  22.615 -17.476  1.00  0.00     0.172 A 
ATOM     18  C   UNL     1      30.668  24.018 -17.493  1.00  0.00     0.205 A 
ATOM     19  C   UNL     1      30.126  21.828 -18.389  1.00  0.00     0.097 A 
ATOM     20  C   UNL     1      29.845  24.602 -18.466  1.00  0.00     0.188 A 
ATOM     21  C   UNL     1      29.265  22.396 -19.331  1.00  0.00     0.134 A 
ATOM     22  C   UNL     1      29.157  23.810 -19.419  1.00  0.00     0.111 A 
ATOM     23  O   UNL     1      29.733  25.926 -18.483  1.00  0.00    -0.452 OA
ATOM     24  C   UNL     1      28.435  24.498 -20.423  1.00  0.00     0.197 A 
ATOM     25  C   UNL     1      29.020  26.603 -19.380  1.00  0.00     0.138 A 
ATOM     26  C   UNL     1      28.356  25.891 -20.391  1.00  0.00     0.100 A 
ATOM     27  O   UNL     1      27.881  23.893 -21.377  1.00  0.00    -0.289 OA
BRANCH  18  28
ATOM     28  O   UNL     1      31.288  24.890 -16.579  1.00  0.00    -0.490 OA
ATOM     29  C   UNL     1      30.836  25.195 -15.265  1.00  0.00     0.278 C 
ENDBRANCH  18  28
BRANCH  21  30
ATOM     30  O   UNL     1      28.540  21.507 -20.130  1.00  0.00    -0.507 OA
ATOM     31  H   UNL     1      28.371  21.629 -21.118  1.00  0.00     0.293 HD
ENDBRANCH  21  30
BRANCH  25  32
ATOM     32  C   UNL     1      28.987  28.092 -19.272  1.00  0.00     0.017 A 
ATOM     33  C   UNL     1      30.082  28.838 -19.758  1.00  0.00     0.012 A 
ATOM     34  C   UNL     1      27.899  28.797 -18.705  1.00  0.00     0.012 A 
ATOM     35  C   UNL     1      30.086  30.235 -19.691  1.00  0.00     0.001 A 
ATOM     36  C   UNL     1      27.910  30.195 -18.644  1.00  0.00     0.001 A 
ATOM     37  C   UNL     1      28.999  30.912 -19.137  1.00  0.00     0.000 A 
ENDBRANCH  25  32
ENDBRANCH   1  17
TORSDOF 9
ENDMDL
MODEL 2
REMARK VINA RESULT:    -7.216      5.180      9.655
REMARK INTER + INTRA:         -11.452
REMARK INTER:                 -10.247
REMARK INTRA:                  -1.205
REMARK UNBOUND:                -1.284
REMARK SMILES COc1c(O[C@@H]2O[C@H](C(=O)[O-])[C@@H](O)[C@H](O)[C@H]2O)cc(O)c2c(=O)cc(-c3ccccc3)oc12
REMARK SMILES IDX 5 1 6 2 8 3 12 4 7 5 14 6 16 7 9 8 10 9 11 10 13 11 15 13
REMARK SMILES IDX 17 15 4 17 3 18 18 19 33 20 19 21 21 22 32 23 22 24 25 25
REMARK SMILES IDX 24 26 23 27 2 28 1 29 20 30 26 32 27 33 31 34 28 35 30 36
REMARK SMILES IDX 29 37
REMARK H PARENT 13 12 15 14 17 16 20 31
REMARK Flexibility Score: inf
ROOT
ATOM      1  O   UNL     1      33.034  20.129 -16.992  1.00  0.00    -0.458 OA
ENDROOT
BRANCH   1   2
ATOM      2  C   UNL     1      34.282  20.813 -16.838  1.00  0.00     0.339 C 
ATOM      3  C   UNL     1      33.608  22.551 -15.335  1.00  0.00     0.199 C 
ATOM      4  C   UNL     1      34.000  23.687 -16.329  1.00  0.00     0.180 C 
ATOM      5  O   UNL     1      34.365  21.359 -15.523  1.00  0.00    -0.328 OA
ATOM      6  C   UNL     1      35.021  23.188 -17.368  1.00  0.00     0.181 C 
ATOM      7  C   UNL     1      34.529  21.860 -17.962  1.00  0.00     0.214 C 
BRANCH   3   8
ATOM      8  C   UNL     1      32.123  22.277 -15.293  1.00  0.00     0.073 C 
ATOM      9  O   UNL     1      31.629  21.645 -14.321  1.00  0.00    -0.547 OA
ATOM     10  O   UNL     1      31.289  22.678 -16.332  1.00  0.00    -0.547 OA
ENDBRANCH   3   8
BRANCH   4  11
ATOM     11  O   UNL     1      34.504  24.811 -15.648  1.00  0.00    -0.387 OA
ATOM     12  H   UNL     1      33.942  24.956 -14.841  1.00  0.00     0.211 HD
ENDBRANCH   4  11
BRANCH   6  13
ATOM     13  O   UNL     1      35.230  24.151 -18.372  1.00  0.00    -0.387 OA
ATOM     14  H   UNL     1      35.263  25.044 -17.934  1.00  0.00     0.211 HD
ENDBRANCH   6  13
BRANCH   7  15
ATOM     15  O   UNL     1      35.491  21.367 -18.860  1.00  0.00    -0.384 OA
ATOM     16  H   UNL     1      35.099  20.564 -19.293  1.00  0.00     0.211 HD
ENDBRANCH   7  15
ENDBRANCH   1   2
BRANCH   1  17
ATOM     17  C   UNL     1      32.879  18.734 -16.984  1.00  0.00     0.172 A 
ATOM     18  C   UNL     1      32.586  18.052 -15.781  1.00  0.00     0.205 A 
ATOM     19  C   UNL     1      32.958  18.009 -18.179  1.00  0.00     0.097 A 
ATOM     20  C   UNL     1      32.312  16.678 -15.815  1.00  0.00     0.188 A 
ATOM     21  C   UNL     1      32.733  16.630 -18.217  1.00  0.00     0.134 A 
ATOM     22  C   UNL     1      32.347  15.950 -17.030  1.00  0.00     0.111 A 
ATOM     23  O   UNL     1      32.001  16.070 -14.674  1.00  0.00    -0.452 OA
ATOM     24  C   UNL     1      31.953  14.592 -16.976  1.00  0.00     0.197 A 
ATOM     25  C   UNL     1      31.678  14.783 -14.579  1.00  0.00     0.138 A 
ATOM     26  C   UNL     1      31.635  14.009 -15.749  1.00  0.00     0.100 A 
ATOM     27  O   UNL     1      31.844  13.889 -18.015  1.00  0.00    -0.289 OA
BRANCH  18  28
ATOM     28  O   UNL     1      32.548  18.677 -14.520  1.00  0.00    -0.490 OA
ATOM     29  C   UNL     1      33.649  18.871 -13.641  1.00  0.00     0.278 C 
ENDBRANCH  18  28
BRANCH  21  30
ATOM     30  O   UNL     1      32.927  15.999 -19.449  1.00  0.00    -0.507 OA
ATOM     31  H   UNL     1      33.251  16.461 -20.286  1.00  0.00     0.293 HD
ENDBRANCH  21  30
BRANCH  25  32
ATOM     32  C   UNL     1      31.353  14.238 -13.227  1.00  0.00     0.017 A 
ATOM     33  C   UNL     1      32.286  13.396 -12.586  1.00  0.00     0.012 A 
ATOM     34  C   UNL     1      30.145  14.532 -12.551  1.00  0.00     0.012 A 
ATOM     35  C   UNL     1      32.028  12.875 -11.313  1.00  0.00     0.001 A 
ATOM     36  C   UNL     1      29.897  14.009 -11.276  1.00  0.00     0.001 A 
ATOM     37  C   UNL     1      30.836  13.185 -10.659  1.00  0.00     0.000 A 
ENDBRANCH  25  32
ENDBRANCH   1  17
TORSDOF 9
ENDMDL
MODEL 3
REMARK VINA RESULT:    -6.976      1.615      1.911
REMARK INTER + INTRA:         -11.114
REMARK INTER:                  -9.895
REMARK INTRA:                  -1.219
REMARK UNBOUND:                -1.284
REMARK SMILES COc1c(O[C@@H]2O[C@H](C(=O)[O-])[C@@H](O)[C@H](O)[C@H]2O)cc(O)c2c(=O)cc(-c3ccccc3)oc12
REMARK SMILES IDX 5 1 6 2 8 3 12 4 7 5 14 6 16 7 9 8 10 9 11 10 13 11 15 13
REMARK SMILES IDX 17 15 4 17 3 18 18 19 33 20 19 21 21 22 32 23 22 24 25 25
REMARK SMILES IDX 24 26 23 27 2 28 1 29 20 30 26 32 27 33 31 34 28 35 30 36
REMARK SMILES IDX 29 37
REMARK H PARENT 13 12 15 14 17 16 20 31
REMARK Flexibility Score: inf
ROOT
ATOM      1  O   UNL     1      31.250  22.354 -16.622  1.00  0.00    -0.458 OA
ENDROOT
BRANCH   1   2
ATOM      2  C   UNL     1      31.913  21.206 -17.161  1.00  0.00     0.339 C 
ATOM      3  C   UNL     1      33.074  20.454 -15.206  1.00  0.00     0.199 C 
ATOM      4  C   UNL     1      34.477  20.606 -15.870  1.00  0.00     0.180 C 
ATOM      5  O   UNL     1      32.034  20.209 -16.149  1.00  0.00    -0.328 OA
ATOM      6  C   UNL     1      34.369  20.592 -17.406  1.00  0.00     0.181 C 
ATOM      7  C   UNL     1      33.264  21.565 -17.844  1.00  0.00     0.214 C 
BRANCH   3   8
ATOM      8  C   UNL     1      32.729  21.585 -14.266  1.00  0.00     0.073 C 
ATOM      9  O   UNL     1      33.524  22.552 -14.130  1.00  0.00    -0.547 OA
ATOM     10  O   UNL     1      31.561  21.559 -13.510  1.00  0.00    -0.547 OA
ENDBRANCH   3   8
BRANCH   4  11
ATOM     11  O   UNL     1      35.361  19.602 -15.432  1.00  0.00    -0.387 OA
ATOM     12  H   UNL     1      34.831  18.928 -14.930  1.00  0.00     0.211 HD
ENDBRANCH   4  11
BRANCH   6  13
ATOM     13  O   UNL     1      35.602  20.917 -18.001  1.00  0.00    -0.387 OA
ATOM     14  H   UNL     1      35.668  21.909 -18.038  1.00  0.00     0.211 HD
ENDBRANCH   6  13
BRANCH   7  15
ATOM     15  O   UNL     1      33.116  21.504 -19.240  1.00  0.00    -0.384 OA
ATOM     16  H   UNL     1      32.317  22.046 -19.471  1.00  0.00     0.211 HD
ENDBRANCH   7  15
ENDBRANCH   1   2
BRANCH   1  17
ATOM     17  C   UNL     1      30.515  23.282 -17.376  1.00  0.00     0.172 A 
ATOM     18  C   UNL     1      30.305  24.594 -16.893  1.00  0.00     0.205 A 
ATOM     19  C   UNL     1      30.029  22.934 -18.643  1.00  0.00     0.097 A 
ATOM     20  C   UNL     1      29.678  25.541 -17.714  1.00  0.00     0.188 A 
ATOM     21  C   UNL     1      29.359  23.857 -19.450  1.00  0.00     0.134 A 
ATOM     22  C   UNL     1      29.225  25.203 -19.013  1.00  0.00     0.111 A 
ATOM     23  O   UNL     1      29.528  26.777 -17.249  1.00  0.00    -0.452 OA
ATOM     24  C   UNL     1      28.700  26.253 -19.803  1.00  0.00     0.197 A 
ATOM     25  C   UNL     1      28.990  27.775 -17.944  1.00  0.00     0.138 A 
ATOM     26  C   UNL     1      28.570  27.532 -19.260  1.00  0.00     0.100 A 
ATOM     27  O   UNL     1      28.372  26.081 -21.006  1.00  0.00    -0.289 OA
BRANCH  18  28
ATOM     28  O   UNL     1      30.696  25.023 -15.611  1.00  0.00    -0.490 OA
ATOM     29  C   UNL     1      31.999  25.444 -15.224  1.00  0.00     0.278 C 
ENDBRANCH  18  28
BRANCH  21  30
ATOM     30  O   UNL     1      28.841  23.373 -20.655  1.00  0.00    -0.507 OA
ATOM     31  H   UNL     1      29.193  22.565 -21.148  1.00  0.00     0.293 HD
ENDBRANCH  21  30
BRANCH  25  32
ATOM     32  C   UNL     1      28.887  29.113 -17.287  1.00  0.00     0.017 A 
ATOM     33  C   UNL     1      29.794  29.441 -16.257  1.00  0.00     0.012 A 
ATOM     34  C   UNL     1      27.918  30.076 -17.655  1.00  0.00     0.012 A 
ATOM     35  C   UNL     1      29.742  30.688 -15.625  1.00  0.00     0.001 A 
ATOM     36  C   UNL     1      27.875  31.322 -17.019  1.00  0.00     0.001 A 
ATOM     37  C   UNL     1      28.786  31.628 -16.009  1.00  0.00     0.000 A 
ENDBRANCH  25  32
ENDBRANCH   1  17
TORSDOF 9
ENDMDL
MODEL 4
REMARK VINA RESULT:    -6.972      5.002      9.224
REMARK INTER + INTRA:         -11.109
REMARK INTER:                  -9.796
REMARK INTRA:                  -1.313
REMARK UNBOUND:                -1.284
REMARK SMILES COc1c(O[C@@H]2O[C@H](C(=O)[O-])[C@@H](O)[C@H](O)[C@H]2O)cc(O)c2c(=O)cc(-c3ccccc3)oc12
REMARK SMILES IDX 5 1 6 2 8 3 12 4 7 5 14 6 16 7 9 8 10 9 11 10 13 11 15 13
REMARK SMILES IDX 17 15 4 17 3 18 18 19 33 20 19 21 21 22 32 23 22 24 25 25
REMARK SMILES IDX 24 26 23 27 2 28 1 29 20 30 26 32 27 33 31 34 28 35 30 36
REMARK SMILES IDX 29 37
REMARK H PARENT 13 12 15 14 17 16 20 31
REMARK Flexibility Score: inf
ROOT
ATOM      1  O   UNL     1      33.415  20.725 -15.360  1.00  0.00    -0.458 OA
ENDROOT
BRANCH   1   2
ATOM      2  C   UNL     1      32.595  21.892 -15.240  1.00  0.00     0.339 C 
ATOM      3  C   UNL     1      34.104  23.536 -16.106  1.00  0.00     0.199 C 
ATOM      4  C   UNL     1      34.112  24.360 -14.782  1.00  0.00     0.180 C 
ATOM      5  O   UNL     1      32.901  22.797 -16.298  1.00  0.00    -0.328 OA
ATOM      6  C   UNL     1      32.864  24.057 -13.933  1.00  0.00     0.181 C 
ATOM      7  C   UNL     1      32.682  22.536 -13.826  1.00  0.00     0.214 C 
BRANCH   3   8
ATOM      8  C   UNL     1      35.332  22.674 -16.285  1.00  0.00     0.073 C 
ATOM      9  O   UNL     1      36.267  22.731 -15.443  1.00  0.00    -0.547 OA
ATOM     10  O   UNL     1      35.469  21.841 -17.391  1.00  0.00    -0.547 OA
ENDBRANCH   3   8
BRANCH   4  11
ATOM     11  O   UNL     1      34.208  25.741 -15.038  1.00  0.00    -0.387 OA
ATOM     12  H   UNL     1      33.301  26.132 -14.939  1.00  0.00     0.211 HD
ENDBRANCH   4  11
BRANCH   6  13
ATOM     13  O   UNL     1      32.963  24.651 -12.661  1.00  0.00    -0.387 OA
ATOM     14  H   UNL     1      33.855  25.087 -12.599  1.00  0.00     0.211 HD
ENDBRANCH   6  13
BRANCH   7  15
ATOM     15  O   UNL     1      31.505  22.257 -13.110  1.00  0.00    -0.384 OA
ATOM     16  H   UNL     1      30.899  23.034 -13.234  1.00  0.00     0.211 HD
ENDBRANCH   7  15
ENDBRANCH   1   2
BRANCH   1  17
ATOM     17  C   UNL     1      32.928  19.415 -15.493  1.00  0.00     0.172 A 
ATOM     18  C   UNL     1      33.002  18.745 -16.736  1.00  0.00     0.205 A 
ATOM     19  C   UNL     1      32.415  18.737 -14.381  1.00  0.00     0.097 A 
ATOM     20  C   UNL     1      32.627  17.397 -16.818  1.00  0.00     0.188 A 
ATOM     21  C   UNL     1      31.993  17.407 -14.463  1.00  0.00     0.134 A 
ATOM     22  C   UNL     1      32.149  16.696 -15.683  1.00  0.00     0.111 A 
ATOM     23  O   UNL     1      32.743  16.782 -17.990  1.00  0.00    -0.452 OA
ATOM     24  C   UNL     1      31.896  15.313 -15.843  1.00  0.00     0.197 A 
ATOM     25  C   UNL     1      32.463  15.497 -18.189  1.00  0.00     0.138 A 
ATOM     26  C   UNL     1      32.039  14.722 -17.099  1.00  0.00     0.100 A 
ATOM     27  O   UNL     1      31.575  14.579 -14.873  1.00  0.00    -0.289 OA
BRANCH  18  28
ATOM     28  O   UNL     1      33.441  19.357 -17.925  1.00  0.00    -0.490 OA
ATOM     29  C   UNL     1      32.690  20.246 -18.744  1.00  0.00     0.278 C 
ENDBRANCH  18  28
BRANCH  21  30
ATOM     30  O   UNL     1      31.416  16.863 -13.311  1.00  0.00    -0.507 OA
ATOM     31  H   UNL     1      31.813  16.926 -12.385  1.00  0.00     0.293 HD
ENDBRANCH  21  30
BRANCH  25  32
ATOM     32  C   UNL     1      32.642  14.943 -19.565  1.00  0.00     0.017 A 
ATOM     33  C   UNL     1      33.487  13.829 -19.750  1.00  0.00     0.012 A 
ATOM     34  C   UNL     1      31.995  15.486 -20.701  1.00  0.00     0.012 A 
ATOM     35  C   UNL     1      33.671  13.270 -21.019  1.00  0.00     0.001 A 
ATOM     36  C   UNL     1      32.182  14.919 -21.966  1.00  0.00     0.001 A 
ATOM     37  C   UNL     1      33.016  13.813 -22.125  1.00  0.00     0.000 A 
ENDBRANCH  25  32
ENDBRANCH   1  17
TORSDOF 9
ENDMDL
MODEL 5
REMARK VINA RESULT:    -6.936      4.994      9.732
REMARK INTER + INTRA:         -11.059
REMARK INTER:                  -9.746
REMARK INTRA:                  -1.313
REMARK UNBOUND:                -1.284
REMARK SMILES COc1c(O[C@@H]2O[C@H](C(=O)[O-])[C@@H](O)[C@H](O)[C@H]2O)cc(O)c2c(=O)cc(-c3ccccc3)oc12
REMARK SMILES IDX 5 1 6 2 8 3 12 4 7 5 14 6 16 7 9 8 10 9 11 10 13 11 15 13
REMARK SMILES IDX 17 15 4 17 3 18 18 19 33 20 19 21 21 22 32 23 22 24 25 25
REMARK SMILES IDX 24 26 23 27 2 28 1 29 20 30 26 32 27 33 31 34 28 35 30 36
REMARK SMILES IDX 29 37
REMARK H PARENT 13 12 15 14 17 16 20 31
REMARK Flexibility Score: inf
ROOT
ATOM      1  O   UNL     1      33.263  20.637 -16.377  1.00  0.00    -0.458 OA
ENDROOT
BRANCH   1   2
ATOM      2  C   UNL     1      32.248  21.595 -16.060  1.00  0.00     0.339 C 
ATOM      3  C   UNL     1      33.360  23.604 -16.739  1.00  0.00     0.199 C 
ATOM      4  C   UNL     1      33.300  24.228 -15.311  1.00  0.00     0.180 C 
ATOM      5  O   UNL     1      32.308  22.676 -16.988  1.00  0.00    -0.328 OA
ATOM      6  C   UNL     1      32.189  23.577 -14.467  1.00  0.00     0.181 C 
ATOM      7  C   UNL     1      32.304  22.049 -14.572  1.00  0.00     0.214 C 
BRANCH   3   8
ATOM      8  C   UNL     1      34.714  23.030 -17.086  1.00  0.00     0.073 C 
ATOM      9  O   UNL     1      35.619  22.983 -16.211  1.00  0.00    -0.547 OA
ATOM     10  O   UNL     1      34.996  22.585 -18.374  1.00  0.00    -0.547 OA
ENDBRANCH   3   8
BRANCH   4  11
ATOM     11  O   UNL     1      33.117  25.623 -15.370  1.00  0.00    -0.387 OA
ATOM     12  H   UNL     1      33.630  26.029 -14.624  1.00  0.00     0.211 HD
ENDBRANCH   4  11
BRANCH   6  13
ATOM     13  O   UNL     1      32.257  24.004 -13.128  1.00  0.00    -0.387 OA
ATOM     14  H   UNL     1      31.392  23.776 -12.693  1.00  0.00     0.211 HD
ENDBRANCH   6  13
BRANCH   7  15
ATOM     15  O   UNL     1      31.250  21.453 -13.859  1.00  0.00    -0.384 OA
ATOM     16  H   UNL     1      31.641  20.708 -13.332  1.00  0.00     0.211 HD
ENDBRANCH   7  15
ENDBRANCH   1   2
BRANCH   1  17
ATOM     17  C   UNL     1      33.045  19.259 -16.523  1.00  0.00     0.172 A 
ATOM     18  C   UNL     1      32.759  18.455 -15.395  1.00  0.00     0.205 A 
ATOM     19  C   UNL     1      33.052  18.673 -17.795  1.00  0.00     0.097 A 
ATOM     20  C   UNL     1      32.420  17.107 -15.576  1.00  0.00     0.188 A 
ATOM     21  C   UNL     1      32.764  17.319 -17.981  1.00  0.00     0.134 A 
ATOM     22  C   UNL     1      32.384  16.524 -16.866  1.00  0.00     0.111 A 
ATOM     23  O   UNL     1      32.118  16.385 -14.502  1.00  0.00    -0.452 OA
ATOM     24  C   UNL     1      31.930  15.186 -16.953  1.00  0.00     0.197 A 
ATOM     25  C   UNL     1      31.740  15.110 -14.542  1.00  0.00     0.138 A 
ATOM     26  C   UNL     1      31.625  14.479 -15.790  1.00  0.00     0.100 A 
ATOM     27  O   UNL     1      31.757  14.613 -18.060  1.00  0.00    -0.289 OA
BRANCH  18  28
ATOM     28  O   UNL     1      32.789  18.932 -14.072  1.00  0.00    -0.490 OA
ATOM     29  C   UNL     1      33.898  18.883 -13.182  1.00  0.00     0.278 C 
ENDBRANCH  18  28
BRANCH  21  30
ATOM     30  O   UNL     1      32.889  16.827 -19.284  1.00  0.00    -0.507 OA
ATOM     31  H   UNL     1      33.286  15.930 -19.524  1.00  0.00     0.293 HD
ENDBRANCH  21  30
BRANCH  25  32
ATOM     32  C   UNL     1      31.433  14.427 -13.249  1.00  0.00     0.017 A 
ATOM     33  C   UNL     1      32.375  13.526 -12.711  1.00  0.00     0.012 A 
ATOM     34  C   UNL     1      30.233  14.645 -12.532  1.00  0.00     0.012 A 
ATOM     35  C   UNL     1      32.134  12.876 -11.496  1.00  0.00     0.001 A 
ATOM     36  C   UNL     1      30.001  13.993 -11.316  1.00  0.00     0.001 A 
ATOM     37  C   UNL     1      30.950  13.112 -10.798  1.00  0.00     0.000 A 
ENDBRANCH  25  32
ENDBRANCH   1  17
TORSDOF 9
ENDMDL
MODEL 6
REMARK VINA RESULT:    -6.529      4.961      9.622
REMARK INTER + INTRA:         -10.484
REMARK INTER:                  -9.181
REMARK INTRA:                  -1.303
REMARK UNBOUND:                -1.284
REMARK SMILES COc1c(O[C@@H]2O[C@H](C(=O)[O-])[C@@H](O)[C@H](O)[C@H]2O)cc(O)c2c(=O)cc(-c3ccccc3)oc12
REMARK SMILES IDX 5 1 6 2 8 3 12 4 7 5 14 6 16 7 9 8 10 9 11 10 13 11 15 13
REMARK SMILES IDX 17 15 4 17 3 18 18 19 33 20 19 21 21 22 32 23 22 24 25 25
REMARK SMILES IDX 24 26 23 27 2 28 1 29 20 30 26 32 27 33 31 34 28 35 30 36
REMARK SMILES IDX 29 37
REMARK H PARENT 13 12 15 14 17 16 20 31
REMARK Flexibility Score: inf
ROOT
ATOM      1  O   UNL     1      32.995  20.635 -16.653  1.00  0.00    -0.458 OA
ENDROOT
BRANCH   1   2
ATOM      2  C   UNL     1      32.596  21.549 -17.679  1.00  0.00     0.339 C 
ATOM      3  C   UNL     1      32.624  23.593 -16.432  1.00  0.00     0.199 C 
ATOM      4  C   UNL     1      31.109  23.872 -16.681  1.00  0.00     0.180 C 
ATOM      5  O   UNL     1      33.224  22.811 -17.460  1.00  0.00    -0.328 OA
ATOM      6  C   UNL     1      30.600  23.108 -17.916  1.00  0.00     0.181 C 
ATOM      7  C   UNL     1      31.050  21.642 -17.825  1.00  0.00     0.214 C 
BRANCH   3   8
ATOM      8  C   UNL     1      32.914  23.039 -15.057  1.00  0.00     0.073 C 
ATOM      9  O   UNL     1      34.091  23.060 -14.607  1.00  0.00    -0.547 OA
ATOM     10  O   UNL     1      31.908  22.464 -14.288  1.00  0.00    -0.547 OA
ENDBRANCH   3   8
BRANCH   4  11
ATOM     11  O   UNL     1      30.859  25.250 -16.819  1.00  0.00    -0.387 OA
ATOM     12  H   UNL     1      30.506  25.584 -15.953  1.00  0.00     0.211 HD
ENDBRANCH   4  11
BRANCH   6  13
ATOM     13  O   UNL     1      29.201  23.208 -18.030  1.00  0.00    -0.387 OA
ATOM     14  H   UNL     1      28.943  22.851 -18.922  1.00  0.00     0.211 HD
ENDBRANCH   6  13
BRANCH   7  15
ATOM     15  O   UNL     1      30.646  20.958 -18.985  1.00  0.00    -0.384 OA
ATOM     16  H   UNL     1      30.069  21.579 -19.502  1.00  0.00     0.211 HD
ENDBRANCH   7  15
ENDBRANCH   1   2
BRANCH   1  17
ATOM     17  C   UNL     1      32.879  19.238 -16.736  1.00  0.00     0.172 A 
ATOM     18  C   UNL     1      32.579  18.474 -15.586  1.00  0.00     0.205 A 
ATOM     19  C   UNL     1      33.004  18.593 -17.973  1.00  0.00     0.097 A 
ATOM     20  C   UNL     1      32.344  17.098 -15.712  1.00  0.00     0.188 A 
ATOM     21  C   UNL     1      32.819  17.214 -18.102  1.00  0.00     0.134 A 
ATOM     22  C   UNL     1      32.426  16.450 -16.970  1.00  0.00     0.111 A 
ATOM     23  O   UNL     1      32.026  16.411 -14.620  1.00  0.00    -0.452 OA
ATOM     24  C   UNL     1      32.069  15.081 -17.011  1.00  0.00     0.197 A 
ATOM     25  C   UNL     1      31.736  15.112 -14.613  1.00  0.00     0.138 A 
ATOM     26  C   UNL     1      31.741  14.414 -15.830  1.00  0.00     0.100 A 
ATOM     27  O   UNL     1      32.002  14.443 -18.093  1.00  0.00    -0.289 OA
BRANCH  18  28
ATOM     28  O   UNL     1      32.496  19.017 -14.290  1.00  0.00    -0.490 OA
ATOM     29  C   UNL     1      33.587  19.301 -13.422  1.00  0.00     0.278 C 
ENDBRANCH  18  28
BRANCH  21  30
ATOM     30  O   UNL     1      33.056  16.668 -19.367  1.00  0.00    -0.507 OA
ATOM     31  H   UNL     1      32.676  15.792 -19.696  1.00  0.00     0.293 HD
ENDBRANCH  21  30
BRANCH  25  32
ATOM     32  C   UNL     1      31.397  14.474 -13.306  1.00  0.00     0.017 A 
ATOM     33  C   UNL     1      32.316  13.575 -12.724  1.00  0.00     0.012 A 
ATOM     34  C   UNL     1      30.190  14.733 -12.616  1.00  0.00     0.012 A 
ATOM     35  C   UNL     1      32.045  12.967 -11.494  1.00  0.00     0.001 A 
ATOM     36  C   UNL     1      29.928  14.122 -11.384  1.00  0.00     0.001 A 
ATOM     37  C   UNL     1      30.854  13.243 -10.824  1.00  0.00     0.000 A 
ENDBRANCH  25  32
ENDBRANCH   1  17
TORSDOF 9
ENDMDL
MODEL 7
REMARK VINA RESULT:    -6.504      4.224      9.088
REMARK INTER + INTRA:         -10.450
REMARK INTER:                  -9.328
REMARK INTRA:                  -1.122
REMARK UNBOUND:                -1.284
REMARK SMILES COc1c(O[C@@H]2O[C@H](C(=O)[O-])[C@@H](O)[C@H](O)[C@H]2O)cc(O)c2c(=O)cc(-c3ccccc3)oc12
REMARK SMILES IDX 5 1 6 2 8 3 12 4 7 5 14 6 16 7 9 8 10 9 11 10 13 11 15 13
REMARK SMILES IDX 17 15 4 17 3 18 18 19 33 20 19 21 21 22 32 23 22 24 25 25
REMARK SMILES IDX 24 26 23 27 2 28 1 29 20 30 26 32 27 33 31 34 28 35 30 36
REMARK SMILES IDX 29 37
REMARK H PARENT 13 12 15 14 17 16 20 31
REMARK Flexibility Score: inf
ROOT
ATOM      1  O   UNL     1      33.306  21.377 -15.859  1.00  0.00    -0.458 OA
ENDROOT
BRANCH   1   2
ATOM      2  C   UNL     1      33.061  22.290 -14.784  1.00  0.00     0.339 C 
ATOM      3  C   UNL     1      31.324  23.613 -15.768  1.00  0.00     0.199 C 
ATOM      4  C   UNL     1      32.147  24.934 -15.666  1.00  0.00     0.180 C 
ATOM      5  O   UNL     1      31.682  22.654 -14.777  1.00  0.00    -0.328 OA
ATOM      6  C   UNL     1      33.250  24.820 -14.597  1.00  0.00     0.181 C 
ATOM      7  C   UNL     1      34.025  23.511 -14.809  1.00  0.00     0.214 C 
BRANCH   3   8
ATOM      8  C   UNL     1      31.316  23.016 -17.155  1.00  0.00     0.073 C 
ATOM      9  O   UNL     1      30.491  22.109 -17.443  1.00  0.00    -0.547 OA
ATOM     10  O   UNL     1      32.234  23.425 -18.117  1.00  0.00    -0.547 OA
ENDBRANCH   3   8
BRANCH   4  11
ATOM     11  O   UNL     1      31.314  26.036 -15.394  1.00  0.00    -0.387 OA
ATOM     12  H   UNL     1      31.495  26.332 -14.463  1.00  0.00     0.211 HD
ENDBRANCH   4  11
BRANCH   6  13
ATOM     13  O   UNL     1      34.108  25.935 -14.637  1.00  0.00    -0.387 OA
ATOM     14  H   UNL     1      34.959  25.678 -14.191  1.00  0.00     0.211 HD
ENDBRANCH   6  13
BRANCH   7  15
ATOM     15  O   UNL     1      34.988  23.370 -13.795  1.00  0.00    -0.384 OA
ATOM     16  H   UNL     1      35.034  22.404 -13.571  1.00  0.00     0.211 HD
ENDBRANCH   7  15
ENDBRANCH   1   2
BRANCH   1  17
ATOM     17  C   UNL     1      32.896  20.035 -15.878  1.00  0.00     0.172 A 
ATOM     18  C   UNL     1      32.972  19.279 -17.070  1.00  0.00     0.205 A 
ATOM     19  C   UNL     1      32.460  19.413 -14.701  1.00  0.00     0.097 A 
ATOM     20  C   UNL     1      32.677  17.909 -17.040  1.00  0.00     0.188 A 
ATOM     21  C   UNL     1      32.118  18.059 -14.670  1.00  0.00     0.134 A 
ATOM     22  C   UNL     1      32.279  17.269 -15.840  1.00  0.00     0.111 A 
ATOM     23  O   UNL     1      32.794  17.215 -18.167  1.00  0.00    -0.452 OA
ATOM     24  C   UNL     1      32.105  15.865 -15.889  1.00  0.00     0.197 A 
ATOM     25  C   UNL     1      32.587  15.904 -18.261  1.00  0.00     0.138 A 
ATOM     26  C   UNL     1      32.245  15.190 -17.103  1.00  0.00     0.100 A 
ATOM     27  O   UNL     1      31.860  15.188 -14.857  1.00  0.00    -0.289 OA
BRANCH  18  28
ATOM     28  O   UNL     1      33.336  19.824 -18.316  1.00  0.00    -0.490 OA
ATOM     29  C   UNL     1      32.447  20.267 -19.335  1.00  0.00     0.278 C 
ENDBRANCH  18  28
BRANCH  21  30
ATOM     30  O   UNL     1      31.612  17.570 -13.462  1.00  0.00    -0.507 OA
ATOM     31  H   UNL     1      31.939  16.735 -12.998  1.00  0.00     0.293 HD
ENDBRANCH  21  30
BRANCH  25  32
ATOM     32  C   UNL     1      32.756  15.260 -19.598  1.00  0.00     0.017 A 
ATOM     33  C   UNL     1      33.666  14.190 -19.733  1.00  0.00     0.012 A 
ATOM     34  C   UNL     1      32.037  15.673 -20.745  1.00  0.00     0.012 A 
ATOM     35  C   UNL     1      33.844  13.549 -20.963  1.00  0.00     0.001 A 
ATOM     36  C   UNL     1      32.220  15.024 -21.972  1.00  0.00     0.001 A 
ATOM     37  C   UNL     1      33.119  13.964 -22.080  1.00  0.00     0.000 A 
ENDBRANCH  25  32
ENDBRANCH   1  17
TORSDOF 9
ENDMDL
MODEL 8
REMARK VINA RESULT:    -5.957      2.653      8.848
REMARK INTER + INTRA:          -9.678
REMARK INTER:                  -8.967
REMARK INTRA:                  -0.711
REMARK UNBOUND:                -1.284
REMARK SMILES COc1c(O[C@@H]2O[C@H](C(=O)[O-])[C@@H](O)[C@H](O)[C@H]2O)cc(O)c2c(=O)cc(-c3ccccc3)oc12
REMARK SMILES IDX 5 1 6 2 8 3 12 4 7 5 14 6 16 7 9 8 10 9 11 10 13 11 15 13
REMARK SMILES IDX 17 15 4 17 3 18 18 19 33 20 19 21 21 22 32 23 22 24 25 25
REMARK SMILES IDX 24 26 23 27 2 28 1 29 20 30 26 32 27 33 31 34 28 35 30 36
REMARK SMILES IDX 29 37
REMARK H PARENT 13 12 15 14 17 16 20 31
REMARK Flexibility Score: inf
ROOT
ATOM      1  O   UNL     1      30.328  24.322 -18.434  1.00  0.00    -0.458 OA
ENDROOT
BRANCH   1   2
ATOM      2  C   UNL     1      29.473  25.184 -17.676  1.00  0.00     0.339 C 
ATOM      3  C   UNL     1      28.340  26.303 -19.464  1.00  0.00     0.199 C 
ATOM      4  C   UNL     1      28.847  27.711 -19.026  1.00  0.00     0.180 C 
ATOM      5  O   UNL     1      28.250  25.380 -18.383  1.00  0.00    -0.328 OA
ATOM      6  C   UNL     1      29.261  27.715 -17.543  1.00  0.00     0.181 C 
ATOM      7  C   UNL     1      30.176  26.512 -17.271  1.00  0.00     0.214 C 
BRANCH   3   8
ATOM      8  C   UNL     1      29.102  25.729 -20.636  1.00  0.00     0.073 C 
ATOM      9  O   UNL     1      29.790  26.487 -21.369  1.00  0.00    -0.547 OA
ATOM     10  O   UNL     1      29.026  24.375 -20.947  1.00  0.00    -0.547 OA
ENDBRANCH   3   8
BRANCH   4  11
ATOM     11  O   UNL     1      27.875  28.701 -19.265  1.00  0.00    -0.387 OA
ATOM     12  H   UNL     1      27.059  28.457 -18.755  1.00  0.00     0.211 HD
ENDBRANCH   4  11
BRANCH   6  13
ATOM     13  O   UNL     1      29.891  28.925 -17.199  1.00  0.00    -0.387 OA
ATOM     14  H   UNL     1      30.105  28.890 -16.228  1.00  0.00     0.211 HD
ENDBRANCH   6  13
BRANCH   7  15
ATOM     15  O   UNL     1      30.501  26.473 -15.904  1.00  0.00    -0.384 OA
ATOM     16  H   UNL     1      31.491  26.497 -15.840  1.00  0.00     0.211 HD
ENDBRANCH   7  15
ENDBRANCH   1   2
BRANCH   1  17
ATOM     17  C   UNL     1      31.364  23.544 -17.893  1.00  0.00     0.172 A 
ATOM     18  C   UNL     1      31.213  22.146 -17.754  1.00  0.00     0.205 A 
ATOM     19  C   UNL     1      32.581  24.139 -17.538  1.00  0.00     0.097 A 
ATOM     20  C   UNL     1      32.302  21.372 -17.330  1.00  0.00     0.188 A 
ATOM     21  C   UNL     1      33.658  23.383 -17.067  1.00  0.00     0.134 A 
ATOM     22  C   UNL     1      33.548  21.967 -17.012  1.00  0.00     0.111 A 
ATOM     23  O   UNL     1      32.144  20.055 -17.245  1.00  0.00    -0.452 OA
ATOM     24  C   UNL     1      34.615  21.092 -16.695  1.00  0.00     0.197 A 
ATOM     25  C   UNL     1      33.109  19.208 -16.899  1.00  0.00     0.138 A 
ATOM     26  C   UNL     1      34.387  19.717 -16.625  1.00  0.00     0.100 A 
ATOM     27  O   UNL     1      35.786  21.512 -16.506  1.00  0.00    -0.289 OA
BRANCH  18  28
ATOM     28  O   UNL     1      30.013  21.461 -18.022  1.00  0.00    -0.490 OA
ATOM     29  C   UNL     1      29.413  21.279 -19.299  1.00  0.00     0.278 C 
ENDBRANCH  18  28
BRANCH  21  30
ATOM     30  O   UNL     1      34.790  24.094 -16.660  1.00  0.00    -0.507 OA
ATOM     31  H   UNL     1      34.944  25.077 -16.833  1.00  0.00     0.293 HD
ENDBRANCH  21  30
BRANCH  25  32
ATOM     32  C   UNL     1      32.781  17.752 -16.846  1.00  0.00     0.017 A 
ATOM     33  C   UNL     1      32.150  17.233 -15.695  1.00  0.00     0.012 A 
ATOM     34  C   UNL     1      33.072  16.860 -17.905  1.00  0.00     0.012 A 
ATOM     35  C   UNL     1      31.812  15.879 -15.610  1.00  0.00     0.001 A 
ATOM     36  C   UNL     1      32.728  15.507 -17.813  1.00  0.00     0.001 A 
ATOM     37  C   UNL     1      32.098  15.018 -16.669  1.00  0.00     0.000 A 
ENDBRANCH  25  32
ENDBRANCH   1  17
TORSDOF 9
ENDMDL
