MODEL 1
REMARK VINA RESULT:    -5.956      0.000      0.000
REMARK INTER + INTRA:         -12.596
REMARK INTER:                 -10.309
REMARK INTRA:                  -2.288
REMARK UNBOUND:                -2.288
REMARK SMILES OC[C@@H]1O[C@H](O[C@@H]2[C@@H](O)[C@H](O)[C@H](O[C@@H]3[C@@H](O)[C@H](O)[C@H](O)O[C@H]3CO)O[C@H]2CO)[C@H](O)[C@@H](O)[C@H]1O
REMARK SMILES IDX 7 1 26 2 25 3 12 4 10 5 8 6 6 7 5 8 3 9 33 10 4 11 31 12
REMARK SMILES IDX 29 13 2 14 1 15 34 17 32 19 30 21 27 23 28 24 9 26 11 28
REMARK SMILES IDX 13 30 14 31 22 32 15 33 21 34 17 35 19 36 23 37 24 38 16 40
REMARK SMILES IDX 18 42 20 44
REMARK H PARENT 1 16 34 18 32 20 30 22 28 25 9 27 11 29 24 39 16 41 18 43
REMARK H PARENT 20 45
REMARK Flexibility Score: inf
ROOT
ATOM      1  C   UNL     1      38.140   0.313  42.236  1.00  0.00     0.184 C 
ATOM      2  C   UNL     1      39.592   0.443  42.735  1.00  0.00     0.178 C 
ATOM      3  O   UNL     1      39.803   1.746  43.215  1.00  0.00    -0.341 OA
ATOM      4  C   UNL     1      39.098   2.074  44.404  1.00  0.00     0.282 C 
ATOM      5  C   UNL     1      37.726   1.348  44.647  1.00  0.00     0.202 C 
ATOM      6  C   UNL     1      37.141   0.679  43.390  1.00  0.00     0.180 C 
ENDROOT
BRANCH   1   7
ATOM      7  O   UNL     1      37.980   1.124  41.058  1.00  0.00    -0.341 OA
BRANCH   7   8
ATOM      8  C   UNL     1      38.913   1.015  39.945  1.00  0.00     0.282 C 
ATOM      9  C   UNL     1      37.451  -0.517  38.734  1.00  0.00     0.178 C 
ATOM     10  C   UNL     1      36.922   0.647  37.832  1.00  0.00     0.177 C 
ATOM     11  O   UNL     1      38.733  -0.283  39.370  1.00  0.00    -0.341 OA
ATOM     12  C   UNL     1      37.184   2.016  38.502  1.00  0.00     0.179 C 
ATOM     13  C   UNL     1      38.632   2.110  38.900  1.00  0.00     0.202 C 
BRANCH   9  14
ATOM     14  C   UNL     1      36.403  -0.998  39.799  1.00  0.00     0.191 C 
BRANCH  14  15
ATOM     15  O   UNL     1      36.642  -2.297  40.276  1.00  0.00    -0.394 OA
ATOM     16  H   UNL     1      35.881  -2.545  40.893  1.00  0.00     0.210 HD
ENDBRANCH  14  15
ENDBRANCH   9  14
BRANCH  10  17
ATOM     17  O   UNL     1      37.601   0.539  36.594  1.00  0.00    -0.387 OA
ATOM     18  H   UNL     1      37.748  -0.434  36.383  1.00  0.00     0.211 HD
ENDBRANCH  10  17
BRANCH  12  19
ATOM     19  O   UNL     1      36.758   3.075  37.689  1.00  0.00    -0.387 OA
ATOM     20  H   UNL     1      35.779   2.901  37.426  1.00  0.00     0.211 HD
ENDBRANCH  12  19
BRANCH  13  21
ATOM     21  O   UNL     1      38.902   3.399  39.422  1.00  0.00    -0.385 OA
ATOM     22  H   UNL     1      38.688   3.373  40.412  1.00  0.00     0.211 HD
ENDBRANCH  13  21
ENDBRANCH   7   8
ENDBRANCH   1   7
BRANCH   2  23
ATOM     23  C   UNL     1      40.109  -0.682  43.678  1.00  0.00     0.191 C 
BRANCH  23  24
ATOM     24  O   UNL     1      39.271  -1.802  43.836  1.00  0.00    -0.394 OA
ATOM     25  H   UNL     1      39.669  -2.343  44.574  1.00  0.00     0.210 HD
ENDBRANCH  23  24
ENDBRANCH   2  23
BRANCH   6  26
ATOM     26  O   UNL     1      36.376  -0.448  43.752  1.00  0.00    -0.387 OA
ATOM     27  H   UNL     1      36.978  -1.255  43.713  1.00  0.00     0.211 HD
ENDBRANCH   6  26
BRANCH   5  28
ATOM     28  O   UNL     1      36.763   2.211  45.219  1.00  0.00    -0.385 OA
ATOM     29  H   UNL     1      36.803   2.064  46.204  1.00  0.00     0.211 HD
ENDBRANCH   5  28
BRANCH   4  30
ATOM     30  O   UNL     1      38.910   3.486  44.433  1.00  0.00    -0.341 OA
BRANCH  30  31
ATOM     31  C   UNL     1      38.728   4.019  43.105  1.00  0.00     0.184 C 
ATOM     32  C   UNL     1      37.301   4.563  43.022  1.00  0.00     0.178 C 
ATOM     33  C   UNL     1      39.772   5.115  42.890  1.00  0.00     0.180 C 
ATOM     34  O   UNL     1      37.108   5.550  44.055  1.00  0.00    -0.342 OA
ATOM     35  C   UNL     1      39.426   6.442  43.591  1.00  0.00     0.201 C 
ATOM     36  C   UNL     1      37.892   6.703  43.842  1.00  0.00     0.279 C 
BRANCH  32  37
ATOM     37  C   UNL     1      36.701   4.869  41.586  1.00  0.00     0.191 C 
BRANCH  37  38
ATOM     38  O   UNL     1      36.242   3.732  40.877  1.00  0.00    -0.394 OA
ATOM     39  H   UNL     1      36.797   3.648  40.049  1.00  0.00     0.210 HD
ENDBRANCH  37  38
ENDBRANCH  32  37
BRANCH  33  40
ATOM     40  O   UNL     1      39.949   5.343  41.503  1.00  0.00    -0.387 OA
ATOM     41  H   UNL     1      39.577   6.246  41.318  1.00  0.00     0.211 HD
ENDBRANCH  33  40
BRANCH  35  42
ATOM     42  O   UNL     1      40.120   6.488  44.822  1.00  0.00    -0.385 OA
ATOM     43  H   UNL     1      39.807   5.716  45.359  1.00  0.00     0.211 HD
ENDBRANCH  35  42
BRANCH  36  44
ATOM     44  O   UNL     1      37.785   7.579  44.970  1.00  0.00    -0.366 OA
ATOM     45  H   UNL     1      38.497   7.285  45.648  1.00  0.00     0.213 HD
ENDBRANCH  36  44
ENDBRANCH  30  31
ENDBRANCH   4  30
TORSDOF 18
ENDMDL
MODEL 2
REMARK VINA RESULT:    -5.658      0.855      2.194
REMARK INTER + INTRA:         -12.080
REMARK INTER:                  -9.731
REMARK INTRA:                  -2.349
REMARK UNBOUND:                -2.288
REMARK SMILES OC[C@@H]1O[C@H](O[C@@H]2[C@@H](O)[C@H](O)[C@H](O[C@@H]3[C@@H](O)[C@H](O)[C@H](O)O[C@H]3CO)O[C@H]2CO)[C@H](O)[C@@H](O)[C@H]1O
REMARK SMILES IDX 7 1 26 2 25 3 12 4 10 5 8 6 6 7 5 8 3 9 33 10 4 11 31 12
REMARK SMILES IDX 29 13 2 14 1 15 34 17 32 19 30 21 27 23 28 24 9 26 11 28
REMARK SMILES IDX 13 30 14 31 22 32 15 33 21 34 17 35 19 36 23 37 24 38 16 40
REMARK SMILES IDX 18 42 20 44
REMARK H PARENT 1 16 34 18 32 20 30 22 28 25 9 27 11 29 24 39 16 41 18 43
REMARK H PARENT 20 45
REMARK Flexibility Score: inf
ROOT
ATOM      1  C   UNL     1      38.160   0.310  42.189  1.00  0.00     0.184 C 
ATOM      2  C   UNL     1      39.527   0.354  42.899  1.00  0.00     0.178 C 
ATOM      3  O   UNL     1      39.745   1.646  43.406  1.00  0.00    -0.341 OA
ATOM      4  C   UNL     1      38.893   2.025  44.478  1.00  0.00     0.282 C 
ATOM      5  C   UNL     1      37.458   1.388  44.513  1.00  0.00     0.202 C 
ATOM      6  C   UNL     1      37.025   0.746  43.183  1.00  0.00     0.180 C 
ENDROOT
BRANCH   1   7
ATOM      7  O   UNL     1      38.227   1.120  41.001  1.00  0.00    -0.341 OA
BRANCH   7   8
ATOM      8  C   UNL     1      37.131   1.127  40.042  1.00  0.00     0.282 C 
ATOM      9  C   UNL     1      38.630   1.612  38.179  1.00  0.00     0.178 C 
ATOM     10  C   UNL     1      38.643   0.107  37.753  1.00  0.00     0.177 C 
ATOM     11  O   UNL     1      37.500   2.024  38.989  1.00  0.00    -0.341 OA
ATOM     12  C   UNL     1      38.199  -0.795  38.929  1.00  0.00     0.179 C 
ATOM     13  C   UNL     1      36.896  -0.288  39.485  1.00  0.00     0.202 C 
BRANCH   9  14
ATOM     14  C   UNL     1      39.970   2.075  38.852  1.00  0.00     0.191 C 
BRANCH  14  15
ATOM     15  O   UNL     1      39.833   3.221  39.650  1.00  0.00    -0.394 OA
ATOM     16  H   UNL     1      38.896   3.576  39.524  1.00  0.00     0.210 HD
ENDBRANCH  14  15
ENDBRANCH   9  14
BRANCH  10  17
ATOM     17  O   UNL     1      37.759  -0.010  36.652  1.00  0.00    -0.387 OA
ATOM     18  H   UNL     1      37.349  -0.929  36.655  1.00  0.00     0.211 HD
ENDBRANCH  10  17
BRANCH  12  19
ATOM     19  O   UNL     1      38.160  -2.145  38.555  1.00  0.00    -0.387 OA
ATOM     20  H   UNL     1      38.160  -2.191  37.527  1.00  0.00     0.211 HD
ENDBRANCH  12  19
BRANCH  13  21
ATOM     21  O   UNL     1      36.434  -1.167  40.496  1.00  0.00    -0.385 OA
ATOM     22  H   UNL     1      37.166  -1.847  40.660  1.00  0.00     0.211 HD
ENDBRANCH  13  21
ENDBRANCH   7   8
ENDBRANCH   1   7
BRANCH   2  23
ATOM     23  C   UNL     1      39.827  -0.793  43.907  1.00  0.00     0.191 C 
BRANCH  23  24
ATOM     24  O   UNL     1      38.891  -1.844  43.958  1.00  0.00    -0.394 OA
ATOM     25  H   UNL     1      38.197  -1.563  44.617  1.00  0.00     0.210 HD
ENDBRANCH  23  24
ENDBRANCH   2  23
BRANCH   6  26
ATOM     26  O   UNL     1      36.146  -0.328  43.425  1.00  0.00    -0.387 OA
ATOM     27  H   UNL     1      36.452  -0.794  44.266  1.00  0.00     0.211 HD
ENDBRANCH   6  26
BRANCH   5  28
ATOM     28  O   UNL     1      36.476   2.313  44.937  1.00  0.00    -0.385 OA
ATOM     29  H   UNL     1      36.836   2.751  45.756  1.00  0.00     0.211 HD
ENDBRANCH   5  28
BRANCH   4  30
ATOM     30  O   UNL     1      38.791   3.447  44.480  1.00  0.00    -0.341 OA
BRANCH  30  31
ATOM     31  C   UNL     1      38.682   3.968  43.140  1.00  0.00     0.184 C 
ATOM     32  C   UNL     1      37.287   4.577  42.997  1.00  0.00     0.178 C 
ATOM     33  C   UNL     1      39.785   5.011  42.950  1.00  0.00     0.180 C 
ATOM     34  O   UNL     1      37.102   5.587  44.009  1.00  0.00    -0.342 OA
ATOM     35  C   UNL     1      39.476   6.363  43.620  1.00  0.00     0.201 C 
ATOM     36  C   UNL     1      37.947   6.699  43.811  1.00  0.00     0.279 C 
BRANCH  32  37
ATOM     37  C   UNL     1      36.755   4.889  41.535  1.00  0.00     0.191 C 
BRANCH  37  38
ATOM     38  O   UNL     1      37.527   4.328  40.488  1.00  0.00    -0.394 OA
ATOM     39  H   UNL     1      37.591   5.013  39.761  1.00  0.00     0.210 HD
ENDBRANCH  37  38
ENDBRANCH  32  37
BRANCH  33  40
ATOM     40  O   UNL     1      40.023   5.211  41.568  1.00  0.00    -0.387 OA
ATOM     41  H   UNL     1      40.605   6.013  41.497  1.00  0.00     0.211 HD
ENDBRANCH  33  40
BRANCH  35  42
ATOM     42  O   UNL     1      40.125   6.395  44.875  1.00  0.00    -0.385 OA
ATOM     43  H   UNL     1      39.417   6.372  45.568  1.00  0.00     0.211 HD
ENDBRANCH  35  42
BRANCH  36  44
ATOM     44  O   UNL     1      37.840   7.595  44.922  1.00  0.00    -0.366 OA
ATOM     45  H   UNL     1      37.684   8.534  44.538  1.00  0.00     0.213 HD
ENDBRANCH  36  44
ENDBRANCH  30  31
ENDBRANCH   4  30
TORSDOF 18
ENDMDL
MODEL 3
REMARK VINA RESULT:    -5.602      1.753      3.304
REMARK INTER + INTRA:         -11.983
REMARK INTER:                  -9.130
REMARK INTRA:                  -2.853
REMARK UNBOUND:                -2.288
REMARK SMILES OC[C@@H]1O[C@H](O[C@@H]2[C@@H](O)[C@H](O)[C@H](O[C@@H]3[C@@H](O)[C@H](O)[C@H](O)O[C@H]3CO)O[C@H]2CO)[C@H](O)[C@@H](O)[C@H]1O
REMARK SMILES IDX 7 1 26 2 25 3 12 4 10 5 8 6 6 7 5 8 3 9 33 10 4 11 31 12
REMARK SMILES IDX 29 13 2 14 1 15 34 17 32 19 30 21 27 23 28 24 9 26 11 28
REMARK SMILES IDX 13 30 14 31 22 32 15 33 21 34 17 35 19 36 23 37 24 38 16 40
REMARK SMILES IDX 18 42 20 44
REMARK H PARENT 1 16 34 18 32 20 30 22 28 25 9 27 11 29 24 39 16 41 18 43
REMARK H PARENT 20 45
REMARK Flexibility Score: inf
ROOT
ATOM      1  C   UNL     1      38.219  -1.663  42.401  1.00  0.00     0.184 C 
ATOM      2  C   UNL     1      39.507  -0.924  42.811  1.00  0.00     0.178 C 
ATOM      3  O   UNL     1      39.383   0.437  42.489  1.00  0.00    -0.341 OA
ATOM      4  C   UNL     1      38.426   1.155  43.255  1.00  0.00     0.282 C 
ATOM      5  C   UNL     1      37.191   0.350  43.796  1.00  0.00     0.202 C 
ATOM      6  C   UNL     1      36.977  -1.008  43.103  1.00  0.00     0.180 C 
ENDROOT
BRANCH   1   7
ATOM      7  O   UNL     1      38.127  -1.676  40.965  1.00  0.00    -0.341 OA
BRANCH   7   8
ATOM      8  C   UNL     1      36.831  -1.692  40.301  1.00  0.00     0.282 C 
ATOM      9  C   UNL     1      37.668  -0.393  38.413  1.00  0.00     0.178 C 
ATOM     10  C   UNL     1      37.831  -1.688  37.550  1.00  0.00     0.177 C 
ATOM     11  O   UNL     1      36.742  -0.494  39.524  1.00  0.00    -0.341 OA
ATOM     12  C   UNL     1      37.884  -2.941  38.455  1.00  0.00     0.179 C 
ATOM     13  C   UNL     1      36.708  -2.931  39.395  1.00  0.00     0.202 C 
BRANCH   9  14
ATOM     14  C   UNL     1      39.036   0.196  38.906  1.00  0.00     0.191 C 
BRANCH  14  15
ATOM     15  O   UNL     1      38.899   1.210  39.868  1.00  0.00    -0.394 OA
ATOM     16  H   UNL     1      39.147   0.820  40.766  1.00  0.00     0.210 HD
ENDBRANCH  14  15
ENDBRANCH   9  14
BRANCH  10  17
ATOM     17  O   UNL     1      36.720  -1.732  36.673  1.00  0.00    -0.387 OA
ATOM     18  H   UNL     1      37.020  -1.468  35.749  1.00  0.00     0.211 HD
ENDBRANCH  10  17
BRANCH  12  19
ATOM     19  O   UNL     1      37.983  -4.117  37.699  1.00  0.00    -0.387 OA
ATOM     20  H   UNL     1      37.033  -4.411  37.439  1.00  0.00     0.211 HD
ENDBRANCH  12  19
BRANCH  13  21
ATOM     21  O   UNL     1      36.695  -4.125  40.157  1.00  0.00    -0.385 OA
ATOM     22  H   UNL     1      36.459  -4.881  39.526  1.00  0.00     0.211 HD
ENDBRANCH  13  21
ENDBRANCH   7   8
ENDBRANCH   1   7
BRANCH   2  23
ATOM     23  C   UNL     1      40.043  -1.200  44.246  1.00  0.00     0.191 C 
BRANCH  23  24
ATOM     24  O   UNL     1      39.404  -2.226  44.968  1.00  0.00    -0.394 OA
ATOM     25  H   UNL     1      38.569  -2.438  44.465  1.00  0.00     0.210 HD
ENDBRANCH  23  24
ENDBRANCH   2  23
BRANCH   6  26
ATOM     26  O   UNL     1      36.380  -1.920  43.997  1.00  0.00    -0.387 OA
ATOM     27  H   UNL     1      35.880  -2.604  43.451  1.00  0.00     0.211 HD
ENDBRANCH   6  26
BRANCH   5  28
ATOM     28  O   UNL     1      35.998   1.107  43.740  1.00  0.00    -0.385 OA
ATOM     29  H   UNL     1      35.409   0.654  43.077  1.00  0.00     0.211 HD
ENDBRANCH   5  28
BRANCH   4  30
ATOM     30  O   UNL     1      37.979   2.263  42.479  1.00  0.00    -0.341 OA
BRANCH  30  31
ATOM     31  C   UNL     1      38.800   3.428  42.705  1.00  0.00     0.184 C 
ATOM     32  C   UNL     1      38.621   4.354  41.501  1.00  0.00     0.178 C 
ATOM     33  C   UNL     1      38.338   4.085  44.006  1.00  0.00     0.180 C 
ATOM     34  O   UNL     1      37.223   4.673  41.349  1.00  0.00    -0.342 OA
ATOM     35  C   UNL     1      37.036   4.894  43.860  1.00  0.00     0.201 C 
ATOM     36  C   UNL     1      36.738   5.456  42.417  1.00  0.00     0.279 C 
BRANCH  32  37
ATOM     37  C   UNL     1      39.673   5.524  41.296  1.00  0.00     0.191 C 
BRANCH  37  38
ATOM     38  O   UNL     1      39.835   5.952  39.956  1.00  0.00    -0.394 OA
ATOM     39  H   UNL     1      40.233   5.191  39.442  1.00  0.00     0.210 HD
ENDBRANCH  37  38
ENDBRANCH  32  37
BRANCH  33  40
ATOM     40  O   UNL     1      39.363   4.923  44.510  1.00  0.00    -0.387 OA
ATOM     41  H   UNL     1      38.965   5.427  45.269  1.00  0.00     0.211 HD
ENDBRANCH  33  40
BRANCH  35  42
ATOM     42  O   UNL     1      35.958   4.081  44.280  1.00  0.00    -0.385 OA
ATOM     43  H   UNL     1      36.090   3.190  43.867  1.00  0.00     0.211 HD
ENDBRANCH  35  42
BRANCH  36  44
ATOM     44  O   UNL     1      35.320   5.610  42.301  1.00  0.00    -0.366 OA
ATOM     45  H   UNL     1      35.066   6.462  42.814  1.00  0.00     0.213 HD
ENDBRANCH  36  44
ENDBRANCH  30  31
ENDBRANCH   4  30
TORSDOF 18
ENDMDL
MODEL 4
REMARK VINA RESULT:    -5.540      1.917      4.924
REMARK INTER + INTRA:         -11.876
REMARK INTER:                  -9.988
REMARK INTRA:                  -1.888
REMARK UNBOUND:                -2.288
REMARK SMILES OC[C@@H]1O[C@H](O[C@@H]2[C@@H](O)[C@H](O)[C@H](O[C@@H]3[C@@H](O)[C@H](O)[C@H](O)O[C@H]3CO)O[C@H]2CO)[C@H](O)[C@@H](O)[C@H]1O
REMARK SMILES IDX 7 1 26 2 25 3 12 4 10 5 8 6 6 7 5 8 3 9 33 10 4 11 31 12
REMARK SMILES IDX 29 13 2 14 1 15 34 17 32 19 30 21 27 23 28 24 9 26 11 28
REMARK SMILES IDX 13 30 14 31 22 32 15 33 21 34 17 35 19 36 23 37 24 38 16 40
REMARK SMILES IDX 18 42 20 44
REMARK H PARENT 1 16 34 18 32 20 30 22 28 25 9 27 11 29 24 39 16 41 18 43
REMARK H PARENT 20 45
REMARK Flexibility Score: inf
ROOT
ATOM      1  C   UNL     1      36.828   0.452  42.009  1.00  0.00     0.184 C 
ATOM      2  C   UNL     1      35.657   0.943  42.880  1.00  0.00     0.178 C 
ATOM      3  O   UNL     1      35.765   2.331  43.064  1.00  0.00    -0.341 OA
ATOM      4  C   UNL     1      35.556   3.113  41.897  1.00  0.00     0.282 C 
ATOM      5  C   UNL     1      35.934   2.461  40.519  1.00  0.00     0.202 C 
ATOM      6  C   UNL     1      36.840   1.222  40.641  1.00  0.00     0.180 C 
ENDROOT
BRANCH   1   7
ATOM      7  O   UNL     1      38.051   0.587  42.757  1.00  0.00    -0.341 OA
BRANCH   7   8
ATOM      8  C   UNL     1      39.152  -0.345  42.558  1.00  0.00     0.282 C 
ATOM      9  C   UNL     1      39.544  -0.554  44.957  1.00  0.00     0.178 C 
ATOM     10  C   UNL     1      38.757  -1.905  45.002  1.00  0.00     0.177 C 
ATOM     11  O   UNL     1      40.054  -0.170  43.655  1.00  0.00    -0.341 OA
ATOM     12  C   UNL     1      37.832  -2.038  43.770  1.00  0.00     0.179 C 
ATOM     13  C   UNL     1      38.630  -1.793  42.517  1.00  0.00     0.202 C 
BRANCH   9  14
ATOM     14  C   UNL     1      38.756   0.643  45.598  1.00  0.00     0.191 C 
BRANCH  14  15
ATOM     15  O   UNL     1      39.168   1.902  45.133  1.00  0.00    -0.394 OA
ATOM     16  H   UNL     1      39.991   1.768  44.563  1.00  0.00     0.210 HD
ENDBRANCH  14  15
ENDBRANCH   9  14
BRANCH  10  17
ATOM     17  O   UNL     1      39.726  -2.937  45.034  1.00  0.00    -0.387 OA
ATOM     18  H   UNL     1      39.298  -3.780  45.376  1.00  0.00     0.211 HD
ENDBRANCH  10  17
BRANCH  12  19
ATOM     19  O   UNL     1      37.152  -3.263  43.768  1.00  0.00    -0.387 OA
ATOM     20  H   UNL     1      36.247  -3.126  44.239  1.00  0.00     0.211 HD
ENDBRANCH  12  19
BRANCH  13  21
ATOM     21  O   UNL     1      37.812  -2.012  41.380  1.00  0.00    -0.385 OA
ATOM     22  H   UNL     1      36.909  -1.599  41.576  1.00  0.00     0.211 HD
ENDBRANCH  13  21
ENDBRANCH   7   8
ENDBRANCH   1   7
BRANCH   2  23
ATOM     23  C   UNL     1      34.234   0.456  42.476  1.00  0.00     0.191 C 
BRANCH  23  24
ATOM     24  O   UNL     1      33.308   0.288  43.524  1.00  0.00    -0.394 OA
ATOM     25  H   UNL     1      32.875  -0.597  43.369  1.00  0.00     0.210 HD
ENDBRANCH  23  24
ENDBRANCH   2  23
BRANCH   6  26
ATOM     26  O   UNL     1      36.595   0.334  39.576  1.00  0.00    -0.387 OA
ATOM     27  H   UNL     1      35.745   0.627  39.119  1.00  0.00     0.211 HD
ENDBRANCH   6  26
BRANCH   5  28
ATOM     28  O   UNL     1      36.521   3.394  39.633  1.00  0.00    -0.385 OA
ATOM     29  H   UNL     1      35.912   3.456  38.847  1.00  0.00     0.211 HD
ENDBRANCH   5  28
BRANCH   4  30
ATOM     30  O   UNL     1      36.255   4.344  42.057  1.00  0.00    -0.341 OA
BRANCH  30  31
ATOM     31  C   UNL     1      37.536   4.142  42.689  1.00  0.00     0.184 C 
ATOM     32  C   UNL     1      38.609   4.310  41.612  1.00  0.00     0.178 C 
ATOM     33  C   UNL     1      37.679   5.178  43.805  1.00  0.00     0.180 C 
ATOM     34  O   UNL     1      38.479   5.613  41.009  1.00  0.00    -0.342 OA
ATOM     35  C   UNL     1      38.027   6.589  43.296  1.00  0.00     0.201 C 
ATOM     36  C   UNL     1      38.785   6.651  41.914  1.00  0.00     0.279 C 
BRANCH  32  37
ATOM     37  C   UNL     1      40.072   3.784  41.928  1.00  0.00     0.191 C 
BRANCH  37  38
ATOM     38  O   UNL     1      40.124   2.568  42.654  1.00  0.00    -0.394 OA
ATOM     39  H   UNL     1      39.331   2.021  42.382  1.00  0.00     0.210 HD
ENDBRANCH  37  38
ENDBRANCH  32  37
BRANCH  33  40
ATOM     40  O   UNL     1      38.662   4.752  44.732  1.00  0.00    -0.387 OA
ATOM     41  H   UNL     1      39.151   4.004  44.296  1.00  0.00     0.211 HD
ENDBRANCH  33  40
BRANCH  35  42
ATOM     42  O   UNL     1      36.832   7.339  43.211  1.00  0.00    -0.385 OA
ATOM     43  H   UNL     1      37.083   8.253  42.923  1.00  0.00     0.211 HD
ENDBRANCH  35  42
BRANCH  36  44
ATOM     44  O   UNL     1      38.489   7.918  41.318  1.00  0.00    -0.366 OA
ATOM     45  H   UNL     1      37.948   8.455  42.005  1.00  0.00     0.213 HD
ENDBRANCH  36  44
ENDBRANCH  30  31
ENDBRANCH   4  30
TORSDOF 18
ENDMDL
MODEL 5
REMARK VINA RESULT:    -5.509      1.660      5.113
REMARK INTER + INTRA:         -11.822
REMARK INTER:                 -10.380
REMARK INTRA:                  -1.442
REMARK UNBOUND:                -2.288
REMARK SMILES OC[C@@H]1O[C@H](O[C@@H]2[C@@H](O)[C@H](O)[C@H](O[C@@H]3[C@@H](O)[C@H](O)[C@H](O)O[C@H]3CO)O[C@H]2CO)[C@H](O)[C@@H](O)[C@H]1O
REMARK SMILES IDX 7 1 26 2 25 3 12 4 10 5 8 6 6 7 5 8 3 9 33 10 4 11 31 12
REMARK SMILES IDX 29 13 2 14 1 15 34 17 32 19 30 21 27 23 28 24 9 26 11 28
REMARK SMILES IDX 13 30 14 31 22 32 15 33 21 34 17 35 19 36 23 37 24 38 16 40
REMARK SMILES IDX 18 42 20 44
REMARK H PARENT 1 16 34 18 32 20 30 22 28 25 9 27 11 29 24 39 16 41 18 43
REMARK H PARENT 20 45
REMARK Flexibility Score: inf
ROOT
ATOM      1  C   UNL     1      38.439   0.680  40.536  1.00  0.00     0.184 C 
ATOM      2  C   UNL     1      36.926   0.871  40.317  1.00  0.00     0.178 C 
ATOM      3  O   UNL     1      36.536   2.116  40.835  1.00  0.00    -0.341 OA
ATOM      4  C   UNL     1      37.036   3.246  40.134  1.00  0.00     0.282 C 
ATOM      5  C   UNL     1      38.419   3.085  39.408  1.00  0.00     0.202 C 
ATOM      6  C   UNL     1      39.231   1.863  39.873  1.00  0.00     0.180 C 
ENDROOT
BRANCH   1   7
ATOM      7  O   UNL     1      38.690   0.539  41.946  1.00  0.00    -0.341 OA
BRANCH   7   8
ATOM      8  C   UNL     1      39.927  -0.061  42.426  1.00  0.00     0.282 C 
ATOM      9  C   UNL     1      39.151  -0.058  44.739  1.00  0.00     0.178 C 
ATOM     10  C   UNL     1      38.763  -1.571  44.646  1.00  0.00     0.177 C 
ATOM     11  O   UNL     1      40.124   0.399  43.767  1.00  0.00    -0.341 OA
ATOM     12  C   UNL     1      38.602  -2.002  43.170  1.00  0.00     0.179 C 
ATOM     13  C   UNL     1      39.827  -1.597  42.394  1.00  0.00     0.202 C 
BRANCH   9  14
ATOM     14  C   UNL     1      37.907   0.899  44.744  1.00  0.00     0.191 C 
BRANCH  14  15
ATOM     15  O   UNL     1      37.688   1.531  45.978  1.00  0.00    -0.394 OA
ATOM     16  H   UNL     1      36.965   1.020  46.464  1.00  0.00     0.210 HD
ENDBRANCH  14  15
ENDBRANCH   9  14
BRANCH  10  17
ATOM     17  O   UNL     1      39.800  -2.294  45.285  1.00  0.00    -0.387 OA
ATOM     18  H   UNL     1      40.599  -2.331  44.675  1.00  0.00     0.211 HD
ENDBRANCH  10  17
BRANCH  12  19
ATOM     19  O   UNL     1      38.300  -3.366  43.063  1.00  0.00    -0.387 OA
ATOM     20  H   UNL     1      37.624  -3.484  42.297  1.00  0.00     0.211 HD
ENDBRANCH  12  19
BRANCH  13  21
ATOM     21  O   UNL     1      39.730  -2.077  41.064  1.00  0.00    -0.385 OA
ATOM     22  H   UNL     1      40.452  -1.615  40.525  1.00  0.00     0.211 HD
ENDBRANCH  13  21
ENDBRANCH   7   8
ENDBRANCH   1   7
BRANCH   2  23
ATOM     23  C   UNL     1      36.384   0.569  38.889  1.00  0.00     0.191 C 
BRANCH  23  24
ATOM     24  O   UNL     1      37.340   0.207  37.919  1.00  0.00    -0.394 OA
ATOM     25  H   UNL     1      38.230   0.402  38.324  1.00  0.00     0.210 HD
ENDBRANCH  23  24
ENDBRANCH   2  23
BRANCH   6  26
ATOM     26  O   UNL     1      40.035   1.385  38.819  1.00  0.00    -0.387 OA
ATOM     27  H   UNL     1      39.424   1.094  38.072  1.00  0.00     0.211 HD
ENDBRANCH   6  26
BRANCH   5  28
ATOM     28  O   UNL     1      39.212   4.251  39.512  1.00  0.00    -0.385 OA
ATOM     29  H   UNL     1      40.161   3.946  39.520  1.00  0.00     0.211 HD
ENDBRANCH   5  28
BRANCH   4  30
ATOM     30  O   UNL     1      37.091   4.342  41.043  1.00  0.00    -0.341 OA
BRANCH  30  31
ATOM     31  C   UNL     1      37.414   3.901  42.379  1.00  0.00     0.184 C 
ATOM     32  C   UNL     1      38.685   4.635  42.809  1.00  0.00     0.178 C 
ATOM     33  C   UNL     1      36.226   4.234  43.284  1.00  0.00     0.180 C 
ATOM     34  O   UNL     1      38.465   6.057  42.724  1.00  0.00    -0.342 OA
ATOM     35  C   UNL     1      36.147   5.721  43.674  1.00  0.00     0.201 C 
ATOM     36  C   UNL     1      37.515   6.505  43.666  1.00  0.00     0.279 C 
BRANCH  32  37
ATOM     37  C   UNL     1      39.476   4.082  44.068  1.00  0.00     0.191 C 
BRANCH  37  38
ATOM     38  O   UNL     1      40.098   5.076  44.863  1.00  0.00    -0.394 OA
ATOM     39  H   UNL     1      39.679   5.955  44.630  1.00  0.00     0.210 HD
ENDBRANCH  37  38
ENDBRANCH  32  37
BRANCH  33  40
ATOM     40  O   UNL     1      36.279   3.438  44.455  1.00  0.00    -0.387 OA
ATOM     41  H   UNL     1      35.481   3.682  44.995  1.00  0.00     0.211 HD
ENDBRANCH  33  40
BRANCH  35  42
ATOM     42  O   UNL     1      35.233   6.360  42.805  1.00  0.00    -0.385 OA
ATOM     43  H   UNL     1      34.761   7.050  43.337  1.00  0.00     0.211 HD
ENDBRANCH  35  42
BRANCH  36  44
ATOM     44  O   UNL     1      37.217   7.886  43.437  1.00  0.00    -0.366 OA
ATOM     45  H   UNL     1      36.418   8.125  44.034  1.00  0.00     0.213 HD
ENDBRANCH  36  44
ENDBRANCH  30  31
ENDBRANCH   4  30
TORSDOF 18
ENDMDL
MODEL 6
REMARK VINA RESULT:    -5.377      1.689      6.471
REMARK INTER + INTRA:         -11.594
REMARK INTER:                  -8.771
REMARK INTRA:                  -2.823
REMARK UNBOUND:                -2.288
REMARK SMILES OC[C@@H]1O[C@H](O[C@@H]2[C@@H](O)[C@H](O)[C@H](O[C@@H]3[C@@H](O)[C@H](O)[C@H](O)O[C@H]3CO)O[C@H]2CO)[C@H](O)[C@@H](O)[C@H]1O
REMARK SMILES IDX 7 1 26 2 25 3 12 4 10 5 8 6 6 7 5 8 3 9 33 10 4 11 31 12
REMARK SMILES IDX 29 13 2 14 1 15 34 17 32 19 30 21 27 23 28 24 9 26 11 28
REMARK SMILES IDX 13 30 14 31 22 32 15 33 21 34 17 35 19 36 23 37 24 38 16 40
REMARK SMILES IDX 18 42 20 44
REMARK H PARENT 1 16 34 18 32 20 30 22 28 25 9 27 11 29 24 39 16 41 18 43
REMARK H PARENT 20 45
REMARK Flexibility Score: inf
ROOT
ATOM      1  C   UNL     1      37.418   1.313  43.288  1.00  0.00     0.184 C 
ATOM      2  C   UNL     1      36.182   0.844  42.497  1.00  0.00     0.178 C 
ATOM      3  O   UNL     1      36.563   0.532  41.182  1.00  0.00    -0.341 OA
ATOM      4  C   UNL     1      37.395  -0.612  41.049  1.00  0.00     0.282 C 
ATOM      5  C   UNL     1      38.342  -0.953  42.254  1.00  0.00     0.202 C 
ATOM      6  C   UNL     1      38.531   0.206  43.250  1.00  0.00     0.180 C 
ENDROOT
BRANCH   1   7
ATOM      7  O   UNL     1      37.851   2.582  42.765  1.00  0.00    -0.341 OA
BRANCH   7   8
ATOM      8  C   UNL     1      36.962   3.736  42.778  1.00  0.00     0.282 C 
ATOM      9  C   UNL     1      38.805   5.279  43.191  1.00  0.00     0.178 C 
ATOM     10  C   UNL     1      38.861   5.671  41.677  1.00  0.00     0.177 C 
ATOM     11  O   UNL     1      37.552   4.710  43.644  1.00  0.00    -0.341 OA
ATOM     12  C   UNL     1      38.174   4.590  40.810  1.00  0.00     0.179 C 
ATOM     13  C   UNL     1      36.802   4.306  41.357  1.00  0.00     0.202 C 
BRANCH   9  14
ATOM     14  C   UNL     1      40.002   4.366  43.636  1.00  0.00     0.191 C 
BRANCH  14  15
ATOM     15  O   UNL     1      39.718   3.576  44.762  1.00  0.00    -0.394 OA
ATOM     16  H   UNL     1      39.586   4.195  45.549  1.00  0.00     0.210 HD
ENDBRANCH  14  15
ENDBRANCH   9  14
BRANCH  10  17
ATOM     17  O   UNL     1      38.204   6.921  41.559  1.00  0.00    -0.387 OA
ATOM     18  H   UNL     1      37.224   6.797  41.749  1.00  0.00     0.211 HD
ENDBRANCH  10  17
BRANCH  12  19
ATOM     19  O   UNL     1      38.173   4.945  39.454  1.00  0.00    -0.387 OA
ATOM     20  H   UNL     1      38.801   4.301  38.955  1.00  0.00     0.211 HD
ENDBRANCH  12  19
BRANCH  13  21
ATOM     21  O   UNL     1      36.130   3.391  40.510  1.00  0.00    -0.385 OA
ATOM     22  H   UNL     1      35.138   3.484  40.693  1.00  0.00     0.211 HD
ENDBRANCH  13  21
ENDBRANCH   7   8
ENDBRANCH   1   7
BRANCH   2  23
ATOM     23  C   UNL     1      35.282  -0.228  43.178  1.00  0.00     0.191 C 
BRANCH  23  24
ATOM     24  O   UNL     1      34.078   0.232  43.744  1.00  0.00    -0.394 OA
ATOM     25  H   UNL     1      34.215   0.218  44.732  1.00  0.00     0.210 HD
ENDBRANCH  23  24
ENDBRANCH   2  23
BRANCH   6  26
ATOM     26  O   UNL     1      38.765  -0.299  44.544  1.00  0.00    -0.387 OA
ATOM     27  H   UNL     1      37.981  -0.041  45.123  1.00  0.00     0.211 HD
ENDBRANCH   6  26
BRANCH   5  28
ATOM     28  O   UNL     1      39.605  -1.420  41.822  1.00  0.00    -0.385 OA
ATOM     29  H   UNL     1      40.266  -0.720  42.078  1.00  0.00     0.211 HD
ENDBRANCH   5  28
BRANCH   4  30
ATOM     30  O   UNL     1      38.162  -0.466  39.857  1.00  0.00    -0.341 OA
BRANCH  30  31
ATOM     31  C   UNL     1      37.448   0.297  38.863  1.00  0.00     0.184 C 
ATOM     32  C   UNL     1      38.461   1.214  38.175  1.00  0.00     0.178 C 
ATOM     33  C   UNL     1      36.810  -0.689  37.883  1.00  0.00     0.180 C 
ATOM     34  O   UNL     1      39.523   0.415  37.615  1.00  0.00    -0.342 OA
ATOM     35  C   UNL     1      37.807  -1.285  36.871  1.00  0.00     0.201 C 
ATOM     36  C   UNL     1      39.073  -0.400  36.555  1.00  0.00     0.279 C 
BRANCH  32  37
ATOM     37  C   UNL     1      37.906   2.420  37.307  1.00  0.00     0.191 C 
BRANCH  37  38
ATOM     38  O   UNL     1      36.621   2.882  37.682  1.00  0.00    -0.394 OA
ATOM     39  H   UNL     1      35.949   2.240  37.310  1.00  0.00     0.210 HD
ENDBRANCH  37  38
ENDBRANCH  32  37
BRANCH  33  40
ATOM     40  O   UNL     1      35.751  -0.055  37.188  1.00  0.00    -0.387 OA
ATOM     41  H   UNL     1      35.486   0.730  37.737  1.00  0.00     0.211 HD
ENDBRANCH  33  40
BRANCH  35  42
ATOM     42  O   UNL     1      38.223  -2.548  37.350  1.00  0.00    -0.385 OA
ATOM     43  H   UNL     1      37.553  -2.839  38.019  1.00  0.00     0.211 HD
ENDBRANCH  35  42
BRANCH  36  44
ATOM     44  O   UNL     1      40.122  -1.282  36.142  1.00  0.00    -0.366 OA
ATOM     45  H   UNL     1      40.176  -2.033  36.840  1.00  0.00     0.213 HD
ENDBRANCH  36  44
ENDBRANCH  30  31
ENDBRANCH   4  30
TORSDOF 18
ENDMDL
MODEL 7
REMARK VINA RESULT:    -5.357      1.885      5.727
REMARK INTER + INTRA:         -11.559
REMARK INTER:                 -10.321
REMARK INTRA:                  -1.238
REMARK UNBOUND:                -2.288
REMARK SMILES OC[C@@H]1O[C@H](O[C@@H]2[C@@H](O)[C@H](O)[C@H](O[C@@H]3[C@@H](O)[C@H](O)[C@H](O)O[C@H]3CO)O[C@H]2CO)[C@H](O)[C@@H](O)[C@H]1O
REMARK SMILES IDX 7 1 26 2 25 3 12 4 10 5 8 6 6 7 5 8 3 9 33 10 4 11 31 12
REMARK SMILES IDX 29 13 2 14 1 15 34 17 32 19 30 21 27 23 28 24 9 26 11 28
REMARK SMILES IDX 13 30 14 31 22 32 15 33 21 34 17 35 19 36 23 37 24 38 16 40
REMARK SMILES IDX 18 42 20 44
REMARK H PARENT 1 16 34 18 32 20 30 22 28 25 9 27 11 29 24 39 16 41 18 43
REMARK H PARENT 20 45
REMARK Flexibility Score: inf
ROOT
ATOM      1  C   UNL     1      38.007   3.771  42.314  1.00  0.00     0.184 C 
ATOM      2  C   UNL     1      36.532   3.455  42.004  1.00  0.00     0.178 C 
ATOM      3  O   UNL     1      36.279   2.101  42.281  1.00  0.00    -0.341 OA
ATOM      4  C   UNL     1      36.329   1.746  43.655  1.00  0.00     0.282 C 
ATOM      5  C   UNL     1      37.287   2.582  44.577  1.00  0.00     0.202 C 
ATOM      6  C   UNL     1      38.332   3.410  43.807  1.00  0.00     0.180 C 
ENDROOT
BRANCH   1   7
ATOM      7  O   UNL     1      38.840   3.083  41.362  1.00  0.00    -0.341 OA
BRANCH   7   8
ATOM      8  C   UNL     1      40.035   3.716  40.823  1.00  0.00     0.282 C 
ATOM      9  C   UNL     1      39.053   3.911  38.598  1.00  0.00     0.178 C 
ATOM     10  C   UNL     1      38.693   5.412  38.852  1.00  0.00     0.177 C 
ATOM     11  O   UNL     1      40.105   3.370  39.436  1.00  0.00    -0.341 OA
ATOM     12  C   UNL     1      38.671   5.718  40.367  1.00  0.00     0.179 C 
ATOM     13  C   UNL     1      39.956   5.244  40.992  1.00  0.00     0.202 C 
BRANCH   9  14
ATOM     14  C   UNL     1      37.803   2.962  38.627  1.00  0.00     0.191 C 
BRANCH  14  15
ATOM     15  O   UNL     1      37.073   2.956  37.428  1.00  0.00    -0.394 OA
ATOM     16  H   UNL     1      37.634   2.494  36.726  1.00  0.00     0.210 HD
ENDBRANCH  14  15
ENDBRANCH   9  14
BRANCH  10  17
ATOM     17  O   UNL     1      39.676   6.182  38.183  1.00  0.00    -0.387 OA
ATOM     18  H   UNL     1      39.954   5.703  37.344  1.00  0.00     0.211 HD
ENDBRANCH  10  17
BRANCH  12  19
ATOM     19  O   UNL     1      38.395   7.069  40.615  1.00  0.00    -0.387 OA
ATOM     20  H   UNL     1      38.962   7.634  39.968  1.00  0.00     0.211 HD
ENDBRANCH  12  19
BRANCH  13  21
ATOM     21  O   UNL     1      39.986   5.611  42.360  1.00  0.00    -0.385 OA
ATOM     22  H   UNL     1      40.576   4.941  42.838  1.00  0.00     0.211 HD
ENDBRANCH  13  21
ENDBRANCH   7   8
ENDBRANCH   1   7
BRANCH   2  23
ATOM     23  C   UNL     1      35.472   4.439  42.579  1.00  0.00     0.191 C 
BRANCH  23  24
ATOM     24  O   UNL     1      35.873   5.782  42.719  1.00  0.00    -0.394 OA
ATOM     25  H   UNL     1      35.326   6.302  42.067  1.00  0.00     0.210 HD
ENDBRANCH  23  24
ENDBRANCH   2  23
BRANCH   6  26
ATOM     26  O   UNL     1      38.660   4.573  44.532  1.00  0.00    -0.387 OA
ATOM     27  H   UNL     1      38.854   5.306  43.869  1.00  0.00     0.211 HD
ENDBRANCH   6  26
BRANCH   5  28
ATOM     28  O   UNL     1      37.936   1.774  45.540  1.00  0.00    -0.385 OA
ATOM     29  H   UNL     1      37.388   0.947  45.629  1.00  0.00     0.211 HD
ENDBRANCH   5  28
BRANCH   4  30
ATOM     30  O   UNL     1      36.657   0.363  43.744  1.00  0.00    -0.341 OA
BRANCH  30  31
ATOM     31  C   UNL     1      37.345  -0.091  42.560  1.00  0.00     0.184 C 
ATOM     32  C   UNL     1      38.845  -0.042  42.855  1.00  0.00     0.178 C 
ATOM     33  C   UNL     1      36.867  -1.511  42.253  1.00  0.00     0.180 C 
ATOM     34  O   UNL     1      39.128  -0.851  44.014  1.00  0.00    -0.342 OA
ATOM     35  C   UNL     1      37.495  -2.583  43.164  1.00  0.00     0.201 C 
ATOM     36  C   UNL     1      38.904  -2.223  43.773  1.00  0.00     0.279 C 
BRANCH  32  37
ATOM     37  C   UNL     1      39.849  -0.128  41.630  1.00  0.00     0.191 C 
BRANCH  37  38
ATOM     38  O   UNL     1      39.321   0.320  40.394  1.00  0.00    -0.394 OA
ATOM     39  H   UNL     1      38.886   1.207  40.556  1.00  0.00     0.210 HD
ENDBRANCH  37  38
ENDBRANCH  32  37
BRANCH  33  40
ATOM     40  O   UNL     1      37.135  -1.825  40.898  1.00  0.00    -0.387 OA
ATOM     41  H   UNL     1      36.259  -2.045  40.483  1.00  0.00     0.211 HD
ENDBRANCH  33  40
BRANCH  35  42
ATOM     42  O   UNL     1      36.588  -2.863  44.211  1.00  0.00    -0.385 OA
ATOM     43  H   UNL     1      36.681  -2.135  44.877  1.00  0.00     0.211 HD
ENDBRANCH  35  42
BRANCH  36  44
ATOM     44  O   UNL     1      39.046  -2.960  44.991  1.00  0.00    -0.366 OA
ATOM     45  H   UNL     1      38.930  -2.293  45.762  1.00  0.00     0.213 HD
ENDBRANCH  36  44
ENDBRANCH  30  31
ENDBRANCH   4  30
TORSDOF 18
ENDMDL
MODEL 8
REMARK VINA RESULT:    -5.309      1.589      6.098
REMARK INTER + INTRA:         -11.475
REMARK INTER:                  -9.584
REMARK INTRA:                  -1.891
REMARK UNBOUND:                -2.288
REMARK SMILES OC[C@@H]1O[C@H](O[C@@H]2[C@@H](O)[C@H](O)[C@H](O[C@@H]3[C@@H](O)[C@H](O)[C@H](O)O[C@H]3CO)O[C@H]2CO)[C@H](O)[C@@H](O)[C@H]1O
REMARK SMILES IDX 7 1 26 2 25 3 12 4 10 5 8 6 6 7 5 8 3 9 33 10 4 11 31 12
REMARK SMILES IDX 29 13 2 14 1 15 34 17 32 19 30 21 27 23 28 24 9 26 11 28
REMARK SMILES IDX 13 30 14 31 22 32 15 33 21 34 17 35 19 36 23 37 24 38 16 40
REMARK SMILES IDX 18 42 20 44
REMARK H PARENT 1 16 34 18 32 20 30 22 28 25 9 27 11 29 24 39 16 41 18 43
REMARK H PARENT 20 45
REMARK Flexibility Score: inf
ROOT
ATOM      1  C   UNL     1      37.257   1.674  43.989  1.00  0.00     0.184 C 
ATOM      2  C   UNL     1      36.187   1.190  42.993  1.00  0.00     0.178 C 
ATOM      3  O   UNL     1      36.740   1.149  41.702  1.00  0.00    -0.341 OA
ATOM      4  C   UNL     1      37.736   0.156  41.503  1.00  0.00     0.282 C 
ATOM      5  C   UNL     1      38.596  -0.256  42.750  1.00  0.00     0.202 C 
ATOM      6  C   UNL     1      38.516   0.738  43.923  1.00  0.00     0.180 C 
ENDROOT
BRANCH   1   7
ATOM      7  O   UNL     1      37.553   3.056  43.718  1.00  0.00    -0.341 OA
BRANCH   7   8
ATOM      8  C   UNL     1      38.737   3.429  42.955  1.00  0.00     0.282 C 
ATOM      9  C   UNL     1      37.480   5.004  41.580  1.00  0.00     0.178 C 
ATOM     10  C   UNL     1      37.980   6.209  42.442  1.00  0.00     0.177 C 
ATOM     11  O   UNL     1      38.294   3.806  41.648  1.00  0.00    -0.341 OA
ATOM     12  C   UNL     1      38.475   5.721  43.824  1.00  0.00     0.179 C 
ATOM     13  C   UNL     1      39.465   4.603  43.635  1.00  0.00     0.202 C 
BRANCH   9  14
ATOM     14  C   UNL     1      35.973   4.645  41.833  1.00  0.00     0.191 C 
BRANCH  14  15
ATOM     15  O   UNL     1      35.216   5.716  42.332  1.00  0.00    -0.394 OA
ATOM     16  H   UNL     1      34.342   5.344  42.676  1.00  0.00     0.210 HD
ENDBRANCH  14  15
ENDBRANCH   9  14
BRANCH  10  17
ATOM     17  O   UNL     1      39.022   6.827  41.709  1.00  0.00    -0.387 OA
ATOM     18  H   UNL     1      39.446   6.145  41.103  1.00  0.00     0.211 HD
ENDBRANCH  10  17
BRANCH  12  19
ATOM     19  O   UNL     1      38.969   6.781  44.596  1.00  0.00    -0.387 OA
ATOM     20  H   UNL     1      39.239   7.541  43.958  1.00  0.00     0.211 HD
ENDBRANCH  12  19
BRANCH  13  21
ATOM     21  O   UNL     1      39.997   4.220  44.891  1.00  0.00    -0.385 OA
ATOM     22  H   UNL     1      40.638   3.454  44.724  1.00  0.00     0.211 HD
ENDBRANCH  13  21
ENDBRANCH   7   8
ENDBRANCH   1   7
BRANCH   2  23
ATOM     23  C   UNL     1      35.387  -0.084  43.391  1.00  0.00     0.191 C 
BRANCH  23  24
ATOM     24  O   UNL     1      34.046   0.112  43.775  1.00  0.00    -0.394 OA
ATOM     25  H   UNL     1      33.779   0.996  43.400  1.00  0.00     0.210 HD
ENDBRANCH  23  24
ENDBRANCH   2  23
BRANCH   6  26
ATOM     26  O   UNL     1      38.689   0.061  45.146  1.00  0.00    -0.387 OA
ATOM     27  H   UNL     1      39.640  -0.270  45.184  1.00  0.00     0.211 HD
ENDBRANCH   6  26
BRANCH   5  28
ATOM     28  O   UNL     1      39.950  -0.483  42.411  1.00  0.00    -0.385 OA
ATOM     29  H   UNL     1      40.474   0.250  42.838  1.00  0.00     0.211 HD
ENDBRANCH   5  28
BRANCH   4  30
ATOM     30  O   UNL     1      38.591   0.592  40.449  1.00  0.00    -0.341 OA
BRANCH  30  31
ATOM     31  C   UNL     1      38.560  -0.325  39.336  1.00  0.00     0.184 C 
ATOM     32  C   UNL     1      37.124  -0.361  38.811  1.00  0.00     0.178 C 
ATOM     33  C   UNL     1      39.543   0.185  38.280  1.00  0.00     0.180 C 
ATOM     34  O   UNL     1      36.715   0.974  38.452  1.00  0.00    -0.342 OA
ATOM     35  C   UNL     1      39.005   1.373  37.460  1.00  0.00     0.201 C 
ATOM     36  C   UNL     1      37.436   1.471  37.345  1.00  0.00     0.279 C 
BRANCH  32  37
ATOM     37  C   UNL     1      36.714  -1.547  37.841  1.00  0.00     0.191 C 
BRANCH  37  38
ATOM     38  O   UNL     1      37.552  -2.687  37.906  1.00  0.00    -0.394 OA
ATOM     39  H   UNL     1      38.068  -2.731  37.050  1.00  0.00     0.210 HD
ENDBRANCH  37  38
ENDBRANCH  32  37
BRANCH  33  40
ATOM     40  O   UNL     1      39.898  -0.872  37.406  1.00  0.00    -0.387 OA
ATOM     41  H   UNL     1      39.328  -1.646  37.657  1.00  0.00     0.211 HD
ENDBRANCH  33  40
BRANCH  35  42
ATOM     42  O   UNL     1      39.511   2.567  38.024  1.00  0.00    -0.385 OA
ATOM     43  H   UNL     1      39.726   3.174  37.271  1.00  0.00     0.211 HD
ENDBRANCH  35  42
BRANCH  36  44
ATOM     44  O   UNL     1      37.106   2.847  37.130  1.00  0.00    -0.366 OA
ATOM     45  H   UNL     1      36.460   3.123  37.878  1.00  0.00     0.213 HD
ENDBRANCH  36  44
ENDBRANCH  30  31
ENDBRANCH   4  30
TORSDOF 18
ENDMDL
MODEL 9
REMARK VINA RESULT:    -5.296      1.560      6.312
REMARK INTER + INTRA:         -11.453
REMARK INTER:                  -8.774
REMARK INTRA:                  -2.679
REMARK UNBOUND:                -2.288
REMARK SMILES OC[C@@H]1O[C@H](O[C@@H]2[C@@H](O)[C@H](O)[C@H](O[C@@H]3[C@@H](O)[C@H](O)[C@H](O)O[C@H]3CO)O[C@H]2CO)[C@H](O)[C@@H](O)[C@H]1O
REMARK SMILES IDX 7 1 26 2 25 3 12 4 10 5 8 6 6 7 5 8 3 9 33 10 4 11 31 12
REMARK SMILES IDX 29 13 2 14 1 15 34 17 32 19 30 21 27 23 28 24 9 26 11 28
REMARK SMILES IDX 13 30 14 31 22 32 15 33 21 34 17 35 19 36 23 37 24 38 16 40
REMARK SMILES IDX 18 42 20 44
REMARK H PARENT 1 16 34 18 32 20 30 22 28 25 9 27 11 29 24 39 16 41 18 43
REMARK H PARENT 20 45
REMARK Flexibility Score: inf
ROOT
ATOM      1  C   UNL     1      38.066   2.757  39.425  1.00  0.00     0.184 C 
ATOM      2  C   UNL     1      39.494   2.182  39.370  1.00  0.00     0.178 C 
ATOM      3  O   UNL     1      39.564   1.036  40.178  1.00  0.00    -0.341 OA
ATOM      4  C   UNL     1      38.824  -0.082  39.707  1.00  0.00     0.282 C 
ATOM      5  C   UNL     1      37.537   0.216  38.859  1.00  0.00     0.202 C 
ATOM      6  C   UNL     1      37.029   1.665  38.980  1.00  0.00     0.180 C 
ENDROOT
BRANCH   1   7
ATOM      7  O   UNL     1      37.824   3.275  40.746  1.00  0.00    -0.341 OA
BRANCH   7   8
ATOM      8  C   UNL     1      38.621   4.374  41.273  1.00  0.00     0.282 C 
ATOM      9  C   UNL     1      36.681   5.409  42.330  1.00  0.00     0.178 C 
ATOM     10  C   UNL     1      37.073   4.806  43.719  1.00  0.00     0.177 C 
ATOM     11  O   UNL     1      37.758   5.512  41.366  1.00  0.00    -0.341 OA
ATOM     12  C   UNL     1      38.032   3.606  43.540  1.00  0.00     0.179 C 
ATOM     13  C   UNL     1      39.183   4.012  42.660  1.00  0.00     0.202 C 
BRANCH   9  14
ATOM     14  C   UNL     1      35.442   4.700  41.677  1.00  0.00     0.191 C 
BRANCH  14  15
ATOM     15  O   UNL     1      35.065   3.514  42.326  1.00  0.00    -0.394 OA
ATOM     16  H   UNL     1      35.517   2.745  41.853  1.00  0.00     0.210 HD
ENDBRANCH  14  15
ENDBRANCH   9  14
BRANCH  10  17
ATOM     17  O   UNL     1      37.685   5.851  44.454  1.00  0.00    -0.387 OA
ATOM     18  H   UNL     1      37.950   6.587  43.822  1.00  0.00     0.211 HD
ENDBRANCH  10  17
BRANCH  12  19
ATOM     19  O   UNL     1      38.432   3.080  44.776  1.00  0.00    -0.387 OA
ATOM     20  H   UNL     1      37.736   3.356  45.481  1.00  0.00     0.211 HD
ENDBRANCH  12  19
BRANCH  13  21
ATOM     21  O   UNL     1      40.116   2.949  42.574  1.00  0.00    -0.385 OA
ATOM     22  H   UNL     1      40.797   3.086  43.311  1.00  0.00     0.211 HD
ENDBRANCH  13  21
ENDBRANCH   7   8
ENDBRANCH   1   7
BRANCH   2  23
ATOM     23  C   UNL     1      40.124   2.013  37.957  1.00  0.00     0.191 C 
BRANCH  23  24
ATOM     24  O   UNL     1      39.486   2.692  36.901  1.00  0.00    -0.394 OA
ATOM     25  H   UNL     1      39.936   2.386  36.065  1.00  0.00     0.210 HD
ENDBRANCH  23  24
ENDBRANCH   2  23
BRANCH   6  26
ATOM     26  O   UNL     1      36.387   2.055  37.788  1.00  0.00    -0.387 OA
ATOM     27  H   UNL     1      36.069   1.220  37.321  1.00  0.00     0.211 HD
ENDBRANCH   6  26
BRANCH   5  28
ATOM     28  O   UNL     1      36.485  -0.682  39.155  1.00  0.00    -0.385 OA
ATOM     29  H   UNL     1      36.174  -0.457  40.074  1.00  0.00     0.211 HD
ENDBRANCH   5  28
BRANCH   4  30
ATOM     30  O   UNL     1      38.488  -0.895  40.827  1.00  0.00    -0.341 OA
BRANCH  30  31
ATOM     31  C   UNL     1      38.298  -0.100  42.016  1.00  0.00     0.184 C 
ATOM     32  C   UNL     1      36.825  -0.210  42.410  1.00  0.00     0.178 C 
ATOM     33  C   UNL     1      39.225  -0.648  43.102  1.00  0.00     0.180 C 
ATOM     34  O   UNL     1      36.487  -1.599  42.604  1.00  0.00    -0.342 OA
ATOM     35  C   UNL     1      38.711  -1.945  43.754  1.00  0.00     0.201 C 
ATOM     36  C   UNL     1      37.149  -2.157  43.718  1.00  0.00     0.279 C 
BRANCH  32  37
ATOM     37  C   UNL     1      36.249   0.842  43.448  1.00  0.00     0.191 C 
BRANCH  37  38
ATOM     38  O   UNL     1      34.881   0.670  43.774  1.00  0.00    -0.394 OA
ATOM     39  H   UNL     1      34.384   1.460  43.414  1.00  0.00     0.210 HD
ENDBRANCH  37  38
ENDBRANCH  32  37
BRANCH  33  40
ATOM     40  O   UNL     1      39.427   0.336  44.101  1.00  0.00    -0.387 OA
ATOM     41  H   UNL     1      40.317   0.149  44.502  1.00  0.00     0.211 HD
ENDBRANCH  33  40
BRANCH  35  42
ATOM     42  O   UNL     1      39.349  -3.040  43.127  1.00  0.00    -0.385 OA
ATOM     43  H   UNL     1      38.649  -3.538  42.632  1.00  0.00     0.211 HD
ENDBRANCH  35  42
BRANCH  36  44
ATOM     44  O   UNL     1      36.905  -3.566  43.771  1.00  0.00    -0.366 OA
ATOM     45  H   UNL     1      36.827  -3.821  44.762  1.00  0.00     0.213 HD
ENDBRANCH  36  44
ENDBRANCH  30  31
ENDBRANCH   4  30
TORSDOF 18
ENDMDL
