MODEL 1
REMARK VINA RESULT:    -7.242      0.000      0.000
REMARK INTER + INTRA:          -9.512
REMARK INTER:                  -8.935
REMARK INTRA:                  -0.577
REMARK UNBOUND:                -0.577
REMARK SMILES CC(C)=CCC[C@H](C)c1ccc(C)cc1
REMARK SMILES IDX 6 1 7 2 8 3 9 4 13 5 12 6 11 7 14 8 10 9 15 10 5 11 4 12
REMARK SMILES IDX 2 13 1 14 3 15
REMARK H PARENT
REMARK Flexibility Score: inf
ROOT
ATOM      1  C   UNL     1     -37.514  19.167 -10.015  1.00  0.00     0.012 C 
ENDROOT
BRANCH   1   2
ATOM      2  C   UNL     1     -36.040  18.869  -9.640  1.00  0.00     0.016 C 
ATOM      3  C   UNL     1     -35.767  19.244  -8.177  1.00  0.00     0.013 C 
BRANCH   2   4
ATOM      4  C   UNL     1     -35.054  19.581 -10.550  1.00  0.00    -0.045 A 
ATOM      5  C   UNL     1     -32.216  21.479 -13.195  1.00  0.00     0.044 C 
ATOM      6  C   UNL     1     -33.201  20.855 -12.252  1.00  0.00    -0.051 A 
ATOM      7  C   UNL     1     -32.754  20.070 -11.180  1.00  0.00     0.004 A 
ATOM      8  C   UNL     1     -34.578  20.991 -12.478  1.00  0.00     0.004 A 
ATOM      9  C   UNL     1     -33.672  19.448 -10.330  1.00  0.00     0.004 A 
ATOM     10  C   UNL     1     -35.498  20.369 -11.630  1.00  0.00     0.004 A 
ENDBRANCH   2   4
ENDBRANCH   1   2
BRANCH   1  11
ATOM     11  C   UNL     1     -38.215  18.011 -10.753  1.00  0.00     0.028 C 
BRANCH  11  12
ATOM     12  C   UNL     1     -39.145  18.475 -11.849  1.00  0.00    -0.028 C 
ATOM     13  C   UNL     1     -40.487  18.322 -11.844  1.00  0.00    -0.080 C 
ATOM     14  C   UNL     1     -41.214  17.604 -10.731  1.00  0.00     0.039 C 
ATOM     15  C   UNL     1     -41.272  18.867 -13.009  1.00  0.00     0.039 C 
ENDBRANCH  11  12
ENDBRANCH   1  11
TORSDOF 4
ENDMDL
MODEL 2
REMARK VINA RESULT:    -6.729      1.364      6.727
REMARK INTER + INTRA:          -8.879
REMARK INTER:                  -8.134
REMARK INTRA:                  -0.745
REMARK UNBOUND:                -0.577
REMARK SMILES CC(C)=CCC[C@H](C)c1ccc(C)cc1
REMARK SMILES IDX 6 1 7 2 8 3 9 4 13 5 12 6 11 7 14 8 10 9 15 10 5 11 4 12
REMARK SMILES IDX 2 13 1 14 3 15
REMARK H PARENT
REMARK Flexibility Score: inf
ROOT
ATOM      1  C   UNL     1     -35.055  20.407 -11.684  1.00  0.00     0.012 C 
ENDROOT
BRANCH   1   2
ATOM      2  C   UNL     1     -35.729  19.530 -12.769  1.00  0.00     0.016 C 
ATOM      3  C   UNL     1     -35.872  20.310 -14.083  1.00  0.00     0.013 C 
BRANCH   2   4
ATOM      4  C   UNL     1     -37.084  19.001 -12.330  1.00  0.00    -0.045 A 
ATOM      5  C   UNL     1     -40.959  17.622 -11.016  1.00  0.00     0.044 C 
ATOM      6  C   UNL     1     -39.602  18.060 -11.479  1.00  0.00    -0.051 A 
ATOM      7  C   UNL     1     -38.557  18.216 -10.558  1.00  0.00     0.004 A 
ATOM      8  C   UNL     1     -39.388  18.388 -12.825  1.00  0.00     0.004 A 
ATOM      9  C   UNL     1     -37.305  18.672 -10.982  1.00  0.00     0.004 A 
ATOM     10  C   UNL     1     -38.138  18.845 -13.250  1.00  0.00     0.004 A 
ENDBRANCH   2   4
ENDBRANCH   1   2
BRANCH   1  11
ATOM     11  C   UNL     1     -33.533  20.196 -11.568  1.00  0.00     0.028 C 
BRANCH  11  12
ATOM     12  C   UNL     1     -32.725  21.219 -12.332  1.00  0.00    -0.028 C 
ATOM     13  C   UNL     1     -31.933  20.948 -13.392  1.00  0.00    -0.080 C 
ATOM     14  C   UNL     1     -31.726  19.542 -13.906  1.00  0.00     0.039 C 
ATOM     15  C   UNL     1     -31.214  22.092 -14.057  1.00  0.00     0.039 C 
ENDBRANCH  11  12
ENDBRANCH   1  11
TORSDOF 4
ENDMDL
MODEL 3
REMARK VINA RESULT:    -6.712      1.463      2.245
REMARK INTER + INTRA:          -8.859
REMARK INTER:                  -8.097
REMARK INTRA:                  -0.762
REMARK UNBOUND:                -0.577
REMARK SMILES CC(C)=CCC[C@H](C)c1ccc(C)cc1
REMARK SMILES IDX 6 1 7 2 8 3 9 4 13 5 12 6 11 7 14 8 10 9 15 10 5 11 4 12
REMARK SMILES IDX 2 13 1 14 3 15
REMARK H PARENT
REMARK Flexibility Score: inf
ROOT
ATOM      1  C   UNL     1     -36.750  18.244 -11.326  1.00  0.00     0.012 C 
ENDROOT
BRANCH   1   2
ATOM      2  C   UNL     1     -36.808  19.384 -12.374  1.00  0.00     0.016 C 
ATOM      3  C   UNL     1     -37.403  18.876 -13.694  1.00  0.00     0.013 C 
BRANCH   2   4
ATOM      4  C   UNL     1     -35.446  20.010 -12.625  1.00  0.00    -0.045 A 
ATOM      5  C   UNL     1     -31.518  21.661 -13.329  1.00  0.00     0.044 C 
ATOM      6  C   UNL     1     -32.896  21.127 -13.075  1.00  0.00    -0.051 A 
ATOM      7  C   UNL     1     -33.248  20.653 -11.803  1.00  0.00     0.004 A 
ATOM      8  C   UNL     1     -33.820  21.029 -14.125  1.00  0.00     0.004 A 
ATOM      9  C   UNL     1     -34.515  20.110 -11.577  1.00  0.00     0.004 A 
ATOM     10  C   UNL     1     -35.088  20.485 -13.901  1.00  0.00     0.004 A 
ENDBRANCH   2   4
ENDBRANCH   1   2
BRANCH   1  11
ATOM     11  C   UNL     1     -37.615  18.501 -10.077  1.00  0.00     0.028 C 
BRANCH  11  12
ATOM     12  C   UNL     1     -38.941  19.153 -10.388  1.00  0.00    -0.028 C 
ATOM     13  C   UNL     1     -40.125  18.506 -10.462  1.00  0.00    -0.080 C 
ATOM     14  C   UNL     1     -40.240  17.010 -10.288  1.00  0.00     0.039 C 
ATOM     15  C   UNL     1     -41.362  19.313 -10.759  1.00  0.00     0.039 C 
ENDBRANCH  11  12
ENDBRANCH   1  11
TORSDOF 4
ENDMDL
MODEL 4
REMARK VINA RESULT:    -6.700      1.430      6.664
REMARK INTER + INTRA:          -8.844
REMARK INTER:                  -8.447
REMARK INTRA:                  -0.397
REMARK UNBOUND:                -0.577
REMARK SMILES CC(C)=CCC[C@H](C)c1ccc(C)cc1
REMARK SMILES IDX 6 1 7 2 8 3 9 4 13 5 12 6 11 7 14 8 10 9 15 10 5 11 4 12
REMARK SMILES IDX 2 13 1 14 3 15
REMARK H PARENT
REMARK Flexibility Score: inf
ROOT
ATOM      1  C   UNL     1     -35.904  18.943 -11.958  1.00  0.00     0.012 C 
ENDROOT
BRANCH   1   2
ATOM      2  C   UNL     1     -37.055  18.375 -12.827  1.00  0.00     0.016 C 
ATOM      3  C   UNL     1     -37.279  19.250 -14.067  1.00  0.00     0.013 C 
BRANCH   2   4
ATOM      4  C   UNL     1     -38.353  18.234 -12.050  1.00  0.00    -0.045 A 
ATOM      5  C   UNL     1     -42.010  17.951  -9.769  1.00  0.00     0.044 C 
ATOM      6  C   UNL     1     -40.745  18.008 -10.573  1.00  0.00    -0.051 A 
ATOM      7  C   UNL     1     -39.510  17.733  -9.968  1.00  0.00     0.004 A 
ATOM      8  C   UNL     1     -40.779  18.409 -11.916  1.00  0.00     0.004 A 
ATOM      9  C   UNL     1     -38.326  17.834 -10.703  1.00  0.00     0.004 A 
ATOM     10  C   UNL     1     -39.596  18.512 -12.652  1.00  0.00     0.004 A 
ENDBRANCH   2   4
ENDBRANCH   1   2
BRANCH   1  11
ATOM     11  C   UNL     1     -35.774  20.477 -12.020  1.00  0.00     0.028 C 
BRANCH  11  12
ATOM     12  C   UNL     1     -34.528  20.946 -12.733  1.00  0.00    -0.028 C 
ATOM     13  C   UNL     1     -33.269  20.823 -12.257  1.00  0.00    -0.080 C 
ATOM     14  C   UNL     1     -32.975  20.232 -10.898  1.00  0.00     0.039 C 
ATOM     15  C   UNL     1     -32.132  21.323 -13.109  1.00  0.00     0.039 C 
ENDBRANCH  11  12
ENDBRANCH   1  11
TORSDOF 4
ENDMDL
MODEL 5
REMARK VINA RESULT:    -6.692     16.642     19.371
REMARK INTER + INTRA:          -8.834
REMARK INTER:                  -7.303
REMARK INTRA:                  -1.530
REMARK UNBOUND:                -0.577
REMARK SMILES CC(C)=CCC[C@H](C)c1ccc(C)cc1
REMARK SMILES IDX 6 1 7 2 8 3 9 4 13 5 12 6 11 7 14 8 10 9 15 10 5 11 4 12
REMARK SMILES IDX 2 13 1 14 3 15
REMARK H PARENT
REMARK Flexibility Score: inf
ROOT
ATOM      1  C   UNL     1     -25.744  16.251   5.370  1.00  0.00     0.012 C 
ENDROOT
BRANCH   1   2
ATOM      2  C   UNL     1     -24.201  16.112   5.394  1.00  0.00     0.016 C 
ATOM      3  C   UNL     1     -23.534  17.491   5.473  1.00  0.00     0.013 C 
BRANCH   2   4
ATOM      4  C   UNL     1     -23.669  15.346   4.194  1.00  0.00    -0.045 A 
ATOM      5  C   UNL     1     -22.240  13.249   0.700  1.00  0.00     0.044 C 
ATOM      6  C   UNL     1     -22.721  13.945   1.938  1.00  0.00    -0.051 A 
ATOM      7  C   UNL     1     -24.025  13.732   2.407  1.00  0.00     0.004 A 
ATOM      8  C   UNL     1     -21.896  14.870   2.593  1.00  0.00     0.004 A 
ATOM      9  C   UNL     1     -24.491  14.418   3.532  1.00  0.00     0.004 A 
ATOM     10  C   UNL     1     -22.361  15.558   3.717  1.00  0.00     0.004 A 
ENDBRANCH   2   4
ENDBRANCH   1   2
BRANCH   1  11
ATOM     11  C   UNL     1     -26.243  17.531   4.673  1.00  0.00     0.028 C 
BRANCH  11  12
ATOM     12  C   UNL     1     -26.894  17.272   3.334  1.00  0.00    -0.028 C 
ATOM     13  C   UNL     1     -26.293  17.433   2.135  1.00  0.00    -0.080 C 
ATOM     14  C   UNL     1     -24.881  17.954   2.003  1.00  0.00     0.039 C 
ATOM     15  C   UNL     1     -27.079  17.104   0.893  1.00  0.00     0.039 C 
ENDBRANCH  11  12
ENDBRANCH   1  11
TORSDOF 4
ENDMDL
MODEL 6
REMARK VINA RESULT:    -6.572     16.024     18.730
REMARK INTER + INTRA:          -8.686
REMARK INTER:                  -7.960
REMARK INTRA:                  -0.726
REMARK UNBOUND:                -0.577
REMARK SMILES CC(C)=CCC[C@H](C)c1ccc(C)cc1
REMARK SMILES IDX 6 1 7 2 8 3 9 4 13 5 12 6 11 7 14 8 10 9 15 10 5 11 4 12
REMARK SMILES IDX 2 13 1 14 3 15
REMARK H PARENT
REMARK Flexibility Score: inf
ROOT
ATOM      1  C   UNL     1     -26.577  16.487   4.607  1.00  0.00     0.012 C 
ENDROOT
BRANCH   1   2
ATOM      2  C   UNL     1     -25.251  15.873   5.122  1.00  0.00     0.016 C 
ATOM      3  C   UNL     1     -24.378  16.948   5.783  1.00  0.00     0.013 C 
BRANCH   2   4
ATOM      4  C   UNL     1     -24.470  15.174   4.023  1.00  0.00    -0.045 A 
ATOM      5  C   UNL     1     -22.263  13.303   0.817  1.00  0.00     0.044 C 
ATOM      6  C   UNL     1     -23.036  13.914   1.947  1.00  0.00    -0.051 A 
ATOM      7  C   UNL     1     -24.417  14.122   1.828  1.00  0.00     0.004 A 
ATOM      8  C   UNL     1     -22.371  14.349   3.102  1.00  0.00     0.004 A 
ATOM      9  C   UNL     1     -25.130  14.736   2.862  1.00  0.00     0.004 A 
ATOM     10  C   UNL     1     -23.082  14.965   4.136  1.00  0.00     0.004 A 
ENDBRANCH   2   4
ENDBRANCH   1   2
BRANCH   1  11
ATOM     11  C   UNL     1     -26.447  17.948   4.138  1.00  0.00     0.028 C 
BRANCH  11  12
ATOM     12  C   UNL     1     -27.735  18.523   3.598  1.00  0.00    -0.028 C 
ATOM     13  C   UNL     1     -28.208  18.328   2.348  1.00  0.00    -0.080 C 
ATOM     14  C   UNL     1     -27.448  17.531   1.313  1.00  0.00     0.039 C 
ATOM     15  C   UNL     1     -29.527  18.955   1.977  1.00  0.00     0.039 C 
ENDBRANCH  11  12
ENDBRANCH   1  11
TORSDOF 4
ENDMDL
MODEL 7
REMARK VINA RESULT:    -6.477     15.286     18.550
REMARK INTER + INTRA:          -8.568
REMARK INTER:                  -7.818
REMARK INTRA:                  -0.751
REMARK UNBOUND:                -0.577
REMARK SMILES CC(C)=CCC[C@H](C)c1ccc(C)cc1
REMARK SMILES IDX 6 1 7 2 8 3 9 4 13 5 12 6 11 7 14 8 10 9 15 10 5 11 4 12
REMARK SMILES IDX 2 13 1 14 3 15
REMARK H PARENT
REMARK Flexibility Score: inf
ROOT
ATOM      1  C   UNL     1     -25.339  15.487   3.682  1.00  0.00     0.012 C 
ENDROOT
BRANCH   1   2
ATOM      2  C   UNL     1     -25.247  16.836   2.926  1.00  0.00     0.016 C 
ATOM      3  C   UNL     1     -24.286  17.793   3.642  1.00  0.00     0.013 C 
BRANCH   2   4
ATOM      4  C   UNL     1     -26.604  17.497   2.752  1.00  0.00    -0.045 A 
ATOM      5  C   UNL     1     -30.396  19.504   2.254  1.00  0.00     0.044 C 
ATOM      6  C   UNL     1     -29.100  18.772   2.442  1.00  0.00    -0.051 A 
ATOM      7  C   UNL     1     -28.397  18.877   3.650  1.00  0.00     0.004 A 
ATOM      8  C   UNL     1     -28.545  18.038   1.384  1.00  0.00     0.004 A 
ATOM      9  C   UNL     1     -27.166  18.235   3.808  1.00  0.00     0.004 A 
ATOM     10  C   UNL     1     -27.313  17.398   1.540  1.00  0.00     0.004 A 
ENDBRANCH   2   4
ENDBRANCH   1   2
BRANCH   1  11
ATOM     11  C   UNL     1     -23.974  14.812   3.920  1.00  0.00     0.028 C 
BRANCH  11  12
ATOM     12  C   UNL     1     -23.544  13.910   2.787  1.00  0.00    -0.028 C 
ATOM     13  C   UNL     1     -22.593  14.209   1.876  1.00  0.00    -0.080 C 
ATOM     14  C   UNL     1     -21.875  15.539   1.865  1.00  0.00     0.039 C 
ATOM     15  C   UNL     1     -22.266  13.183   0.822  1.00  0.00     0.039 C 
ENDBRANCH  11  12
ENDBRANCH   1  11
TORSDOF 4
ENDMDL
MODEL 8
REMARK VINA RESULT:    -6.383     16.288     19.273
REMARK INTER + INTRA:          -8.452
REMARK INTER:                  -6.964
REMARK INTRA:                  -1.488
REMARK UNBOUND:                -0.577
REMARK SMILES CC(C)=CCC[C@H](C)c1ccc(C)cc1
REMARK SMILES IDX 6 1 7 2 8 3 9 4 13 5 12 6 11 7 14 8 10 9 15 10 5 11 4 12
REMARK SMILES IDX 2 13 1 14 3 15
REMARK H PARENT
REMARK Flexibility Score: inf
ROOT
ATOM      1  C   UNL     1     -22.517  16.397   4.457  1.00  0.00     0.012 C 
ENDROOT
BRANCH   1   2
ATOM      2  C   UNL     1     -23.788  17.198   4.834  1.00  0.00     0.016 C 
ATOM      3  C   UNL     1     -24.411  16.650   6.125  1.00  0.00     0.013 C 
BRANCH   2   4
ATOM      4  C   UNL     1     -24.823  17.202   3.721  1.00  0.00    -0.045 A 
ATOM      5  C   UNL     1     -27.689  17.110   0.492  1.00  0.00     0.044 C 
ATOM      6  C   UNL     1     -26.709  17.181   1.624  1.00  0.00    -0.051 A 
ATOM      7  C   UNL     1     -25.423  17.701   1.415  1.00  0.00     0.004 A 
ATOM      8  C   UNL     1     -27.044  16.659   2.882  1.00  0.00     0.004 A 
ATOM      9  C   UNL     1     -24.493  17.722   2.458  1.00  0.00     0.004 A 
ATOM     10  C   UNL     1     -26.114  16.678   3.924  1.00  0.00     0.004 A 
ENDBRANCH   2   4
ENDBRANCH   1   2
BRANCH   1  11
ATOM     11  C   UNL     1     -22.779  14.903   4.185  1.00  0.00     0.028 C 
BRANCH  11  12
ATOM     12  C   UNL     1     -22.292  14.446   2.830  1.00  0.00    -0.028 C 
ATOM     13  C   UNL     1     -23.084  13.993   1.833  1.00  0.00    -0.080 C 
ATOM     14  C   UNL     1     -24.578  13.844   1.994  1.00  0.00     0.039 C 
ATOM     15  C   UNL     1     -22.437  13.599   0.531  1.00  0.00     0.039 C 
ENDBRANCH  11  12
ENDBRANCH   1  11
TORSDOF 4
ENDMDL
MODEL 9
REMARK VINA RESULT:    -6.348     15.099     18.161
REMARK INTER + INTRA:          -8.409
REMARK INTER:                  -7.927
REMARK INTRA:                  -0.482
REMARK UNBOUND:                -0.577
REMARK SMILES CC(C)=CCC[C@H](C)c1ccc(C)cc1
REMARK SMILES IDX 6 1 7 2 8 3 9 4 13 5 12 6 11 7 14 8 10 9 15 10 5 11 4 12
REMARK SMILES IDX 2 13 1 14 3 15
REMARK H PARENT
REMARK Flexibility Score: inf
ROOT
ATOM      1  C   UNL     1     -27.017  16.290   3.204  1.00  0.00     0.012 C 
ENDROOT
BRANCH   1   2
ATOM      2  C   UNL     1     -27.053  17.687   2.535  1.00  0.00     0.016 C 
ATOM      3  C   UNL     1     -25.808  18.501   2.913  1.00  0.00     0.013 C 
BRANCH   2   4
ATOM      4  C   UNL     1     -28.309  18.467   2.887  1.00  0.00    -0.045 A 
ATOM      5  C   UNL     1     -31.798  20.799   3.906  1.00  0.00     0.044 C 
ATOM      6  C   UNL     1     -30.609  19.954   3.560  1.00  0.00    -0.051 A 
ATOM      7  C   UNL     1     -29.669  19.619   4.545  1.00  0.00     0.004 A 
ATOM      8  C   UNL     1     -30.389  19.553   2.235  1.00  0.00     0.004 A 
ATOM      9  C   UNL     1     -28.534  18.873   4.214  1.00  0.00     0.004 A 
ATOM     10  C   UNL     1     -29.255  18.808   1.902  1.00  0.00     0.004 A 
ENDBRANCH   2   4
ENDBRANCH   1   2
BRANCH   1  11
ATOM     11  C   UNL     1     -25.619  15.874   3.701  1.00  0.00     0.028 C 
BRANCH  11  12
ATOM     12  C   UNL     1     -24.875  14.989   2.729  1.00  0.00    -0.028 C 
ATOM     13  C   UNL     1     -23.663  14.436   2.954  1.00  0.00    -0.080 C 
ATOM     14  C   UNL     1     -22.880  14.696   4.219  1.00  0.00     0.039 C 
ATOM     15  C   UNL     1     -23.071  13.554   1.885  1.00  0.00     0.039 C 
ENDBRANCH  11  12
ENDBRANCH   1  11
TORSDOF 4
ENDMDL
