MODEL 1
REMARK VINA RESULT:     0.200      0.000      0.000
REMARK INTER + INTRA:          -0.604
REMARK INTER:                   0.305
REMARK INTRA:                  -0.909
REMARK UNBOUND:                -0.909
REMARK SMILES OC[C@@H]1O[C@@](CO)(O[C@H]2O[C@H](CO)[C@@H](O)[C@@H](O)[C@H]2O)[C@@H](O)[C@@H]1O
REMARK SMILES IDX 8 1 9 2 11 3 14 4 10 5 16 6 18 7 12 8 13 9 15 11 17 13 19 15
REMARK SMILES IDX 5 17 20 18 4 19 22 20 3 21 6 22 7 23 21 25 23 27 2 29 1 30
REMARK H PARENT 13 10 15 12 17 14 19 16 7 24 21 26 23 28 1 31
REMARK Flexibility Score: inf
ROOT
ATOM      1  O   UNL     1     -24.264  -6.044  15.506  1.00  0.00    -0.313 OA
ENDROOT
BRANCH   1   2
ATOM      2  C   UNL     1     -23.231  -5.463  14.715  1.00  0.00     0.285 C 
ATOM      3  C   UNL     1     -23.643  -3.396  15.780  1.00  0.00     0.178 C 
ATOM      4  C   UNL     1     -22.827  -3.911  17.024  1.00  0.00     0.177 C 
ATOM      5  O   UNL     1     -23.416  -4.075  14.553  1.00  0.00    -0.341 OA
ATOM      6  C   UNL     1     -21.747  -5.007  16.748  1.00  0.00     0.179 C 
ATOM      7  C   UNL     1     -21.859  -5.682  15.360  1.00  0.00     0.202 C 
BRANCH   3   8
ATOM      8  C   UNL     1     -23.392  -1.904  15.524  1.00  0.00     0.191 C 
BRANCH   8   9
ATOM      9  O   UNL     1     -22.285  -1.734  14.684  1.00  0.00    -0.394 OA
ATOM     10  H   UNL     1     -21.662  -1.124  15.164  1.00  0.00     0.210 HD
ENDBRANCH   8   9
ENDBRANCH   3   8
BRANCH   4  11
ATOM     11  O   UNL     1     -23.745  -4.363  17.993  1.00  0.00    -0.387 OA
ATOM     12  H   UNL     1     -23.217  -4.785  18.719  1.00  0.00     0.211 HD
ENDBRANCH   4  11
BRANCH   6  13
ATOM     13  O   UNL     1     -21.771  -5.978  17.769  1.00  0.00    -0.387 OA
ATOM     14  H   UNL     1     -21.059  -6.643  17.574  1.00  0.00     0.211 HD
ENDBRANCH   6  13
BRANCH   7  15
ATOM     15  O   UNL     1     -21.498  -7.042  15.388  1.00  0.00    -0.385 OA
ATOM     16  H   UNL     1     -20.539  -7.099  15.640  1.00  0.00     0.211 HD
ENDBRANCH   7  15
ENDBRANCH   1   2
BRANCH   1  17
ATOM     17  C   UNL     1     -25.303  -6.650  14.739  1.00  0.00     0.224 C 
ATOM     18  C   UNL     1     -25.036  -8.172  14.624  1.00  0.00     0.208 C 
ATOM     19  O   UNL     1     -26.581  -6.469  15.341  1.00  0.00    -0.337 OA
ATOM     20  C   UNL     1     -26.389  -8.788  14.870  1.00  0.00     0.180 C 
ATOM     21  C   UNL     1     -27.060  -7.729  15.739  1.00  0.00     0.179 C 
BRANCH  17  22
ATOM     22  C   UNL     1     -25.346  -6.000  13.330  1.00  0.00     0.225 C 
BRANCH  22  23
ATOM     23  O   UNL     1     -25.069  -6.919  12.305  1.00  0.00    -0.391 OA
ATOM     24  H   UNL     1     -24.143  -7.260  12.444  1.00  0.00     0.210 HD
ENDBRANCH  22  23
ENDBRANCH  17  22
BRANCH  18  25
ATOM     25  O   UNL     1     -24.136  -8.598  15.621  1.00  0.00    -0.385 OA
ATOM     26  H   UNL     1     -24.528  -9.401  16.051  1.00  0.00     0.211 HD
ENDBRANCH  18  25
BRANCH  20  27
ATOM     27  O   UNL     1     -27.050  -8.950  13.637  1.00  0.00    -0.387 OA
ATOM     28  H   UNL     1     -26.792  -9.839  13.280  1.00  0.00     0.211 HD
ENDBRANCH  20  27
BRANCH  21  29
ATOM     29  C   UNL     1     -28.597  -7.745  15.699  1.00  0.00     0.191 C 
BRANCH  29  30
ATOM     30  O   UNL     1     -29.101  -6.444  15.564  1.00  0.00    -0.394 OA
ATOM     31  H   UNL     1     -29.610  -6.238  16.391  1.00  0.00     0.210 HD
ENDBRANCH  29  30
ENDBRANCH  21  29
ENDBRANCH   1  17
TORSDOF 13
ENDMDL
MODEL 2
REMARK VINA RESULT:     1.101      1.444      2.705
REMARK INTER + INTRA:           0.771
REMARK INTER:                   2.031
REMARK INTRA:                  -1.260
REMARK UNBOUND:                -0.909
REMARK SMILES OC[C@@H]1O[C@@](CO)(O[C@H]2O[C@H](CO)[C@@H](O)[C@@H](O)[C@H]2O)[C@@H](O)[C@@H]1O
REMARK SMILES IDX 8 1 9 2 11 3 14 4 10 5 16 6 18 7 12 8 13 9 15 11 17 13 19 15
REMARK SMILES IDX 5 17 20 18 4 19 22 20 3 21 6 22 7 23 21 25 23 27 2 29 1 30
REMARK H PARENT 13 10 15 12 17 14 19 16 7 24 21 26 23 28 1 31
REMARK Flexibility Score: inf
ROOT
ATOM      1  O   UNL     1     -23.598  -5.962  15.930  1.00  0.00    -0.313 OA
ENDROOT
BRANCH   1   2
ATOM      2  C   UNL     1     -22.400  -5.262  15.605  1.00  0.00     0.285 C 
ATOM      3  C   UNL     1     -23.597  -3.233  15.764  1.00  0.00     0.178 C 
ATOM      4  C   UNL     1     -23.485  -3.327  17.332  1.00  0.00     0.177 C 
ATOM      5  O   UNL     1     -22.670  -4.009  15.018  1.00  0.00    -0.341 OA
ATOM      6  C   UNL     1     -22.275  -4.138  17.899  1.00  0.00     0.179 C 
ATOM      7  C   UNL     1     -21.550  -5.023  16.855  1.00  0.00     0.202 C 
BRANCH   3   8
ATOM      8  C   UNL     1     -23.467  -1.783  15.279  1.00  0.00     0.191 C 
BRANCH   8   9
ATOM      9  O   UNL     1     -22.252  -1.603  14.607  1.00  0.00    -0.394 OA
ATOM     10  H   UNL     1     -21.736  -0.937  15.138  1.00  0.00     0.210 HD
ENDBRANCH   8   9
ENDBRANCH   3   8
BRANCH   4  11
ATOM     11  O   UNL     1     -24.697  -3.847  17.827  1.00  0.00    -0.387 OA
ATOM     12  H   UNL     1     -24.475  -4.384  18.631  1.00  0.00     0.211 HD
ENDBRANCH   4  11
BRANCH   6  13
ATOM     13  O   UNL     1     -22.688  -4.917  18.999  1.00  0.00    -0.387 OA
ATOM     14  H   UNL     1     -22.161  -4.630  19.791  1.00  0.00     0.211 HD
ENDBRANCH   6  13
BRANCH   7  15
ATOM     15  O   UNL     1     -21.065  -6.224  17.406  1.00  0.00    -0.385 OA
ATOM     16  H   UNL     1     -20.813  -6.048  18.350  1.00  0.00     0.211 HD
ENDBRANCH   7  15
ENDBRANCH   1   2
BRANCH   1  17
ATOM     17  C   UNL     1     -24.059  -6.825  14.891  1.00  0.00     0.224 C 
ATOM     18  C   UNL     1     -25.609  -6.875  14.915  1.00  0.00     0.208 C 
ATOM     19  O   UNL     1     -23.651  -6.371  13.605  1.00  0.00    -0.337 OA
ATOM     20  C   UNL     1     -25.988  -6.765  13.461  1.00  0.00     0.180 C 
ATOM     21  C   UNL     1     -24.801  -5.999  12.886  1.00  0.00     0.179 C 
BRANCH  17  22
ATOM     22  C   UNL     1     -23.468  -8.244  15.103  1.00  0.00     0.225 C 
BRANCH  22  23
ATOM     23  O   UNL     1     -24.452  -9.246  15.078  1.00  0.00    -0.391 OA
ATOM     24  H   UNL     1     -23.989 -10.128  15.090  1.00  0.00     0.210 HD
ENDBRANCH  22  23
ENDBRANCH  17  22
BRANCH  18  25
ATOM     25  O   UNL     1     -26.133  -5.775  15.624  1.00  0.00    -0.385 OA
ATOM     26  H   UNL     1     -26.899  -5.424  15.101  1.00  0.00     0.211 HD
ENDBRANCH  18  25
BRANCH  20  27
ATOM     27  O   UNL     1     -26.091  -8.059  12.915  1.00  0.00    -0.387 OA
ATOM     28  H   UNL     1     -26.885  -8.489  13.327  1.00  0.00     0.211 HD
ENDBRANCH  20  27
BRANCH  21  29
ATOM     29  C   UNL     1     -24.570  -6.207  11.380  1.00  0.00     0.191 C 
BRANCH  29  30
ATOM     30  O   UNL     1     -25.770  -6.057  10.671  1.00  0.00    -0.394 OA
ATOM     31  H   UNL     1     -25.540  -5.683   9.780  1.00  0.00     0.210 HD
ENDBRANCH  29  30
ENDBRANCH  21  29
ENDBRANCH   1  17
TORSDOF 13
ENDMDL
MODEL 3
REMARK VINA RESULT:     2.199      1.435      5.618
REMARK INTER + INTRA:           2.447
REMARK INTER:                   3.414
REMARK INTRA:                  -0.967
REMARK UNBOUND:                -0.909
REMARK SMILES OC[C@@H]1O[C@@](CO)(O[C@H]2O[C@H](CO)[C@@H](O)[C@@H](O)[C@H]2O)[C@@H](O)[C@@H]1O
REMARK SMILES IDX 8 1 9 2 11 3 14 4 10 5 16 6 18 7 12 8 13 9 15 11 17 13 19 15
REMARK SMILES IDX 5 17 20 18 4 19 22 20 3 21 6 22 7 23 21 25 23 27 2 29 1 30
REMARK H PARENT 13 10 15 12 17 14 19 16 7 24 21 26 23 28 1 31
REMARK Flexibility Score: inf
ROOT
ATOM      1  O   UNL     1     -24.835  -5.917  15.939  1.00  0.00    -0.313 OA
ENDROOT
BRANCH   1   2
ATOM      2  C   UNL     1     -25.963  -5.708  15.093  1.00  0.00     0.285 C 
ATOM      3  C   UNL     1     -24.660  -6.421  13.257  1.00  0.00     0.178 C 
ATOM      4  C   UNL     1     -24.889  -7.911  13.716  1.00  0.00     0.177 C 
ATOM      5  O   UNL     1     -25.577  -5.460  13.760  1.00  0.00    -0.341 OA
ATOM      6  C   UNL     1     -26.182  -8.196  14.546  1.00  0.00     0.179 C 
ATOM      7  C   UNL     1     -26.884  -6.931  15.097  1.00  0.00     0.202 C 
BRANCH   3   8
ATOM      8  C   UNL     1     -24.669  -6.298  11.728  1.00  0.00     0.191 C 
BRANCH   8   9
ATOM      9  O   UNL     1     -25.752  -5.517  11.309  1.00  0.00    -0.394 OA
ATOM     10  H   UNL     1     -25.376  -4.629  11.062  1.00  0.00     0.210 HD
ENDBRANCH   8   9
ENDBRANCH   3   8
BRANCH   4  11
ATOM     11  O   UNL     1     -23.749  -8.329  14.429  1.00  0.00    -0.387 OA
ATOM     12  H   UNL     1     -23.108  -8.692  13.764  1.00  0.00     0.211 HD
ENDBRANCH   4  11
BRANCH   6  13
ATOM     13  O   UNL     1     -25.897  -9.094  15.594  1.00  0.00    -0.387 OA
ATOM     14  H   UNL     1     -24.946  -9.371  15.508  1.00  0.00     0.211 HD
ENDBRANCH   6  13
BRANCH   7  15
ATOM     15  O   UNL     1     -27.477  -7.145  16.355  1.00  0.00    -0.385 OA
ATOM     16  H   UNL     1     -28.445  -7.310  16.213  1.00  0.00     0.211 HD
ENDBRANCH   7  15
ENDBRANCH   1   2
BRANCH   1  17
ATOM     17  C   UNL     1     -24.348  -4.724  16.552  1.00  0.00     0.224 C 
ATOM     18  C   UNL     1     -22.836  -4.884  16.857  1.00  0.00     0.208 C 
ATOM     19  O   UNL     1     -24.511  -3.589  15.708  1.00  0.00    -0.337 OA
ATOM     20  C   UNL     1     -22.247  -3.568  16.422  1.00  0.00     0.180 C 
ATOM     21  C   UNL     1     -23.234  -3.124  15.347  1.00  0.00     0.179 C 
BRANCH  17  22
ATOM     22  C   UNL     1     -25.140  -4.460  17.860  1.00  0.00     0.225 C 
BRANCH  22  23
ATOM     23  O   UNL     1     -24.339  -3.902  18.870  1.00  0.00    -0.391 OA
ATOM     24  H   UNL     1     -24.343  -4.530  19.644  1.00  0.00     0.210 HD
ENDBRANCH  22  23
ENDBRANCH  17  22
BRANCH  18  25
ATOM     25  O   UNL     1     -22.279  -5.927  16.090  1.00  0.00    -0.385 OA
ATOM     26  H   UNL     1     -22.523  -6.781  16.530  1.00  0.00     0.211 HD
ENDBRANCH  18  25
BRANCH  20  27
ATOM     27  O   UNL     1     -22.235  -2.685  17.520  1.00  0.00    -0.387 OA
ATOM     28  H   UNL     1     -21.429  -2.896  18.058  1.00  0.00     0.211 HD
ENDBRANCH  20  27
BRANCH  21  29
ATOM     29  C   UNL     1     -23.277  -1.607  15.101  1.00  0.00     0.191 C 
BRANCH  29  30
ATOM     30  O   UNL     1     -22.170  -1.197  14.345  1.00  0.00    -0.394 OA
ATOM     31  H   UNL     1     -22.460  -0.425  13.792  1.00  0.00     0.210 HD
ENDBRANCH  29  30
ENDBRANCH  21  29
ENDBRANCH   1  17
TORSDOF 13
ENDMDL
MODEL 4
REMARK VINA RESULT:     2.566      1.637      5.813
REMARK INTER + INTRA:           3.007
REMARK INTER:                   3.633
REMARK INTRA:                  -0.626
REMARK UNBOUND:                -0.909
REMARK SMILES OC[C@@H]1O[C@@](CO)(O[C@H]2O[C@H](CO)[C@@H](O)[C@@H](O)[C@H]2O)[C@@H](O)[C@@H]1O
REMARK SMILES IDX 8 1 9 2 11 3 14 4 10 5 16 6 18 7 12 8 13 9 15 11 17 13 19 15
REMARK SMILES IDX 5 17 20 18 4 19 22 20 3 21 6 22 7 23 21 25 23 27 2 29 1 30
REMARK H PARENT 13 10 15 12 17 14 19 16 7 24 21 26 23 28 1 31
REMARK Flexibility Score: inf
ROOT
ATOM      1  O   UNL     1     -24.193  -5.585  15.979  1.00  0.00    -0.313 OA
ENDROOT
BRANCH   1   2
ATOM      2  C   UNL     1     -25.149  -4.937  15.145  1.00  0.00     0.285 C 
ATOM      3  C   UNL     1     -24.578  -6.433  13.408  1.00  0.00     0.178 C 
ATOM      4  C   UNL     1     -25.468  -7.530  14.105  1.00  0.00     0.177 C 
ATOM      5  O   UNL     1     -24.834  -5.086  13.778  1.00  0.00    -0.341 OA
ATOM      6  C   UNL     1     -26.635  -7.015  15.007  1.00  0.00     0.179 C 
ATOM      7  C   UNL     1     -26.550  -5.512  15.370  1.00  0.00     0.202 C 
BRANCH   3   8
ATOM      8  C   UNL     1     -24.686  -6.511  11.880  1.00  0.00     0.191 C 
BRANCH   8   9
ATOM      9  O   UNL     1     -25.618  -5.579  11.410  1.00  0.00    -0.394 OA
ATOM     10  H   UNL     1     -25.427  -4.728  11.890  1.00  0.00     0.210 HD
ENDBRANCH   8   9
ENDBRANCH   3   8
BRANCH   4  11
ATOM     11  O   UNL     1     -24.619  -8.379  14.842  1.00  0.00    -0.387 OA
ATOM     12  H   UNL     1     -23.746  -8.397  14.372  1.00  0.00     0.211 HD
ENDBRANCH   4  11
BRANCH   6  13
ATOM     13  O   UNL     1     -26.725  -7.796  16.176  1.00  0.00    -0.387 OA
ATOM     14  H   UNL     1     -26.930  -8.730  15.904  1.00  0.00     0.211 HD
ENDBRANCH   6  13
BRANCH   7  15
ATOM     15  O   UNL     1     -27.035  -5.238  16.663  1.00  0.00    -0.385 OA
ATOM     16  H   UNL     1     -26.326  -5.483  17.313  1.00  0.00     0.211 HD
ENDBRANCH   7  15
ENDBRANCH   1   2
BRANCH   1  17
ATOM     17  C   UNL     1     -23.174  -4.715  16.468  1.00  0.00     0.224 C 
ATOM     18  C   UNL     1     -23.666  -4.030  17.770  1.00  0.00     0.208 C 
ATOM     19  O   UNL     1     -21.973  -5.418  16.766  1.00  0.00    -0.337 OA
ATOM     20  C   UNL     1     -22.473  -4.114  18.686  1.00  0.00     0.180 C 
ATOM     21  C   UNL     1     -21.758  -5.353  18.154  1.00  0.00     0.179 C 
BRANCH  17  22
ATOM     22  C   UNL     1     -22.845  -3.651  15.388  1.00  0.00     0.225 C 
BRANCH  22  23
ATOM     23  O   UNL     1     -23.154  -2.346  15.805  1.00  0.00    -0.391 OA
ATOM     24  H   UNL     1     -24.057  -2.367  16.228  1.00  0.00     0.210 HD
ENDBRANCH  22  23
ENDBRANCH  17  22
BRANCH  18  25
ATOM     25  O   UNL     1     -24.744  -4.742  18.332  1.00  0.00    -0.385 OA
ATOM     26  H   UNL     1     -24.767  -4.529  19.300  1.00  0.00     0.211 HD
ENDBRANCH  18  25
BRANCH  20  27
ATOM     27  O   UNL     1     -21.692  -2.952  18.532  1.00  0.00    -0.387 OA
ATOM     28  H   UNL     1     -21.880  -2.367  19.310  1.00  0.00     0.211 HD
ENDBRANCH  20  27
BRANCH  21  29
ATOM     29  C   UNL     1     -20.252  -5.405  18.457  1.00  0.00     0.191 C 
BRANCH  29  30
ATOM     30  O   UNL     1     -19.915  -4.478  19.452  1.00  0.00    -0.394 OA
ATOM     31  H   UNL     1     -20.743  -4.279  19.962  1.00  0.00     0.210 HD
ENDBRANCH  29  30
ENDBRANCH  21  29
ENDBRANCH   1  17
TORSDOF 13
ENDMDL
MODEL 5
REMARK VINA RESULT:     2.568      1.241      2.473
REMARK INTER + INTRA:           3.011
REMARK INTER:                   3.931
REMARK INTRA:                  -0.921
REMARK UNBOUND:                -0.909
REMARK SMILES OC[C@@H]1O[C@@](CO)(O[C@H]2O[C@H](CO)[C@@H](O)[C@@H](O)[C@H]2O)[C@@H](O)[C@@H]1O
REMARK SMILES IDX 8 1 9 2 11 3 14 4 10 5 16 6 18 7 12 8 13 9 15 11 17 13 19 15
REMARK SMILES IDX 5 17 20 18 4 19 22 20 3 21 6 22 7 23 21 25 23 27 2 29 1 30
REMARK H PARENT 13 10 15 12 17 14 19 16 7 24 21 26 23 28 1 31
REMARK Flexibility Score: inf
ROOT
ATOM      1  O   UNL     1     -24.177  -5.373  15.110  1.00  0.00    -0.313 OA
ENDROOT
BRANCH   1   2
ATOM      2  C   UNL     1     -24.809  -4.196  15.606  1.00  0.00     0.285 C 
ATOM      3  C   UNL     1     -24.110  -4.795  17.781  1.00  0.00     0.178 C 
ATOM      4  C   UNL     1     -22.673  -4.251  17.433  1.00  0.00     0.177 C 
ATOM      5  O   UNL     1     -25.174  -4.332  16.961  1.00  0.00    -0.341 OA
ATOM      6  C   UNL     1     -22.591  -3.148  16.329  1.00  0.00     0.179 C 
ATOM      7  C   UNL     1     -23.881  -2.985  15.488  1.00  0.00     0.202 C 
BRANCH   3   8
ATOM      8  C   UNL     1     -24.491  -4.483  19.234  1.00  0.00     0.191 C 
BRANCH   8   9
ATOM      9  O   UNL     1     -25.582  -3.607  19.274  1.00  0.00    -0.394 OA
ATOM     10  H   UNL     1     -26.274  -4.050  19.835  1.00  0.00     0.210 HD
ENDBRANCH   8   9
ENDBRANCH   3   8
BRANCH   4  11
ATOM     11  O   UNL     1     -21.861  -5.349  17.089  1.00  0.00    -0.387 OA
ATOM     12  H   UNL     1     -20.949  -5.152  17.422  1.00  0.00     0.211 HD
ENDBRANCH   4  11
BRANCH   6  13
ATOM     13  O   UNL     1     -21.485  -3.386  15.489  1.00  0.00    -0.387 OA
ATOM     14  H   UNL     1     -20.761  -3.783  16.042  1.00  0.00     0.211 HD
ENDBRANCH   6  13
BRANCH   7  15
ATOM     15  O   UNL     1     -23.614  -2.649  14.147  1.00  0.00    -0.385 OA
ATOM     16  H   UNL     1     -23.161  -3.424  13.722  1.00  0.00     0.211 HD
ENDBRANCH   7  15
ENDBRANCH   1   2
BRANCH   1  17
ATOM     17  C   UNL     1     -25.078  -6.293  14.495  1.00  0.00     0.224 C 
ATOM     18  C   UNL     1     -24.543  -7.737  14.680  1.00  0.00     0.208 C 
ATOM     19  O   UNL     1     -26.378  -6.227  15.071  1.00  0.00    -0.337 OA
ATOM     20  C   UNL     1     -25.769  -8.522  15.066  1.00  0.00     0.180 C 
ATOM     21  C   UNL     1     -26.634  -7.448  15.720  1.00  0.00     0.179 C 
BRANCH  17  22
ATOM     22  C   UNL     1     -25.209  -5.953  12.987  1.00  0.00     0.225 C 
BRANCH  22  23
ATOM     23  O   UNL     1     -24.256  -6.620  12.200  1.00  0.00    -0.391 OA
ATOM     24  H   UNL     1     -23.387  -6.596  12.688  1.00  0.00     0.210 HD
ENDBRANCH  22  23
ENDBRANCH  17  22
BRANCH  18  25
ATOM     25  O   UNL     1     -23.600  -7.790  15.726  1.00  0.00    -0.385 OA
ATOM     26  H   UNL     1     -23.728  -6.978  16.282  1.00  0.00     0.211 HD
ENDBRANCH  18  25
BRANCH  20  27
ATOM     27  O   UNL     1     -26.368  -9.039  13.902  1.00  0.00    -0.387 OA
ATOM     28  H   UNL     1     -25.652  -9.137  13.222  1.00  0.00     0.211 HD
ENDBRANCH  20  27
BRANCH  21  29
ATOM     29  C   UNL     1     -28.143  -7.743  15.710  1.00  0.00     0.191 C 
BRANCH  29  30
ATOM     30  O   UNL     1     -28.878  -6.556  15.596  1.00  0.00    -0.394 OA
ATOM     31  H   UNL     1     -29.696  -6.662  16.149  1.00  0.00     0.210 HD
ENDBRANCH  29  30
ENDBRANCH  21  29
ENDBRANCH   1  17
TORSDOF 13
ENDMDL
MODEL 6
REMARK VINA RESULT:     2.616      2.241      3.746
REMARK INTER + INTRA:           3.083
REMARK INTER:                   4.019
REMARK INTRA:                  -0.936
REMARK UNBOUND:                -0.909
REMARK SMILES OC[C@@H]1O[C@@](CO)(O[C@H]2O[C@H](CO)[C@@H](O)[C@@H](O)[C@H]2O)[C@@H](O)[C@@H]1O
REMARK SMILES IDX 8 1 9 2 11 3 14 4 10 5 16 6 18 7 12 8 13 9 15 11 17 13 19 15
REMARK SMILES IDX 5 17 20 18 4 19 22 20 3 21 6 22 7 23 21 25 23 27 2 29 1 30
REMARK H PARENT 13 10 15 12 17 14 19 16 7 24 21 26 23 28 1 31
REMARK Flexibility Score: inf
ROOT
ATOM      1  O   UNL     1     -23.484  -5.581  15.773  1.00  0.00    -0.313 OA
ENDROOT
BRANCH   1   2
ATOM      2  C   UNL     1     -24.580  -4.718  15.484  1.00  0.00     0.285 C 
ATOM      3  C   UNL     1     -25.073  -4.647  17.792  1.00  0.00     0.178 C 
ATOM      4  C   UNL     1     -23.903  -3.610  17.977  1.00  0.00     0.177 C 
ATOM      5  O   UNL     1     -25.581  -4.795  16.474  1.00  0.00    -0.341 OA
ATOM      6  C   UNL     1     -23.529  -2.746  16.729  1.00  0.00     0.179 C 
ATOM      7  C   UNL     1     -24.120  -3.260  15.393  1.00  0.00     0.202 C 
BRANCH   3   8
ATOM      8  C   UNL     1     -26.264  -4.316  18.701  1.00  0.00     0.191 C 
BRANCH   8   9
ATOM      9  O   UNL     1     -25.814  -3.919  19.967  1.00  0.00    -0.394 OA
ATOM     10  H   UNL     1     -25.074  -3.273  19.809  1.00  0.00     0.210 HD
ENDBRANCH   8   9
ENDBRANCH   3   8
BRANCH   4  11
ATOM     11  O   UNL     1     -22.771  -4.305  18.446  1.00  0.00    -0.387 OA
ATOM     12  H   UNL     1     -22.887  -4.424  19.423  1.00  0.00     0.211 HD
ENDBRANCH   4  11
BRANCH   6  13
ATOM     13  O   UNL     1     -22.129  -2.620  16.629  1.00  0.00    -0.387 OA
ATOM     14  H   UNL     1     -21.729  -3.513  16.800  1.00  0.00     0.211 HD
ENDBRANCH   6  13
BRANCH   7  15
ATOM     15  O   UNL     1     -23.260  -3.042  14.301  1.00  0.00    -0.385 OA
ATOM     16  H   UNL     1     -23.639  -2.305  13.755  1.00  0.00     0.211 HD
ENDBRANCH   7  15
ENDBRANCH   1   2
BRANCH   1  17
ATOM     17  C   UNL     1     -23.438  -6.746  14.950  1.00  0.00     0.224 C 
ATOM     18  C   UNL     1     -21.973  -7.240  14.842  1.00  0.00     0.208 C 
ATOM     19  O   UNL     1     -24.223  -7.805  15.486  1.00  0.00    -0.337 OA
ATOM     20  C   UNL     1     -22.089  -8.732  15.015  1.00  0.00     0.180 C 
ATOM     21  C   UNL     1     -23.358  -8.851  15.854  1.00  0.00     0.179 C 
BRANCH  17  22
ATOM     22  C   UNL     1     -23.999  -6.404  13.545  1.00  0.00     0.225 C 
BRANCH  22  23
ATOM     23  O   UNL     1     -25.206  -7.068  13.271  1.00  0.00    -0.391 OA
ATOM     24  H   UNL     1     -25.509  -6.788  12.363  1.00  0.00     0.210 HD
ENDBRANCH  22  23
ENDBRANCH  17  22
BRANCH  18  25
ATOM     25  O   UNL     1     -21.187  -6.705  15.883  1.00  0.00    -0.385 OA
ATOM     26  H   UNL     1     -21.210  -7.352  16.634  1.00  0.00     0.211 HD
ENDBRANCH  18  25
BRANCH  20  27
ATOM     27  O   UNL     1     -22.240  -9.330  13.749  1.00  0.00    -0.387 OA
ATOM     28  H   UNL     1     -23.143  -9.740  13.724  1.00  0.00     0.211 HD
ENDBRANCH  20  27
BRANCH  21  29
ATOM     29  C   UNL     1     -24.084 -10.201  15.735  1.00  0.00     0.191 C 
BRANCH  29  30
ATOM     30  O   UNL     1     -23.246 -11.250  16.140  1.00  0.00    -0.394 OA
ATOM     31  H   UNL     1     -22.752 -11.558  15.336  1.00  0.00     0.210 HD
ENDBRANCH  29  30
ENDBRANCH  21  29
ENDBRANCH   1  17
TORSDOF 13
ENDMDL
MODEL 7
REMARK VINA RESULT:     3.041      1.722      5.723
REMARK INTER + INTRA:           3.732
REMARK INTER:                   4.801
REMARK INTRA:                  -1.069
REMARK UNBOUND:                -0.909
REMARK SMILES OC[C@@H]1O[C@@](CO)(O[C@H]2O[C@H](CO)[C@@H](O)[C@@H](O)[C@H]2O)[C@@H](O)[C@@H]1O
REMARK SMILES IDX 8 1 9 2 11 3 14 4 10 5 16 6 18 7 12 8 13 9 15 11 17 13 19 15
REMARK SMILES IDX 5 17 20 18 4 19 22 20 3 21 6 22 7 23 21 25 23 27 2 29 1 30
REMARK H PARENT 13 10 15 12 17 14 19 16 7 24 21 26 23 28 1 31
REMARK Flexibility Score: inf
ROOT
ATOM      1  O   UNL     1     -24.131  -5.073  14.857  1.00  0.00    -0.313 OA
ENDROOT
BRANCH   1   2
ATOM      2  C   UNL     1     -23.372  -5.904  13.983  1.00  0.00     0.285 C 
ATOM      3  C   UNL     1     -24.121  -7.786  15.197  1.00  0.00     0.178 C 
ATOM      4  C   UNL     1     -25.491  -7.697  14.426  1.00  0.00     0.177 C 
ATOM      5  O   UNL     1     -23.017  -7.121  14.598  1.00  0.00    -0.341 OA
ATOM      6  C   UNL     1     -25.459  -7.023  13.016  1.00  0.00     0.179 C 
ATOM      7  C   UNL     1     -24.163  -6.230  12.714  1.00  0.00     0.202 C 
BRANCH   3   8
ATOM      8  C   UNL     1     -23.701  -9.243  15.427  1.00  0.00     0.191 C 
BRANCH   8   9
ATOM      9  O   UNL     1     -22.643  -9.585  14.576  1.00  0.00    -0.394 OA
ATOM     10  H   UNL     1     -22.437  -8.768  14.047  1.00  0.00     0.210 HD
ENDBRANCH   8   9
ENDBRANCH   3   8
BRANCH   4  11
ATOM     11  O   UNL     1     -26.420  -7.042  15.259  1.00  0.00    -0.387 OA
ATOM     12  H   UNL     1     -26.124  -6.099  15.339  1.00  0.00     0.211 HD
ENDBRANCH   4  11
BRANCH   6  13
ATOM     13  O   UNL     1     -26.588  -6.197  12.848  1.00  0.00    -0.387 OA
ATOM     14  H   UNL     1     -27.077  -6.510  12.041  1.00  0.00     0.211 HD
ENDBRANCH   6  13
BRANCH   7  15
ATOM     15  O   UNL     1     -24.398  -5.088  11.926  1.00  0.00    -0.385 OA
ATOM     16  H   UNL     1     -23.859  -5.172  11.097  1.00  0.00     0.211 HD
ENDBRANCH   7  15
ENDBRANCH   1   2
BRANCH   1  17
ATOM     17  C   UNL     1     -23.334  -4.326  15.775  1.00  0.00     0.224 C 
ATOM     18  C   UNL     1     -24.143  -4.082  17.075  1.00  0.00     0.208 C 
ATOM     19  O   UNL     1     -22.138  -5.016  16.122  1.00  0.00    -0.337 OA
ATOM     20  C   UNL     1     -23.145  -4.362  18.170  1.00  0.00     0.180 C 
ATOM     21  C   UNL     1     -22.202  -5.347  17.487  1.00  0.00     0.179 C 
BRANCH  17  22
ATOM     22  C   UNL     1     -22.932  -2.976  15.126  1.00  0.00     0.225 C 
BRANCH  22  23
ATOM     23  O   UNL     1     -23.558  -1.877  15.737  1.00  0.00    -0.391 OA
ATOM     24  H   UNL     1     -23.142  -1.048  15.373  1.00  0.00     0.210 HD
ENDBRANCH  22  23
ENDBRANCH  17  22
BRANCH  18  25
ATOM     25  O   UNL     1     -25.217  -4.988  17.173  1.00  0.00    -0.385 OA
ATOM     26  H   UNL     1     -25.424  -5.304  16.256  1.00  0.00     0.211 HD
ENDBRANCH  18  25
BRANCH  20  27
ATOM     27  O   UNL     1     -22.492  -3.163  18.513  1.00  0.00    -0.387 OA
ATOM     28  H   UNL     1     -21.762  -3.396  19.143  1.00  0.00     0.211 HD
ENDBRANCH  20  27
BRANCH  21  29
ATOM     29  C   UNL     1     -20.785  -5.399  18.083  1.00  0.00     0.191 C 
BRANCH  29  30
ATOM     30  O   UNL     1     -20.807  -5.052  19.440  1.00  0.00    -0.394 OA
ATOM     31  H   UNL     1     -21.213  -4.148  19.507  1.00  0.00     0.210 HD
ENDBRANCH  29  30
ENDBRANCH  21  29
ENDBRANCH   1  17
TORSDOF 13
ENDMDL
