MODEL 1
REMARK VINA RESULT:    -5.782      0.000      0.000
REMARK INTER + INTRA:          -6.214
REMARK INTER:                  -6.120
REMARK INTRA:                  -0.093
REMARK UNBOUND:                -0.093
REMARK SMILES C=C(C)[C@H]1CC=C(C)C(=O)C1
REMARK SMILES IDX 8 1 7 2 6 3 5 4 4 5 11 6 9 7 10 8 2 9 1 10 3 11
REMARK H PARENT
REMARK Flexibility Score: inf
ROOT
ATOM      1  C   UNL     1     -12.177 -20.268  31.917  1.00  0.00     0.048 C 
ATOM      2  C   UNL     1     -12.211 -19.537  30.604  1.00  0.00    -0.012 C 
ATOM      3  C   UNL     1     -13.263 -19.679  29.778  1.00  0.00    -0.019 C 
ATOM      4  C   UNL     1     -13.306 -19.032  28.419  1.00  0.00     0.036 C 
ATOM      5  C   UNL     1     -12.509 -17.714  28.405  1.00  0.00     0.025 C 
ATOM      6  C   UNL     1     -11.067 -17.954  28.892  1.00  0.00     0.089 C 
ATOM      7  C   UNL     1     -11.067 -18.678  30.210  1.00  0.00     0.158 C 
ATOM      8  O   UNL     1     -10.060 -18.583  30.963  1.00  0.00    -0.295 OA
ENDROOT
BRANCH   5   9
ATOM      9  C   UNL     1     -12.537 -17.053  27.036  1.00  0.00    -0.077 C 
ATOM     10  C   UNL     1     -13.593 -16.326  26.629  1.00  0.00     0.008 C 
ATOM     11  C   UNL     1     -11.346 -17.223  26.129  1.00  0.00     0.039 C 
ENDBRANCH   5   9
TORSDOF 1
ENDMDL
MODEL 2
REMARK VINA RESULT:    -5.641      1.986      2.414
REMARK INTER + INTRA:          -6.065
REMARK INTER:                  -5.970
REMARK INTRA:                  -0.094
REMARK UNBOUND:                -0.093
REMARK SMILES C=C(C)[C@H]1CC=C(C)C(=O)C1
REMARK SMILES IDX 8 1 7 2 6 3 5 4 4 5 11 6 9 7 10 8 2 9 1 10 3 11
REMARK H PARENT
REMARK Flexibility Score: inf
ROOT
ATOM      1  C   UNL     1     -12.959 -16.930  32.490  1.00  0.00     0.048 C 
ATOM      2  C   UNL     1     -12.920 -16.927  30.987  1.00  0.00    -0.012 C 
ATOM      3  C   UNL     1     -12.915 -15.763  30.313  1.00  0.00    -0.019 C 
ATOM      4  C   UNL     1     -12.957 -15.710  28.809  1.00  0.00     0.036 C 
ATOM      5  C   UNL     1     -12.271 -16.943  28.190  1.00  0.00     0.025 C 
ATOM      6  C   UNL     1     -12.894 -18.238  28.745  1.00  0.00     0.089 C 
ATOM      7  C   UNL     1     -12.911 -18.214  30.249  1.00  0.00     0.158 C 
ATOM      8  O   UNL     1     -12.964 -19.304  30.880  1.00  0.00    -0.295 OA
ENDROOT
BRANCH   5   9
ATOM      9  C   UNL     1     -12.313 -16.907  26.670  1.00  0.00    -0.077 C 
ATOM     10  C   UNL     1     -13.420 -16.530  26.006  1.00  0.00     0.008 C 
ATOM     11  C   UNL     1     -11.075 -17.301  25.906  1.00  0.00     0.039 C 
ENDBRANCH   5   9
TORSDOF 1
ENDMDL
MODEL 3
REMARK VINA RESULT:    -5.617      2.661      4.349
REMARK INTER + INTRA:          -6.039
REMARK INTER:                  -5.940
REMARK INTRA:                  -0.098
REMARK UNBOUND:                -0.093
REMARK SMILES C=C(C)[C@H]1CC=C(C)C(=O)C1
REMARK SMILES IDX 8 1 7 2 6 3 5 4 4 5 11 6 9 7 10 8 2 9 1 10 3 11
REMARK H PARENT
REMARK Flexibility Score: inf
ROOT
ATOM      1  C   UNL     1     -11.327 -17.248  26.230  1.00  0.00     0.048 C 
ATOM      2  C   UNL     1     -11.772 -16.725  27.568  1.00  0.00    -0.012 C 
ATOM      3  C   UNL     1     -12.894 -15.990  27.667  1.00  0.00    -0.019 C 
ATOM      4  C   UNL     1     -13.336 -15.377  28.969  1.00  0.00     0.036 C 
ATOM      5  C   UNL     1     -12.888 -16.235  30.168  1.00  0.00     0.025 C 
ATOM      6  C   UNL     1     -11.367 -16.470  30.121  1.00  0.00     0.089 C 
ATOM      7  C   UNL     1     -10.954 -17.001  28.775  1.00  0.00     0.158 C 
ATOM      8  O   UNL     1      -9.878 -17.649  28.674  1.00  0.00    -0.295 OA
ENDROOT
BRANCH   5   9
ATOM      9  C   UNL     1     -13.322 -15.624  31.491  1.00  0.00    -0.077 C 
ATOM     10  C   UNL     1     -14.411 -14.841  31.580  1.00  0.00     0.008 C 
ATOM     11  C   UNL     1     -12.502 -15.915  32.722  1.00  0.00     0.039 C 
ENDBRANCH   5   9
TORSDOF 1
ENDMDL
MODEL 4
REMARK VINA RESULT:    -5.589      2.068      2.811
REMARK INTER + INTRA:          -6.010
REMARK INTER:                  -5.914
REMARK INTRA:                  -0.096
REMARK UNBOUND:                -0.093
REMARK SMILES C=C(C)[C@H]1CC=C(C)C(=O)C1
REMARK SMILES IDX 8 1 7 2 6 3 5 4 4 5 11 6 9 7 10 8 2 9 1 10 3 11
REMARK H PARENT
REMARK Flexibility Score: inf
ROOT
ATOM      1  C   UNL     1     -10.850 -16.537  32.762  1.00  0.00     0.048 C 
ATOM      2  C   UNL     1     -11.250 -16.540  31.313  1.00  0.00    -0.012 C 
ATOM      3  C   UNL     1     -10.514 -15.871  30.407  1.00  0.00    -0.019 C 
ATOM      4  C   UNL     1     -10.920 -15.777  28.960  1.00  0.00     0.036 C 
ATOM      5  C   UNL     1     -11.704 -17.029  28.520  1.00  0.00     0.025 C 
ATOM      6  C   UNL     1     -12.910 -17.260  29.450  1.00  0.00     0.089 C 
ATOM      7  C   UNL     1     -12.476 -17.261  30.890  1.00  0.00     0.158 C 
ATOM      8  O   UNL     1     -13.191 -17.848  31.747  1.00  0.00    -0.295 OA
ENDROOT
BRANCH   5   9
ATOM      9  C   UNL     1     -12.126 -16.945  27.062  1.00  0.00    -0.077 C 
ATOM     10  C   UNL     1     -13.355 -16.527  26.709  1.00  0.00     0.008 C 
ATOM     11  C   UNL     1     -11.132 -17.339  26.000  1.00  0.00     0.039 C 
ENDBRANCH   5   9
TORSDOF 1
ENDMDL
MODEL 5
REMARK VINA RESULT:    -5.464      2.770      4.730
REMARK INTER + INTRA:          -5.877
REMARK INTER:                  -5.781
REMARK INTRA:                  -0.096
REMARK UNBOUND:                -0.093
REMARK SMILES C=C(C)[C@H]1CC=C(C)C(=O)C1
REMARK SMILES IDX 8 1 7 2 6 3 5 4 4 5 11 6 9 7 10 8 2 9 1 10 3 11
REMARK H PARENT
REMARK Flexibility Score: inf
ROOT
ATOM      1  C   UNL     1     -11.375 -17.274  26.399  1.00  0.00     0.048 C 
ATOM      2  C   UNL     1     -11.589 -17.068  27.873  1.00  0.00    -0.012 C 
ATOM      3  C   UNL     1     -10.837 -16.180  28.547  1.00  0.00    -0.019 C 
ATOM      4  C   UNL     1     -10.960 -15.997  30.037  1.00  0.00     0.036 C 
ATOM      5  C   UNL     1     -12.395 -16.289  30.516  1.00  0.00     0.025 C 
ATOM      6  C   UNL     1     -12.837 -17.693  30.063  1.00  0.00     0.089 C 
ATOM      7  C   UNL     1     -12.618 -17.866  28.585  1.00  0.00     0.158 C 
ATOM      8  O   UNL     1     -13.289 -18.731  27.961  1.00  0.00    -0.295 OA
ENDROOT
BRANCH   5   9
ATOM      9  C   UNL     1     -12.532 -16.115  32.021  1.00  0.00    -0.077 C 
ATOM     10  C   UNL     1     -11.458 -16.121  32.830  1.00  0.00     0.008 C 
ATOM     11  C   UNL     1     -13.911 -15.929  32.601  1.00  0.00     0.039 C 
ENDBRANCH   5   9
TORSDOF 1
ENDMDL
MODEL 6
REMARK VINA RESULT:    -5.442      2.775      4.121
REMARK INTER + INTRA:          -5.853
REMARK INTER:                  -5.760
REMARK INTRA:                  -0.094
REMARK UNBOUND:                -0.093
REMARK SMILES C=C(C)[C@H]1CC=C(C)C(=O)C1
REMARK SMILES IDX 8 1 7 2 6 3 5 4 4 5 11 6 9 7 10 8 2 9 1 10 3 11
REMARK H PARENT
REMARK Flexibility Score: inf
ROOT
ATOM      1  C   UNL     1     -13.328 -20.612  28.612  1.00  0.00     0.048 C 
ATOM      2  C   UNL     1     -13.184 -19.486  29.599  1.00  0.00    -0.012 C 
ATOM      3  C   UNL     1     -13.151 -19.743  30.918  1.00  0.00    -0.019 C 
ATOM      4  C   UNL     1     -13.090 -18.644  31.946  1.00  0.00     0.036 C 
ATOM      5  C   UNL     1     -12.343 -17.413  31.399  1.00  0.00     0.025 C 
ATOM      6  C   UNL     1     -12.982 -16.941  30.079  1.00  0.00     0.089 C 
ATOM      7  C   UNL     1     -13.104 -18.087  29.111  1.00  0.00     0.158 C 
ATOM      8  O   UNL     1     -13.183 -17.842  27.877  1.00  0.00    -0.295 OA
ENDROOT
BRANCH   5   9
ATOM      9  C   UNL     1     -12.280 -16.292  32.424  1.00  0.00    -0.077 C 
ATOM     10  C   UNL     1     -13.370 -15.574  32.749  1.00  0.00     0.008 C 
ATOM     11  C   UNL     1     -10.958 -15.993  33.083  1.00  0.00     0.039 C 
ENDBRANCH   5   9
TORSDOF 1
ENDMDL
MODEL 7
REMARK VINA RESULT:    -5.433      2.858      4.112
REMARK INTER + INTRA:          -5.844
REMARK INTER:                  -5.752
REMARK INTRA:                  -0.092
REMARK UNBOUND:                -0.093
REMARK SMILES C=C(C)[C@H]1CC=C(C)C(=O)C1
REMARK SMILES IDX 8 1 7 2 6 3 5 4 4 5 11 6 9 7 10 8 2 9 1 10 3 11
REMARK H PARENT
REMARK Flexibility Score: inf
ROOT
ATOM      1  C   UNL     1     -13.192 -20.307  28.616  1.00  0.00     0.048 C 
ATOM      2  C   UNL     1     -12.999 -19.189  29.603  1.00  0.00    -0.012 C 
ATOM      3  C   UNL     1     -13.121 -17.909  29.208  1.00  0.00    -0.019 C 
ATOM      4  C   UNL     1     -12.858 -16.756  30.140  1.00  0.00     0.036 C 
ATOM      5  C   UNL     1     -13.191 -17.131  31.596  1.00  0.00     0.025 C 
ATOM      6  C   UNL     1     -12.427 -18.402  32.012  1.00  0.00     0.089 C 
ATOM      7  C   UNL     1     -12.647 -19.503  31.010  1.00  0.00     0.158 C 
ATOM      8  O   UNL     1     -12.485 -20.701  31.369  1.00  0.00    -0.295 OA
ENDROOT
BRANCH   5   9
ATOM      9  C   UNL     1     -12.923 -15.977  32.550  1.00  0.00    -0.077 C 
ATOM     10  C   UNL     1     -13.890 -15.104  32.885  1.00  0.00     0.008 C 
ATOM     11  C   UNL     1     -11.539 -15.825  33.125  1.00  0.00     0.039 C 
ENDBRANCH   5   9
TORSDOF 1
ENDMDL
MODEL 8
REMARK VINA RESULT:    -5.267      3.162      4.782
REMARK INTER + INTRA:          -5.669
REMARK INTER:                  -5.573
REMARK INTRA:                  -0.096
REMARK UNBOUND:                -0.093
REMARK SMILES C=C(C)[C@H]1CC=C(C)C(=O)C1
REMARK SMILES IDX 8 1 7 2 6 3 5 4 4 5 11 6 9 7 10 8 2 9 1 10 3 11
REMARK H PARENT
REMARK Flexibility Score: inf
ROOT
ATOM      1  C   UNL     1     -14.837 -14.174  31.316  1.00  0.00     0.048 C 
ATOM      2  C   UNL     1     -13.946 -15.385  31.288  1.00  0.00    -0.012 C 
ATOM      3  C   UNL     1     -13.792 -16.137  32.392  1.00  0.00    -0.019 C 
ATOM      4  C   UNL     1     -12.850 -17.311  32.435  1.00  0.00     0.036 C 
ATOM      5  C   UNL     1     -12.720 -17.971  31.048  1.00  0.00     0.025 C 
ATOM      6  C   UNL     1     -12.304 -16.927  29.995  1.00  0.00     0.089 C 
ATOM      7  C   UNL     1     -13.217 -15.733  30.042  1.00  0.00     0.158 C 
ATOM      8  O   UNL     1     -13.325 -15.000  29.022  1.00  0.00    -0.295 OA
ENDROOT
BRANCH   5   9
ATOM      9  C   UNL     1     -11.765 -19.154  31.075  1.00  0.00    -0.077 C 
ATOM     10  C   UNL     1     -10.504 -19.050  30.617  1.00  0.00     0.008 C 
ATOM     11  C   UNL     1     -12.257 -20.464  31.633  1.00  0.00     0.039 C 
ENDBRANCH   5   9
TORSDOF 1
ENDMDL
MODEL 9
REMARK VINA RESULT:    -5.166      2.406      4.772
REMARK INTER + INTRA:          -5.561
REMARK INTER:                  -5.464
REMARK INTRA:                  -0.097
REMARK UNBOUND:                -0.093
REMARK SMILES C=C(C)[C@H]1CC=C(C)C(=O)C1
REMARK SMILES IDX 8 1 7 2 6 3 5 4 4 5 11 6 9 7 10 8 2 9 1 10 3 11
REMARK H PARENT
REMARK Flexibility Score: inf
ROOT
ATOM      1  C   UNL     1     -13.583 -16.485  26.717  1.00  0.00     0.048 C 
ATOM      2  C   UNL     1     -12.878 -16.707  28.027  1.00  0.00    -0.012 C 
ATOM      3  C   UNL     1     -12.056 -15.764  28.521  1.00  0.00    -0.019 C 
ATOM      4  C   UNL     1     -11.268 -15.974  29.786  1.00  0.00     0.036 C 
ATOM      5  C   UNL     1     -12.014 -16.907  30.758  1.00  0.00     0.025 C 
ATOM      6  C   UNL     1     -12.365 -18.236  30.063  1.00  0.00     0.089 C 
ATOM      7  C   UNL     1     -13.075 -17.982  28.761  1.00  0.00     0.158 C 
ATOM      8  O   UNL     1     -13.808 -18.884  28.275  1.00  0.00    -0.295 OA
ENDROOT
BRANCH   5   9
ATOM      9  C   UNL     1     -11.226 -17.134  32.039  1.00  0.00    -0.077 C 
ATOM     10  C   UNL     1     -10.631 -18.311  32.298  1.00  0.00     0.008 C 
ATOM     11  C   UNL     1     -11.118 -16.001  33.027  1.00  0.00     0.039 C 
ENDBRANCH   5   9
TORSDOF 1
ENDMDL
