MODEL 1
REMARK VINA RESULT:    -2.147      0.000      0.000
REMARK INTER + INTRA:          -2.147
REMARK INTER:                  -2.147
REMARK INTRA:                   0.000
REMARK UNBOUND:                 0.000
REMARK SMILES CC(=O)[O-]
REMARK SMILES IDX 1 1 2 2 3 3 4 4
REMARK H PARENT
REMARK Flexibility Score: inf
ROOT
ATOM      1  C   UNL     1      45.690 -23.054  -0.077  1.00  0.00     0.063 C 
ATOM      2  C   UNL     1      45.341 -24.470  -0.386  1.00  0.00     0.038 C 
ATOM      3  O   UNL     1      45.285 -25.324   0.538  1.00  0.00    -0.550 OA
ATOM      4  O   UNL     1      45.026 -24.842  -1.687  1.00  0.00    -0.550 OA
ENDROOT
TORSDOF 0
ENDMDL
MODEL 2
REMARK VINA RESULT:    -2.125      0.107      1.622
REMARK INTER + INTRA:          -2.125
REMARK INTER:                  -2.125
REMARK INTRA:                   0.000
REMARK UNBOUND:                 0.000
REMARK SMILES CC(=O)[O-]
REMARK SMILES IDX 1 1 2 2 3 3 4 4
REMARK H PARENT
REMARK Flexibility Score: inf
ROOT
ATOM      1  C   UNL     1      45.686 -23.089  -0.058  1.00  0.00     0.063 C 
ATOM      2  C   UNL     1      45.327 -24.499  -0.382  1.00  0.00     0.038 C 
ATOM      3  O   UNL     1      45.074 -24.829  -1.570  1.00  0.00    -0.550 OA
ATOM      4  O   UNL     1      45.322 -25.464   0.617  1.00  0.00    -0.550 OA
ENDROOT
TORSDOF 0
ENDMDL
MODEL 3
REMARK VINA RESULT:    -1.955      3.542      4.026
REMARK INTER + INTRA:          -1.955
REMARK INTER:                  -1.955
REMARK INTRA:                   0.000
REMARK UNBOUND:                 0.000
REMARK SMILES CC(=O)[O-]
REMARK SMILES IDX 1 1 2 2 3 3 4 4
REMARK H PARENT
REMARK Flexibility Score: inf
ROOT
ATOM      1  C   UNL     1      46.125 -26.845   3.530  1.00  0.00     0.063 C 
ATOM      2  C   UNL     1      45.644 -27.243   2.176  1.00  0.00     0.038 C 
ATOM      3  O   UNL     1      45.770 -28.434   1.785  1.00  0.00    -0.550 OA
ATOM      4  O   UNL     1      45.006 -26.316   1.362  1.00  0.00    -0.550 OA
ENDROOT
TORSDOF 0
ENDMDL
MODEL 4
REMARK VINA RESULT:    -1.954      1.480      1.681
REMARK INTER + INTRA:          -1.954
REMARK INTER:                  -1.954
REMARK INTRA:                   0.000
REMARK UNBOUND:                 0.000
REMARK SMILES CC(=O)[O-]
REMARK SMILES IDX 1 1 2 2 3 3 4 4
REMARK H PARENT
REMARK Flexibility Score: inf
ROOT
ATOM      1  C   UNL     1      45.697 -24.987   0.930  1.00  0.00     0.063 C 
ATOM      2  C   UNL     1      45.617 -24.723  -0.535  1.00  0.00     0.038 C 
ATOM      3  O   UNL     1      45.918 -25.627  -1.357  1.00  0.00    -0.550 OA
ATOM      4  O   UNL     1      45.158 -23.496  -0.998  1.00  0.00    -0.550 OA
ENDROOT
TORSDOF 0
ENDMDL
MODEL 5
REMARK VINA RESULT:    -1.909     12.910     13.608
REMARK INTER + INTRA:          -1.909
REMARK INTER:                  -1.909
REMARK INTRA:                   0.000
REMARK UNBOUND:                 0.000
REMARK SMILES CC(=O)[O-]
REMARK SMILES IDX 1 1 2 2 3 3 4 4
REMARK H PARENT
REMARK Flexibility Score: inf
ROOT
ATOM      1  C   UNL     1      46.033 -14.950  -8.554  1.00  0.00     0.063 C 
ATOM      2  C   UNL     1      46.107 -13.502  -8.208  1.00  0.00     0.038 C 
ATOM      3  O   UNL     1      46.108 -12.634  -9.120  1.00  0.00    -0.550 OA
ATOM      4  O   UNL     1      46.123 -13.103  -6.878  1.00  0.00    -0.550 OA
ENDROOT
TORSDOF 0
ENDMDL
MODEL 6
REMARK VINA RESULT:    -1.905      8.995      9.308
REMARK INTER + INTRA:          -1.905
REMARK INTER:                  -1.905
REMARK INTRA:                   0.000
REMARK UNBOUND:                 0.000
REMARK SMILES CC(=O)[O-]
REMARK SMILES IDX 1 1 2 2 3 3 4 4
REMARK H PARENT
REMARK Flexibility Score: inf
ROOT
ATOM      1  C   UNL     1      38.784 -18.148   1.418  1.00  0.00     0.063 C 
ATOM      2  C   UNL     1      38.698 -18.073  -0.068  1.00  0.00     0.038 C 
ATOM      3  O   UNL     1      38.793 -16.961  -0.652  1.00  0.00    -0.550 OA
ATOM      4  O   UNL     1      38.568 -19.235  -0.818  1.00  0.00    -0.550 OA
ENDROOT
TORSDOF 0
ENDMDL
MODEL 7
REMARK VINA RESULT:    -1.862      9.148      9.322
REMARK INTER + INTRA:          -1.862
REMARK INTER:                  -1.862
REMARK INTRA:                   0.000
REMARK UNBOUND:                 0.000
REMARK SMILES CC(=O)[O-]
REMARK SMILES IDX 1 1 2 2 3 3 4 4
REMARK H PARENT
REMARK Flexibility Score: inf
ROOT
ATOM      1  C   UNL     1      38.582 -16.625  -0.316  1.00  0.00     0.063 C 
ATOM      2  C   UNL     1      38.649 -18.032   0.172  1.00  0.00     0.038 C 
ATOM      3  O   UNL     1      38.662 -18.272   1.408  1.00  0.00    -0.550 OA
ATOM      4  O   UNL     1      38.644 -19.086  -0.734  1.00  0.00    -0.550 OA
ENDROOT
TORSDOF 0
ENDMDL
MODEL 8
REMARK VINA RESULT:    -1.825      5.970      6.475
REMARK INTER + INTRA:          -1.825
REMARK INTER:                  -1.825
REMARK INTRA:                   0.000
REMARK UNBOUND:                 0.000
REMARK SMILES CC(=O)[O-]
REMARK SMILES IDX 1 1 2 2 3 3 4 4
REMARK H PARENT
REMARK Flexibility Score: inf
ROOT
ATOM      1  C   UNL     1      45.546 -24.889  -5.475  1.00  0.00     0.063 C 
ATOM      2  C   UNL     1      45.729 -23.974  -6.637  1.00  0.00     0.038 C 
ATOM      3  O   UNL     1      45.635 -22.728  -6.481  1.00  0.00    -0.550 OA
ATOM      4  O   UNL     1      46.056 -24.488  -7.885  1.00  0.00    -0.550 OA
ENDROOT
TORSDOF 0
ENDMDL
MODEL 9
REMARK VINA RESULT:    -1.588      9.090      9.726
REMARK INTER + INTRA:          -1.588
REMARK INTER:                  -1.588
REMARK INTRA:                   0.000
REMARK UNBOUND:                 0.000
REMARK SMILES CC(=O)[O-]
REMARK SMILES IDX 1 1 2 2 3 3 4 4
REMARK H PARENT
REMARK Flexibility Score: inf
ROOT
ATOM      1  C   UNL     1      46.125 -29.180   7.377  1.00  0.00     0.063 C 
ATOM      2  C   UNL     1      45.710 -28.086   8.301  1.00  0.00     0.038 C 
ATOM      3  O   UNL     1      45.751 -26.887   7.920  1.00  0.00    -0.550 OA
ATOM      4  O   UNL     1      45.225 -28.389   9.567  1.00  0.00    -0.550 OA
ENDROOT
TORSDOF 0
ENDMDL
