MODEL 1
REMARK VINA RESULT:    -3.601      0.000      0.000
REMARK INTER + INTRA:          -4.385
REMARK INTER:                  -4.233
REMARK INTRA:                  -0.152
REMARK UNBOUND:                -0.152
REMARK SMILES O=C([O-])CCC(=O)[O-]
REMARK SMILES IDX 4 1 2 2 1 3 3 4 5 5 6 6 7 7 8 8
REMARK H PARENT
REMARK Flexibility Score: inf
ROOT
ATOM      1  C   UNL     1     160.530 166.706 148.899  1.00  0.00     0.059 C 
ENDROOT
BRANCH   1   2
ATOM      2  C   UNL     1     161.501 166.964 150.008  1.00  0.00     0.042 C 
ATOM      3  O   UNL     1     161.971 168.119 150.183  1.00  0.00    -0.550 OA
ATOM      4  O   UNL     1     161.924 165.918 150.819  1.00  0.00    -0.550 OA
ENDBRANCH   1   2
BRANCH   1   5
ATOM      5  C   UNL     1     159.233 167.482 149.134  1.00  0.00     0.059 C 
BRANCH   5   6
ATOM      6  C   UNL     1     158.384 166.785 150.149  1.00  0.00     0.042 C 
ATOM      7  O   UNL     1     157.961 165.619 149.930  1.00  0.00    -0.550 OA
ATOM      8  O   UNL     1     158.099 167.404 151.360  1.00  0.00    -0.550 OA
ENDBRANCH   5   6
ENDBRANCH   1   5
TORSDOF 3
ENDMDL
MODEL 2
REMARK VINA RESULT:    -3.600     23.313     23.913
REMARK INTER + INTRA:          -4.384
REMARK INTER:                  -4.225
REMARK INTRA:                  -0.159
REMARK UNBOUND:                -0.152
REMARK SMILES O=C([O-])CCC(=O)[O-]
REMARK SMILES IDX 4 1 2 2 1 3 3 4 5 5 6 6 7 7 8 8
REMARK H PARENT
REMARK Flexibility Score: inf
ROOT
ATOM      1  C   UNL     1     160.524 151.318 169.063  1.00  0.00     0.059 C 
ENDROOT
BRANCH   1   2
ATOM      2  C   UNL     1     161.515 151.052 167.974  1.00  0.00     0.042 C 
ATOM      3  O   UNL     1     162.007 149.901 167.832  1.00  0.00    -0.550 OA
ATOM      4  O   UNL     1     161.933 152.087 167.147  1.00  0.00    -0.550 OA
ENDBRANCH   1   2
BRANCH   1   5
ATOM      5  C   UNL     1     159.253 150.496 168.841  1.00  0.00     0.059 C 
BRANCH   5   6
ATOM      6  C   UNL     1     158.419 151.104 167.759  1.00  0.00     0.042 C 
ATOM      7  O   UNL     1     157.873 152.226 167.934  1.00  0.00    -0.550 OA
ATOM      8  O   UNL     1     158.284 150.456 166.538  1.00  0.00    -0.550 OA
ENDBRANCH   5   6
ENDBRANCH   1   5
TORSDOF 3
ENDMDL
MODEL 3
REMARK VINA RESULT:    -3.600     23.342     24.110
REMARK INTER + INTRA:          -4.383
REMARK INTER:                  -4.222
REMARK INTRA:                  -0.162
REMARK UNBOUND:                -0.152
REMARK SMILES O=C([O-])CCC(=O)[O-]
REMARK SMILES IDX 4 1 2 2 1 3 3 4 5 5 6 6 7 7 8 8
REMARK H PARENT
REMARK Flexibility Score: inf
ROOT
ATOM      1  C   UNL     1     159.229 150.465 168.839  1.00  0.00     0.059 C 
ENDROOT
BRANCH   1   2
ATOM      2  C   UNL     1     158.424 151.099 167.749  1.00  0.00     0.042 C 
ATOM      3  O   UNL     1     157.843 152.198 167.949  1.00  0.00    -0.550 OA
ATOM      4  O   UNL     1     158.275 150.452 166.528  1.00  0.00    -0.550 OA
ENDBRANCH   1   2
BRANCH   1   5
ATOM      5  C   UNL     1     160.505 151.269 169.097  1.00  0.00     0.059 C 
BRANCH   5   6
ATOM      6  C   UNL     1     161.508 151.019 168.017  1.00  0.00     0.042 C 
ATOM      7  O   UNL     1     161.987 149.866 167.850  1.00  0.00    -0.550 OA
ATOM      8  O   UNL     1     161.880 152.049 167.161  1.00  0.00    -0.550 OA
ENDBRANCH   5   6
ENDBRANCH   1   5
TORSDOF 3
ENDMDL
MODEL 4
REMARK VINA RESULT:    -3.595     15.341     15.954
REMARK INTER + INTRA:          -4.378
REMARK INTER:                  -4.217
REMARK INTRA:                  -0.161
REMARK UNBOUND:                -0.152
REMARK SMILES O=C([O-])CCC(=O)[O-]
REMARK SMILES IDX 4 1 2 2 1 3 3 4 5 5 6 6 7 7 8 8
REMARK H PARENT
REMARK Flexibility Score: inf
ROOT
ATOM      1  C   UNL     1     158.753 150.454 149.160  1.00  0.00     0.059 C 
ENDROOT
BRANCH   1   2
ATOM      2  C   UNL     1     159.563 151.090 150.245  1.00  0.00     0.042 C 
ATOM      3  O   UNL     1     160.125 152.200 150.048  1.00  0.00    -0.550 OA
ATOM      4  O   UNL     1     159.737 150.436 151.458  1.00  0.00    -0.550 OA
ENDBRANCH   1   2
BRANCH   1   5
ATOM      5  C   UNL     1     157.478 151.259 148.903  1.00  0.00     0.059 C 
BRANCH   5   6
ATOM      6  C   UNL     1     156.475 151.012 149.986  1.00  0.00     0.042 C 
ATOM      7  O   UNL     1     156.002 149.858 150.159  1.00  0.00    -0.550 OA
ATOM      8  O   UNL     1     156.100 152.045 150.835  1.00  0.00    -0.550 OA
ENDBRANCH   5   6
ENDBRANCH   1   5
TORSDOF 3
ENDMDL
MODEL 5
REMARK VINA RESULT:    -3.595      0.106      3.578
REMARK INTER + INTRA:          -4.378
REMARK INTER:                  -4.219
REMARK INTRA:                  -0.159
REMARK UNBOUND:                -0.152
REMARK SMILES O=C([O-])CCC(=O)[O-]
REMARK SMILES IDX 4 1 2 2 1 3 3 4 5 5 6 6 7 7 8 8
REMARK H PARENT
REMARK Flexibility Score: inf
ROOT
ATOM      1  C   UNL     1     159.233 167.529 149.161  1.00  0.00     0.059 C 
ENDROOT
BRANCH   1   2
ATOM      2  C   UNL     1     158.419 166.868 150.228  1.00  0.00     0.042 C 
ATOM      3  O   UNL     1     157.876 165.752 150.010  1.00  0.00    -0.550 OA
ATOM      4  O   UNL     1     158.220 167.505 151.446  1.00  0.00    -0.550 OA
ENDBRANCH   1   2
BRANCH   1   5
ATOM      5  C   UNL     1     160.515 166.737 148.899  1.00  0.00     0.059 C 
BRANCH   5   6
ATOM      6  C   UNL     1     161.514 166.984 149.985  1.00  0.00     0.042 C 
ATOM      7  O   UNL     1     161.995 168.136 150.154  1.00  0.00    -0.550 OA
ATOM      8  O   UNL     1     161.878 165.954 150.843  1.00  0.00    -0.550 OA
ENDBRANCH   5   6
ENDBRANCH   1   5
TORSDOF 3
ENDMDL
MODEL 6
REMARK VINA RESULT:    -3.594     15.252     16.281
REMARK INTER + INTRA:          -4.376
REMARK INTER:                  -4.222
REMARK INTRA:                  -0.155
REMARK UNBOUND:                -0.152
REMARK SMILES O=C([O-])CCC(=O)[O-]
REMARK SMILES IDX 4 1 2 2 1 3 3 4 5 5 6 6 7 7 8 8
REMARK H PARENT
REMARK Flexibility Score: inf
ROOT
ATOM      1  C   UNL     1     157.522 151.353 148.930  1.00  0.00     0.059 C 
ENDROOT
BRANCH   1   2
ATOM      2  C   UNL     1     156.525 151.048 150.003  1.00  0.00     0.042 C 
ATOM      3  O   UNL     1     156.106 149.871 150.162  1.00  0.00    -0.550 OA
ATOM      4  O   UNL     1     156.022 152.071 150.797  1.00  0.00    -0.550 OA
ENDBRANCH   1   2
BRANCH   1   5
ATOM      5  C   UNL     1     158.802 150.545 149.145  1.00  0.00     0.059 C 
BRANCH   5   6
ATOM      6  C   UNL     1     159.633 151.159 150.227  1.00  0.00     0.042 C 
ATOM      7  O   UNL     1     160.154 152.293 150.059  1.00  0.00    -0.550 OA
ATOM      8  O   UNL     1     159.792 150.501 151.440  1.00  0.00    -0.550 OA
ENDBRANCH   5   6
ENDBRANCH   1   5
TORSDOF 3
ENDMDL
MODEL 7
REMARK VINA RESULT:    -3.592     17.283     18.288
REMARK INTER + INTRA:          -4.375
REMARK INTER:                  -4.219
REMARK INTRA:                  -0.156
REMARK UNBOUND:                -0.152
REMARK SMILES O=C([O-])CCC(=O)[O-]
REMARK SMILES IDX 4 1 2 2 1 3 3 4 5 5 6 6 7 7 8 8
REMARK H PARENT
REMARK Flexibility Score: inf
ROOT
ATOM      1  C   UNL     1     157.492 166.662 169.063  1.00  0.00     0.059 C 
ENDROOT
BRANCH   1   2
ATOM      2  C   UNL     1     156.496 166.935 167.981  1.00  0.00     0.042 C 
ATOM      3  O   UNL     1     156.040 168.097 167.819  1.00  0.00    -0.550 OA
ATOM      4  O   UNL     1     156.035 165.895 167.183  1.00  0.00    -0.550 OA
ENDBRANCH   1   2
BRANCH   1   5
ATOM      5  C   UNL     1     158.766 167.478 168.836  1.00  0.00     0.059 C 
BRANCH   5   6
ATOM      6  C   UNL     1     159.603 166.853 167.765  1.00  0.00     0.042 C 
ATOM      7  O   UNL     1     160.155 165.738 167.962  1.00  0.00    -0.550 OA
ATOM      8  O   UNL     1     159.735 167.478 166.532  1.00  0.00    -0.550 OA
ENDBRANCH   5   6
ENDBRANCH   1   5
TORSDOF 3
ENDMDL
MODEL 8
REMARK VINA RESULT:    -3.590     17.290     18.063
REMARK INTER + INTRA:          -4.372
REMARK INTER:                  -4.206
REMARK INTRA:                  -0.166
REMARK UNBOUND:                -0.152
REMARK SMILES O=C([O-])CCC(=O)[O-]
REMARK SMILES IDX 4 1 2 2 1 3 3 4 5 5 6 6 7 7 8 8
REMARK H PARENT
REMARK Flexibility Score: inf
ROOT
ATOM      1  C   UNL     1     158.837 167.512 168.834  1.00  0.00     0.059 C 
ENDROOT
BRANCH   1   2
ATOM      2  C   UNL     1     159.598 166.877 167.714  1.00  0.00     0.042 C 
ATOM      3  O   UNL     1     160.167 165.766 167.885  1.00  0.00    -0.550 OA
ATOM      4  O   UNL     1     159.719 167.533 166.495  1.00  0.00    -0.550 OA
ENDBRANCH   1   2
BRANCH   1   5
ATOM      5  C   UNL     1     157.554 166.730 169.121  1.00  0.00     0.059 C 
BRANCH   5   6
ATOM      6  C   UNL     1     156.535 166.988 168.057  1.00  0.00     0.042 C 
ATOM      7  O   UNL     1     156.087 168.151 167.877  1.00  0.00    -0.550 OA
ATOM      8  O   UNL     1     156.117 165.953 167.230  1.00  0.00    -0.550 OA
ENDBRANCH   5   6
ENDBRANCH   1   5
TORSDOF 3
ENDMDL
MODEL 9
REMARK VINA RESULT:    -3.540     17.251     18.289
REMARK INTER + INTRA:          -4.313
REMARK INTER:                  -4.152
REMARK INTRA:                  -0.161
REMARK UNBOUND:                -0.152
REMARK SMILES O=C([O-])CCC(=O)[O-]
REMARK SMILES IDX 4 1 2 2 1 3 3 4 5 5 6 6 7 7 8 8
REMARK H PARENT
REMARK Flexibility Score: inf
ROOT
ATOM      1  C   UNL     1     157.493 166.702 169.067  1.00  0.00     0.059 C 
ENDROOT
BRANCH   1   2
ATOM      2  C   UNL     1     156.466 166.852 167.989  1.00  0.00     0.042 C 
ATOM      3  O   UNL     1     156.197 165.882 167.232  1.00  0.00    -0.550 OA
ATOM      4  O   UNL     1     155.841 168.076 167.790  1.00  0.00    -0.550 OA
ENDBRANCH   1   2
BRANCH   1   5
ATOM      5  C   UNL     1     158.712 167.576 168.769  1.00  0.00     0.059 C 
BRANCH   5   6
ATOM      6  C   UNL     1     159.549 166.958 167.695  1.00  0.00     0.042 C 
ATOM      7  O   UNL     1     160.076 165.828 167.873  1.00  0.00    -0.550 OA
ATOM      8  O   UNL     1     159.709 167.607 166.477  1.00  0.00    -0.550 OA
ENDBRANCH   5   6
ENDBRANCH   1   5
TORSDOF 3
ENDMDL
