MODEL 1
REMARK VINA RESULT:    -4.551      0.000      0.000
REMARK INTER + INTRA:          -5.288
REMARK INTER:                  -5.083
REMARK INTRA:                  -0.204
REMARK UNBOUND:                -0.204
REMARK SMILES CC(C)c1ccc(C(=O)[O-])cc1
REMARK SMILES IDX 7 1 6 2 11 3 5 4 12 5 4 6 8 7 9 8 10 9 2 10 1 11 3 12
REMARK H PARENT
REMARK Flexibility Score: inf
ROOT
ATOM      1  C   UNL     1       4.474 -36.242  20.287  1.00  0.00    -0.003 A 
ATOM      2  C   UNL     1       3.577 -37.210  19.807  1.00  0.00     0.010 A 
ATOM      3  C   UNL     1       4.946 -35.254  19.404  1.00  0.00     0.010 A 
ATOM      4  C   UNL     1       3.161 -37.192  18.472  1.00  0.00     0.004 A 
ATOM      5  C   UNL     1       4.530 -35.237  18.071  1.00  0.00     0.004 A 
ATOM      6  C   UNL     1       3.633 -36.205  17.588  1.00  0.00    -0.045 A 
ENDROOT
BRANCH   1   7
ATOM      7  C   UNL     1       4.912 -36.264  21.700  1.00  0.00     0.071 C 
ATOM      8  O   UNL     1       5.102 -35.188  22.328  1.00  0.00    -0.545 OA
ATOM      9  O   UNL     1       5.121 -37.472  22.354  1.00  0.00    -0.545 OA
ENDBRANCH   1   7
BRANCH   6  10
ATOM     10  C   UNL     1       3.189 -36.175  16.139  1.00  0.00     0.013 C 
ATOM     11  C   UNL     1       3.576 -37.470  15.415  1.00  0.00     0.012 C 
ATOM     12  C   UNL     1       1.684 -35.908  16.026  1.00  0.00     0.012 C 
ENDBRANCH   6  10
TORSDOF 2
ENDMDL
MODEL 2
REMARK VINA RESULT:    -4.537      0.050      1.398
REMARK INTER + INTRA:          -5.272
REMARK INTER:                  -5.065
REMARK INTRA:                  -0.207
REMARK UNBOUND:                -0.204
REMARK SMILES CC(C)c1ccc(C(=O)[O-])cc1
REMARK SMILES IDX 7 1 6 2 11 3 5 4 12 5 4 6 8 7 9 8 10 9 2 10 1 11 3 12
REMARK H PARENT
REMARK Flexibility Score: inf
ROOT
ATOM      1  C   UNL     1       4.481 -36.253  20.277  1.00  0.00    -0.003 A 
ATOM      2  C   UNL     1       4.973 -35.257  19.417  1.00  0.00     0.010 A 
ATOM      3  C   UNL     1       3.577 -37.204  19.770  1.00  0.00     0.010 A 
ATOM      4  C   UNL     1       4.568 -35.210  18.080  1.00  0.00     0.004 A 
ATOM      5  C   UNL     1       3.173 -37.157  18.434  1.00  0.00     0.004 A 
ATOM      6  C   UNL     1       3.663 -36.160  17.572  1.00  0.00    -0.045 A 
ENDROOT
BRANCH   1   7
ATOM      7  C   UNL     1       4.912 -36.299  21.691  1.00  0.00     0.071 C 
ATOM      8  O   UNL     1       5.091 -35.235  22.341  1.00  0.00    -0.545 OA
ATOM      9  O   UNL     1       5.125 -37.518  22.324  1.00  0.00    -0.545 OA
ENDBRANCH   1   7
BRANCH   6  10
ATOM     10  C   UNL     1       3.216 -36.121  16.124  1.00  0.00     0.013 C 
ATOM     11  C   UNL     1       3.611 -37.406  15.387  1.00  0.00     0.012 C 
ATOM     12  C   UNL     1       1.709 -35.864  16.016  1.00  0.00     0.012 C 
ENDBRANCH   6  10
TORSDOF 2
ENDMDL
MODEL 3
REMARK VINA RESULT:    -4.288      3.035      5.048
REMARK INTER + INTRA:          -4.993
REMARK INTER:                  -4.787
REMARK INTRA:                  -0.206
REMARK UNBOUND:                -0.204
REMARK SMILES CC(C)c1ccc(C(=O)[O-])cc1
REMARK SMILES IDX 7 1 6 2 11 3 5 4 12 5 4 6 8 7 9 8 10 9 2 10 1 11 3 12
REMARK H PARENT
REMARK Flexibility Score: inf
ROOT
ATOM      1  C   UNL     1       3.398 -36.519  17.643  1.00  0.00    -0.003 A 
ATOM      2  C   UNL     1       2.999 -37.480  18.585  1.00  0.00     0.010 A 
ATOM      3  C   UNL     1       4.362 -35.563  18.011  1.00  0.00     0.010 A 
ATOM      4  C   UNL     1       3.552 -37.487  19.870  1.00  0.00     0.004 A 
ATOM      5  C   UNL     1       4.915 -35.571  19.294  1.00  0.00     0.004 A 
ATOM      6  C   UNL     1       4.517 -36.532  20.239  1.00  0.00    -0.045 A 
ENDROOT
BRANCH   1   7
ATOM      7  C   UNL     1       2.811 -36.514  16.285  1.00  0.00     0.071 C 
ATOM      8  O   UNL     1       1.693 -35.972  16.072  1.00  0.00    -0.545 OA
ATOM      9  O   UNL     1       3.483 -37.109  15.224  1.00  0.00    -0.545 OA
ENDBRANCH   1   7
BRANCH   6  10
ATOM     10  C   UNL     1       5.124 -36.529  21.628  1.00  0.00     0.013 C 
ATOM     11  C   UNL     1       4.719 -35.272  22.407  1.00  0.00     0.012 C 
ATOM     12  C   UNL     1       4.749 -37.800  22.399  1.00  0.00     0.012 C 
ENDBRANCH   6  10
TORSDOF 2
ENDMDL
MODEL 4
REMARK VINA RESULT:    -4.168      2.071      3.625
REMARK INTER + INTRA:          -4.860
REMARK INTER:                  -4.640
REMARK INTRA:                  -0.220
REMARK UNBOUND:                -0.204
REMARK SMILES CC(C)c1ccc(C(=O)[O-])cc1
REMARK SMILES IDX 7 1 6 2 11 3 5 4 12 5 4 6 8 7 9 8 10 9 2 10 1 11 3 12
REMARK H PARENT
REMARK Flexibility Score: inf
ROOT
ATOM      1  C   UNL     1       4.965 -36.816  23.273  1.00  0.00    -0.003 A 
ATOM      2  C   UNL     1       5.125 -35.514  22.773  1.00  0.00     0.010 A 
ATOM      3  C   UNL     1       4.757 -37.872  22.368  1.00  0.00     0.010 A 
ATOM      4  C   UNL     1       5.077 -35.271  21.397  1.00  0.00     0.004 A 
ATOM      5  C   UNL     1       4.710 -37.629  20.993  1.00  0.00     0.004 A 
ATOM      6  C   UNL     1       4.869 -36.327  20.490  1.00  0.00    -0.045 A 
ENDROOT
BRANCH   1   7
ATOM      7  C   UNL     1       5.016 -37.069  24.730  1.00  0.00     0.071 C 
ATOM      8  O   UNL     1       5.124 -38.244  25.173  1.00  0.00    -0.545 OA
ATOM      9  O   UNL     1       4.944 -36.014  25.631  1.00  0.00    -0.545 OA
ENDBRANCH   1   7
BRANCH   6  10
ATOM     10  C   UNL     1       4.816 -36.077  18.996  1.00  0.00     0.013 C 
ATOM     11  C   UNL     1       3.640 -36.821  18.352  1.00  0.00     0.012 C 
ATOM     12  C   UNL     1       4.755 -34.577  18.687  1.00  0.00     0.012 C 
ENDBRANCH   6  10
TORSDOF 2
ENDMDL
MODEL 5
REMARK VINA RESULT:    -3.868      3.472      5.090
REMARK INTER + INTRA:          -4.524
REMARK INTER:                  -4.318
REMARK INTRA:                  -0.206
REMARK UNBOUND:                -0.204
REMARK SMILES CC(C)c1ccc(C(=O)[O-])cc1
REMARK SMILES IDX 7 1 6 2 11 3 5 4 12 5 4 6 8 7 9 8 10 9 2 10 1 11 3 12
REMARK H PARENT
REMARK Flexibility Score: inf
ROOT
ATOM      1  C   UNL     1       2.972 -36.499  16.808  1.00  0.00    -0.003 A 
ATOM      2  C   UNL     1       2.222 -37.348  17.637  1.00  0.00     0.010 A 
ATOM      3  C   UNL     1       4.063 -35.801  17.357  1.00  0.00     0.010 A 
ATOM      4  C   UNL     1       2.554 -37.498  18.987  1.00  0.00     0.004 A 
ATOM      5  C   UNL     1       4.395 -35.952  18.706  1.00  0.00     0.004 A 
ATOM      6  C   UNL     1       3.645 -36.800  19.537  1.00  0.00    -0.045 A 
ENDROOT
BRANCH   1   7
ATOM      7  C   UNL     1       2.617 -36.343  15.381  1.00  0.00     0.071 C 
ATOM      8  O   UNL     1       1.438 -36.057  15.041  1.00  0.00    -0.545 OA
ATOM      9  O   UNL     1       3.580 -36.511  14.393  1.00  0.00    -0.545 OA
ENDBRANCH   1   7
BRANCH   6  10
ATOM     10  C   UNL     1       4.016 -36.954  21.000  1.00  0.00     0.013 C 
ATOM     11  C   UNL     1       5.125 -37.997  21.182  1.00  0.00     0.012 C 
ATOM     12  C   UNL     1       4.418 -35.608  21.613  1.00  0.00     0.012 C 
ENDBRANCH   6  10
TORSDOF 2
ENDMDL
MODEL 6
REMARK VINA RESULT:    -3.806      2.423      3.940
REMARK INTER + INTRA:          -4.455
REMARK INTER:                  -4.239
REMARK INTRA:                  -0.216
REMARK UNBOUND:                -0.204
REMARK SMILES CC(C)c1ccc(C(=O)[O-])cc1
REMARK SMILES IDX 7 1 6 2 11 3 5 4 12 5 4 6 8 7 9 8 10 9 2 10 1 11 3 12
REMARK H PARENT
REMARK Flexibility Score: inf
ROOT
ATOM      1  C   UNL     1       4.903 -37.181  23.850  1.00  0.00    -0.003 A 
ATOM      2  C   UNL     1       4.718 -38.297  23.020  1.00  0.00     0.010 A 
ATOM      3  C   UNL     1       5.049 -35.911  23.262  1.00  0.00     0.010 A 
ATOM      4  C   UNL     1       4.680 -38.150  21.630  1.00  0.00     0.004 A 
ATOM      5  C   UNL     1       5.010 -35.765  21.873  1.00  0.00     0.004 A 
ATOM      6  C   UNL     1       4.826 -36.881  21.040  1.00  0.00    -0.045 A 
ENDROOT
BRANCH   1   7
ATOM      7  C   UNL     1       4.944 -37.340  25.320  1.00  0.00     0.071 C 
ATOM      8  O   UNL     1       5.098 -38.479  25.837  1.00  0.00    -0.545 OA
ATOM      9  O   UNL     1       4.812 -36.236  26.153  1.00  0.00    -0.545 OA
ENDBRANCH   1   7
BRANCH   6  10
ATOM     10  C   UNL     1       4.785 -36.708  19.534  1.00  0.00     0.013 C 
ATOM     11  C   UNL     1       3.427 -37.135  18.964  1.00  0.00     0.012 C 
ATOM     12  C   UNL     1       5.125 -35.268  19.133  1.00  0.00     0.012 C 
ENDBRANCH   6  10
TORSDOF 2
ENDMDL
MODEL 7
REMARK VINA RESULT:    -2.933      2.893      5.988
REMARK INTER + INTRA:          -3.480
REMARK INTER:                  -3.264
REMARK INTRA:                  -0.216
REMARK UNBOUND:                -0.204
REMARK SMILES CC(C)c1ccc(C(=O)[O-])cc1
REMARK SMILES IDX 7 1 6 2 11 3 5 4 12 5 4 6 8 7 9 8 10 9 2 10 1 11 3 12
REMARK H PARENT
REMARK Flexibility Score: inf
ROOT
ATOM      1  C   UNL     1       4.560 -36.579  20.900  1.00  0.00    -0.003 A 
ATOM      2  C   UNL     1       4.917 -37.925  21.084  1.00  0.00     0.010 A 
ATOM      3  C   UNL     1       4.390 -35.759  22.030  1.00  0.00     0.010 A 
ATOM      4  C   UNL     1       5.099 -38.441  22.370  1.00  0.00     0.004 A 
ATOM      5  C   UNL     1       4.573 -36.276  23.315  1.00  0.00     0.004 A 
ATOM      6  C   UNL     1       4.930 -37.622  23.502  1.00  0.00    -0.045 A 
ENDROOT
BRANCH   1   7
ATOM      7  C   UNL     1       4.368 -36.036  19.538  1.00  0.00     0.071 C 
ATOM      8  O   UNL     1       4.836 -34.909  19.225  1.00  0.00    -0.545 OA
ATOM      9  O   UNL     1       3.667 -36.763  18.582  1.00  0.00    -0.545 OA
ENDBRANCH   1   7
BRANCH   6  10
ATOM     10  C   UNL     1       5.125 -38.170  24.902  1.00  0.00     0.013 C 
ATOM     11  C   UNL     1       4.102 -37.574  25.877  1.00  0.00     0.012 C 
ATOM     12  C   UNL     1       5.068 -39.702  24.910  1.00  0.00     0.012 C 
ENDBRANCH   6  10
TORSDOF 2
ENDMDL
