MODEL 1
REMARK VINA RESULT:    -7.022      0.000      0.000
REMARK INTER + INTRA:          -7.886
REMARK INTER:                  -7.843
REMARK INTRA:                  -0.043
REMARK UNBOUND:                -0.043
REMARK SMILES COc1cc2ccc(=O)oc2c(O)c1O
REMARK SMILES IDX 3 1 14 2 12 3 11 4 5 5 4 6 6 7 7 8 8 9 9 10 10 11 2 12 1 13
REMARK SMILES IDX 15 14 13 16
REMARK H PARENT 15 15 13 17
REMARK Flexibility Score: inf
ROOT
ATOM      1  C   UNL     1      10.159  -6.074 -10.814  1.00  0.00     0.165 A 
ATOM      2  C   UNL     1      10.708  -7.193 -11.470  1.00  0.00     0.204 A 
ATOM      3  C   UNL     1      11.802  -7.038 -12.341  1.00  0.00     0.205 A 
ATOM      4  C   UNL     1      12.349  -5.768 -12.559  1.00  0.00     0.184 A 
ATOM      5  C   UNL     1      11.802  -4.645 -11.905  1.00  0.00     0.025 A 
ATOM      6  C   UNL     1      10.715  -4.798 -11.038  1.00  0.00     0.062 A 
ATOM      7  C   UNL     1      12.372  -3.389 -12.146  1.00  0.00     0.020 A 
ATOM      8  C   UNL     1      13.455  -3.284 -13.017  1.00  0.00     0.094 A 
ATOM      9  C   UNL     1      13.945  -4.441 -13.631  1.00  0.00     0.336 A 
ATOM     10  O   UNL     1      14.921  -4.368 -14.421  1.00  0.00    -0.246 OA
ATOM     11  O   UNL     1      13.384  -5.622 -13.384  1.00  0.00    -0.419 OA
ENDROOT
BRANCH   1  12
ATOM     12  O   UNL     1       9.067  -6.264  -9.951  1.00  0.00    -0.493 OA
ATOM     13  C   UNL     1       7.704  -6.260 -10.359  1.00  0.00     0.278 C 
ENDBRANCH   1  12
BRANCH   2  14
ATOM     14  O   UNL     1      10.176  -8.467 -11.263  1.00  0.00    -0.502 OA
ATOM     15  H   UNL     1      10.490  -9.277 -11.784  1.00  0.00     0.293 HD
ENDBRANCH   2  14
BRANCH   3  16
ATOM     16  O   UNL     1      12.357  -8.138 -12.998  1.00  0.00    -0.502 OA
ATOM     17  H   UNL     1      11.888  -8.600 -13.768  1.00  0.00     0.293 HD
ENDBRANCH   3  16
TORSDOF 3
ENDMDL
MODEL 2
REMARK VINA RESULT:    -6.961      1.372      5.004
REMARK INTER + INTRA:          -7.817
REMARK INTER:                  -7.760
REMARK INTRA:                  -0.058
REMARK UNBOUND:                -0.043
REMARK SMILES COc1cc2ccc(=O)oc2c(O)c1O
REMARK SMILES IDX 3 1 14 2 12 3 11 4 5 5 4 6 6 7 7 8 8 9 9 10 10 11 2 12 1 13
REMARK SMILES IDX 15 14 13 16
REMARK H PARENT 15 15 13 17
REMARK Flexibility Score: inf
ROOT
ATOM      1  C   UNL     1      14.121  -3.912 -13.915  1.00  0.00     0.165 A 
ATOM      2  C   UNL     1      13.934  -5.200 -14.452  1.00  0.00     0.204 A 
ATOM      3  C   UNL     1      12.986  -6.073 -13.886  1.00  0.00     0.205 A 
ATOM      4  C   UNL     1      12.225  -5.661 -12.787  1.00  0.00     0.184 A 
ATOM      5  C   UNL     1      12.409  -4.372 -12.246  1.00  0.00     0.025 A 
ATOM      6  C   UNL     1      13.352  -3.504 -12.808  1.00  0.00     0.062 A 
ATOM      7  C   UNL     1      11.632  -3.993 -11.145  1.00  0.00     0.020 A 
ATOM      8  C   UNL     1      10.705  -4.891 -10.619  1.00  0.00     0.094 A 
ATOM      9  C   UNL     1      10.576  -6.153 -11.206  1.00  0.00     0.336 A 
ATOM     10  O   UNL     1       9.746  -6.979 -10.746  1.00  0.00    -0.246 OA
ATOM     11  O   UNL     1      11.328  -6.488 -12.252  1.00  0.00    -0.419 OA
ENDROOT
BRANCH   1  12
ATOM     12  O   UNL     1      15.077  -3.066 -14.504  1.00  0.00    -0.493 OA
ATOM     13  C   UNL     1      16.091  -2.370 -13.788  1.00  0.00     0.278 C 
ENDBRANCH   1  12
BRANCH   2  14
ATOM     14  O   UNL     1      14.684  -5.627 -15.549  1.00  0.00    -0.502 OA
ATOM     15  H   UNL     1      14.757  -6.603 -15.810  1.00  0.00     0.293 HD
ENDBRANCH   2  14
BRANCH   3  16
ATOM     16  O   UNL     1      12.790  -7.353 -14.408  1.00  0.00    -0.502 OA
ATOM     17  H   UNL     1      12.270  -8.065 -13.909  1.00  0.00     0.293 HD
ENDBRANCH   3  16
TORSDOF 3
ENDMDL
MODEL 3
REMARK VINA RESULT:    -6.808      1.649      5.067
REMARK INTER + INTRA:          -7.646
REMARK INTER:                  -7.594
REMARK INTRA:                  -0.052
REMARK UNBOUND:                -0.043
REMARK SMILES COc1cc2ccc(=O)oc2c(O)c1O
REMARK SMILES IDX 3 1 14 2 12 3 11 4 5 5 4 6 6 7 7 8 8 9 9 10 10 11 2 12 1 13
REMARK SMILES IDX 15 14 13 16
REMARK H PARENT 15 15 13 17
REMARK Flexibility Score: inf
ROOT
ATOM      1  C   UNL     1      12.521  -4.618 -12.628  1.00  0.00     0.165 A 
ATOM      2  C   UNL     1      11.715  -4.481 -11.481  1.00  0.00     0.204 A 
ATOM      3  C   UNL     1      10.998  -5.584 -10.983  1.00  0.00     0.205 A 
ATOM      4  C   UNL     1      11.083  -6.823 -11.628  1.00  0.00     0.184 A 
ATOM      5  C   UNL     1      11.888  -6.965 -12.777  1.00  0.00     0.025 A 
ATOM      6  C   UNL     1      12.602  -5.869 -13.273  1.00  0.00     0.062 A 
ATOM      7  C   UNL     1      11.950  -8.218 -13.398  1.00  0.00     0.020 A 
ATOM      8  C   UNL     1      11.222  -9.282 -12.869  1.00  0.00     0.094 A 
ATOM      9  C   UNL     1      10.444  -9.068 -11.727  1.00  0.00     0.336 A 
ATOM     10  O   UNL     1       9.779 -10.016 -11.234  1.00  0.00    -0.246 OA
ATOM     11  O   UNL     1      10.403  -7.867 -11.156  1.00  0.00    -0.419 OA
ENDROOT
BRANCH   1  12
ATOM     12  O   UNL     1      13.224  -3.496 -13.098  1.00  0.00    -0.493 OA
ATOM     13  C   UNL     1      14.501  -3.546 -13.726  1.00  0.00     0.278 C 
ENDBRANCH   1  12
BRANCH   2  14
ATOM     14  O   UNL     1      11.619  -3.253 -10.825  1.00  0.00    -0.502 OA
ATOM     15  H   UNL     1      10.729  -2.814 -10.622  1.00  0.00     0.293 HD
ENDBRANCH   2  14
BRANCH   3  16
ATOM     16  O   UNL     1      10.195  -5.463  -9.847  1.00  0.00    -0.502 OA
ATOM     17  H   UNL     1       9.344  -4.915  -9.844  1.00  0.00     0.293 HD
ENDBRANCH   3  16
TORSDOF 3
ENDMDL
MODEL 4
REMARK VINA RESULT:    -6.613      1.186      1.504
REMARK INTER + INTRA:          -7.429
REMARK INTER:                  -7.373
REMARK INTRA:                  -0.057
REMARK UNBOUND:                -0.043
REMARK SMILES COc1cc2ccc(=O)oc2c(O)c1O
REMARK SMILES IDX 3 1 14 2 12 3 11 4 5 5 4 6 6 7 7 8 8 9 9 10 10 11 2 12 1 13
REMARK SMILES IDX 15 14 13 16
REMARK H PARENT 15 15 13 17
REMARK Flexibility Score: inf
ROOT
ATOM      1  C   UNL     1      10.353  -7.641 -11.379  1.00  0.00     0.165 A 
ATOM      2  C   UNL     1      11.102  -8.105 -12.477  1.00  0.00     0.204 A 
ATOM      3  C   UNL     1      12.012  -7.250 -13.126  1.00  0.00     0.205 A 
ATOM      4  C   UNL     1      12.176  -5.934 -12.680  1.00  0.00     0.184 A 
ATOM      5  C   UNL     1      11.427  -5.465 -11.580  1.00  0.00     0.025 A 
ATOM      6  C   UNL     1      10.522  -6.314 -10.935  1.00  0.00     0.062 A 
ATOM      7  C   UNL     1      11.614  -4.143 -11.160  1.00  0.00     0.020 A 
ATOM      8  C   UNL     1      12.527  -3.333 -11.833  1.00  0.00     0.094 A 
ATOM      9  C   UNL     1      13.235  -3.865 -12.916  1.00  0.00     0.336 A 
ATOM     10  O   UNL     1      14.063  -3.150 -13.537  1.00  0.00    -0.246 OA
ATOM     11  O   UNL     1      13.037  -5.125 -13.294  1.00  0.00    -0.419 OA
ENDROOT
BRANCH   1  12
ATOM     12  O   UNL     1       9.453  -8.521 -10.755  1.00  0.00    -0.493 OA
ATOM     13  C   UNL     1       8.105  -8.201 -10.426  1.00  0.00     0.278 C 
ENDBRANCH   1  12
BRANCH   2  14
ATOM     14  O   UNL     1      10.952  -9.415 -12.935  1.00  0.00    -0.502 OA
ATOM     15  H   UNL     1      10.458 -10.122 -12.405  1.00  0.00     0.293 HD
ENDBRANCH   2  14
BRANCH   3  16
ATOM     16  O   UNL     1      12.762  -7.696 -14.216  1.00  0.00    -0.502 OA
ATOM     17  H   UNL     1      12.712  -8.650 -14.551  1.00  0.00     0.293 HD
ENDBRANCH   3  16
TORSDOF 3
ENDMDL
MODEL 5
REMARK VINA RESULT:    -6.440      1.739      3.095
REMARK INTER + INTRA:          -7.236
REMARK INTER:                  -7.186
REMARK INTRA:                  -0.050
REMARK UNBOUND:                -0.043
REMARK SMILES COc1cc2ccc(=O)oc2c(O)c1O
REMARK SMILES IDX 3 1 14 2 12 3 11 4 5 5 4 6 6 7 7 8 8 9 9 10 10 11 2 12 1 13
REMARK SMILES IDX 15 14 13 16
REMARK H PARENT 15 15 13 17
REMARK Flexibility Score: inf
ROOT
ATOM      1  C   UNL     1      11.505  -6.661 -12.510  1.00  0.00     0.165 A 
ATOM      2  C   UNL     1      11.311  -5.523 -11.703  1.00  0.00     0.204 A 
ATOM      3  C   UNL     1      12.101  -4.374 -11.898  1.00  0.00     0.205 A 
ATOM      4  C   UNL     1      13.082  -4.360 -12.896  1.00  0.00     0.184 A 
ATOM      5  C   UNL     1      13.280  -5.497 -13.705  1.00  0.00     0.025 A 
ATOM      6  C   UNL     1      12.495  -6.640 -13.512  1.00  0.00     0.062 A 
ATOM      7  C   UNL     1      14.270  -5.450 -14.692  1.00  0.00     0.020 A 
ATOM      8  C   UNL     1      15.027  -4.290 -14.849  1.00  0.00     0.094 A 
ATOM      9  C   UNL     1      14.777  -3.200 -14.010  1.00  0.00     0.336 A 
ATOM     10  O   UNL     1      15.449  -2.144 -14.134  1.00  0.00    -0.246 OA
ATOM     11  O   UNL     1      13.829  -3.272 -13.079  1.00  0.00    -0.419 OA
ENDROOT
BRANCH   1  12
ATOM     12  O   UNL     1      10.700  -7.791 -12.288  1.00  0.00    -0.493 OA
ATOM     13  C   UNL     1      11.064  -9.124 -12.632  1.00  0.00     0.278 C 
ENDBRANCH   1  12
BRANCH   2  14
ATOM     14  O   UNL     1      10.337  -5.519 -10.704  1.00  0.00    -0.502 OA
ATOM     15  H   UNL     1      10.099  -4.684 -10.182  1.00  0.00     0.293 HD
ENDBRANCH   2  14
BRANCH   3  16
ATOM     16  O   UNL     1      11.920  -3.238 -11.107  1.00  0.00    -0.502 OA
ATOM     17  H   UNL     1      11.037  -2.743 -11.067  1.00  0.00     0.293 HD
ENDBRANCH   3  16
TORSDOF 3
ENDMDL
MODEL 6
REMARK VINA RESULT:    -6.378      9.200     13.269
REMARK INTER + INTRA:          -7.167
REMARK INTER:                  -7.097
REMARK INTRA:                  -0.069
REMARK UNBOUND:                -0.043
REMARK SMILES COc1cc2ccc(=O)oc2c(O)c1O
REMARK SMILES IDX 3 1 14 2 12 3 11 4 5 5 4 6 6 7 7 8 8 9 9 10 10 11 2 12 1 13
REMARK SMILES IDX 15 14 13 16
REMARK H PARENT 15 15 13 17
REMARK Flexibility Score: inf
ROOT
ATOM      1  C   UNL     1       1.746  -5.627  -8.437  1.00  0.00     0.165 A 
ATOM      2  C   UNL     1       0.965  -6.738  -8.066  1.00  0.00     0.204 A 
ATOM      3  C   UNL     1      -0.396  -6.572  -7.745  1.00  0.00     0.205 A 
ATOM      4  C   UNL     1      -0.977  -5.300  -7.796  1.00  0.00     0.184 A 
ATOM      5  C   UNL     1      -0.198  -4.185  -8.166  1.00  0.00     0.025 A 
ATOM      6  C   UNL     1       1.155  -4.349  -8.485  1.00  0.00     0.062 A 
ATOM      7  C   UNL     1      -0.809  -2.927  -8.206  1.00  0.00     0.020 A 
ATOM      8  C   UNL     1      -2.160  -2.811  -7.881  1.00  0.00     0.094 A 
ATOM      9  C   UNL     1      -2.871  -3.961  -7.521  1.00  0.00     0.336 A 
ATOM     10  O   UNL     1      -4.090  -3.878  -7.224  1.00  0.00    -0.246 OA
ATOM     11  O   UNL     1      -2.264  -5.144  -7.492  1.00  0.00    -0.419 OA
ENDROOT
BRANCH   1  12
ATOM     12  O   UNL     1       3.101  -5.828  -8.750  1.00  0.00    -0.493 OA
ATOM     13  C   UNL     1       4.181  -5.596  -7.852  1.00  0.00     0.278 C 
ENDBRANCH   1  12
BRANCH   2  14
ATOM     14  O   UNL     1       1.527  -8.014  -8.011  1.00  0.00    -0.502 OA
ATOM     15  H   UNL     1       2.366  -8.260  -8.523  1.00  0.00     0.293 HD
ENDBRANCH   2  14
BRANCH   3  16
ATOM     16  O   UNL     1      -1.183  -7.665  -7.376  1.00  0.00    -0.502 OA
ATOM     17  H   UNL     1      -2.106  -7.553  -6.974  1.00  0.00     0.293 HD
ENDBRANCH   3  16
TORSDOF 3
ENDMDL
MODEL 7
REMARK VINA RESULT:    -6.192      7.967     10.748
REMARK INTER + INTRA:          -6.958
REMARK INTER:                  -6.889
REMARK INTRA:                  -0.069
REMARK UNBOUND:                -0.043
REMARK SMILES COc1cc2ccc(=O)oc2c(O)c1O
REMARK SMILES IDX 3 1 14 2 12 3 11 4 5 5 4 6 6 7 7 8 8 9 9 10 10 11 2 12 1 13
REMARK SMILES IDX 15 14 13 16
REMARK H PARENT 15 15 13 17
REMARK Flexibility Score: inf
ROOT
ATOM      1  C   UNL     1       0.058  -4.790  -8.068  1.00  0.00     0.165 A 
ATOM      2  C   UNL     1       0.106  -6.198  -8.078  1.00  0.00     0.204 A 
ATOM      3  C   UNL     1       1.345  -6.864  -8.084  1.00  0.00     0.205 A 
ATOM      4  C   UNL     1       2.536  -6.128  -8.080  1.00  0.00     0.184 A 
ATOM      5  C   UNL     1       2.492  -4.719  -8.070  1.00  0.00     0.025 A 
ATOM      6  C   UNL     1       1.260  -4.055  -8.064  1.00  0.00     0.062 A 
ATOM      7  C   UNL     1       3.701  -4.014  -8.067  1.00  0.00     0.020 A 
ATOM      8  C   UNL     1       4.905  -4.717  -8.073  1.00  0.00     0.094 A 
ATOM      9  C   UNL     1       4.872  -6.115  -8.083  1.00  0.00     0.336 A 
ATOM     10  O   UNL     1       5.947  -6.768  -8.089  1.00  0.00    -0.246 OA
ATOM     11  O   UNL     1       3.708  -6.760  -8.085  1.00  0.00    -0.419 OA
ENDROOT
BRANCH   1  12
ATOM     12  O   UNL     1      -1.196  -4.157  -8.063  1.00  0.00    -0.493 OA
ATOM     13  C   UNL     1      -1.814  -3.577  -9.207  1.00  0.00     0.278 C 
ENDBRANCH   1  12
BRANCH   2  14
ATOM     14  O   UNL     1      -1.071  -6.947  -8.082  1.00  0.00    -0.502 OA
ATOM     15  H   UNL     1      -1.070  -7.959  -8.134  1.00  0.00     0.293 HD
ENDBRANCH   2  14
BRANCH   3  16
ATOM     16  O   UNL     1       1.408  -8.259  -8.094  1.00  0.00    -0.502 OA
ATOM     17  H   UNL     1       0.740  -8.833  -7.594  1.00  0.00     0.293 HD
ENDBRANCH   3  16
TORSDOF 3
ENDMDL
MODEL 8
REMARK VINA RESULT:    -6.065      6.051      9.158
REMARK INTER + INTRA:          -6.817
REMARK INTER:                  -6.754
REMARK INTRA:                  -0.063
REMARK UNBOUND:                -0.043
REMARK SMILES COc1cc2ccc(=O)oc2c(O)c1O
REMARK SMILES IDX 3 1 14 2 12 3 11 4 5 5 4 6 6 7 7 8 8 9 9 10 10 11 2 12 1 13
REMARK SMILES IDX 15 14 13 16
REMARK H PARENT 15 15 13 17
REMARK Flexibility Score: inf
ROOT
ATOM      1  C   UNL     1       1.623  -5.540  -8.710  1.00  0.00     0.165 A 
ATOM      2  C   UNL     1       2.388  -4.593  -8.001  1.00  0.00     0.204 A 
ATOM      3  C   UNL     1       3.792  -4.603  -8.095  1.00  0.00     0.205 A 
ATOM      4  C   UNL     1       4.433  -5.555  -8.896  1.00  0.00     0.184 A 
ATOM      5  C   UNL     1       3.672  -6.504  -9.607  1.00  0.00     0.025 A 
ATOM      6  C   UNL     1       2.276  -6.496  -9.514  1.00  0.00     0.062 A 
ATOM      7  C   UNL     1       4.344  -7.443 -10.398  1.00  0.00     0.020 A 
ATOM      8  C   UNL     1       5.737  -7.414 -10.461  1.00  0.00     0.094 A 
ATOM      9  C   UNL     1       6.428  -6.443  -9.728  1.00  0.00     0.336 A 
ATOM     10  O   UNL     1       7.684  -6.400  -9.771  1.00  0.00    -0.246 OA
ATOM     11  O   UNL     1       5.762  -5.563  -8.985  1.00  0.00    -0.419 OA
ENDROOT
BRANCH   1  12
ATOM     12  O   UNL     1       0.224  -5.502  -8.593  1.00  0.00    -0.493 OA
ATOM     13  C   UNL     1      -0.530  -6.265  -7.658  1.00  0.00     0.278 C 
ENDBRANCH   1  12
BRANCH   2  14
ATOM     14  O   UNL     1       1.765  -3.636  -7.199  1.00  0.00    -0.502 OA
ATOM     15  H   UNL     1       1.161  -2.918  -7.580  1.00  0.00     0.293 HD
ENDBRANCH   2  14
BRANCH   3  16
ATOM     16  O   UNL     1       4.563  -3.671  -7.398  1.00  0.00    -0.502 OA
ATOM     17  H   UNL     1       4.228  -3.213  -6.559  1.00  0.00     0.293 HD
ENDBRANCH   3  16
TORSDOF 3
ENDMDL
MODEL 9
REMARK VINA RESULT:    -5.980      9.961     13.114
REMARK INTER + INTRA:          -6.722
REMARK INTER:                  -6.663
REMARK INTRA:                  -0.059
REMARK UNBOUND:                -0.043
REMARK SMILES COc1cc2ccc(=O)oc2c(O)c1O
REMARK SMILES IDX 3 1 14 2 12 3 11 4 5 5 4 6 6 7 7 8 8 9 9 10 10 11 2 12 1 13
REMARK SMILES IDX 15 14 13 16
REMARK H PARENT 15 15 13 17
REMARK Flexibility Score: inf
ROOT
ATOM      1  C   UNL     1      -1.789  -4.129  -6.714  1.00  0.00     0.165 A 
ATOM      2  C   UNL     1      -2.129  -5.495  -6.776  1.00  0.00     0.204 A 
ATOM      3  C   UNL     1      -1.218  -6.428  -7.306  1.00  0.00     0.205 A 
ATOM      4  C   UNL     1       0.030  -6.000  -7.772  1.00  0.00     0.184 A 
ATOM      5  C   UNL     1       0.374  -4.634  -7.713  1.00  0.00     0.025 A 
ATOM      6  C   UNL     1      -0.531  -3.706  -7.186  1.00  0.00     0.062 A 
ATOM      7  C   UNL     1       1.629  -4.240  -8.189  1.00  0.00     0.020 A 
ATOM      8  C   UNL     1       2.499  -5.200  -8.705  1.00  0.00     0.094 A 
ATOM      9  C   UNL     1       2.091  -6.537  -8.733  1.00  0.00     0.336 A 
ATOM     10  O   UNL     1       2.861  -7.419  -9.195  1.00  0.00    -0.246 OA
ATOM     11  O   UNL     1       0.892  -6.884  -8.274  1.00  0.00    -0.419 OA
ENDROOT
BRANCH   1  12
ATOM     12  O   UNL     1      -2.722  -3.225  -6.180  1.00  0.00    -0.493 OA
ATOM     13  C   UNL     1      -3.689  -2.514  -6.945  1.00  0.00     0.278 C 
ENDBRANCH   1  12
BRANCH   2  14
ATOM     14  O   UNL     1      -3.368  -5.939  -6.314  1.00  0.00    -0.502 OA
ATOM     15  H   UNL     1      -3.953  -5.379  -5.706  1.00  0.00     0.293 HD
ENDBRANCH   2  14
BRANCH   3  16
ATOM     16  O   UNL     1      -1.540  -7.785  -7.373  1.00  0.00    -0.502 OA
ATOM     17  H   UNL     1      -1.846  -8.224  -8.233  1.00  0.00     0.293 HD
ENDBRANCH   3  16
TORSDOF 3
ENDMDL
