MODEL 1
REMARK VINA RESULT:    -5.215      0.000      0.000
REMARK INTER + INTRA:          -8.060
REMARK INTER:                  -7.045
REMARK INTRA:                  -1.016
REMARK UNBOUND:                -1.016
REMARK SMILES CC(=O)CCC=C(C)CCC=C(C)C
REMARK SMILES IDX 7 1 6 2 8 3 9 4 10 5 11 6 13 7 12 8 14 9 5 10 4 11 2 12 3 13
REMARK SMILES IDX 1 14
REMARK H PARENT
REMARK Flexibility Score: inf
ROOT
ATOM      1  C   UNL     1      15.601 -32.879  22.102  1.00  0.00    -0.077 C 
ATOM      2  C   UNL     1      15.098 -34.006  21.549  1.00  0.00    -0.028 C 
ATOM      3  C   UNL     1      16.417 -31.893  21.299  1.00  0.00     0.039 C 
ENDROOT
BRANCH   1   4
ATOM      4  C   UNL     1      15.358 -32.609  23.570  1.00  0.00     0.034 C 
BRANCH   4   5
ATOM      5  C   UNL     1      13.867 -32.381  23.842  1.00  0.00     0.032 C 
BRANCH   5   6
ATOM      6  C   UNL     1      13.550 -30.907  23.889  1.00  0.00    -0.028 C 
ATOM      7  C   UNL     1      12.590 -28.772  23.085  1.00  0.00     0.039 C 
ATOM      8  C   UNL     1      12.878 -30.242  22.922  1.00  0.00    -0.080 C 
ATOM      9  C   UNL     1      12.435 -30.914  21.646  1.00  0.00     0.039 C 
ENDBRANCH   5   6
ENDBRANCH   4   5
ENDBRANCH   1   4
BRANCH   2  10
ATOM     10  C   UNL     1      15.235 -34.381  20.095  1.00  0.00     0.035 C 
BRANCH  10  11
ATOM     11  C   UNL     1      15.704 -35.831  19.948  1.00  0.00     0.079 C 
BRANCH  11  12
ATOM     12  C   UNL     1      17.077 -35.887  19.330  1.00  0.00     0.130 C 
ATOM     13  O   UNL     1      17.566 -36.972  19.051  1.00  0.00    -0.300 OA
ATOM     14  C   UNL     1      17.863 -34.639  19.058  1.00  0.00     0.087 C 
ENDBRANCH  11  12
ENDBRANCH  10  11
ENDBRANCH   2  10
TORSDOF 6
ENDMDL
MODEL 2
REMARK VINA RESULT:    -5.137      1.120      1.652
REMARK INTER + INTRA:          -7.955
REMARK INTER:                  -7.088
REMARK INTRA:                  -0.867
REMARK UNBOUND:                -1.016
REMARK SMILES CC(=O)CCC=C(C)CCC=C(C)C
REMARK SMILES IDX 7 1 6 2 8 3 9 4 10 5 11 6 13 7 12 8 14 9 5 10 4 11 2 12 3 13
REMARK SMILES IDX 1 14
REMARK H PARENT
REMARK Flexibility Score: inf
ROOT
ATOM      1  C   UNL     1      15.377 -32.452  22.900  1.00  0.00    -0.077 C 
ATOM      2  C   UNL     1      15.589 -32.997  21.681  1.00  0.00    -0.028 C 
ATOM      3  C   UNL     1      14.599 -33.175  23.974  1.00  0.00     0.039 C 
ENDROOT
BRANCH   1   4
ATOM      4  C   UNL     1      15.919 -31.069  23.191  1.00  0.00     0.034 C 
BRANCH   4   5
ATOM      5  C   UNL     1      15.264 -30.026  22.280  1.00  0.00     0.032 C 
BRANCH   5   6
ATOM      6  C   UNL     1      14.227 -29.231  23.035  1.00  0.00    -0.028 C 
ATOM      7  C   UNL     1      11.957 -28.661  23.842  1.00  0.00     0.039 C 
ATOM      8  C   UNL     1      12.903 -29.505  23.027  1.00  0.00    -0.080 C 
ATOM      9  C   UNL     1      12.319 -30.615  22.188  1.00  0.00     0.039 C 
ENDBRANCH   5   6
ENDBRANCH   4   5
ENDBRANCH   1   4
BRANCH   2  10
ATOM     10  C   UNL     1      15.137 -34.376  21.271  1.00  0.00     0.035 C 
BRANCH  10  11
ATOM     11  C   UNL     1      15.278 -34.568  19.758  1.00  0.00     0.079 C 
BRANCH  11  12
ATOM     12  C   UNL     1      16.545 -35.315  19.431  1.00  0.00     0.130 C 
ATOM     13  O   UNL     1      16.572 -36.531  19.547  1.00  0.00    -0.300 OA
ATOM     14  C   UNL     1      17.781 -34.597  18.976  1.00  0.00     0.087 C 
ENDBRANCH  11  12
ENDBRANCH  10  11
ENDBRANCH   2  10
TORSDOF 6
ENDMDL
MODEL 3
REMARK VINA RESULT:    -4.956      1.543      2.713
REMARK INTER + INTRA:          -7.710
REMARK INTER:                  -6.479
REMARK INTRA:                  -1.232
REMARK UNBOUND:                -1.016
REMARK SMILES CC(=O)CCC=C(C)CCC=C(C)C
REMARK SMILES IDX 7 1 6 2 8 3 9 4 10 5 11 6 13 7 12 8 14 9 5 10 4 11 2 12 3 13
REMARK SMILES IDX 1 14
REMARK H PARENT
REMARK Flexibility Score: inf
ROOT
ATOM      1  C   UNL     1      17.472 -31.629  21.658  1.00  0.00    -0.077 C 
ATOM      2  C   UNL     1      17.786 -32.140  20.446  1.00  0.00    -0.028 C 
ATOM      3  C   UNL     1      17.357 -32.500  22.886  1.00  0.00     0.039 C 
ENDROOT
BRANCH   1   4
ATOM      4  C   UNL     1      17.209 -30.144  21.784  1.00  0.00     0.034 C 
BRANCH   4   5
ATOM      5  C   UNL     1      15.838 -29.886  22.418  1.00  0.00     0.032 C 
BRANCH   5   6
ATOM      6  C   UNL     1      14.729 -30.292  21.479  1.00  0.00    -0.028 C 
ATOM      7  C   UNL     1      12.661 -31.467  20.794  1.00  0.00     0.039 C 
ATOM      8  C   UNL     1      13.738 -31.154  21.800  1.00  0.00    -0.080 C 
ATOM      9  C   UNL     1      13.688 -31.859  23.133  1.00  0.00     0.039 C 
ENDBRANCH   5   6
ENDBRANCH   4   5
ENDBRANCH   1   4
BRANCH   2  10
ATOM     10  C   UNL     1      18.106 -33.591  20.187  1.00  0.00     0.035 C 
BRANCH  10  11
ATOM     11  C   UNL     1      17.247 -34.142  19.045  1.00  0.00     0.079 C 
BRANCH  11  12
ATOM     12  C   UNL     1      16.116 -34.978  19.585  1.00  0.00     0.130 C 
ATOM     13  O   UNL     1      16.187 -36.197  19.523  1.00  0.00    -0.300 OA
ATOM     14  C   UNL     1      14.897 -34.347  20.191  1.00  0.00     0.087 C 
ENDBRANCH  11  12
ENDBRANCH  10  11
ENDBRANCH   2  10
TORSDOF 6
ENDMDL
MODEL 4
REMARK VINA RESULT:    -4.912      1.291      1.837
REMARK INTER + INTRA:          -7.651
REMARK INTER:                  -6.767
REMARK INTRA:                  -0.884
REMARK UNBOUND:                -1.016
REMARK SMILES CC(=O)CCC=C(C)CCC=C(C)C
REMARK SMILES IDX 7 1 6 2 8 3 9 4 10 5 11 6 13 7 12 8 14 9 5 10 4 11 2 12 3 13
REMARK SMILES IDX 1 14
REMARK H PARENT
REMARK Flexibility Score: inf
ROOT
ATOM      1  C   UNL     1      15.782 -32.448  21.787  1.00  0.00    -0.077 C 
ATOM      2  C   UNL     1      17.013 -32.441  21.227  1.00  0.00    -0.028 C 
ATOM      3  C   UNL     1      14.647 -33.260  21.209  1.00  0.00     0.039 C 
ENDROOT
BRANCH   1   4
ATOM      4  C   UNL     1      15.530 -31.603  23.015  1.00  0.00     0.034 C 
BRANCH   4   5
ATOM      5  C   UNL     1      14.098 -31.797  23.525  1.00  0.00     0.032 C 
BRANCH   5   6
ATOM      6  C   UNL     1      13.412 -30.467  23.718  1.00  0.00    -0.028 C 
ATOM      7  C   UNL     1      11.776 -28.673  23.235  1.00  0.00     0.039 C 
ATOM      8  C   UNL     1      12.411 -30.007  22.935  1.00  0.00    -0.080 C 
ATOM      9  C   UNL     1      11.923 -30.767  21.727  1.00  0.00     0.039 C 
ENDBRANCH   5   6
ENDBRANCH   4   5
ENDBRANCH   1   4
BRANCH   2  10
ATOM     10  C   UNL     1      17.410 -33.261  20.025  1.00  0.00     0.035 C 
BRANCH  10  11
ATOM     11  C   UNL     1      18.320 -34.423  20.435  1.00  0.00     0.079 C 
BRANCH  11  12
ATOM     12  C   UNL     1      17.504 -35.634  20.805  1.00  0.00     0.130 C 
ATOM     13  O   UNL     1      17.291 -35.877  21.984  1.00  0.00    -0.300 OA
ATOM     14  C   UNL     1      16.955 -36.557  19.758  1.00  0.00     0.087 C 
ENDBRANCH  11  12
ENDBRANCH  10  11
ENDBRANCH   2  10
TORSDOF 6
ENDMDL
MODEL 5
REMARK VINA RESULT:    -4.903      1.741      2.422
REMARK INTER + INTRA:          -7.638
REMARK INTER:                  -6.701
REMARK INTRA:                  -0.937
REMARK UNBOUND:                -1.016
REMARK SMILES CC(=O)CCC=C(C)CCC=C(C)C
REMARK SMILES IDX 7 1 6 2 8 3 9 4 10 5 11 6 13 7 12 8 14 9 5 10 4 11 2 12 3 13
REMARK SMILES IDX 1 14
REMARK H PARENT
REMARK Flexibility Score: inf
ROOT
ATOM      1  C   UNL     1      15.075 -33.516  23.285  1.00  0.00    -0.077 C 
ATOM      2  C   UNL     1      14.953 -33.835  21.977  1.00  0.00    -0.028 C 
ATOM      3  C   UNL     1      16.239 -33.997  24.119  1.00  0.00     0.039 C 
ENDROOT
BRANCH   1   4
ATOM      4  C   UNL     1      14.003 -32.671  23.938  1.00  0.00     0.034 C 
BRANCH   4   5
ATOM      5  C   UNL     1      13.393 -31.691  22.930  1.00  0.00     0.032 C 
BRANCH   5   6
ATOM      6  C   UNL     1      13.094 -30.366  23.585  1.00  0.00    -0.028 C 
ATOM      7  C   UNL     1      13.231 -27.914  23.900  1.00  0.00     0.039 C 
ATOM      8  C   UNL     1      13.622 -29.185  23.191  1.00  0.00    -0.080 C 
ATOM      9  C   UNL     1      14.636 -29.093  22.078  1.00  0.00     0.039 C 
ENDBRANCH   5   6
ENDBRANCH   4   5
ENDBRANCH   1   4
BRANCH   2  10
ATOM     10  C   UNL     1      15.962 -34.639  21.195  1.00  0.00     0.035 C 
BRANCH  10  11
ATOM     11  C   UNL     1      16.648 -33.769  20.136  1.00  0.00     0.079 C 
BRANCH  11  12
ATOM     12  C   UNL     1      17.683 -32.877  20.769  1.00  0.00     0.130 C 
ATOM     13  O   UNL     1      18.694 -33.374  21.243  1.00  0.00    -0.300 OA
ATOM     14  C   UNL     1      17.498 -31.391  20.839  1.00  0.00     0.087 C 
ENDBRANCH  11  12
ENDBRANCH  10  11
ENDBRANCH   2  10
TORSDOF 6
ENDMDL
MODEL 6
REMARK VINA RESULT:    -4.895      2.897      6.039
REMARK INTER + INTRA:          -7.628
REMARK INTER:                  -6.626
REMARK INTRA:                  -1.002
REMARK UNBOUND:                -1.016
REMARK SMILES CC(=O)CCC=C(C)CCC=C(C)C
REMARK SMILES IDX 7 1 6 2 8 3 9 4 10 5 11 6 13 7 12 8 14 9 5 10 4 11 2 12 3 13
REMARK SMILES IDX 1 14
REMARK H PARENT
REMARK Flexibility Score: inf
ROOT
ATOM      1  C   UNL     1      15.518 -33.827  22.874  1.00  0.00    -0.077 C 
ATOM      2  C   UNL     1      14.521 -32.944  22.642  1.00  0.00    -0.028 C 
ATOM      3  C   UNL     1      16.096 -34.035  24.254  1.00  0.00     0.039 C 
ENDROOT
BRANCH   1   4
ATOM      4  C   UNL     1      16.086 -34.615  21.714  1.00  0.00     0.034 C 
BRANCH   4   5
ATOM      5  C   UNL     1      16.415 -33.691  20.536  1.00  0.00     0.032 C 
BRANCH   5   6
ATOM      6  C   UNL     1      17.857 -33.252  20.586  1.00  0.00    -0.028 C 
ATOM      7  C   UNL     1      19.734 -31.685  20.972  1.00  0.00     0.039 C 
ATOM      8  C   UNL     1      18.263 -32.008  20.926  1.00  0.00    -0.080 C 
ATOM      9  C   UNL     1      17.284 -30.899  21.225  1.00  0.00     0.039 C 
ENDBRANCH   5   6
ENDBRANCH   4   5
ENDBRANCH   1   4
BRANCH   2  10
ATOM     10  C   UNL     1      13.843 -32.121  23.708  1.00  0.00     0.035 C 
BRANCH  10  11
ATOM     11  C   UNL     1      14.071 -30.625  23.470  1.00  0.00     0.079 C 
BRANCH  11  12
ATOM     12  C   UNL     1      12.764 -29.921  23.214  1.00  0.00     0.130 C 
ATOM     13  O   UNL     1      12.024 -30.331  22.332  1.00  0.00    -0.300 OA
ATOM     14  C   UNL     1      12.354 -28.719  24.011  1.00  0.00     0.087 C 
ENDBRANCH  11  12
ENDBRANCH  10  11
ENDBRANCH   2  10
TORSDOF 6
ENDMDL
MODEL 7
REMARK VINA RESULT:    -4.862      2.826      6.572
REMARK INTER + INTRA:          -7.583
REMARK INTER:                  -6.875
REMARK INTRA:                  -0.708
REMARK UNBOUND:                -1.016
REMARK SMILES CC(=O)CCC=C(C)CCC=C(C)C
REMARK SMILES IDX 7 1 6 2 8 3 9 4 10 5 11 6 13 7 12 8 14 9 5 10 4 11 2 12 3 13
REMARK SMILES IDX 1 14
REMARK H PARENT
REMARK Flexibility Score: inf
ROOT
ATOM      1  C   UNL     1      14.886 -32.680  23.021  1.00  0.00    -0.077 C 
ATOM      2  C   UNL     1      15.443 -31.523  22.596  1.00  0.00    -0.028 C 
ATOM      3  C   UNL     1      13.828 -32.708  24.099  1.00  0.00     0.039 C 
ENDROOT
BRANCH   1   4
ATOM      4  C   UNL     1      15.350 -33.985  22.413  1.00  0.00     0.034 C 
BRANCH   4   5
ATOM      5  C   UNL     1      15.009 -34.042  20.920  1.00  0.00     0.032 C 
BRANCH   5   6
ATOM      6  C   UNL     1      15.551 -35.304  20.294  1.00  0.00    -0.028 C 
ATOM      7  C   UNL     1      17.175 -36.693  19.045  1.00  0.00     0.039 C 
ATOM      8  C   UNL     1      16.712 -35.372  19.604  1.00  0.00    -0.080 C 
ATOM      9  C   UNL     1      17.556 -34.152  19.330  1.00  0.00     0.039 C 
ENDBRANCH   5   6
ENDBRANCH   4   5
ENDBRANCH   1   4
BRANCH   2  10
ATOM     10  C   UNL     1      15.050 -30.153  23.090  1.00  0.00     0.035 C 
BRANCH  10  11
ATOM     11  C   UNL     1      13.996 -29.525  22.173  1.00  0.00     0.079 C 
BRANCH  11  12
ATOM     12  C   UNL     1      12.673 -29.408  22.884  1.00  0.00     0.130 C 
ATOM     13  O   UNL     1      11.672 -29.887  22.372  1.00  0.00    -0.300 OA
ATOM     14  C   UNL     1      12.554 -28.705  24.203  1.00  0.00     0.087 C 
ENDBRANCH  11  12
ENDBRANCH  10  11
ENDBRANCH   2  10
TORSDOF 6
ENDMDL
MODEL 8
REMARK VINA RESULT:    -4.834      1.647      2.623
REMARK INTER + INTRA:          -7.545
REMARK INTER:                  -6.439
REMARK INTRA:                  -1.106
REMARK UNBOUND:                -1.016
REMARK SMILES CC(=O)CCC=C(C)CCC=C(C)C
REMARK SMILES IDX 7 1 6 2 8 3 9 4 10 5 11 6 13 7 12 8 14 9 5 10 4 11 2 12 3 13
REMARK SMILES IDX 1 14
REMARK H PARENT
REMARK Flexibility Score: inf
ROOT
ATOM      1  C   UNL     1      15.231 -32.733  21.733  1.00  0.00    -0.077 C 
ATOM      2  C   UNL     1      16.303 -32.152  21.148  1.00  0.00    -0.028 C 
ATOM      3  C   UNL     1      15.331 -33.425  23.072  1.00  0.00     0.039 C 
ENDROOT
BRANCH   1   4
ATOM      4  C   UNL     1      13.899 -32.708  21.017  1.00  0.00     0.034 C 
BRANCH   4   5
ATOM      5  C   UNL     1      13.434 -31.266  20.783  1.00  0.00     0.032 C 
BRANCH   5   6
ATOM      6  C   UNL     1      12.786 -30.704  22.024  1.00  0.00    -0.028 C 
ATOM      7  C   UNL     1      12.546 -29.183  23.961  1.00  0.00     0.039 C 
ATOM      8  C   UNL     1      13.294 -29.685  22.753  1.00  0.00    -0.080 C 
ATOM      9  C   UNL     1      14.621 -29.048  22.425  1.00  0.00     0.039 C 
ENDBRANCH   5   6
ENDBRANCH   4   5
ENDBRANCH   1   4
BRANCH   2  10
ATOM     10  C   UNL     1      17.677 -32.075  21.765  1.00  0.00     0.035 C 
BRANCH  10  11
ATOM     11  C   UNL     1      18.731 -32.664  20.823  1.00  0.00     0.079 C 
BRANCH  11  12
ATOM     12  C   UNL     1      18.395 -34.090  20.472  1.00  0.00     0.130 C 
ATOM     13  O   UNL     1      18.419 -34.945  21.345  1.00  0.00    -0.300 OA
ATOM     14  C   UNL     1      18.040 -34.487  19.070  1.00  0.00     0.087 C 
ENDBRANCH  11  12
ENDBRANCH  10  11
ENDBRANCH   2  10
TORSDOF 6
ENDMDL
MODEL 9
REMARK VINA RESULT:    -4.804      1.609      2.977
REMARK INTER + INTRA:          -7.505
REMARK INTER:                  -6.411
REMARK INTRA:                  -1.094
REMARK UNBOUND:                -1.016
REMARK SMILES CC(=O)CCC=C(C)CCC=C(C)C
REMARK SMILES IDX 7 1 6 2 8 3 9 4 10 5 11 6 13 7 12 8 14 9 5 10 4 11 2 12 3 13
REMARK SMILES IDX 1 14
REMARK H PARENT
REMARK Flexibility Score: inf
ROOT
ATOM      1  C   UNL     1      13.966 -32.164  21.678  1.00  0.00    -0.077 C 
ATOM      2  C   UNL     1      14.658 -33.283  21.363  1.00  0.00    -0.028 C 
ATOM      3  C   UNL     1      13.071 -31.471  20.678  1.00  0.00     0.039 C 
ENDROOT
BRANCH   1   4
ATOM      4  C   UNL     1      14.108 -31.580  23.066  1.00  0.00     0.034 C 
BRANCH   4   5
ATOM      5  C   UNL     1      15.584 -31.473  23.464  1.00  0.00     0.032 C 
BRANCH   5   6
ATOM      6  C   UNL     1      16.252 -30.330  22.740  1.00  0.00    -0.028 C 
ATOM      7  C   UNL     1      17.886 -29.261  21.218  1.00  0.00     0.039 C 
ATOM      8  C   UNL     1      17.313 -30.470  21.913  1.00  0.00    -0.080 C 
ATOM      9  C   UNL     1      17.984 -31.802  21.687  1.00  0.00     0.039 C 
ENDBRANCH   5   6
ENDBRANCH   4   5
ENDBRANCH   1   4
BRANCH   2  10
ATOM     10  C   UNL     1      14.582 -33.988  20.032  1.00  0.00     0.035 C 
BRANCH  10  11
ATOM     11  C   UNL     1      15.392 -35.288  20.057  1.00  0.00     0.079 C 
BRANCH  11  12
ATOM     12  C   UNL     1      16.868 -34.997  19.974  1.00  0.00     0.130 C 
ATOM     13  O   UNL     1      17.611 -35.405  20.854  1.00  0.00    -0.300 OA
ATOM     14  C   UNL     1      17.446 -34.206  18.838  1.00  0.00     0.087 C 
ENDBRANCH  11  12
ENDBRANCH  10  11
ENDBRANCH   2  10
TORSDOF 6
ENDMDL
