MODEL 1
REMARK VINA RESULT:    -2.858      0.000      0.000
REMARK INTER + INTRA:          -3.748
REMARK INTER:                  -3.526
REMARK INTRA:                  -0.222
REMARK UNBOUND:                -0.222
REMARK SMILES CCCCCC(=O)[O-]
REMARK SMILES IDX 4 1 5 2 6 3 7 4 8 5 3 6 2 7 1 8
REMARK H PARENT
REMARK Flexibility Score: inf
ROOT
ATOM      1  C   UNL     1     142.666 159.807 153.246  1.00  0.00     0.006 C 
ENDROOT
BRANCH   1   2
ATOM      2  C   UNL     1     143.488 160.125 154.503  1.00  0.00     0.053 C 
BRANCH   2   3
ATOM      3  C   UNL     1     144.063 158.888 155.119  1.00  0.00     0.041 C 
ATOM      4  O   UNL     1     143.424 157.804 155.079  1.00  0.00    -0.550 OA
ATOM      5  O   UNL     1     145.292 158.937 155.766  1.00  0.00    -0.550 OA
ENDBRANCH   2   3
ENDBRANCH   1   2
BRANCH   1   6
ATOM      6  C   UNL     1     141.175 160.124 153.431  1.00  0.00     0.000 C 
BRANCH   6   7
ATOM      7  C   UNL     1     140.335 158.843 153.417  1.00  0.00    -0.003 C 
ATOM      8  C   UNL     1     140.893 157.828 152.423  1.00  0.00     0.004 C 
ENDBRANCH   6   7
ENDBRANCH   1   6
TORSDOF 4
ENDMDL
MODEL 2
REMARK VINA RESULT:    -2.724     18.713     19.936
REMARK INTER + INTRA:          -3.583
REMARK INTER:                  -3.348
REMARK INTRA:                  -0.234
REMARK UNBOUND:                -0.222
REMARK SMILES CCCCCC(=O)[O-]
REMARK SMILES IDX 4 1 5 2 6 3 7 4 8 5 3 6 2 7 1 8
REMARK H PARENT
REMARK Flexibility Score: inf
ROOT
ATOM      1  C   UNL     1     142.227 140.169 145.850  1.00  0.00     0.006 C 
ENDROOT
BRANCH   1   2
ATOM      2  C   UNL     1     143.264 140.021 144.727  1.00  0.00     0.053 C 
BRANCH   2   3
ATOM      3  C   UNL     1     144.260 141.139 144.740  1.00  0.00     0.041 C 
ATOM      4  O   UNL     1     144.719 141.591 143.658  1.00  0.00    -0.550 OA
ATOM      5  O   UNL     1     144.706 141.661 145.947  1.00  0.00    -0.550 OA
ENDBRANCH   2   3
ENDBRANCH   1   2
BRANCH   1   6
ATOM      6  C   UNL     1     141.097 141.139 145.473  1.00  0.00     0.000 C 
BRANCH   6   7
ATOM      7  C   UNL     1     140.932 142.228 146.538  1.00  0.00    -0.003 C 
ATOM      8  C   UNL     1     141.496 141.775 147.882  1.00  0.00     0.004 C 
ENDBRANCH   6   7
ENDBRANCH   1   6
TORSDOF 4
ENDMDL
MODEL 3
REMARK VINA RESULT:    -2.722      0.918      1.692
REMARK INTER + INTRA:          -3.580
REMARK INTER:                  -3.419
REMARK INTRA:                  -0.162
REMARK UNBOUND:                -0.222
REMARK SMILES CCCCCC(=O)[O-]
REMARK SMILES IDX 4 1 5 2 6 3 7 4 8 5 3 6 2 7 1 8
REMARK H PARENT
REMARK Flexibility Score: inf
ROOT
ATOM      1  C   UNL     1     143.745 159.186 153.227  1.00  0.00     0.006 C 
ENDROOT
BRANCH   1   2
ATOM      2  C   UNL     1     143.971 159.647 154.673  1.00  0.00     0.053 C 
BRANCH   2   3
ATOM      3  C   UNL     1     144.400 158.516 155.556  1.00  0.00     0.041 C 
ATOM      4  O   UNL     1     145.539 158.529 156.094  1.00  0.00    -0.550 OA
ATOM      5  O   UNL     1     143.557 157.430 155.758  1.00  0.00    -0.550 OA
ENDBRANCH   2   3
ENDBRANCH   1   2
BRANCH   1   6
ATOM      6  C   UNL     1     142.423 159.714 152.648  1.00  0.00     0.000 C 
BRANCH   6   7
ATOM      7  C   UNL     1     141.429 160.046 153.766  1.00  0.00    -0.003 C 
ATOM      8  C   UNL     1     140.134 159.255 153.604  1.00  0.00     0.004 C 
ENDBRANCH   6   7
ENDBRANCH   1   6
TORSDOF 4
ENDMDL
MODEL 4
REMARK VINA RESULT:    -2.709     19.563     20.043
REMARK INTER + INTRA:          -3.564
REMARK INTER:                  -3.452
REMARK INTRA:                  -0.112
REMARK UNBOUND:                -0.222
REMARK SMILES CCCCCC(=O)[O-]
REMARK SMILES IDX 4 1 5 2 6 3 7 4 8 5 3 6 2 7 1 8
REMARK H PARENT
REMARK Flexibility Score: inf
ROOT
ATOM      1  C   UNL     1     143.688 140.632 145.103  1.00  0.00     0.006 C 
ENDROOT
BRANCH   1   2
ATOM      2  C   UNL     1     143.759 142.086 144.618  1.00  0.00     0.053 C 
BRANCH   2   3
ATOM      3  C   UNL     1     144.883 142.295 143.651  1.00  0.00     0.041 C 
ATOM      4  O   UNL     1     144.785 143.161 142.742  1.00  0.00    -0.550 OA
ATOM      5  O   UNL     1     146.028 141.511 143.732  1.00  0.00    -0.550 OA
ENDBRANCH   2   3
ENDBRANCH   1   2
BRANCH   1   6
ATOM      6  C   UNL     1     142.269 140.232 145.535  1.00  0.00     0.000 C 
BRANCH   6   7
ATOM      7  C   UNL     1     141.519 141.428 146.129  1.00  0.00    -0.003 C 
ATOM      8  C   UNL     1     140.100 141.520 145.576  1.00  0.00     0.004 C 
ENDBRANCH   6   7
ENDBRANCH   1   6
TORSDOF 4
ENDMDL
MODEL 5
REMARK VINA RESULT:    -2.678     18.560     19.743
REMARK INTER + INTRA:          -3.526
REMARK INTER:                  -3.303
REMARK INTRA:                  -0.223
REMARK UNBOUND:                -0.222
REMARK SMILES CCCCCC(=O)[O-]
REMARK SMILES IDX 4 1 5 2 6 3 7 4 8 5 3 6 2 7 1 8
REMARK H PARENT
REMARK Flexibility Score: inf
ROOT
ATOM      1  C   UNL     1     143.508 140.968 145.693  1.00  0.00     0.006 C 
ENDROOT
BRANCH   1   2
ATOM      2  C   UNL     1     144.335 141.132 144.411  1.00  0.00     0.053 C 
BRANCH   2   3
ATOM      3  C   UNL     1     144.342 142.551 143.931  1.00  0.00     0.041 C 
ATOM      4  O   UNL     1     143.735 143.442 144.581  1.00  0.00    -0.550 OA
ATOM      5  O   UNL     1     144.990 142.884 142.748  1.00  0.00    -0.550 OA
ENDBRANCH   2   3
ENDBRANCH   1   2
BRANCH   1   6
ATOM      6  C   UNL     1     142.153 140.294 145.430  1.00  0.00     0.000 C 
BRANCH   6   7
ATOM      7  C   UNL     1     141.010 141.312 145.502  1.00  0.00    -0.003 C 
ATOM      8  C   UNL     1     141.099 142.151 146.774  1.00  0.00     0.004 C 
ENDBRANCH   6   7
ENDBRANCH   1   6
TORSDOF 4
ENDMDL
MODEL 6
REMARK VINA RESULT:    -2.637     17.869     18.976
REMARK INTER + INTRA:          -3.476
REMARK INTER:                  -3.202
REMARK INTRA:                  -0.274
REMARK UNBOUND:                -0.222
REMARK SMILES CCCCCC(=O)[O-]
REMARK SMILES IDX 4 1 5 2 6 3 7 4 8 5 3 6 2 7 1 8
REMARK H PARENT
REMARK Flexibility Score: inf
ROOT
ATOM      1  C   UNL     1     141.209 142.803 147.295  1.00  0.00     0.006 C 
ENDROOT
BRANCH   1   2
ATOM      2  C   UNL     1     142.233 142.409 148.369  1.00  0.00     0.053 C 
BRANCH   2   3
ATOM      3  C   UNL     1     141.767 141.238 149.178  1.00  0.00     0.041 C 
ATOM      4  O   UNL     1     140.756 141.343 149.920  1.00  0.00    -0.550 OA
ATOM      5  O   UNL     1     142.468 140.040 149.138  1.00  0.00    -0.550 OA
ENDBRANCH   2   3
ENDBRANCH   1   2
BRANCH   1   6
ATOM      6  C   UNL     1     140.940 141.663 146.302  1.00  0.00     0.000 C 
BRANCH   6   7
ATOM      7  C   UNL     1     142.177 141.382 145.442  1.00  0.00    -0.003 C 
ATOM      8  C   UNL     1     142.577 139.911 145.516  1.00  0.00     0.004 C 
ENDBRANCH   6   7
ENDBRANCH   1   6
TORSDOF 4
ENDMDL
MODEL 7
REMARK VINA RESULT:    -2.579     15.362     16.291
REMARK INTER + INTRA:          -3.404
REMARK INTER:                  -3.307
REMARK INTRA:                  -0.097
REMARK UNBOUND:                -0.222
REMARK SMILES CCCCCC(=O)[O-]
REMARK SMILES IDX 4 1 5 2 6 3 7 4 8 5 3 6 2 7 1 8
REMARK H PARENT
REMARK Flexibility Score: inf
ROOT
ATOM      1  C   UNL     1     158.761 157.535 154.313  1.00  0.00     0.006 C 
ENDROOT
BRANCH   1   2
ATOM      2  C   UNL     1     158.824 156.306 155.231  1.00  0.00     0.053 C 
BRANCH   2   3
ATOM      3  C   UNL     1     157.732 156.320 156.255  1.00  0.00     0.041 C 
ATOM      4  O   UNL     1     157.736 155.485 157.197  1.00  0.00    -0.550 OA
ATOM      5  O   UNL     1     156.691 157.233 156.151  1.00  0.00    -0.550 OA
ENDBRANCH   2   3
ENDBRANCH   1   2
BRANCH   1   6
ATOM      6  C   UNL     1     160.122 158.235 154.185  1.00  0.00     0.000 C 
BRANCH   6   7
ATOM      7  C   UNL     1     159.946 159.712 153.815  1.00  0.00    -0.003 C 
ATOM      8  C   UNL     1     158.531 159.990 153.314  1.00  0.00     0.004 C 
ENDBRANCH   6   7
ENDBRANCH   1   6
TORSDOF 4
ENDMDL
MODEL 8
REMARK VINA RESULT:    -2.532     18.104     19.203
REMARK INTER + INTRA:          -3.346
REMARK INTER:                  -3.107
REMARK INTRA:                  -0.240
REMARK UNBOUND:                -0.222
REMARK SMILES CCCCCC(=O)[O-]
REMARK SMILES IDX 4 1 5 2 6 3 7 4 8 5 3 6 2 7 1 8
REMARK H PARENT
REMARK Flexibility Score: inf
ROOT
ATOM      1  C   UNL     1     143.348 140.858 147.409  1.00  0.00     0.006 C 
ENDROOT
BRANCH   1   2
ATOM      2  C   UNL     1     142.726 140.563 148.781  1.00  0.00     0.053 C 
BRANCH   2   3
ATOM      3  C   UNL     1     141.698 141.585 149.157  1.00  0.00     0.041 C 
ATOM      4  O   UNL     1     141.684 142.708 148.587  1.00  0.00    -0.550 OA
ATOM      5  O   UNL     1     140.776 141.311 150.159  1.00  0.00    -0.550 OA
ENDBRANCH   2   3
ENDBRANCH   1   2
BRANCH   1   6
ATOM      6  C   UNL     1     142.674 140.060 146.283  1.00  0.00     0.000 C 
BRANCH   6   7
ATOM      7  C   UNL     1     142.056 140.998 145.240  1.00  0.00    -0.003 C 
ATOM      8  C   UNL     1     140.597 141.303 145.569  1.00  0.00     0.004 C 
ENDBRANCH   6   7
ENDBRANCH   1   6
TORSDOF 4
ENDMDL
MODEL 9
REMARK VINA RESULT:    -2.481      1.989      3.722
REMARK INTER + INTRA:          -3.282
REMARK INTER:                  -3.091
REMARK INTRA:                  -0.191
REMARK UNBOUND:                -0.222
REMARK SMILES CCCCCC(=O)[O-]
REMARK SMILES IDX 4 1 5 2 6 3 7 4 8 5 3 6 2 7 1 8
REMARK H PARENT
REMARK Flexibility Score: inf
ROOT
ATOM      1  C   UNL     1     141.411 160.092 153.792  1.00  0.00     0.006 C 
ENDROOT
BRANCH   1   2
ATOM      2  C   UNL     1     140.304 159.114 153.375  1.00  0.00     0.053 C 
BRANCH   2   3
ATOM      3  C   UNL     1     140.864 157.810 152.900  1.00  0.00     0.041 C 
ATOM      4  O   UNL     1     141.401 157.016 153.716  1.00  0.00    -0.550 OA
ATOM      5  O   UNL     1     140.823 157.484 151.550  1.00  0.00    -0.550 OA
ENDBRANCH   2   3
ENDBRANCH   1   2
BRANCH   1   6
ATOM      6  C   UNL     1     142.590 160.089 152.807  1.00  0.00     0.000 C 
BRANCH   6   7
ATOM      7  C   UNL     1     143.928 160.125 153.554  1.00  0.00    -0.003 C 
ATOM      8  C   UNL     1     143.881 159.263 154.813  1.00  0.00     0.004 C 
ENDBRANCH   6   7
ENDBRANCH   1   6
TORSDOF 4
ENDMDL
