MODEL 1
REMARK VINA RESULT:    -2.414      0.000      0.000
REMARK INTER + INTRA:          -5.098
REMARK INTER:                  -4.531
REMARK INTRA:                  -0.567
REMARK UNBOUND:                -0.567
REMARK SMILES O=C([O-])CCCCCCCCCCCCCCC(=O)[O-]
REMARK SMILES IDX 10 1 9 2 8 3 7 4 6 5 5 6 4 7 2 8 1 9 3 10 11 11 12 12 13 13
REMARK SMILES IDX 14 14 15 15 16 16 17 17 18 18 19 19 20 20
REMARK H PARENT
REMARK Flexibility Score: inf
ROOT
ATOM      1  C   UNL     1      25.512  19.484  25.470  1.00  0.00     0.000 C 
ENDROOT
BRANCH   1   2
ATOM      2  C   UNL     1      24.556  19.009  24.365  1.00  0.00     0.000 C 
BRANCH   2   3
ATOM      3  C   UNL     1      25.247  18.876  22.999  1.00  0.00     0.000 C 
BRANCH   3   4
ATOM      4  C   UNL     1      26.485  19.781  22.872  1.00  0.00     0.000 C 
BRANCH   4   5
ATOM      5  C   UNL     1      27.675  19.063  22.217  1.00  0.00     0.000 C 
BRANCH   5   6
ATOM      6  C   UNL     1      29.027  19.705  22.576  1.00  0.00     0.006 C 
BRANCH   6   7
ATOM      7  C   UNL     1      29.423  19.443  24.035  1.00  0.00     0.053 C 
BRANCH   7   8
ATOM      8  C   UNL     1      29.167  20.638  24.901  1.00  0.00     0.041 C 
ATOM      9  O   UNL     1      30.030  21.549  24.997  1.00  0.00    -0.550 OA
ATOM     10  O   UNL     1      27.987  20.728  25.629  1.00  0.00    -0.550 OA
ENDBRANCH   7   8
ENDBRANCH   6   7
ENDBRANCH   5   6
ENDBRANCH   4   5
ENDBRANCH   3   4
ENDBRANCH   2   3
ENDBRANCH   1   2
BRANCH   1  11
ATOM     11  C   UNL     1      24.827  19.449  26.841  1.00  0.00     0.000 C 
BRANCH  11  12
ATOM     12  C   UNL     1      23.404  18.878  26.731  1.00  0.00     0.000 C 
BRANCH  12  13
ATOM     13  C   UNL     1      22.532  19.216  27.952  1.00  0.00     0.000 C 
BRANCH  13  14
ATOM     14  C   UNL     1      21.814  20.569  27.807  1.00  0.00     0.000 C 
BRANCH  14  15
ATOM     15  C   UNL     1      22.334  21.388  26.614  1.00  0.00     0.000 C 
BRANCH  15  16
ATOM     16  C   UNL     1      22.844  22.780  27.028  1.00  0.00     0.006 C 
BRANCH  16  17
ATOM     17  C   UNL     1      24.235  23.080  26.454  1.00  0.00     0.053 C 
BRANCH  17  18
ATOM     18  C   UNL     1      24.558  24.542  26.522  1.00  0.00     0.041 C 
ATOM     19  O   UNL     1      24.807  25.084  27.631  1.00  0.00    -0.550 OA
ATOM     20  O   UNL     1      24.550  25.311  25.365  1.00  0.00    -0.550 OA
ENDBRANCH  17  18
ENDBRANCH  16  17
ENDBRANCH  15  16
ENDBRANCH  14  15
ENDBRANCH  13  14
ENDBRANCH  12  13
ENDBRANCH  11  12
ENDBRANCH   1  11
TORSDOF 15
ENDMDL
MODEL 2
REMARK VINA RESULT:    -2.374      1.121      6.500
REMARK INTER + INTRA:          -5.023
REMARK INTER:                  -4.210
REMARK INTRA:                  -0.813
REMARK UNBOUND:                -0.567
REMARK SMILES O=C([O-])CCCCCCCCCCCCCCC(=O)[O-]
REMARK SMILES IDX 10 1 9 2 8 3 7 4 6 5 5 6 4 7 2 8 1 9 3 10 11 11 12 12 13 13
REMARK SMILES IDX 14 14 15 15 16 16 17 17 18 18 19 19 20 20
REMARK H PARENT
REMARK Flexibility Score: inf
ROOT
ATOM      1  C   UNL     1      25.824  20.128  26.165  1.00  0.00     0.000 C 
ENDROOT
BRANCH   1   2
ATOM      2  C   UNL     1      24.843  18.949  26.070  1.00  0.00     0.000 C 
BRANCH   2   3
ATOM      3  C   UNL     1      23.549  19.188  26.864  1.00  0.00     0.000 C 
BRANCH   3   4
ATOM      4  C   UNL     1      22.655  20.267  26.227  1.00  0.00     0.000 C 
BRANCH   4   5
ATOM      5  C   UNL     1      22.621  21.565  27.049  1.00  0.00     0.000 C 
BRANCH   5   6
ATOM      6  C   UNL     1      23.785  22.514  26.712  1.00  0.00     0.006 C 
BRANCH   6   7
ATOM      7  C   UNL     1      23.341  23.981  26.665  1.00  0.00     0.053 C 
BRANCH   7   8
ATOM      8  C   UNL     1      24.494  24.901  26.403  1.00  0.00     0.041 C 
ATOM      9  O   UNL     1      24.699  25.348  25.245  1.00  0.00    -0.550 OA
ATOM     10  O   UNL     1      25.362  25.237  27.434  1.00  0.00    -0.550 OA
ENDBRANCH   7   8
ENDBRANCH   6   7
ENDBRANCH   5   6
ENDBRANCH   4   5
ENDBRANCH   3   4
ENDBRANCH   2   3
ENDBRANCH   1   2
BRANCH   1  11
ATOM     11  C   UNL     1      26.497  20.392  24.813  1.00  0.00     0.000 C 
BRANCH  11  12
ATOM     12  C   UNL     1      25.592  19.950  23.652  1.00  0.00     0.000 C 
BRANCH  12  13
ATOM     13  C   UNL     1      26.381  19.345  22.479  1.00  0.00     0.000 C 
BRANCH  13  14
ATOM     14  C   UNL     1      27.794  18.897  22.888  1.00  0.00     0.000 C 
BRANCH  14  15
ATOM     15  C   UNL     1      28.774  18.884  21.702  1.00  0.00     0.000 C 
BRANCH  15  16
ATOM     16  C   UNL     1      30.186  19.355  22.095  1.00  0.00     0.006 C 
BRANCH  16  17
ATOM     17  C   UNL     1      30.174  20.758  22.717  1.00  0.00     0.053 C 
BRANCH  17  18
ATOM     18  C   UNL     1      30.181  20.700  24.214  1.00  0.00     0.041 C 
ATOM     19  O   UNL     1      30.291  19.593  24.804  1.00  0.00    -0.550 OA
ATOM     20  O   UNL     1      30.032  21.865  24.956  1.00  0.00    -0.550 OA
ENDBRANCH  17  18
ENDBRANCH  16  17
ENDBRANCH  15  16
ENDBRANCH  14  15
ENDBRANCH  13  14
ENDBRANCH  12  13
ENDBRANCH  11  12
ENDBRANCH   1  11
TORSDOF 15
ENDMDL
MODEL 3
REMARK VINA RESULT:    -2.134      1.810      6.329
REMARK INTER + INTRA:          -4.572
REMARK INTER:                  -3.242
REMARK INTRA:                  -1.330
REMARK UNBOUND:                -0.567
REMARK SMILES O=C([O-])CCCCCCCCCCCCCCC(=O)[O-]
REMARK SMILES IDX 10 1 9 2 8 3 7 4 6 5 5 6 4 7 2 8 1 9 3 10 11 11 12 12 13 13
REMARK SMILES IDX 14 14 15 15 16 16 17 17 18 18 19 19 20 20
REMARK H PARENT
REMARK Flexibility Score: inf
ROOT
ATOM      1  C   UNL     1      23.343  19.617  26.424  1.00  0.00     0.000 C 
ENDROOT
BRANCH   1   2
ATOM      2  C   UNL     1      22.232  20.492  27.024  1.00  0.00     0.000 C 
BRANCH   2   3
ATOM      3  C   UNL     1      22.528  21.995  26.900  1.00  0.00     0.000 C 
BRANCH   3   4
ATOM      4  C   UNL     1      23.802  22.282  26.085  1.00  0.00     0.000 C 
BRANCH   4   5
ATOM      5  C   UNL     1      24.817  23.136  26.859  1.00  0.00     0.000 C 
BRANCH   5   6
ATOM      6  C   UNL     1      24.273  24.530  27.216  1.00  0.00     0.006 C 
BRANCH   6   7
ATOM      7  C   UNL     1      25.344  25.621  27.087  1.00  0.00     0.053 C 
BRANCH   7   8
ATOM      8  C   UNL     1      25.569  26.011  25.658  1.00  0.00     0.041 C 
ATOM      9  O   UNL     1      26.703  26.401  25.277  1.00  0.00    -0.550 OA
ATOM     10  O   UNL     1      24.514  25.975  24.755  1.00  0.00    -0.550 OA
ENDBRANCH   7   8
ENDBRANCH   6   7
ENDBRANCH   5   6
ENDBRANCH   4   5
ENDBRANCH   3   4
ENDBRANCH   2   3
ENDBRANCH   1   2
BRANCH   1  11
ATOM     11  C   UNL     1      22.849  18.885  25.170  1.00  0.00     0.000 C 
BRANCH  11  12
ATOM     12  C   UNL     1      23.907  18.924  24.057  1.00  0.00     0.000 C 
BRANCH  12  13
ATOM     13  C   UNL     1      25.345  18.950  24.602  1.00  0.00     0.000 C 
BRANCH  13  14
ATOM     14  C   UNL     1      26.172  20.113  24.030  1.00  0.00     0.000 C 
BRANCH  14  15
ATOM     15  C   UNL     1      27.393  20.453  24.901  1.00  0.00     0.000 C 
BRANCH  15  16
ATOM     16  C   UNL     1      28.647  19.655  24.502  1.00  0.00     0.006 C 
BRANCH  16  17
ATOM     17  C   UNL     1      29.842  20.569  24.200  1.00  0.00     0.053 C 
BRANCH  17  18
ATOM     18  C   UNL     1      30.535  20.173  22.932  1.00  0.00     0.041 C 
ATOM     19  O   UNL     1      30.664  21.003  21.995  1.00  0.00    -0.550 OA
ATOM     20  O   UNL     1      31.007  18.876  22.774  1.00  0.00    -0.550 OA
ENDBRANCH  17  18
ENDBRANCH  16  17
ENDBRANCH  15  16
ENDBRANCH  14  15
ENDBRANCH  13  14
ENDBRANCH  12  13
ENDBRANCH  11  12
ENDBRANCH   1  11
TORSDOF 15
ENDMDL
MODEL 4
REMARK VINA RESULT:    -1.896      1.728      2.080
REMARK INTER + INTRA:          -4.125
REMARK INTER:                  -3.717
REMARK INTRA:                  -0.408
REMARK UNBOUND:                -0.567
REMARK SMILES O=C([O-])CCCCCCCCCCCCCCC(=O)[O-]
REMARK SMILES IDX 10 1 9 2 8 3 7 4 6 5 5 6 4 7 2 8 1 9 3 10 11 11 12 12 13 13
REMARK SMILES IDX 14 14 15 15 16 16 17 17 18 18 19 19 20 20
REMARK H PARENT
REMARK Flexibility Score: inf
ROOT
ATOM      1  C   UNL     1      26.868  19.977  25.421  1.00  0.00     0.000 C 
ENDROOT
BRANCH   1   2
ATOM      2  C   UNL     1      26.228  18.898  24.534  1.00  0.00     0.000 C 
BRANCH   2   3
ATOM      3  C   UNL     1      25.664  19.466  23.222  1.00  0.00     0.000 C 
BRANCH   3   4
ATOM      4  C   UNL     1      26.737  19.603  22.127  1.00  0.00     0.000 C 
BRANCH   4   5
ATOM      5  C   UNL     1      28.072  18.957  22.526  1.00  0.00     0.000 C 
BRANCH   5   6
ATOM      6  C   UNL     1      29.181  19.993  22.784  1.00  0.00     0.006 C 
BRANCH   6   7
ATOM      7  C   UNL     1      30.142  19.549  23.894  1.00  0.00     0.053 C 
BRANCH   7   8
ATOM      8  C   UNL     1      31.450  19.076  23.338  1.00  0.00     0.041 C 
ATOM      9  O   UNL     1      32.433  18.888  24.101  1.00  0.00    -0.550 OA
ATOM     10  O   UNL     1      31.591  18.875  21.971  1.00  0.00    -0.550 OA
ENDBRANCH   7   8
ENDBRANCH   6   7
ENDBRANCH   5   6
ENDBRANCH   4   5
ENDBRANCH   3   4
ENDBRANCH   2   3
ENDBRANCH   1   2
BRANCH   1  11
ATOM     11  C   UNL     1      25.796  20.777  26.171  1.00  0.00     0.000 C 
BRANCH  11  12
ATOM     12  C   UNL     1      24.646  19.865  26.626  1.00  0.00     0.000 C 
BRANCH  12  13
ATOM     13  C   UNL     1      23.330  20.152  25.884  1.00  0.00     0.000 C 
BRANCH  13  14
ATOM     14  C   UNL     1      22.183  20.525  26.838  1.00  0.00     0.000 C 
BRANCH  14  15
ATOM     15  C   UNL     1      22.310  21.959  27.379  1.00  0.00     0.000 C 
BRANCH  15  16
ATOM     16  C   UNL     1      23.256  22.830  26.534  1.00  0.00     0.006 C 
BRANCH  16  17
ATOM     17  C   UNL     1      23.834  24.003  27.337  1.00  0.00     0.053 C 
BRANCH  17  18
ATOM     18  C   UNL     1      24.654  24.914  26.474  1.00  0.00     0.041 C 
ATOM     19  O   UNL     1      24.563  24.850  25.220  1.00  0.00    -0.550 OA
ATOM     20  O   UNL     1      25.544  25.808  27.056  1.00  0.00    -0.550 OA
ENDBRANCH  17  18
ENDBRANCH  16  17
ENDBRANCH  15  16
ENDBRANCH  14  15
ENDBRANCH  13  14
ENDBRANCH  12  13
ENDBRANCH  11  12
ENDBRANCH   1  11
TORSDOF 15
ENDMDL
MODEL 5
REMARK VINA RESULT:    -1.871      2.718      6.801
REMARK INTER + INTRA:          -4.078
REMARK INTER:                  -3.370
REMARK INTRA:                  -0.708
REMARK UNBOUND:                -0.567
REMARK SMILES O=C([O-])CCCCCCCCCCCCCCC(=O)[O-]
REMARK SMILES IDX 10 1 9 2 8 3 7 4 6 5 5 6 4 7 2 8 1 9 3 10 11 11 12 12 13 13
REMARK SMILES IDX 14 14 15 15 16 16 17 17 18 18 19 19 20 20
REMARK H PARENT
REMARK Flexibility Score: inf
ROOT
ATOM      1  C   UNL     1      24.604  23.285  26.822  1.00  0.00     0.000 C 
ENDROOT
BRANCH   1   2
ATOM      2  C   UNL     1      23.096  23.237  27.112  1.00  0.00     0.000 C 
BRANCH   2   3
ATOM      3  C   UNL     1      22.403  22.034  26.453  1.00  0.00     0.000 C 
BRANCH   3   4
ATOM      4  C   UNL     1      21.636  21.166  27.466  1.00  0.00     0.000 C 
BRANCH   4   5
ATOM      5  C   UNL     1      22.517  20.077  28.096  1.00  0.00     0.000 C 
BRANCH   5   6
ATOM      6  C   UNL     1      22.738  18.875  27.159  1.00  0.00     0.006 C 
BRANCH   6   7
ATOM      7  C   UNL     1      23.912  19.098  26.198  1.00  0.00     0.053 C 
BRANCH   7   8
ATOM      8  C   UNL     1      23.469  19.075  24.767  1.00  0.00     0.041 C 
ATOM      9  O   UNL     1      24.308  18.900  23.845  1.00  0.00    -0.550 OA
ATOM     10  O   UNL     1      22.132  19.280  24.451  1.00  0.00    -0.550 OA
ENDBRANCH   7   8
ENDBRANCH   6   7
ENDBRANCH   5   6
ENDBRANCH   4   5
ENDBRANCH   3   4
ENDBRANCH   2   3
ENDBRANCH   1   2
BRANCH   1  11
ATOM     11  C   UNL     1      25.079  21.981  26.172  1.00  0.00     0.000 C 
BRANCH  11  12
ATOM     12  C   UNL     1      26.595  21.797  26.349  1.00  0.00     0.000 C 
BRANCH  12  13
ATOM     13  C   UNL     1      27.082  20.406  25.910  1.00  0.00     0.000 C 
BRANCH  13  14
ATOM     14  C   UNL     1      27.124  20.252  24.380  1.00  0.00     0.000 C 
BRANCH  14  15
ATOM     15  C   UNL     1      27.663  18.880  23.941  1.00  0.00     0.000 C 
BRANCH  15  16
ATOM     16  C   UNL     1      28.524  18.962  22.668  1.00  0.00     0.006 C 
BRANCH  16  17
ATOM     17  C   UNL     1      29.679  19.962  22.814  1.00  0.00     0.053 C 
BRANCH  17  18
ATOM     18  C   UNL     1      30.993  19.266  22.998  1.00  0.00     0.041 C 
ATOM     19  O   UNL     1      31.403  18.982  24.154  1.00  0.00    -0.550 OA
ATOM     20  O   UNL     1      31.780  18.963  21.894  1.00  0.00    -0.550 OA
ENDBRANCH  17  18
ENDBRANCH  16  17
ENDBRANCH  15  16
ENDBRANCH  14  15
ENDBRANCH  13  14
ENDBRANCH  12  13
ENDBRANCH  11  12
ENDBRANCH   1  11
TORSDOF 15
ENDMDL
MODEL 6
REMARK VINA RESULT:    -1.774      1.260      6.703
REMARK INTER + INTRA:          -3.897
REMARK INTER:                  -3.099
REMARK INTRA:                  -0.799
REMARK UNBOUND:                -0.567
REMARK SMILES O=C([O-])CCCCCCCCCCCCCCC(=O)[O-]
REMARK SMILES IDX 10 1 9 2 8 3 7 4 6 5 5 6 4 7 2 8 1 9 3 10 11 11 12 12 13 13
REMARK SMILES IDX 14 14 15 15 16 16 17 17 18 18 19 19 20 20
REMARK H PARENT
REMARK Flexibility Score: inf
ROOT
ATOM      1  C   UNL     1      24.976  18.996  26.300  1.00  0.00     0.000 C 
ENDROOT
BRANCH   1   2
ATOM      2  C   UNL     1      23.492  19.060  26.689  1.00  0.00     0.000 C 
BRANCH   2   3
ATOM      3  C   UNL     1      22.779  20.292  26.110  1.00  0.00     0.000 C 
BRANCH   3   4
ATOM      4  C   UNL     1      21.819  20.948  27.119  1.00  0.00     0.000 C 
BRANCH   4   5
ATOM      5  C   UNL     1      22.244  22.376  27.493  1.00  0.00     0.000 C 
BRANCH   5   6
ATOM      6  C   UNL     1      23.235  22.985  26.486  1.00  0.00     0.006 C 
BRANCH   6   7
ATOM      7  C   UNL     1      24.364  23.758  27.180  1.00  0.00     0.053 C 
BRANCH   7   8
ATOM      8  C   UNL     1      24.856  24.896  26.338  1.00  0.00     0.041 C 
ATOM      9  O   UNL     1      25.592  25.785  26.840  1.00  0.00    -0.550 OA
ATOM     10  O   UNL     1      24.472  24.991  25.007  1.00  0.00    -0.550 OA
ENDBRANCH   7   8
ENDBRANCH   6   7
ENDBRANCH   5   6
ENDBRANCH   4   5
ENDBRANCH   3   4
ENDBRANCH   2   3
ENDBRANCH   1   2
BRANCH   1  11
ATOM     11  C   UNL     1      25.534  20.399  26.032  1.00  0.00     0.000 C 
BRANCH  11  12
ATOM     12  C   UNL     1      26.016  20.532  24.579  1.00  0.00     0.000 C 
BRANCH  12  13
ATOM     13  C   UNL     1      26.099  19.178  23.854  1.00  0.00     0.000 C 
BRANCH  13  14
ATOM     14  C   UNL     1      26.980  19.236  22.595  1.00  0.00     0.000 C 
BRANCH  14  15
ATOM     15  C   UNL     1      28.447  18.875  22.885  1.00  0.00     0.000 C 
BRANCH  15  16
ATOM     16  C   UNL     1      29.414  19.423  21.821  1.00  0.00     0.006 C 
BRANCH  16  17
ATOM     17  C   UNL     1      30.861  19.477  22.328  1.00  0.00     0.053 C 
BRANCH  17  18
ATOM     18  C   UNL     1      30.920  19.705  23.808  1.00  0.00     0.041 C 
ATOM     19  O   UNL     1      30.227  20.612  24.338  1.00  0.00    -0.550 OA
ATOM     20  O   UNL     1      31.768  18.937  24.597  1.00  0.00    -0.550 OA
ENDBRANCH  17  18
ENDBRANCH  16  17
ENDBRANCH  15  16
ENDBRANCH  14  15
ENDBRANCH  13  14
ENDBRANCH  12  13
ENDBRANCH  11  12
ENDBRANCH   1  11
TORSDOF 15
ENDMDL
MODEL 7
REMARK VINA RESULT:    -1.721      1.620      2.296
REMARK INTER + INTRA:          -3.797
REMARK INTER:                  -3.758
REMARK INTRA:                  -0.039
REMARK UNBOUND:                -0.567
REMARK SMILES O=C([O-])CCCCCCCCCCCCCCC(=O)[O-]
REMARK SMILES IDX 10 1 9 2 8 3 7 4 6 5 5 6 4 7 2 8 1 9 3 10 11 11 12 12 13 13
REMARK SMILES IDX 14 14 15 15 16 16 17 17 18 18 19 19 20 20
REMARK H PARENT
REMARK Flexibility Score: inf
ROOT
ATOM      1  C   UNL     1      24.134  19.700  25.924  1.00  0.00     0.000 C 
ENDROOT
BRANCH   1   2
ATOM      2  C   UNL     1      25.503  19.091  25.586  1.00  0.00     0.000 C 
BRANCH   2   3
ATOM      3  C   UNL     1      26.674  19.993  26.006  1.00  0.00     0.000 C 
BRANCH   3   4
ATOM      4  C   UNL     1      27.273  20.773  24.823  1.00  0.00     0.000 C 
BRANCH   4   5
ATOM      5  C   UNL     1      27.195  19.992  23.502  1.00  0.00     0.000 C 
BRANCH   5   6
ATOM      6  C   UNL     1      28.377  19.025  23.312  1.00  0.00     0.006 C 
BRANCH   6   7
ATOM      7  C   UNL     1      29.521  19.659  22.510  1.00  0.00     0.053 C 
BRANCH   7   8
ATOM      8  C   UNL     1      30.858  19.145  22.950  1.00  0.00     0.041 C 
ATOM      9  O   UNL     1      31.763  18.927  22.104  1.00  0.00    -0.550 OA
ATOM     10  O   UNL     1      31.091  18.876  24.292  1.00  0.00    -0.550 OA
ENDBRANCH   7   8
ENDBRANCH   6   7
ENDBRANCH   5   6
ENDBRANCH   4   5
ENDBRANCH   3   4
ENDBRANCH   2   3
ENDBRANCH   1   2
BRANCH   1  11
ATOM     11  C   UNL     1      23.459  18.934  27.068  1.00  0.00     0.000 C 
BRANCH  11  12
ATOM     12  C   UNL     1      22.515  19.850  27.862  1.00  0.00     0.000 C 
BRANCH  12  13
ATOM     13  C   UNL     1      21.988  21.029  27.027  1.00  0.00     0.000 C 
BRANCH  13  14
ATOM     14  C   UNL     1      23.077  22.072  26.725  1.00  0.00     0.000 C 
BRANCH  14  15
ATOM     15  C   UNL     1      22.746  23.456  27.310  1.00  0.00     0.000 C 
BRANCH  15  16
ATOM     16  C   UNL     1      23.970  24.388  27.356  1.00  0.00     0.006 C 
BRANCH  16  17
ATOM     17  C   UNL     1      24.755  24.377  26.038  1.00  0.00     0.053 C 
BRANCH  17  18
ATOM     18  C   UNL     1      25.292  25.735  25.703  1.00  0.00     0.041 C 
ATOM     19  O   UNL     1      26.046  26.336  26.512  1.00  0.00    -0.550 OA
ATOM     20  O   UNL     1      24.932  26.350  24.511  1.00  0.00    -0.550 OA
ENDBRANCH  17  18
ENDBRANCH  16  17
ENDBRANCH  15  16
ENDBRANCH  14  15
ENDBRANCH  13  14
ENDBRANCH  12  13
ENDBRANCH  11  12
ENDBRANCH   1  11
TORSDOF 15
ENDMDL
