MODEL 1
REMARK VINA RESULT:    -4.761      0.000      0.000
REMARK INTER + INTRA:          -7.426
REMARK INTER:                  -6.431
REMARK INTRA:                  -0.994
REMARK UNBOUND:                -0.994
REMARK SMILES CC(=O)CCC=C(C)CCC=C(C)C
REMARK SMILES IDX 7 1 6 2 8 3 9 4 10 5 11 6 13 7 12 8 14 9 5 10 4 11 2 12 3 13
REMARK SMILES IDX 1 14
REMARK H PARENT
REMARK Flexibility Score: inf
ROOT
ATOM      1  C   UNL     1     137.992 185.318 191.792  1.00  0.00    -0.077 C 
ATOM      2  C   UNL     1     137.405 184.154 191.429  1.00  0.00    -0.028 C 
ATOM      3  C   UNL     1     138.516 186.300 190.771  1.00  0.00     0.039 C 
ENDROOT
BRANCH   1   4
ATOM      4  C   UNL     1     138.144 185.635 193.263  1.00  0.00     0.034 C 
BRANCH   4   5
ATOM      5  C   UNL     1     137.090 186.654 193.712  1.00  0.00     0.032 C 
BRANCH   5   6
ATOM      6  C   UNL     1     135.901 185.958 194.326  1.00  0.00    -0.028 C 
ATOM      7  C   UNL     1     134.434 186.367 192.336  1.00  0.00     0.039 C 
ATOM      8  C   UNL     1     134.708 185.799 193.710  1.00  0.00    -0.080 C 
ATOM      9  C   UNL     1     133.622 185.044 194.432  1.00  0.00     0.039 C 
ENDBRANCH   5   6
ENDBRANCH   4   5
ENDBRANCH   1   4
BRANCH   2  10
ATOM     10  C   UNL     1     137.145 183.731 190.002  1.00  0.00     0.035 C 
BRANCH  10  11
ATOM     11  C   UNL     1     135.780 184.221 189.505  1.00  0.00     0.079 C 
BRANCH  11  12
ATOM     12  C   UNL     1     135.255 183.360 188.385  1.00  0.00     0.130 C 
ATOM     13  O   UNL     1     135.874 182.359 188.053  1.00  0.00    -0.300 OA
ATOM     14  C   UNL     1     133.984 183.704 187.666  1.00  0.00     0.087 C 
ENDBRANCH  11  12
ENDBRANCH  10  11
ENDBRANCH   2  10
TORSDOF 6
ENDMDL
MODEL 2
REMARK VINA RESULT:    -4.750      2.831      6.346
REMARK INTER + INTRA:          -7.411
REMARK INTER:                  -6.647
REMARK INTRA:                  -0.764
REMARK UNBOUND:                -0.994
REMARK SMILES CC(=O)CCC=C(C)CCC=C(C)C
REMARK SMILES IDX 7 1 6 2 8 3 9 4 10 5 11 6 13 7 12 8 14 9 5 10 4 11 2 12 3 13
REMARK SMILES IDX 1 14
REMARK H PARENT
REMARK Flexibility Score: inf
ROOT
ATOM      1  C   UNL     1     135.958 183.105 188.902  1.00  0.00    -0.077 C 
ATOM      2  C   UNL     1     136.917 182.954 189.844  1.00  0.00    -0.028 C 
ATOM      3  C   UNL     1     135.024 184.292 188.894  1.00  0.00     0.039 C 
ENDROOT
BRANCH   1   4
ATOM      4  C   UNL     1     135.806 182.043 187.835  1.00  0.00     0.034 C 
BRANCH   4   5
ATOM      5  C   UNL     1     134.337 181.892 187.423  1.00  0.00     0.032 C 
BRANCH   5   6
ATOM      6  C   UNL     1     134.111 182.437 186.035  1.00  0.00    -0.028 C 
ATOM      7  C   UNL     1     132.102 183.771 186.712  1.00  0.00     0.039 C 
ATOM      8  C   UNL     1     133.127 183.302 185.705  1.00  0.00    -0.080 C 
ATOM      9  C   UNL     1     133.049 183.793 184.283  1.00  0.00     0.039 C 
ENDBRANCH   5   6
ENDBRANCH   4   5
ENDBRANCH   1   4
BRANCH   2  10
ATOM     10  C   UNL     1     137.212 183.956 190.937  1.00  0.00     0.035 C 
BRANCH  10  11
ATOM     11  C   UNL     1     138.433 184.820 190.599  1.00  0.00     0.079 C 
BRANCH  11  12
ATOM     12  C   UNL     1     138.119 186.290 190.706  1.00  0.00     0.130 C 
ATOM     13  O   UNL     1     138.969 187.112 190.393  1.00  0.00    -0.300 OA
ATOM     14  C   UNL     1     136.783 186.770 191.189  1.00  0.00     0.087 C 
ENDBRANCH  11  12
ENDBRANCH  10  11
ENDBRANCH   2  10
TORSDOF 6
ENDMDL
MODEL 3
REMARK VINA RESULT:    -4.740      1.926      4.778
REMARK INTER + INTRA:          -7.397
REMARK INTER:                  -6.465
REMARK INTRA:                  -0.931
REMARK UNBOUND:                -0.994
REMARK SMILES CC(=O)CCC=C(C)CCC=C(C)C
REMARK SMILES IDX 7 1 6 2 8 3 9 4 10 5 11 6 13 7 12 8 14 9 5 10 4 11 2 12 3 13
REMARK SMILES IDX 1 14
REMARK H PARENT
REMARK Flexibility Score: inf
ROOT
ATOM      1  C   UNL     1     137.651 185.616 191.363  1.00  0.00    -0.077 C 
ATOM      2  C   UNL     1     137.249 185.310 192.618  1.00  0.00    -0.028 C 
ATOM      3  C   UNL     1     137.550 187.019 190.811  1.00  0.00     0.039 C 
ENDROOT
BRANCH   1   4
ATOM      4  C   UNL     1     138.202 184.517 190.481  1.00  0.00     0.034 C 
BRANCH   4   5
ATOM      5  C   UNL     1     137.162 183.410 190.278  1.00  0.00     0.032 C 
BRANCH   5   6
ATOM      6  C   UNL     1     135.969 183.931 189.516  1.00  0.00    -0.028 C 
ATOM      7  C   UNL     1     135.889 181.956 187.976  1.00  0.00     0.039 C 
ATOM      8  C   UNL     1     135.370 183.278 188.496  1.00  0.00    -0.080 C 
ATOM      9  C   UNL     1     134.159 183.904 187.854  1.00  0.00     0.039 C 
ENDBRANCH   5   6
ENDBRANCH   4   5
ENDBRANCH   1   4
BRANCH   2  10
ATOM     10  C   UNL     1     136.725 186.312 193.620  1.00  0.00     0.035 C 
BRANCH  10  11
ATOM     11  C   UNL     1     135.305 185.963 194.082  1.00  0.00     0.079 C 
BRANCH  11  12
ATOM     12  C   UNL     1     134.355 185.844 192.917  1.00  0.00     0.130 C 
ATOM     13  O   UNL     1     134.191 186.801 192.174  1.00  0.00    -0.300 OA
ATOM     14  C   UNL     1     133.605 184.574 192.649  1.00  0.00     0.087 C 
ENDBRANCH  11  12
ENDBRANCH  10  11
ENDBRANCH   2  10
TORSDOF 6
ENDMDL
MODEL 4
REMARK VINA RESULT:    -4.721      2.926      6.767
REMARK INTER + INTRA:          -7.371
REMARK INTER:                  -6.872
REMARK INTRA:                  -0.500
REMARK UNBOUND:                -0.994
REMARK SMILES CC(=O)CCC=C(C)CCC=C(C)C
REMARK SMILES IDX 7 1 6 2 8 3 9 4 10 5 11 6 13 7 12 8 14 9 5 10 4 11 2 12 3 13
REMARK SMILES IDX 1 14
REMARK H PARENT
REMARK Flexibility Score: inf
ROOT
ATOM      1  C   UNL     1     135.622 183.486 188.801  1.00  0.00    -0.077 C 
ATOM      2  C   UNL     1     136.265 184.281 189.687  1.00  0.00    -0.028 C 
ATOM      3  C   UNL     1     136.190 182.157 188.360  1.00  0.00     0.039 C 
ENDROOT
BRANCH   1   4
ATOM      4  C   UNL     1     134.305 183.951 188.220  1.00  0.00     0.034 C 
BRANCH   4   5
ATOM      5  C   UNL     1     133.747 182.914 187.238  1.00  0.00     0.032 C 
BRANCH   5   6
ATOM      6  C   UNL     1     133.051 183.590 186.084  1.00  0.00    -0.028 C 
ATOM      7  C   UNL     1     134.209 182.190 184.359  1.00  0.00     0.039 C 
ATOM      8  C   UNL     1     133.230 183.260 184.785  1.00  0.00    -0.080 C 
ATOM      9  C   UNL     1     132.435 183.999 183.740  1.00  0.00     0.039 C 
ENDBRANCH   5   6
ENDBRANCH   4   5
ENDBRANCH   1   4
BRANCH   2  10
ATOM     10  C   UNL     1     137.559 183.923 190.380  1.00  0.00     0.035 C 
BRANCH  10  11
ATOM     11  C   UNL     1     137.879 184.897 191.521  1.00  0.00     0.079 C 
BRANCH  11  12
ATOM     12  C   UNL     1     138.130 186.292 191.008  1.00  0.00     0.130 C 
ATOM     13  O   UNL     1     137.304 187.168 191.217  1.00  0.00    -0.300 OA
ATOM     14  C   UNL     1     139.376 186.629 190.244  1.00  0.00     0.087 C 
ENDBRANCH  11  12
ENDBRANCH  10  11
ENDBRANCH   2  10
TORSDOF 6
ENDMDL
MODEL 5
REMARK VINA RESULT:    -4.616      2.079      5.051
REMARK INTER + INTRA:          -7.230
REMARK INTER:                  -5.994
REMARK INTRA:                  -1.236
REMARK UNBOUND:                -0.994
REMARK SMILES CC(=O)CCC=C(C)CCC=C(C)C
REMARK SMILES IDX 7 1 6 2 8 3 9 4 10 5 11 6 13 7 12 8 14 9 5 10 4 11 2 12 3 13
REMARK SMILES IDX 1 14
REMARK H PARENT
REMARK Flexibility Score: inf
ROOT
ATOM      1  C   UNL     1     137.176 184.511 191.172  1.00  0.00    -0.077 C 
ATOM      2  C   UNL     1     136.631 185.729 190.950  1.00  0.00    -0.028 C 
ATOM      3  C   UNL     1     137.337 183.949 192.566  1.00  0.00     0.039 C 
ENDROOT
BRANCH   1   4
ATOM      4  C   UNL     1     137.657 183.696 189.991  1.00  0.00     0.034 C 
BRANCH   4   5
ATOM      5  C   UNL     1     136.654 182.587 189.651  1.00  0.00     0.032 C 
BRANCH   5   6
ATOM      6  C   UNL     1     135.764 183.004 188.508  1.00  0.00    -0.028 C 
ATOM      7  C   UNL     1     133.807 183.482 189.998  1.00  0.00     0.039 C 
ATOM      8  C   UNL     1     134.489 183.432 188.650  1.00  0.00    -0.080 C 
ATOM      9  C   UNL     1     133.732 183.855 187.418  1.00  0.00     0.039 C 
ENDBRANCH   5   6
ENDBRANCH   4   5
ENDBRANCH   1   4
BRANCH   2  10
ATOM     10  C   UNL     1     136.068 186.627 192.027  1.00  0.00     0.035 C 
BRANCH  10  11
ATOM     11  C   UNL     1     134.557 186.429 192.198  1.00  0.00     0.079 C 
BRANCH  11  12
ATOM     12  C   UNL     1     134.237 185.642 193.443  1.00  0.00     0.130 C 
ATOM     13  O   UNL     1     133.405 184.748 193.393  1.00  0.00    -0.300 OA
ATOM     14  C   UNL     1     134.919 185.933 194.747  1.00  0.00     0.087 C 
ENDBRANCH  11  12
ENDBRANCH  10  11
ENDBRANCH   2  10
TORSDOF 6
ENDMDL
MODEL 6
REMARK VINA RESULT:    -4.584      2.639      4.726
REMARK INTER + INTRA:          -7.187
REMARK INTER:                  -6.426
REMARK INTRA:                  -0.761
REMARK UNBOUND:                -0.994
REMARK SMILES CC(=O)CCC=C(C)CCC=C(C)C
REMARK SMILES IDX 7 1 6 2 8 3 9 4 10 5 11 6 13 7 12 8 14 9 5 10 4 11 2 12 3 13
REMARK SMILES IDX 1 14
REMARK H PARENT
REMARK Flexibility Score: inf
ROOT
ATOM      1  C   UNL     1     135.735 182.720 188.396  1.00  0.00    -0.077 C 
ATOM      2  C   UNL     1     135.383 181.720 187.555  1.00  0.00    -0.028 C 
ATOM      3  C   UNL     1     134.895 183.966 188.553  1.00  0.00     0.039 C 
ENDROOT
BRANCH   1   4
ATOM      4  C   UNL     1     137.018 182.594 189.188  1.00  0.00     0.034 C 
BRANCH   4   5
ATOM      5  C   UNL     1     136.963 183.456 190.455  1.00  0.00     0.032 C 
BRANCH   5   6
ATOM      6  C   UNL     1     138.050 184.501 190.438  1.00  0.00    -0.028 C 
ATOM      7  C   UNL     1     136.484 186.369 191.016  1.00  0.00     0.039 C 
ATOM      8  C   UNL     1     137.855 185.810 190.712  1.00  0.00    -0.080 C 
ATOM      9  C   UNL     1     139.046 186.732 190.696  1.00  0.00     0.039 C 
ENDBRANCH   5   6
ENDBRANCH   4   5
ENDBRANCH   1   4
BRANCH   2  10
ATOM     10  C   UNL     1     134.110 181.692 186.741  1.00  0.00     0.035 C 
BRANCH  10  11
ATOM     11  C   UNL     1     134.392 181.850 185.242  1.00  0.00     0.079 C 
BRANCH  11  12
ATOM     12  C   UNL     1     133.581 182.969 184.639  1.00  0.00     0.130 C 
ATOM     13  O   UNL     1     133.853 183.374 183.518  1.00  0.00    -0.300 OA
ATOM     14  C   UNL     1     132.444 183.599 185.387  1.00  0.00     0.087 C 
ENDBRANCH  11  12
ENDBRANCH  10  11
ENDBRANCH   2  10
TORSDOF 6
ENDMDL
MODEL 7
REMARK VINA RESULT:    -4.466      1.376      2.410
REMARK INTER + INTRA:          -7.026
REMARK INTER:                  -6.067
REMARK INTRA:                  -0.959
REMARK UNBOUND:                -0.994
REMARK SMILES CC(=O)CCC=C(C)CCC=C(C)C
REMARK SMILES IDX 7 1 6 2 8 3 9 4 10 5 11 6 13 7 12 8 14 9 5 10 4 11 2 12 3 13
REMARK SMILES IDX 1 14
REMARK H PARENT
REMARK Flexibility Score: inf
ROOT
ATOM      1  C   UNL     1     136.478 184.169 190.404  1.00  0.00    -0.077 C 
ATOM      2  C   UNL     1     135.700 184.435 189.330  1.00  0.00    -0.028 C 
ATOM      3  C   UNL     1     136.229 182.975 191.296  1.00  0.00     0.039 C 
ENDROOT
BRANCH   1   4
ATOM      4  C   UNL     1     137.618 185.107 190.734  1.00  0.00     0.034 C 
BRANCH   4   5
ATOM      5  C   UNL     1     137.088 186.438 191.281  1.00  0.00     0.032 C 
BRANCH   5   6
ATOM      6  C   UNL     1     136.746 186.315 192.745  1.00  0.00    -0.028 C 
ATOM      7  C   UNL     1     134.275 186.359 192.334  1.00  0.00     0.039 C 
ATOM      8  C   UNL     1     135.486 186.253 193.232  1.00  0.00    -0.080 C 
ATOM      9  C   UNL     1     135.298 186.091 194.717  1.00  0.00     0.039 C 
ENDBRANCH   5   6
ENDBRANCH   4   5
ENDBRANCH   1   4
BRANCH   2  10
ATOM     10  C   UNL     1     134.560 183.562 188.858  1.00  0.00     0.035 C 
BRANCH  10  11
ATOM     11  C   UNL     1     135.008 182.591 187.758  1.00  0.00     0.079 C 
BRANCH  11  12
ATOM     12  C   UNL     1     134.119 182.680 186.544  1.00  0.00     0.130 C 
ATOM     13  O   UNL     1     134.262 181.877 185.633  1.00  0.00    -0.300 OA
ATOM     14  C   UNL     1     133.059 183.735 186.428  1.00  0.00     0.087 C 
ENDBRANCH  11  12
ENDBRANCH  10  11
ENDBRANCH   2  10
TORSDOF 6
ENDMDL
MODEL 8
REMARK VINA RESULT:    -4.434      1.960      2.922
REMARK INTER + INTRA:          -6.984
REMARK INTER:                  -5.942
REMARK INTRA:                  -1.041
REMARK UNBOUND:                -0.994
REMARK SMILES CC(=O)CCC=C(C)CCC=C(C)C
REMARK SMILES IDX 7 1 6 2 8 3 9 4 10 5 11 6 13 7 12 8 14 9 5 10 4 11 2 12 3 13
REMARK SMILES IDX 1 14
REMARK H PARENT
REMARK Flexibility Score: inf
ROOT
ATOM      1  C   UNL     1     136.763 183.827 189.776  1.00  0.00    -0.077 C 
ATOM      2  C   UNL     1     135.565 184.362 189.447  1.00  0.00    -0.028 C 
ATOM      3  C   UNL     1     137.248 182.525 189.183  1.00  0.00     0.039 C 
ENDROOT
BRANCH   1   4
ATOM      4  C   UNL     1     137.635 184.546 190.782  1.00  0.00     0.034 C 
BRANCH   4   5
ATOM      5  C   UNL     1     137.025 185.900 191.163  1.00  0.00     0.032 C 
BRANCH   5   6
ATOM      6  C   UNL     1     136.704 185.946 192.636  1.00  0.00    -0.028 C 
ATOM      7  C   UNL     1     134.255 186.309 192.253  1.00  0.00     0.039 C 
ATOM      8  C   UNL     1     135.461 186.105 193.142  1.00  0.00    -0.080 C 
ATOM      9  C   UNL     1     135.287 186.091 194.638  1.00  0.00     0.039 C 
ENDBRANCH   5   6
ENDBRANCH   4   5
ENDBRANCH   1   4
BRANCH   2  10
ATOM     10  C   UNL     1     134.616 183.779 188.426  1.00  0.00     0.035 C 
BRANCH  10  11
ATOM     11  C   UNL     1     133.708 182.708 189.042  1.00  0.00     0.079 C 
BRANCH  11  12
ATOM     12  C   UNL     1     132.980 183.228 190.255  1.00  0.00     0.130 C 
ATOM     13  O   UNL     1     132.104 184.069 190.117  1.00  0.00    -0.300 OA
ATOM     14  C   UNL     1     133.308 182.734 191.633  1.00  0.00     0.087 C 
ENDBRANCH  11  12
ENDBRANCH  10  11
ENDBRANCH   2  10
TORSDOF 6
ENDMDL
MODEL 9
REMARK VINA RESULT:    -4.405      3.436      6.488
REMARK INTER + INTRA:          -6.945
REMARK INTER:                  -6.363
REMARK INTRA:                  -0.582
REMARK UNBOUND:                -0.994
REMARK SMILES CC(=O)CCC=C(C)CCC=C(C)C
REMARK SMILES IDX 7 1 6 2 8 3 9 4 10 5 11 6 13 7 12 8 14 9 5 10 4 11 2 12 3 13
REMARK SMILES IDX 1 14
REMARK H PARENT
REMARK Flexibility Score: inf
ROOT
ATOM      1  C   UNL     1     135.551 186.274 193.057  1.00  0.00    -0.077 C 
ATOM      2  C   UNL     1     135.648 185.984 194.375  1.00  0.00    -0.028 C 
ATOM      3  C   UNL     1     134.217 186.353 192.351  1.00  0.00     0.039 C 
ENDROOT
BRANCH   1   4
ATOM      4  C   UNL     1     136.817 186.508 192.262  1.00  0.00     0.034 C 
BRANCH   4   5
ATOM      5  C   UNL     1     136.602 186.170 190.783  1.00  0.00     0.032 C 
BRANCH   5   6
ATOM      6  C   UNL     1     137.122 184.790 190.469  1.00  0.00    -0.028 C 
ATOM      7  C   UNL     1     135.170 184.214 189.007  1.00  0.00     0.039 C 
ATOM      8  C   UNL     1     136.502 183.908 189.653  1.00  0.00    -0.080 C 
ATOM      9  C   UNL     1     137.162 182.577 189.400  1.00  0.00     0.039 C 
ENDBRANCH   5   6
ENDBRANCH   4   5
ENDBRANCH   1   4
BRANCH   2  10
ATOM     10  C   UNL     1     134.469 185.774 195.296  1.00  0.00     0.035 C 
BRANCH  10  11
ATOM     11  C   UNL     1     134.719 186.378 196.684  1.00  0.00     0.079 C 
BRANCH  11  12
ATOM     12  C   UNL     1     133.496 187.083 197.212  1.00  0.00     0.130 C 
ATOM     13  O   UNL     1     132.387 186.712 196.856  1.00  0.00    -0.300 OA
ATOM     14  C   UNL     1     133.610 188.233 198.168  1.00  0.00     0.087 C 
ENDBRANCH  11  12
ENDBRANCH  10  11
ENDBRANCH   2  10
TORSDOF 6
ENDMDL
