MODEL 1
REMARK VINA RESULT:    -4.884      0.000      0.000
REMARK INTER + INTRA:          -6.255
REMARK INTER:                  -5.883
REMARK INTRA:                  -0.372
REMARK UNBOUND:                -0.372
REMARK SMILES COc1ccc([C@H]2CC(=O)c3c(O)cc(O)cc3O2)cc1O
REMARK SMILES IDX 7 1 8 2 9 3 10 4 11 5 12 6 14 7 15 8 17 9 18 10 19 11 6 12
REMARK SMILES IDX 3 13 21 14 4 15 20 16 5 17 2 18 1 19 22 20 13 22 16 24
REMARK H PARENT 22 21 13 23 16 25
REMARK Flexibility Score: inf
ROOT
ATOM      1  C   UNL     1     144.747 131.702 146.083  1.00  0.00     0.211 C 
ATOM      2  C   UNL     1     143.390 131.705 145.365  1.00  0.00     0.131 C 
ATOM      3  C   UNL     1     142.764 130.348 145.490  1.00  0.00     0.174 C 
ATOM      4  O   UNL     1     141.553 130.255 145.820  1.00  0.00    -0.294 OA
ATOM      5  C   UNL     1     143.612 129.147 145.283  1.00  0.00     0.102 A 
ATOM      6  C   UNL     1     143.104 127.854 144.992  1.00  0.00     0.133 A 
ATOM      7  C   UNL     1     143.990 126.775 144.882  1.00  0.00     0.093 A 
ATOM      8  C   UNL     1     145.369 126.965 144.998  1.00  0.00     0.123 A 
ATOM      9  C   UNL     1     145.876 128.246 145.237  1.00  0.00     0.093 A 
ATOM     10  C   UNL     1     145.008 129.329 145.389  1.00  0.00     0.138 A 
ATOM     11  O   UNL     1     145.546 130.599 145.643  1.00  0.00    -0.484 OA
ENDROOT
BRANCH   1  12
ATOM     12  C   UNL     1     145.480 132.999 145.845  1.00  0.00    -0.003 A 
ATOM     13  C   UNL     1     146.821 135.427 145.332  1.00  0.00     0.160 A 
ATOM     14  C   UNL     1     145.482 135.433 145.749  1.00  0.00     0.158 A 
ATOM     15  C   UNL     1     147.483 134.196 145.163  1.00  0.00     0.051 A 
ATOM     16  C   UNL     1     144.815 134.226 145.999  1.00  0.00     0.057 A 
ATOM     17  C   UNL     1     146.816 132.995 145.413  1.00  0.00     0.011 A 
BRANCH  13  18
ATOM     18  O   UNL     1     147.455 136.656 145.094  1.00  0.00    -0.493 OA
ATOM     19  C   UNL     1     147.875 137.111 143.812  1.00  0.00     0.278 C 
ENDBRANCH  13  18
BRANCH  14  20
ATOM     20  O   UNL     1     144.819 136.648 145.912  1.00  0.00    -0.504 OA
ATOM     21  H   UNL     1     145.196 137.513 145.542  1.00  0.00     0.293 HD
ENDBRANCH  14  20
ENDBRANCH   1  12
BRANCH   6  22
ATOM     22  O   UNL     1     141.750 127.597 144.772  1.00  0.00    -0.507 OA
ATOM     23  H   UNL     1     141.020 127.808 145.437  1.00  0.00     0.293 HD
ENDBRANCH   6  22
BRANCH   8  24
ATOM     24  O   UNL     1     146.226 125.875 144.866  1.00  0.00    -0.508 OA
ATOM     25  H   UNL     1     147.007 125.735 145.497  1.00  0.00     0.293 HD
ENDBRANCH   8  24
TORSDOF 5
ENDMDL
MODEL 2
REMARK VINA RESULT:    -4.763     17.250     19.328
REMARK INTER + INTRA:          -6.109
REMARK INTER:                  -5.763
REMARK INTRA:                  -0.346
REMARK UNBOUND:                -0.372
REMARK SMILES COc1ccc([C@H]2CC(=O)c3c(O)cc(O)cc3O2)cc1O
REMARK SMILES IDX 7 1 8 2 9 3 10 4 11 5 12 6 14 7 15 8 17 9 18 10 19 11 6 12
REMARK SMILES IDX 3 13 21 14 4 15 20 16 5 17 2 18 1 19 22 20 13 22 16 24
REMARK H PARENT 22 21 13 23 16 25
REMARK Flexibility Score: inf
ROOT
ATOM      1  C   UNL     1     133.130 141.032 134.655  1.00  0.00     0.211 C 
ATOM      2  C   UNL     1     132.317 142.334 134.692  1.00  0.00     0.131 C 
ATOM      3  C   UNL     1     132.074 142.802 133.288  1.00  0.00     0.174 C 
ATOM      4  O   UNL     1     130.918 143.171 132.953  1.00  0.00    -0.294 OA
ATOM      5  C   UNL     1     133.194 142.756 132.315  1.00  0.00     0.102 A 
ATOM      6  C   UNL     1     133.229 143.498 131.106  1.00  0.00     0.133 A 
ATOM      7  C   UNL     1     134.304 143.329 130.224  1.00  0.00     0.093 A 
ATOM      8  C   UNL     1     135.367 142.483 130.545  1.00  0.00     0.123 A 
ATOM      9  C   UNL     1     135.359 141.786 131.758  1.00  0.00     0.093 A 
ATOM     10  C   UNL     1     134.279 141.910 132.634  1.00  0.00     0.138 A 
ATOM     11  O   UNL     1     134.292 141.187 133.834  1.00  0.00    -0.484 OA
ENDROOT
BRANCH   1  12
ATOM     12  C   UNL     1     133.532 140.612 136.048  1.00  0.00    -0.003 A 
ATOM     13  C   UNL     1     134.353 139.810 138.625  1.00  0.00     0.160 A 
ATOM     14  C   UNL     1     134.671 141.090 138.147  1.00  0.00     0.158 A 
ATOM     15  C   UNL     1     133.628 138.929 137.799  1.00  0.00     0.051 A 
ATOM     16  C   UNL     1     134.267 141.485 136.864  1.00  0.00     0.057 A 
ATOM     17  C   UNL     1     133.227 139.326 136.522  1.00  0.00     0.011 A 
BRANCH  13  18
ATOM     18  O   UNL     1     134.773 139.452 139.915  1.00  0.00    -0.493 OA
ATOM     19  C   UNL     1     135.818 138.527 140.194  1.00  0.00     0.278 C 
ENDBRANCH  13  18
BRANCH  14  20
ATOM     20  O   UNL     1     135.394 141.965 138.956  1.00  0.00    -0.504 OA
ATOM     21  H   UNL     1     136.301 141.714 139.332  1.00  0.00     0.293 HD
ENDBRANCH  14  20
ENDBRANCH   1  12
BRANCH   6  22
ATOM     22  O   UNL     1     132.251 144.431 130.754  1.00  0.00    -0.507 OA
ATOM     23  H   UNL     1     131.292 144.193 130.549  1.00  0.00     0.293 HD
ENDBRANCH   6  22
BRANCH   8  24
ATOM     24  O   UNL     1     136.431 142.349 129.657  1.00  0.00    -0.508 OA
ATOM     25  H   UNL     1     136.950 143.155 129.326  1.00  0.00     0.293 HD
ENDBRANCH   8  24
TORSDOF 5
ENDMDL
MODEL 3
REMARK VINA RESULT:    -4.714     12.235     14.311
REMARK INTER + INTRA:          -6.050
REMARK INTER:                  -5.710
REMARK INTRA:                  -0.341
REMARK UNBOUND:                -0.372
REMARK SMILES COc1ccc([C@H]2CC(=O)c3c(O)cc(O)cc3O2)cc1O
REMARK SMILES IDX 7 1 8 2 9 3 10 4 11 5 12 6 14 7 15 8 17 9 18 10 19 11 6 12
REMARK SMILES IDX 3 13 21 14 4 15 20 16 5 17 2 18 1 19 22 20 13 22 16 24
REMARK H PARENT 22 21 13 23 16 25
REMARK Flexibility Score: inf
ROOT
ATOM      1  C   UNL     1     133.183 131.456 137.999  1.00  0.00     0.211 C 
ATOM      2  C   UNL     1     132.906 129.947 138.062  1.00  0.00     0.131 C 
ATOM      3  C   UNL     1     131.428 129.713 137.954  1.00  0.00     0.174 C 
ATOM      4  O   UNL     1     131.000 128.827 137.170  1.00  0.00    -0.294 OA
ATOM      5  C   UNL     1     130.509 130.581 138.732  1.00  0.00     0.102 A 
ATOM      6  C   UNL     1     129.161 130.248 139.029  1.00  0.00     0.133 A 
ATOM      7  C   UNL     1     128.358 131.171 139.712  1.00  0.00     0.093 A 
ATOM      8  C   UNL     1     128.882 132.388 140.153  1.00  0.00     0.123 A 
ATOM      9  C   UNL     1     130.222 132.699 139.903  1.00  0.00     0.093 A 
ATOM     10  C   UNL     1     131.030 131.811 139.189  1.00  0.00     0.138 A 
ATOM     11  O   UNL     1     132.365 132.157 138.941  1.00  0.00    -0.484 OA
ENDROOT
BRANCH   1  12
ATOM     12  C   UNL     1     134.640 131.744 138.263  1.00  0.00    -0.003 A 
ATOM     13  C   UNL     1     137.379 132.271 138.683  1.00  0.00     0.160 A 
ATOM     14  C   UNL     1     136.529 133.282 138.213  1.00  0.00     0.158 A 
ATOM     15  C   UNL     1     136.852 130.989 138.933  1.00  0.00     0.051 A 
ATOM     16  C   UNL     1     135.169 133.017 138.000  1.00  0.00     0.057 A 
ATOM     17  C   UNL     1     135.497 130.729 138.719  1.00  0.00     0.011 A 
BRANCH  13  18
ATOM     18  O   UNL     1     138.734 132.575 138.886  1.00  0.00    -0.493 OA
ATOM     19  C   UNL     1     139.586 131.889 139.797  1.00  0.00     0.278 C 
ENDBRANCH  13  18
BRANCH  14  20
ATOM     20  O   UNL     1     137.045 134.551 137.958  1.00  0.00    -0.504 OA
ATOM     21  H   UNL     1     138.016 134.776 138.142  1.00  0.00     0.293 HD
ENDBRANCH  14  20
ENDBRANCH   1  12
BRANCH   6  22
ATOM     22  O   UNL     1     128.589 129.017 138.704  1.00  0.00    -0.507 OA
ATOM     23  H   UNL     1     128.170 128.809 137.809  1.00  0.00     0.293 HD
ENDBRANCH   6  22
BRANCH   8  24
ATOM     24  O   UNL     1     128.064 133.277 140.845  1.00  0.00    -0.508 OA
ATOM     25  H   UNL     1     127.802 133.114 141.811  1.00  0.00     0.293 HD
ENDBRANCH   8  24
TORSDOF 5
ENDMDL
MODEL 4
REMARK VINA RESULT:    -4.630      4.173      7.425
REMARK INTER + INTRA:          -5.949
REMARK INTER:                  -5.609
REMARK INTRA:                  -0.341
REMARK UNBOUND:                -0.372
REMARK SMILES COc1ccc([C@H]2CC(=O)c3c(O)cc(O)cc3O2)cc1O
REMARK SMILES IDX 7 1 8 2 9 3 10 4 11 5 12 6 14 7 15 8 17 9 18 10 19 11 6 12
REMARK SMILES IDX 3 13 21 14 4 15 20 16 5 17 2 18 1 19 22 20 13 22 16 24
REMARK H PARENT 22 21 13 23 16 25
REMARK Flexibility Score: inf
ROOT
ATOM      1  C   UNL     1     142.479 129.655 141.990  1.00  0.00     0.211 C 
ATOM      2  C   UNL     1     142.339 130.690 143.115  1.00  0.00     0.131 C 
ATOM      3  C   UNL     1     143.636 130.781 143.864  1.00  0.00     0.174 C 
ATOM      4  O   UNL     1     144.117 131.913 144.131  1.00  0.00    -0.294 OA
ATOM      5  C   UNL     1     144.349 129.526 144.212  1.00  0.00     0.102 A 
ATOM      6  C   UNL     1     145.346 129.431 145.218  1.00  0.00     0.133 A 
ATOM      7  C   UNL     1     146.007 128.212 145.420  1.00  0.00     0.093 A 
ATOM      8  C   UNL     1     145.657 127.077 144.685  1.00  0.00     0.123 A 
ATOM      9  C   UNL     1     144.642 127.156 143.726  1.00  0.00     0.093 A 
ATOM     10  C   UNL     1     143.998 128.371 143.480  1.00  0.00     0.138 A 
ATOM     11  O   UNL     1     142.996 128.422 142.502  1.00  0.00    -0.484 OA
ENDROOT
BRANCH   1  12
ATOM     12  C   UNL     1     141.151 129.418 141.314  1.00  0.00    -0.003 A 
ATOM     13  C   UNL     1     138.652 128.921 140.103  1.00  0.00     0.160 A 
ATOM     14  C   UNL     1     138.742 129.768 141.217  1.00  0.00     0.158 A 
ATOM     15  C   UNL     1     139.821 128.315 139.604  1.00  0.00     0.051 A 
ATOM     16  C   UNL     1     139.984 130.010 141.821  1.00  0.00     0.057 A 
ATOM     17  C   UNL     1     141.056 128.558 140.208  1.00  0.00     0.011 A 
BRANCH  13  18
ATOM     18  O   UNL     1     137.392 128.706 139.524  1.00  0.00    -0.493 OA
ATOM     19  C   UNL     1     136.799 127.425 139.338  1.00  0.00     0.278 C 
ENDBRANCH  13  18
BRANCH  14  20
ATOM     20  O   UNL     1     137.588 130.367 141.720  1.00  0.00    -0.504 OA
ATOM     21  H   UNL     1     136.753 130.469 141.155  1.00  0.00     0.293 HD
ENDBRANCH  14  20
ENDBRANCH   1  12
BRANCH   6  22
ATOM     22  O   UNL     1     145.690 130.493 146.057  1.00  0.00    -0.507 OA
ATOM     23  H   UNL     1     145.379 131.444 145.919  1.00  0.00     0.293 HD
ENDBRANCH   6  22
BRANCH   8  24
ATOM     24  O   UNL     1     146.319 125.875 144.921  1.00  0.00    -0.508 OA
ATOM     25  H   UNL     1     146.453 125.520 145.861  1.00  0.00     0.293 HD
ENDBRANCH   8  24
TORSDOF 5
ENDMDL
MODEL 5
REMARK VINA RESULT:    -4.629      3.837      6.996
REMARK INTER + INTRA:          -5.948
REMARK INTER:                  -5.596
REMARK INTRA:                  -0.353
REMARK UNBOUND:                -0.372
REMARK SMILES COc1ccc([C@H]2CC(=O)c3c(O)cc(O)cc3O2)cc1O
REMARK SMILES IDX 7 1 8 2 9 3 10 4 11 5 12 6 14 7 15 8 17 9 18 10 19 11 6 12
REMARK SMILES IDX 3 13 21 14 4 15 20 16 5 17 2 18 1 19 22 20 13 22 16 24
REMARK H PARENT 22 21 13 23 16 25
REMARK Flexibility Score: inf
ROOT
ATOM      1  C   UNL     1     142.469 129.281 143.658  1.00  0.00     0.211 C 
ATOM      2  C   UNL     1     143.393 128.065 143.501  1.00  0.00     0.131 C 
ATOM      3  C   UNL     1     144.389 128.055 144.623  1.00  0.00     0.174 C 
ATOM      4  O   UNL     1     144.607 126.984 145.246  1.00  0.00    -0.294 OA
ATOM      5  C   UNL     1     145.044 129.331 145.008  1.00  0.00     0.102 A 
ATOM      6  C   UNL     1     146.247 129.414 145.756  1.00  0.00     0.133 A 
ATOM      7  C   UNL     1     146.744 130.670 146.125  1.00  0.00     0.093 A 
ATOM      8  C   UNL     1     146.103 131.842 145.718  1.00  0.00     0.123 A 
ATOM      9  C   UNL     1     144.943 131.765 144.940  1.00  0.00     0.093 A 
ATOM     10  C   UNL     1     144.408 130.522 144.594  1.00  0.00     0.138 A 
ATOM     11  O   UNL     1     143.236 130.477 143.827  1.00  0.00    -0.484 OA
ENDROOT
BRANCH   1  12
ATOM     12  C   UNL     1     141.556 129.416 142.465  1.00  0.00    -0.003 A 
ATOM     13  C   UNL     1     139.815 129.602 140.253  1.00  0.00     0.160 A 
ATOM     14  C   UNL     1     139.388 130.010 141.525  1.00  0.00     0.158 A 
ATOM     15  C   UNL     1     141.118 129.091 140.096  1.00  0.00     0.051 A 
ATOM     16  C   UNL     1     140.252 129.912 142.624  1.00  0.00     0.057 A 
ATOM     17  C   UNL     1     141.975 128.994 141.193  1.00  0.00     0.011 A 
BRANCH  13  18
ATOM     18  O   UNL     1     138.922 129.718 139.177  1.00  0.00    -0.493 OA
ATOM     19  C   UNL     1     139.097 130.604 138.076  1.00  0.00     0.278 C 
ENDBRANCH  13  18
BRANCH  14  20
ATOM     20  O   UNL     1     138.098 130.511 141.689  1.00  0.00    -0.504 OA
ATOM     21  H   UNL     1     137.904 131.504 141.636  1.00  0.00     0.293 HD
ENDBRANCH  14  20
ENDBRANCH   1  12
BRANCH   6  22
ATOM     22  O   UNL     1     146.996 128.295 146.124  1.00  0.00    -0.507 OA
ATOM     23  H   UNL     1     146.790 127.353 145.822  1.00  0.00     0.293 HD
ENDBRANCH   6  22
BRANCH   8  24
ATOM     24  O   UNL     1     146.631 133.077 146.084  1.00  0.00    -0.508 OA
ATOM     25  H   UNL     1     146.072 133.923 146.054  1.00  0.00     0.293 HD
ENDBRANCH   8  24
TORSDOF 5
ENDMDL
MODEL 6
REMARK VINA RESULT:    -4.608      5.390      8.995
REMARK INTER + INTRA:          -5.923
REMARK INTER:                  -5.558
REMARK INTRA:                  -0.365
REMARK UNBOUND:                -0.372
REMARK SMILES COc1ccc([C@H]2CC(=O)c3c(O)cc(O)cc3O2)cc1O
REMARK SMILES IDX 7 1 8 2 9 3 10 4 11 5 12 6 14 7 15 8 17 9 18 10 19 11 6 12
REMARK SMILES IDX 3 13 21 14 4 15 20 16 5 17 2 18 1 19 22 20 13 22 16 24
REMARK H PARENT 22 21 13 23 16 25
REMARK Flexibility Score: inf
ROOT
ATOM      1  C   UNL     1     140.248 129.171 141.546  1.00  0.00     0.211 C 
ATOM      2  C   UNL     1     140.526 130.676 141.675  1.00  0.00     0.131 C 
ATOM      3  C   UNL     1     141.945 130.878 142.117  1.00  0.00     0.174 C 
ATOM      4  O   UNL     1     142.659 131.732 141.530  1.00  0.00    -0.294 OA
ATOM      5  C   UNL     1     142.486 130.017 143.199  1.00  0.00     0.102 A 
ATOM      6  C   UNL     1     143.637 130.333 143.967  1.00  0.00     0.133 A 
ATOM      7  C   UNL     1     144.103 129.417 144.918  1.00  0.00     0.093 A 
ATOM      8  C   UNL     1     143.418 128.224 145.160  1.00  0.00     0.123 A 
ATOM      9  C   UNL     1     142.257 127.931 144.438  1.00  0.00     0.093 A 
ATOM     10  C   UNL     1     141.797 128.812 143.457  1.00  0.00     0.138 A 
ATOM     11  O   UNL     1     140.638 128.484 142.739  1.00  0.00    -0.484 OA
ENDROOT
BRANCH   1  12
ATOM     12  C   UNL     1     138.789 128.919 141.257  1.00  0.00    -0.003 A 
ATOM     13  C   UNL     1     136.079 128.427 140.647  1.00  0.00     0.160 A 
ATOM     14  C   UNL     1     136.919 127.374 141.038  1.00  0.00     0.158 A 
ATOM     15  C   UNL     1     136.607 129.729 140.553  1.00  0.00     0.051 A 
ATOM     16  C   UNL     1     138.266 127.619 141.336  1.00  0.00     0.057 A 
ATOM     17  C   UNL     1     137.950 129.970 140.851  1.00  0.00     0.011 A 
BRANCH  13  18
ATOM     18  O   UNL     1     134.736 128.142 140.359  1.00  0.00    -0.493 OA
ATOM     19  C   UNL     1     134.029 128.645 139.230  1.00  0.00     0.278 C 
ENDBRANCH  13  18
BRANCH  14  20
ATOM     20  O   UNL     1     136.404 126.082 141.127  1.00  0.00    -0.504 OA
ATOM     21  H   UNL     1     136.712 125.344 140.505  1.00  0.00     0.293 HD
ENDBRANCH  14  20
ENDBRANCH   1  12
BRANCH   6  22
ATOM     22  O   UNL     1     144.324 131.542 143.851  1.00  0.00    -0.507 OA
ATOM     23  H   UNL     1     143.953 132.433 144.147  1.00  0.00     0.293 HD
ENDBRANCH   6  22
BRANCH   8  24
ATOM     24  O   UNL     1     143.896 127.341 146.125  1.00  0.00    -0.508 OA
ATOM     25  H   UNL     1     144.889 127.184 146.254  1.00  0.00     0.293 HD
ENDBRANCH   8  24
TORSDOF 5
ENDMDL
MODEL 7
REMARK VINA RESULT:    -4.602     20.297     22.111
REMARK INTER + INTRA:          -5.916
REMARK INTER:                  -5.531
REMARK INTRA:                  -0.385
REMARK UNBOUND:                -0.372
REMARK SMILES COc1ccc([C@H]2CC(=O)c3c(O)cc(O)cc3O2)cc1O
REMARK SMILES IDX 7 1 8 2 9 3 10 4 11 5 12 6 14 7 15 8 17 9 18 10 19 11 6 12
REMARK SMILES IDX 3 13 21 14 4 15 20 16 5 17 2 18 1 19 22 20 13 22 16 24
REMARK H PARENT 22 21 13 23 16 25
REMARK Flexibility Score: inf
ROOT
ATOM      1  C   UNL     1     131.662 143.381 132.087  1.00  0.00     0.211 C 
ATOM      2  C   UNL     1     130.420 142.501 132.286  1.00  0.00     0.131 C 
ATOM      3  C   UNL     1     129.645 143.004 133.468  1.00  0.00     0.174 C 
ATOM      4  O   UNL     1     128.398 143.145 133.374  1.00  0.00    -0.294 OA
ATOM      5  C   UNL     1     130.385 143.381 134.698  1.00  0.00     0.102 A 
ATOM      6  C   UNL     1     129.788 143.497 135.981  1.00  0.00     0.133 A 
ATOM      7  C   UNL     1     130.564 143.927 137.065  1.00  0.00     0.093 A 
ATOM      8  C   UNL     1     131.927 144.187 136.912  1.00  0.00     0.123 A 
ATOM      9  C   UNL     1     132.529 144.028 135.660  1.00  0.00     0.093 A 
ATOM     10  C   UNL     1     131.766 143.639 134.557  1.00  0.00     0.138 A 
ATOM     11  O   UNL     1     132.393 143.502 133.311  1.00  0.00    -0.484 OA
ENDROOT
BRANCH   1  12
ATOM     12  C   UNL     1     132.551 142.815 131.007  1.00  0.00    -0.003 A 
ATOM     13  C   UNL     1     134.212 141.823 128.954  1.00  0.00     0.160 A 
ATOM     14  C   UNL     1     134.763 142.546 130.022  1.00  0.00     0.158 A 
ATOM     15  C   UNL     1     132.821 141.608 128.914  1.00  0.00     0.051 A 
ATOM     16  C   UNL     1     133.936 143.042 131.039  1.00  0.00     0.057 A 
ATOM     17  C   UNL     1     132.000 142.104 129.928  1.00  0.00     0.011 A 
BRANCH  13  18
ATOM     18  O   UNL     1     135.073 141.341 127.956  1.00  0.00    -0.493 OA
ATOM     19  C   UNL     1     135.156 141.872 126.638  1.00  0.00     0.278 C 
ENDBRANCH  13  18
BRANCH  14  20
ATOM     20  O   UNL     1     136.138 142.768 130.065  1.00  0.00    -0.504 OA
ATOM     21  H   UNL     1     136.564 143.325 130.796  1.00  0.00     0.293 HD
ENDBRANCH  14  20
ENDBRANCH   1  12
BRANCH   6  22
ATOM     22  O   UNL     1     128.455 143.169 136.236  1.00  0.00    -0.507 OA
ATOM     23  H   UNL     1     128.140 142.243 136.486  1.00  0.00     0.293 HD
ENDBRANCH   6  22
BRANCH   8  24
ATOM     24  O   UNL     1     132.677 144.596 138.013  1.00  0.00    -0.508 OA
ATOM     25  H   UNL     1     132.866 143.968 138.787  1.00  0.00     0.293 HD
ENDBRANCH   8  24
TORSDOF 5
ENDMDL
MODEL 8
REMARK VINA RESULT:    -4.592     12.434     14.853
REMARK INTER + INTRA:          -5.904
REMARK INTER:                  -5.553
REMARK INTRA:                  -0.351
REMARK UNBOUND:                -0.372
REMARK SMILES COc1ccc([C@H]2CC(=O)c3c(O)cc(O)cc3O2)cc1O
REMARK SMILES IDX 7 1 8 2 9 3 10 4 11 5 12 6 14 7 15 8 17 9 18 10 19 11 6 12
REMARK SMILES IDX 3 13 21 14 4 15 20 16 5 17 2 18 1 19 22 20 13 22 16 24
REMARK H PARENT 22 21 13 23 16 25
REMARK Flexibility Score: inf
ROOT
ATOM      1  C   UNL     1     132.975 128.319 138.627  1.00  0.00     0.211 C 
ATOM      2  C   UNL     1     132.275 127.682 139.836  1.00  0.00     0.131 C 
ATOM      3  C   UNL     1     130.916 127.202 139.421  1.00  0.00     0.174 C 
ATOM      4  O   UNL     1     130.539 126.050 139.759  1.00  0.00    -0.294 OA
ATOM      5  C   UNL     1     130.078 128.080 138.567  1.00  0.00     0.102 A 
ATOM      6  C   UNL     1     128.673 127.942 138.420  1.00  0.00     0.133 A 
ATOM      7  C   UNL     1     127.987 128.782 137.534  1.00  0.00     0.093 A 
ATOM      8  C   UNL     1     128.657 129.790 136.837  1.00  0.00     0.123 A 
ATOM      9  C   UNL     1     130.034 129.959 137.015  1.00  0.00     0.093 A 
ATOM     10  C   UNL     1     130.744 129.107 137.864  1.00  0.00     0.138 A 
ATOM     11  O   UNL     1     132.126 129.293 138.010  1.00  0.00    -0.484 OA
ENDROOT
BRANCH   1  12
ATOM     12  C   UNL     1     134.279 128.957 139.039  1.00  0.00    -0.003 A 
ATOM     13  C   UNL     1     136.681 130.184 139.864  1.00  0.00     0.160 A 
ATOM     14  C   UNL     1     136.216 129.031 140.514  1.00  0.00     0.158 A 
ATOM     15  C   UNL     1     135.930 130.726 138.804  1.00  0.00     0.051 A 
ATOM     16  C   UNL     1     135.020 128.425 140.106  1.00  0.00     0.057 A 
ATOM     17  C   UNL     1     134.738 130.120 138.400  1.00  0.00     0.011 A 
BRANCH  13  18
ATOM     18  O   UNL     1     137.884 130.760 140.300  1.00  0.00    -0.493 OA
ATOM     19  C   UNL     1     138.530 131.856 139.661  1.00  0.00     0.278 C 
ENDBRANCH  13  18
BRANCH  14  20
ATOM     20  O   UNL     1     136.952 128.493 141.568  1.00  0.00    -0.504 OA
ATOM     21  H   UNL     1     136.625 128.548 142.526  1.00  0.00     0.293 HD
ENDBRANCH  14  20
ENDBRANCH   1  12
BRANCH   6  22
ATOM     22  O   UNL     1     127.916 127.022 139.147  1.00  0.00    -0.507 OA
ATOM     23  H   UNL     1     127.522 126.179 138.754  1.00  0.00     0.293 HD
ENDBRANCH   6  22
BRANCH   8  24
ATOM     24  O   UNL     1     127.945 130.621 135.977  1.00  0.00    -0.508 OA
ATOM     25  H   UNL     1     128.246 131.571 135.788  1.00  0.00     0.293 HD
ENDBRANCH   8  24
TORSDOF 5
ENDMDL
MODEL 9
REMARK VINA RESULT:    -4.590     14.523     15.271
REMARK INTER + INTRA:          -5.901
REMARK INTER:                  -5.514
REMARK INTRA:                  -0.388
REMARK UNBOUND:                -0.372
REMARK SMILES COc1ccc([C@H]2CC(=O)c3c(O)cc(O)cc3O2)cc1O
REMARK SMILES IDX 7 1 8 2 9 3 10 4 11 5 12 6 14 7 15 8 17 9 18 10 19 11 6 12
REMARK SMILES IDX 3 13 21 14 4 15 20 16 5 17 2 18 1 19 22 20 13 22 16 24
REMARK H PARENT 22 21 13 23 16 25
REMARK Flexibility Score: inf
ROOT
ATOM      1  C   UNL     1     132.316 137.915 139.662  1.00  0.00     0.211 C 
ATOM      2  C   UNL     1     132.859 136.480 139.735  1.00  0.00     0.131 C 
ATOM      3  C   UNL     1     132.050 135.697 140.725  1.00  0.00     0.174 C 
ATOM      4  O   UNL     1     131.643 134.547 140.418  1.00  0.00    -0.294 OA
ATOM      5  C   UNL     1     131.698 136.332 142.021  1.00  0.00     0.102 A 
ATOM      6  C   UNL     1     131.289 135.612 143.174  1.00  0.00     0.133 A 
ATOM      7  C   UNL     1     130.913 136.314 144.326  1.00  0.00     0.093 A 
ATOM      8  C   UNL     1     130.990 137.707 144.374  1.00  0.00     0.123 A 
ATOM      9  C   UNL     1     131.438 138.417 143.255  1.00  0.00     0.093 A 
ATOM     10  C   UNL     1     131.779 137.740 142.082  1.00  0.00     0.138 A 
ATOM     11  O   UNL     1     132.210 138.479 140.972  1.00  0.00    -0.484 OA
ENDROOT
BRANCH   1  12
ATOM     12  C   UNL     1     133.200 138.778 138.796  1.00  0.00    -0.003 A 
ATOM     13  C   UNL     1     134.792 140.420 137.144  1.00  0.00     0.160 A 
ATOM     14  C   UNL     1     134.213 140.940 138.310  1.00  0.00     0.158 A 
ATOM     15  C   UNL     1     134.561 139.073 136.803  1.00  0.00     0.051 A 
ATOM     16  C   UNL     1     133.418 140.124 139.128  1.00  0.00     0.057 A 
ATOM     17  C   UNL     1     133.768 138.264 137.619  1.00  0.00     0.011 A 
BRANCH  13  18
ATOM     18  O   UNL     1     135.582 141.267 136.353  1.00  0.00    -0.493 OA
ATOM     19  C   UNL     1     137.006 141.250 136.329  1.00  0.00     0.278 C 
ENDBRANCH  13  18
BRANCH  14  20
ATOM     20  O   UNL     1     134.432 142.273 138.651  1.00  0.00    -0.504 OA
ATOM     21  H   UNL     1     133.672 142.942 138.694  1.00  0.00     0.293 HD
ENDBRANCH  14  20
ENDBRANCH   1  12
BRANCH   6  22
ATOM     22  O   UNL     1     131.272 134.217 143.238  1.00  0.00    -0.507 OA
ATOM     23  H   UNL     1     131.641 133.684 144.012  1.00  0.00     0.293 HD
ENDBRANCH   6  22
BRANCH   8  24
ATOM     24  O   UNL     1     130.627 138.376 145.540  1.00  0.00    -0.508 OA
ATOM     25  H   UNL     1     130.147 137.900 146.296  1.00  0.00     0.293 HD
ENDBRANCH   8  24
TORSDOF 5
ENDMDL
