MODEL 1
REMARK VINA RESULT:    -9.968      0.000      0.000
REMARK INTER + INTRA:         -12.097
REMARK INTER:                 -11.425
REMARK INTRA:                  -0.671
REMARK UNBOUND:                -0.671
REMARK SMILES C=C(C)[C@H]1CC[C@]2(C(=O)[O-])CC[C@]3(C)[C@@H](CC[C@@H]4[C@]5(C)CC[C@@H](O)C(C)(C)[C@@H]5CC[C@@]43C)[C@H]12
REMARK SMILES IDX 7 1 6 2 33 3 11 4 5 5 15 6 4 7 12 8 16 9 13 10 17 11 31 12
REMARK SMILES IDX 14 13 18 14 30 15 32 16 19 17 29 18 21 19 20 20 28 21 22 22
REMARK SMILES IDX 25 23 23 24 26 25 27 26 8 27 9 28 10 29 2 30 3 31 1 32 24 33
REMARK H PARENT 24 34
REMARK Flexibility Score: inf
ROOT
ATOM      1  C   UNL     1      27.383  55.271  12.425  1.00  0.00     0.014 C 
ATOM      2  C   UNL     1      28.009  55.898  11.166  1.00  0.00     0.014 C 
ATOM      3  C   UNL     1      27.785  53.776  12.309  1.00  0.00     0.012 C 
ATOM      4  C   UNL     1      27.993  55.953  13.681  1.00  0.00     0.014 C 
ATOM      5  C   UNL     1      29.297  55.127  10.900  1.00  0.00     0.009 C 
ATOM      6  C   UNL     1      27.789  52.951  13.651  1.00  0.00     0.000 C 
ATOM      7  C   UNL     1      29.091  53.716  11.472  1.00  0.00     0.018 C 
ATOM      8  C   UNL     1      27.834  55.132  14.972  1.00  0.00     0.008 C 
ATOM      9  C   UNL     1      26.346  52.474  13.914  1.00  0.00     0.005 C 
ATOM     10  C   UNL     1      28.401  53.679  14.915  1.00  0.00    -0.024 C 
ATOM     11  C   UNL     1      26.253  51.497  15.070  1.00  0.00     0.005 C 
ATOM     12  C   UNL     1      28.123  52.824  16.294  1.00  0.00    -0.024 C 
ATOM     13  C   UNL     1      29.952  53.826  14.710  1.00  0.00     0.012 C 
ATOM     14  C   UNL     1      26.694  52.108  16.419  1.00  0.00     0.002 C 
ATOM     15  C   UNL     1      28.389  53.661  17.580  1.00  0.00     0.008 C 
ATOM     16  C   UNL     1      29.185  51.656  16.359  1.00  0.00     0.012 C 
ATOM     17  C   UNL     1      25.491  52.689  17.329  1.00  0.00    -0.026 C 
ATOM     18  C   UNL     1      27.190  54.440  18.115  1.00  0.00     0.005 C 
ATOM     19  C   UNL     1      24.506  53.577  16.506  1.00  0.00     0.010 C 
ATOM     20  C   UNL     1      24.685  51.438  17.851  1.00  0.00     0.012 C 
ATOM     21  C   UNL     1      26.044  53.507  18.571  1.00  0.00     0.003 C 
ATOM     22  C   UNL     1      23.424  54.284  17.335  1.00  0.00     0.033 C 
ATOM     23  C   UNL     1      24.934  54.292  19.416  1.00  0.00    -0.006 C 
ATOM     24  C   UNL     1      24.019  55.126  18.467  1.00  0.00     0.120 C 
ATOM     25  C   UNL     1      25.592  55.269  20.437  1.00  0.00     0.014 C 
ATOM     26  C   UNL     1      24.089  53.319  20.289  1.00  0.00     0.014 C 
ENDROOT
BRANCH   1  27
ATOM     27  C   UNL     1      25.866  55.446  12.378  1.00  0.00     0.048 C 
ATOM     28  O   UNL     1      25.273  56.254  13.144  1.00  0.00    -0.550 OA
ATOM     29  O   UNL     1      25.109  54.719  11.462  1.00  0.00    -0.550 OA
ENDBRANCH   1  27
BRANCH   7  30
ATOM     30  C   UNL     1      29.053  52.643  10.382  1.00  0.00    -0.077 C 
ATOM     31  C   UNL     1      27.867  52.550   9.458  1.00  0.00     0.039 C 
ATOM     32  C   UNL     1      30.068  51.778  10.216  1.00  0.00     0.008 C 
ENDBRANCH   7  30
BRANCH  24  33
ATOM     33  O   UNL     1      22.962  55.720  19.179  1.00  0.00    -0.393 OA
ATOM     34  H   UNL     1      22.691  55.083  19.892  1.00  0.00     0.210 HD
ENDBRANCH  24  33
TORSDOF 3
ENDMDL
MODEL 2
REMARK VINA RESULT:    -9.755      2.549      4.662
REMARK INTER + INTRA:         -11.852
REMARK INTER:                 -11.185
REMARK INTRA:                  -0.667
REMARK UNBOUND:                -0.671
REMARK SMILES C=C(C)[C@H]1CC[C@]2(C(=O)[O-])CC[C@]3(C)[C@@H](CC[C@@H]4[C@]5(C)CC[C@@H](O)C(C)(C)[C@@H]5CC[C@@]43C)[C@H]12
REMARK SMILES IDX 7 1 6 2 33 3 11 4 5 5 15 6 4 7 12 8 16 9 13 10 17 11 31 12
REMARK SMILES IDX 14 13 18 14 30 15 32 16 19 17 29 18 21 19 20 20 28 21 22 22
REMARK SMILES IDX 25 23 23 24 26 25 27 26 8 27 9 28 10 29 2 30 3 31 1 32 24 33
REMARK H PARENT 24 34
REMARK Flexibility Score: inf
ROOT
ATOM      1  C   UNL     1      24.075  54.881  10.133  1.00  0.00     0.014 C 
ATOM      2  C   UNL     1      23.126  55.549   9.121  1.00  0.00     0.014 C 
ATOM      3  C   UNL     1      25.265  54.423   9.248  1.00  0.00     0.012 C 
ATOM      4  C   UNL     1      24.496  55.934  11.196  1.00  0.00     0.014 C 
ATOM      5  C   UNL     1      24.015  56.191   8.062  1.00  0.00     0.009 C 
ATOM      6  C   UNL     1      26.636  54.195   9.990  1.00  0.00     0.000 C 
ATOM      7  C   UNL     1      25.310  55.368   8.017  1.00  0.00     0.018 C 
ATOM      8  C   UNL     1      25.777  55.562  11.964  1.00  0.00     0.008 C 
ATOM      9  C   UNL     1      26.617  52.771  10.584  1.00  0.00     0.005 C 
ATOM     10  C   UNL     1      27.028  55.275  11.078  1.00  0.00    -0.024 C 
ATOM     11  C   UNL     1      27.960  52.354  11.151  1.00  0.00     0.005 C 
ATOM     12  C   UNL     1      28.340  54.798  11.951  1.00  0.00    -0.024 C 
ATOM     13  C   UNL     1      27.365  56.625  10.348  1.00  0.00     0.012 C 
ATOM     14  C   UNL     1      28.426  53.241  12.327  1.00  0.00     0.002 C 
ATOM     15  C   UNL     1      28.539  55.646  13.242  1.00  0.00     0.008 C 
ATOM     16  C   UNL     1      29.628  55.092  11.085  1.00  0.00     0.012 C 
ATOM     17  C   UNL     1      28.072  52.667  13.795  1.00  0.00    -0.026 C 
ATOM     18  C   UNL     1      27.828  55.123  14.487  1.00  0.00     0.005 C 
ATOM     19  C   UNL     1      26.592  52.179  13.897  1.00  0.00     0.010 C 
ATOM     20  C   UNL     1      29.004  51.414  14.019  1.00  0.00     0.012 C 
ATOM     21  C   UNL     1      28.364  53.740  14.927  1.00  0.00     0.003 C 
ATOM     22  C   UNL     1      26.143  51.760  15.304  1.00  0.00     0.033 C 
ATOM     23  C   UNL     1      27.855  53.339  16.391  1.00  0.00    -0.006 C 
ATOM     24  C   UNL     1      26.370  52.865  16.339  1.00  0.00     0.120 C 
ATOM     25  C   UNL     1      27.942  54.552  17.367  1.00  0.00     0.014 C 
ATOM     26  C   UNL     1      28.765  52.250  17.032  1.00  0.00     0.014 C 
ENDROOT
BRANCH   1  27
ATOM     27  C   UNL     1      23.370  53.689  10.779  1.00  0.00     0.048 C 
ATOM     28  O   UNL     1      22.958  53.736  11.971  1.00  0.00    -0.550 OA
ATOM     29  O   UNL     1      23.152  52.527  10.044  1.00  0.00    -0.550 OA
ENDBRANCH   1  27
BRANCH   7  30
ATOM     30  C   UNL     1      25.480  54.617   6.694  1.00  0.00    -0.077 C 
ATOM     31  C   UNL     1      25.711  55.382   5.418  1.00  0.00     0.039 C 
ATOM     32  C   UNL     1      25.441  53.274   6.642  1.00  0.00     0.008 C 
ENDBRANCH   7  30
BRANCH  24  33
ATOM     33  O   UNL     1      25.948  52.390  17.593  1.00  0.00    -0.393 OA
ATOM     34  H   UNL     1      25.689  53.180  18.136  1.00  0.00     0.210 HD
ENDBRANCH  24  33
TORSDOF 3
ENDMDL
MODEL 3
REMARK VINA RESULT:    -9.647      2.519      7.143
REMARK INTER + INTRA:         -11.728
REMARK INTER:                 -11.046
REMARK INTRA:                  -0.683
REMARK UNBOUND:                -0.671
REMARK SMILES C=C(C)[C@H]1CC[C@]2(C(=O)[O-])CC[C@]3(C)[C@@H](CC[C@@H]4[C@]5(C)CC[C@@H](O)C(C)(C)[C@@H]5CC[C@@]43C)[C@H]12
REMARK SMILES IDX 7 1 6 2 33 3 11 4 5 5 15 6 4 7 12 8 16 9 13 10 17 11 31 12
REMARK SMILES IDX 14 13 18 14 30 15 32 16 19 17 29 18 21 19 20 20 28 21 22 22
REMARK SMILES IDX 25 23 23 24 26 25 27 26 8 27 9 28 10 29 2 30 3 31 1 32 24 33
REMARK H PARENT 24 34
REMARK Flexibility Score: inf
ROOT
ATOM      1  C   UNL     1      27.636  51.990  15.360  1.00  0.00     0.014 C 
ATOM      2  C   UNL     1      28.381  51.365  16.554  1.00  0.00     0.014 C 
ATOM      3  C   UNL     1      27.930  53.506  15.519  1.00  0.00     0.012 C 
ATOM      4  C   UNL     1      28.220  51.406  14.044  1.00  0.00     0.014 C 
ATOM      5  C   UNL     1      29.621  52.223  16.780  1.00  0.00     0.009 C 
ATOM      6  C   UNL     1      27.792  54.380  14.215  1.00  0.00     0.000 C 
ATOM      7  C   UNL     1      29.275  53.635  16.282  1.00  0.00     0.018 C 
ATOM      8  C   UNL     1      27.923  52.263  12.800  1.00  0.00     0.008 C 
ATOM      9  C   UNL     1      26.304  54.754  14.055  1.00  0.00     0.005 C 
ATOM     10  C   UNL     1      28.382  53.751  12.889  1.00  0.00    -0.024 C 
ATOM     11  C   UNL     1      26.069  55.765  12.949  1.00  0.00     0.005 C 
ATOM     12  C   UNL     1      27.958  54.636  11.566  1.00  0.00    -0.024 C 
ATOM     13  C   UNL     1      29.949  53.719  12.999  1.00  0.00     0.012 C 
ATOM     14  C   UNL     1      26.474  55.243  11.552  1.00  0.00     0.002 C 
ATOM     15  C   UNL     1      28.210  53.873  10.231  1.00  0.00     0.008 C 
ATOM     16  C   UNL     1      28.923  55.884  11.492  1.00  0.00     0.012 C 
ATOM     17  C   UNL     1      25.267  54.605  10.687  1.00  0.00    -0.026 C 
ATOM     18  C   UNL     1      27.044  53.023   9.732  1.00  0.00     0.005 C 
ATOM     19  C   UNL     1      24.402  53.612  11.524  1.00  0.00     0.010 C 
ATOM     20  C   UNL     1      24.339  55.809  10.265  1.00  0.00     0.012 C 
ATOM     21  C   UNL     1      25.805  53.882   9.381  1.00  0.00     0.003 C 
ATOM     22  C   UNL     1      23.330  52.855  10.728  1.00  0.00     0.033 C 
ATOM     23  C   UNL     1      24.710  53.046   8.567  1.00  0.00    -0.006 C 
ATOM     24  C   UNL     1      23.918  52.107   9.529  1.00  0.00     0.120 C 
ATOM     25  C   UNL     1      25.378  52.163   7.470  1.00  0.00     0.014 C 
ATOM     26  C   UNL     1      23.743  53.984   7.785  1.00  0.00     0.014 C 
ENDROOT
BRANCH   1  27
ATOM     27  C   UNL     1      26.142  51.696  15.485  1.00  0.00     0.048 C 
ATOM     28  O   UNL     1      25.590  50.795  14.796  1.00  0.00    -0.550 OA
ATOM     29  O   UNL     1      25.363  52.416  16.387  1.00  0.00    -0.550 OA
ENDBRANCH   1  27
BRANCH   7  30
ATOM     30  C   UNL     1      29.221  54.659  17.418  1.00  0.00    -0.077 C 
ATOM     31  C   UNL     1      28.001  54.743  18.298  1.00  0.00     0.039 C 
ATOM     32  C   UNL     1      30.251  55.487  17.664  1.00  0.00     0.008 C 
ENDBRANCH   7  30
BRANCH  24  33
ATOM     33  O   UNL     1      22.869  51.461   8.852  1.00  0.00    -0.393 OA
ATOM     34  H   UNL     1      22.619  52.033   8.079  1.00  0.00     0.210 HD
ENDBRANCH  24  33
TORSDOF 3
ENDMDL
MODEL 4
REMARK VINA RESULT:    -9.116      1.599      7.268
REMARK INTER + INTRA:         -11.120
REMARK INTER:                 -10.523
REMARK INTRA:                  -0.596
REMARK UNBOUND:                -0.671
REMARK SMILES C=C(C)[C@H]1CC[C@]2(C(=O)[O-])CC[C@]3(C)[C@@H](CC[C@@H]4[C@]5(C)CC[C@@H](O)C(C)(C)[C@@H]5CC[C@@]43C)[C@H]12
REMARK SMILES IDX 7 1 6 2 33 3 11 4 5 5 15 6 4 7 12 8 16 9 13 10 17 11 31 12
REMARK SMILES IDX 14 13 18 14 30 15 32 16 19 17 29 18 21 19 20 20 28 21 22 22
REMARK SMILES IDX 25 23 23 24 26 25 27 26 8 27 9 28 10 29 2 30 3 31 1 32 24 33
REMARK H PARENT 24 34
REMARK Flexibility Score: inf
ROOT
ATOM      1  C   UNL     1      24.550  52.906  17.477  1.00  0.00     0.014 C 
ATOM      2  C   UNL     1      23.323  52.566  18.343  1.00  0.00     0.014 C 
ATOM      3  C   UNL     1      25.727  52.812  18.483  1.00  0.00     0.012 C 
ATOM      4  C   UNL     1      24.661  51.859  16.333  1.00  0.00     0.014 C 
ATOM      5  C   UNL     1      23.801  51.556  19.380  1.00  0.00     0.009 C 
ATOM      6  C   UNL     1      27.155  52.566  17.862  1.00  0.00     0.000 C 
ATOM      7  C   UNL     1      25.296  51.826  19.602  1.00  0.00     0.018 C 
ATOM      8  C   UNL     1      26.060  51.782  15.697  1.00  0.00     0.008 C 
ATOM      9  C   UNL     1      27.720  53.935  17.431  1.00  0.00     0.005 C 
ATOM     10  C   UNL     1      27.232  51.508  16.689  1.00  0.00    -0.024 C 
ATOM     11  C   UNL     1      29.174  53.860  17.003  1.00  0.00     0.005 C 
ATOM     12  C   UNL     1      28.709  51.524  15.963  1.00  0.00    -0.024 C 
ATOM     13  C   UNL     1      26.972  50.077  17.284  1.00  0.00     0.012 C 
ATOM     14  C   UNL     1      29.399  52.959  15.768  1.00  0.00     0.002 C 
ATOM     15  C   UNL     1      28.713  50.767  14.601  1.00  0.00     0.008 C 
ATOM     16  C   UNL     1      29.703  50.700  16.873  1.00  0.00     0.012 C 
ATOM     17  C   UNL     1      29.433  53.738  14.353  1.00  0.00    -0.026 C 
ATOM     18  C   UNL     1      28.376  51.616  13.378  1.00  0.00     0.005 C 
ATOM     19  C   UNL     1      28.254  54.752  14.210  1.00  0.00     0.010 C 
ATOM     20  C   UNL     1      30.777  54.562  14.332  1.00  0.00     0.012 C 
ATOM     21  C   UNL     1      29.424  52.726  13.131  1.00  0.00     0.003 C 
ATOM     22  C   UNL     1      28.137  55.418  12.832  1.00  0.00     0.033 C 
ATOM     23  C   UNL     1      29.251  53.402  11.690  1.00  0.00    -0.006 C 
ATOM     24  C   UNL     1      28.047  54.394  11.698  1.00  0.00     0.120 C 
ATOM     25  C   UNL     1      28.986  52.328  10.593  1.00  0.00     0.014 C 
ATOM     26  C   UNL     1      30.557  54.117  11.235  1.00  0.00     0.014 C 
ENDROOT
BRANCH   1  27
ATOM     27  C   UNL     1      24.402  54.322  16.922  1.00  0.00     0.048 C 
ATOM     28  O   UNL     1      24.200  55.308  17.684  1.00  0.00    -0.550 OA
ATOM     29  O   UNL     1      24.508  54.549  15.553  1.00  0.00    -0.550 OA
ENDBRANCH   1  27
BRANCH   7  30
ATOM     30  C   UNL     1      25.594  52.352  21.008  1.00  0.00    -0.077 C 
ATOM     31  C   UNL     1      25.740  51.389  22.157  1.00  0.00     0.039 C 
ATOM     32  C   UNL     1      25.743  53.666  21.246  1.00  0.00     0.008 C 
ENDBRANCH   7  30
BRANCH  24  33
ATOM     33  O   UNL     1      27.960  55.090  10.479  1.00  0.00    -0.393 OA
ATOM     34  H   UNL     1      27.202  55.728  10.556  1.00  0.00     0.210 HD
ENDBRANCH  24  33
TORSDOF 3
ENDMDL
MODEL 5
REMARK VINA RESULT:    -8.681      2.941      5.842
REMARK INTER + INTRA:         -10.621
REMARK INTER:                 -10.290
REMARK INTRA:                  -0.332
REMARK UNBOUND:                -0.671
REMARK SMILES C=C(C)[C@H]1CC[C@]2(C(=O)[O-])CC[C@]3(C)[C@@H](CC[C@@H]4[C@]5(C)CC[C@@H](O)C(C)(C)[C@@H]5CC[C@@]43C)[C@H]12
REMARK SMILES IDX 7 1 6 2 33 3 11 4 5 5 15 6 4 7 12 8 16 9 13 10 17 11 31 12
REMARK SMILES IDX 14 13 18 14 30 15 32 16 19 17 29 18 21 19 20 20 28 21 22 22
REMARK SMILES IDX 25 23 23 24 26 25 27 26 8 27 9 28 10 29 2 30 3 31 1 32 24 33
REMARK H PARENT 24 34
REMARK Flexibility Score: inf
ROOT
ATOM      1  C   UNL     1      25.973  52.868   8.888  1.00  0.00     0.014 C 
ATOM      2  C   UNL     1      25.322  52.280   7.623  1.00  0.00     0.014 C 
ATOM      3  C   UNL     1      25.980  54.394   8.602  1.00  0.00     0.012 C 
ATOM      4  C   UNL     1      25.099  52.499  10.119  1.00  0.00     0.014 C 
ATOM      5  C   UNL     1      24.303  53.310   7.148  1.00  0.00     0.009 C 
ATOM      6  C   UNL     1      26.067  55.337   9.861  1.00  0.00     0.000 C 
ATOM      7  C   UNL     1      24.812  54.681   7.620  1.00  0.00     0.018 C 
ATOM      8  C   UNL     1      25.348  53.393  11.347  1.00  0.00     0.008 C 
ATOM      9  C   UNL     1      27.555  55.470  10.245  1.00  0.00     0.005 C 
ATOM     10  C   UNL     1      25.179  54.925  11.103  1.00  0.00    -0.024 C 
ATOM     11  C   UNL     1      27.792  56.515  11.318  1.00  0.00     0.005 C 
ATOM     12  C   UNL     1      25.543  55.832  12.428  1.00  0.00    -0.024 C 
ATOM     13  C   UNL     1      23.667  55.143  10.736  1.00  0.00     0.012 C 
ATOM     14  C   UNL     1      27.091  56.183  12.655  1.00  0.00     0.002 C 
ATOM     15  C   UNL     1      24.958  55.233  13.742  1.00  0.00     0.008 C 
ATOM     16  C   UNL     1      24.814  57.225  12.274  1.00  0.00     0.012 C 
ATOM     17  C   UNL     1      28.018  55.427  13.741  1.00  0.00    -0.026 C 
ATOM     18  C   UNL     1      25.865  54.245  14.473  1.00  0.00     0.005 C 
ATOM     19  C   UNL     1      28.813  54.239  13.114  1.00  0.00     0.010 C 
ATOM     20  C   UNL     1      29.068  56.491  14.246  1.00  0.00     0.012 C 
ATOM     21  C   UNL     1      27.166  54.912  14.977  1.00  0.00     0.003 C 
ATOM     22  C   UNL     1      29.598  53.383  14.117  1.00  0.00     0.033 C 
ATOM     23  C   UNL     1      27.958  53.976  16.006  1.00  0.00    -0.006 C 
ATOM     24  C   UNL     1      28.709  52.843  15.240  1.00  0.00     0.120 C 
ATOM     25  C   UNL     1      26.984  53.309  17.023  1.00  0.00     0.014 C 
ATOM     26  C   UNL     1      28.944  54.801  16.885  1.00  0.00     0.014 C 
ENDROOT
BRANCH   1  27
ATOM     27  C   UNL     1      27.393  52.321   9.028  1.00  0.00     0.048 C 
ATOM     28  O   UNL     1      28.045  51.922   8.025  1.00  0.00    -0.550 OA
ATOM     29  O   UNL     1      28.000  52.273  10.280  1.00  0.00    -0.550 OA
ENDBRANCH   1  27
BRANCH   7  30
ATOM     30  C   UNL     1      25.221  55.585   6.455  1.00  0.00    -0.077 C 
ATOM     31  C   UNL     1      24.939  57.064   6.514  1.00  0.00     0.039 C 
ATOM     32  C   UNL     1      25.845  55.092   5.371  1.00  0.00     0.008 C 
ENDBRANCH   7  30
BRANCH  24  33
ATOM     33  O   UNL     1      29.511  52.089  16.115  1.00  0.00    -0.393 OA
ATOM     34  H   UNL     1      29.415  52.487  17.021  1.00  0.00     0.210 HD
ENDBRANCH  24  33
TORSDOF 3
ENDMDL
MODEL 6
REMARK VINA RESULT:    -8.452      3.039      5.187
REMARK INTER + INTRA:         -10.359
REMARK INTER:                  -9.915
REMARK INTRA:                  -0.443
REMARK UNBOUND:                -0.671
REMARK SMILES C=C(C)[C@H]1CC[C@]2(C(=O)[O-])CC[C@]3(C)[C@@H](CC[C@@H]4[C@]5(C)CC[C@@H](O)C(C)(C)[C@@H]5CC[C@@]43C)[C@H]12
REMARK SMILES IDX 7 1 6 2 33 3 11 4 5 5 15 6 4 7 12 8 16 9 13 10 17 11 31 12
REMARK SMILES IDX 14 13 18 14 30 15 32 16 19 17 29 18 21 19 20 20 28 21 22 22
REMARK SMILES IDX 25 23 23 24 26 25 27 26 8 27 9 28 10 29 2 30 3 31 1 32 24 33
REMARK H PARENT 24 34
REMARK Flexibility Score: inf
ROOT
ATOM      1  C   UNL     1      29.551  55.382  11.813  1.00  0.00     0.014 C 
ATOM      2  C   UNL     1      30.126  56.234  10.667  1.00  0.00     0.014 C 
ATOM      3  C   UNL     1      29.002  56.447  12.800  1.00  0.00     0.012 C 
ATOM      4  C   UNL     1      28.431  54.467  11.244  1.00  0.00     0.014 C 
ATOM      5  C   UNL     1      29.238  57.468  10.565  1.00  0.00     0.009 C 
ATOM      6  C   UNL     1      27.888  55.958  13.801  1.00  0.00     0.000 C 
ATOM      7  C   UNL     1      28.658  57.710  11.966  1.00  0.00     0.018 C 
ATOM      8  C   UNL     1      27.465  53.930  12.315  1.00  0.00     0.008 C 
ATOM      9  C   UNL     1      28.594  55.302  15.006  1.00  0.00     0.005 C 
ATOM     10  C   UNL     1      26.772  55.015  13.195  1.00  0.00    -0.024 C 
ATOM     11  C   UNL     1      27.638  54.972  16.136  1.00  0.00     0.005 C 
ATOM     12  C   UNL     1      25.821  54.376  14.377  1.00  0.00    -0.024 C 
ATOM     13  C   UNL     1      25.874  55.859  12.220  1.00  0.00     0.012 C 
ATOM     14  C   UNL     1      26.555  53.946  15.737  1.00  0.00     0.002 C 
ATOM     15  C   UNL     1      24.954  53.186  13.868  1.00  0.00     0.008 C 
ATOM     16  C   UNL     1      24.769  55.477  14.798  1.00  0.00     0.012 C 
ATOM     17  C   UNL     1      26.900  52.411  16.107  1.00  0.00    -0.026 C 
ATOM     18  C   UNL     1      25.599  51.807  13.982  1.00  0.00     0.005 C 
ATOM     19  C   UNL     1      28.351  52.016  15.691  1.00  0.00     0.010 C 
ATOM     20  C   UNL     1      26.806  52.302  17.678  1.00  0.00     0.012 C 
ATOM     21  C   UNL     1      25.860  51.406  15.454  1.00  0.00     0.003 C 
ATOM     22  C   UNL     1      28.698  50.532  15.876  1.00  0.00     0.033 C 
ATOM     23  C   UNL     1      26.233  49.856  15.594  1.00  0.00    -0.006 C 
ATOM     24  C   UNL     1      27.710  49.612  15.154  1.00  0.00     0.120 C 
ATOM     25  C   UNL     1      25.310  48.973  14.701  1.00  0.00     0.014 C 
ATOM     26  C   UNL     1      25.992  49.341  17.043  1.00  0.00     0.014 C 
ENDROOT
BRANCH   1  27
ATOM     27  C   UNL     1      30.673  54.560  12.447  1.00  0.00     0.048 C 
ATOM     28  O   UNL     1      31.256  54.944  13.497  1.00  0.00    -0.550 OA
ATOM     29  O   UNL     1      31.058  53.351  11.875  1.00  0.00    -0.550 OA
ENDBRANCH   1  27
BRANCH   7  30
ATOM     30  C   UNL     1      29.178  59.003  12.599  1.00  0.00    -0.077 C 
ATOM     31  C   UNL     1      28.540  59.536  13.855  1.00  0.00     0.039 C 
ATOM     32  C   UNL     1      30.211  59.678  12.065  1.00  0.00     0.008 C 
ENDBRANCH   7  30
BRANCH  24  33
ATOM     33  O   UNL     1      28.093  48.280  15.391  1.00  0.00    -0.393 OA
ATOM     34  H   UNL     1      27.530  47.939  16.135  1.00  0.00     0.210 HD
ENDBRANCH  24  33
TORSDOF 3
ENDMDL
MODEL 7
REMARK VINA RESULT:    -8.208      2.802      7.210
REMARK INTER + INTRA:         -10.079
REMARK INTER:                  -9.431
REMARK INTRA:                  -0.648
REMARK UNBOUND:                -0.671
REMARK SMILES C=C(C)[C@H]1CC[C@]2(C(=O)[O-])CC[C@]3(C)[C@@H](CC[C@@H]4[C@]5(C)CC[C@@H](O)C(C)(C)[C@@H]5CC[C@@]43C)[C@H]12
REMARK SMILES IDX 7 1 6 2 33 3 11 4 5 5 15 6 4 7 12 8 16 9 13 10 17 11 31 12
REMARK SMILES IDX 14 13 18 14 30 15 32 16 19 17 29 18 21 19 20 20 28 21 22 22
REMARK SMILES IDX 25 23 23 24 26 25 27 26 8 27 9 28 10 29 2 30 3 31 1 32 24 33
REMARK H PARENT 24 34
REMARK Flexibility Score: inf
ROOT
ATOM      1  C   UNL     1      28.853  53.027  14.556  1.00  0.00     0.014 C 
ATOM      2  C   UNL     1      30.042  52.852  15.520  1.00  0.00     0.014 C 
ATOM      3  C   UNL     1      27.844  53.858  15.392  1.00  0.00     0.012 C 
ATOM      4  C   UNL     1      29.342  53.784  13.290  1.00  0.00     0.014 C 
ATOM      5  C   UNL     1      30.100  54.122  16.361  1.00  0.00     0.009 C 
ATOM      6  C   UNL     1      26.770  54.672  14.576  1.00  0.00     0.000 C 
ATOM      7  C   UNL     1      28.666  54.671  16.428  1.00  0.00     0.018 C 
ATOM      8  C   UNL     1      28.207  54.437  12.482  1.00  0.00     0.008 C 
ATOM      9  C   UNL     1      25.606  53.714  14.246  1.00  0.00     0.005 C 
ATOM     10  C   UNL     1      27.295  55.417  13.283  1.00  0.00    -0.024 C 
ATOM     11  C   UNL     1      24.414  54.428  13.638  1.00  0.00     0.005 C 
ATOM     12  C   UNL     1      26.049  56.015  12.388  1.00  0.00    -0.024 C 
ATOM     13  C   UNL     1      28.219  56.607  13.729  1.00  0.00     0.012 C 
ATOM     14  C   UNL     1      24.734  55.102  12.285  1.00  0.00     0.002 C 
ATOM     15  C   UNL     1      26.491  56.436  10.955  1.00  0.00     0.008 C 
ATOM     16  C   UNL     1      25.573  57.362  13.063  1.00  0.00     0.012 C 
ATOM     17  C   UNL     1      24.372  54.220  10.981  1.00  0.00    -0.026 C 
ATOM     18  C   UNL     1      26.404  55.342   9.894  1.00  0.00     0.005 C 
ATOM     19  C   UNL     1      24.875  52.748  11.106  1.00  0.00     0.010 C 
ATOM     20  C   UNL     1      22.798  54.181  10.895  1.00  0.00     0.012 C 
ATOM     21  C   UNL     1      24.949  54.875   9.656  1.00  0.00     0.003 C 
ATOM     22  C   UNL     1      24.699  51.892   9.844  1.00  0.00     0.033 C 
ATOM     23  C   UNL     1      24.818  53.973   8.339  1.00  0.00    -0.006 C 
ATOM     24  C   UNL     1      25.348  52.532   8.614  1.00  0.00     0.120 C 
ATOM     25  C   UNL     1      25.642  54.576   7.162  1.00  0.00     0.014 C 
ATOM     26  C   UNL     1      23.351  53.937   7.818  1.00  0.00     0.014 C 
ENDROOT
BRANCH   1  27
ATOM     27  C   UNL     1      28.285  51.654  14.199  1.00  0.00     0.048 C 
ATOM     28  O   UNL     1      27.731  50.926  15.069  1.00  0.00    -0.550 OA
ATOM     29  O   UNL     1      28.353  51.191  12.889  1.00  0.00    -0.550 OA
ENDBRANCH   1  27
BRANCH   7  30
ATOM     30  C   UNL     1      28.080  54.603  17.840  1.00  0.00    -0.077 C 
ATOM     31  C   UNL     1      26.849  53.777  18.106  1.00  0.00     0.039 C 
ATOM     32  C   UNL     1      28.649  55.260  18.866  1.00  0.00     0.008 C 
ENDBRANCH   7  30
BRANCH  24  33
ATOM     33  O   UNL     1      25.123  51.693   7.509  1.00  0.00    -0.393 OA
ATOM     34  H   UNL     1      25.790  50.958   7.555  1.00  0.00     0.210 HD
ENDBRANCH  24  33
TORSDOF 3
ENDMDL
MODEL 8
REMARK VINA RESULT:    -7.638      3.116      6.298
REMARK INTER + INTRA:          -9.426
REMARK INTER:                  -9.140
REMARK INTRA:                  -0.286
REMARK UNBOUND:                -0.671
REMARK SMILES C=C(C)[C@H]1CC[C@]2(C(=O)[O-])CC[C@]3(C)[C@@H](CC[C@@H]4[C@]5(C)CC[C@@H](O)C(C)(C)[C@@H]5CC[C@@]43C)[C@H]12
REMARK SMILES IDX 7 1 6 2 33 3 11 4 5 5 15 6 4 7 12 8 16 9 13 10 17 11 31 12
REMARK SMILES IDX 14 13 18 14 30 15 32 16 19 17 29 18 21 19 20 20 28 21 22 22
REMARK SMILES IDX 25 23 23 24 26 25 27 26 8 27 9 28 10 29 2 30 3 31 1 32 24 33
REMARK H PARENT 24 34
REMARK Flexibility Score: inf
ROOT
ATOM      1  C   UNL     1      29.369  51.801  16.002  1.00  0.00     0.014 C 
ATOM      2  C   UNL     1      29.912  50.917  17.140  1.00  0.00     0.014 C 
ATOM      3  C   UNL     1      28.890  50.764  14.950  1.00  0.00     0.012 C 
ATOM      4  C   UNL     1      28.203  52.668  16.554  1.00  0.00     0.014 C 
ATOM      5  C   UNL     1      29.049  49.660  17.153  1.00  0.00     0.009 C 
ATOM      6  C   UNL     1      27.811  51.268  13.919  1.00  0.00     0.000 C 
ATOM      7  C   UNL     1      28.538  49.462  15.718  1.00  0.00     0.018 C 
ATOM      8  C   UNL     1      27.274  53.226  15.462  1.00  0.00     0.008 C 
ATOM      9  C   UNL     1      28.554  51.987  12.775  1.00  0.00     0.005 C 
ATOM     10  C   UNL     1      26.647  52.162  14.510  1.00  0.00    -0.024 C 
ATOM     11  C   UNL     1      27.643  52.341  11.615  1.00  0.00     0.005 C 
ATOM     12  C   UNL     1      25.735  52.827  13.311  1.00  0.00    -0.024 C 
ATOM     13  C   UNL     1      25.726  51.260  15.410  1.00  0.00     0.012 C 
ATOM     14  C   UNL     1      26.518  53.327  12.004  1.00  0.00     0.002 C 
ATOM     15  C   UNL     1      24.818  53.976  13.826  1.00  0.00     0.008 C 
ATOM     16  C   UNL     1      24.728  51.721  12.801  1.00  0.00     0.012 C 
ATOM     17  C   UNL     1      26.843  54.882  11.710  1.00  0.00    -0.026 C 
ATOM     18  C   UNL     1      25.435  55.372  13.795  1.00  0.00     0.005 C 
ATOM     19  C   UNL     1      28.265  55.292  12.207  1.00  0.00     0.010 C 
ATOM     20  C   UNL     1      26.818  55.052  10.142  1.00  0.00     0.012 C 
ATOM     21  C   UNL     1      25.752  55.837  12.354  1.00  0.00     0.003 C 
ATOM     22  C   UNL     1      28.585  56.789  12.096  1.00  0.00     0.033 C 
ATOM     23  C   UNL     1      26.095  57.400  12.292  1.00  0.00    -0.006 C 
ATOM     24  C   UNL     1      27.544  57.658  12.808  1.00  0.00     0.120 C 
ATOM     25  C   UNL     1      25.112  58.226  13.175  1.00  0.00     0.014 C 
ATOM     26  C   UNL     1      25.907  57.967  10.854  1.00  0.00     0.014 C 
ENDROOT
BRANCH   1  27
ATOM     27  C   UNL     1      30.498  52.671  15.453  1.00  0.00     0.048 C 
ATOM     28  O   UNL     1      31.014  52.444  14.324  1.00  0.00    -0.550 OA
ATOM     29  O   UNL     1      30.966  53.753  16.193  1.00  0.00    -0.550 OA
ENDBRANCH   1  27
BRANCH   7  30
ATOM     30  C   UNL     1      29.117  48.207  15.060  1.00  0.00    -0.077 C 
ATOM     31  C   UNL     1      28.540  47.703  13.763  1.00  0.00     0.039 C 
ATOM     32  C   UNL     1      30.148  47.541  15.609  1.00  0.00     0.008 C 
ENDBRANCH   7  30
BRANCH  24  33
ATOM     33  O   UNL     1      27.906  59.006  12.640  1.00  0.00    -0.393 OA
ATOM     34  H   UNL     1      28.109  59.372  13.542  1.00  0.00     0.210 HD
ENDBRANCH  24  33
TORSDOF 3
ENDMDL
MODEL 9
REMARK VINA RESULT:    -7.294      1.800      2.976
REMARK INTER + INTRA:          -9.031
REMARK INTER:                  -8.365
REMARK INTRA:                  -0.666
REMARK UNBOUND:                -0.671
REMARK SMILES C=C(C)[C@H]1CC[C@]2(C(=O)[O-])CC[C@]3(C)[C@@H](CC[C@@H]4[C@]5(C)CC[C@@H](O)C(C)(C)[C@@H]5CC[C@@]43C)[C@H]12
REMARK SMILES IDX 7 1 6 2 33 3 11 4 5 5 15 6 4 7 12 8 16 9 13 10 17 11 31 12
REMARK SMILES IDX 14 13 18 14 30 15 32 16 19 17 29 18 21 19 20 20 28 21 22 22
REMARK SMILES IDX 25 23 23 24 26 25 27 26 8 27 9 28 10 29 2 30 3 31 1 32 24 33
REMARK H PARENT 24 34
REMARK Flexibility Score: inf
ROOT
ATOM      1  C   UNL     1      29.518  53.946  14.508  1.00  0.00     0.014 C 
ATOM      2  C   UNL     1      30.814  54.103  13.692  1.00  0.00     0.014 C 
ATOM      3  C   UNL     1      28.479  53.519  13.437  1.00  0.00     0.012 C 
ATOM      4  C   UNL     1      29.737  52.853  15.591  1.00  0.00     0.014 C 
ATOM      5  C   UNL     1      30.750  53.060  12.583  1.00  0.00     0.009 C 
ATOM      6  C   UNL     1      27.205  52.760  13.968  1.00  0.00     0.000 C 
ATOM      7  C   UNL     1      29.261  52.814  12.295  1.00  0.00     0.018 C 
ATOM      8  C   UNL     1      28.431  52.260  16.148  1.00  0.00     0.008 C 
ATOM      9  C   UNL     1      26.187  53.820  14.436  1.00  0.00     0.005 C 
ATOM     10  C   UNL     1      27.459  51.665  15.082  1.00  0.00    -0.024 C 
ATOM     11  C   UNL     1      24.836  53.224  14.781  1.00  0.00     0.005 C 
ATOM     12  C   UNL     1      26.044  51.127  15.729  1.00  0.00    -0.024 C 
ATOM     13  C   UNL     1      28.216  50.452  14.432  1.00  0.00     0.012 C 
ATOM     14  C   UNL     1      24.895  52.223  15.957  1.00  0.00     0.002 C 
ATOM     15  C   UNL     1      26.256  50.329  17.050  1.00  0.00     0.008 C 
ATOM     16  C   UNL     1      25.427  50.073  14.728  1.00  0.00     0.012 C 
ATOM     17  C   UNL     1      24.548  52.850  17.405  1.00  0.00    -0.026 C 
ATOM     18  C   UNL     1      26.240  51.161  18.329  1.00  0.00     0.005 C 
ATOM     19  C   UNL     1      25.298  54.195  17.660  1.00  0.00     0.010 C 
ATOM     20  C   UNL     1      23.001  53.160  17.395  1.00  0.00     0.012 C 
ATOM     21  C   UNL     1      24.865  51.826  18.575  1.00  0.00     0.003 C 
ATOM     22  C   UNL     1      25.133  54.771  19.073  1.00  0.00     0.033 C 
ATOM     23  C   UNL     1      24.746  52.426  20.054  1.00  0.00    -0.006 C 
ATOM     24  C   UNL     1      25.534  53.769  20.159  1.00  0.00     0.120 C 
ATOM     25  C   UNL     1      25.330  51.439  21.109  1.00  0.00     0.014 C 
ATOM     26  C   UNL     1      23.259  52.619  20.473  1.00  0.00     0.014 C 
ENDROOT
BRANCH   1  27
ATOM     27  C   UNL     1      29.149  55.288  15.138  1.00  0.00     0.048 C 
ATOM     28  O   UNL     1      29.350  55.516  16.363  1.00  0.00    -0.550 OA
ATOM     29  O   UNL     1      28.598  56.298  14.354  1.00  0.00    -0.550 OA
ENDBRANCH   1  27
BRANCH   7  30
ATOM     30  C   UNL     1      28.847  53.296  10.903  1.00  0.00    -0.077 C 
ATOM     31  C   UNL     1      28.695  52.306   9.778  1.00  0.00     0.039 C 
ATOM     32  C   UNL     1      28.598  54.594  10.657  1.00  0.00     0.008 C 
ENDBRANCH   7  30
BRANCH  24  33
ATOM     33  O   UNL     1      25.335  54.373  21.413  1.00  0.00    -0.393 OA
ATOM     34  H   UNL     1      25.538  55.340  21.312  1.00  0.00     0.210 HD
ENDBRANCH  24  33
TORSDOF 3
ENDMDL
