MODEL 1
REMARK VINA RESULT:    -4.296      0.000      0.000
REMARK INTER + INTRA:          -4.984
REMARK INTER:                  -4.923
REMARK INTRA:                  -0.061
REMARK UNBOUND:                -0.061
REMARK SMILES CC(C)[C@H]([NH3+])C(=O)[O-]
REMARK SMILES IDX 4 1 5 2 6 6 7 7 8 8 2 9 1 10 3 11
REMARK H PARENT 5 3 5 4 5 5
REMARK Flexibility Score: inf
ROOT
ATOM      1  C   UNL     1      36.258  -7.103   4.576  1.00  0.00     0.230 C 
ENDROOT
BRANCH   1   2
ATOM      2  N   UNL     1      35.806  -8.360   3.956  1.00  0.00    -0.350 N 
ATOM      3  H   UNL     1      35.604  -9.090   4.675  1.00  0.00     0.345 HD
ATOM      4  H   UNL     1      36.552  -8.721   3.318  1.00  0.00     0.345 HD
ATOM      5  H   UNL     1      34.951  -8.194   3.379  1.00  0.00     0.345 HD
ENDBRANCH   1   2
BRANCH   1   6
ATOM      6  C   UNL     1      35.440  -5.934   4.081  1.00  0.00     0.099 C 
ATOM      7  O   UNL     1      35.891  -5.156   3.200  1.00  0.00    -0.544 OA
ATOM      8  O   UNL     1      34.193  -5.683   4.639  1.00  0.00    -0.544 OA
ENDBRANCH   1   6
BRANCH   1   9
ATOM      9  C   UNL     1      37.781  -6.838   4.380  1.00  0.00     0.047 C 
ATOM     10  C   UNL     1      38.531  -8.008   3.722  1.00  0.00     0.014 C 
ATOM     11  C   UNL     1      38.466  -6.444   5.698  1.00  0.00     0.014 C 
ENDBRANCH   1   9
TORSDOF 3
ENDMDL
MODEL 2
REMARK VINA RESULT:    -4.180      3.133      3.631
REMARK INTER + INTRA:          -4.852
REMARK INTER:                  -4.806
REMARK INTRA:                  -0.046
REMARK UNBOUND:                -0.061
REMARK SMILES CC(C)[C@H]([NH3+])C(=O)[O-]
REMARK SMILES IDX 4 1 5 2 6 6 7 7 8 8 2 9 1 10 3 11
REMARK H PARENT 5 3 5 4 5 5
REMARK Flexibility Score: inf
ROOT
ATOM      1  C   UNL     1      36.898  -9.110   5.485  1.00  0.00     0.230 C 
ENDROOT
BRANCH   1   2
ATOM      2  N   UNL     1      35.504  -9.432   5.137  1.00  0.00    -0.350 N 
ATOM      3  H   UNL     1      35.134 -10.214   5.723  1.00  0.00     0.345 HD
ATOM      4  H   UNL     1      35.454  -9.718   4.132  1.00  0.00     0.345 HD
ATOM      5  H   UNL     1      34.895  -8.591   5.256  1.00  0.00     0.345 HD
ENDBRANCH   1   2
BRANCH   1   6
ATOM      6  C   UNL     1      37.071  -9.012   6.981  1.00  0.00     0.099 C 
ATOM      7  O   UNL     1      38.162  -9.321   7.528  1.00  0.00    -0.544 OA
ATOM      8  O   UNL     1      35.997  -8.623   7.773  1.00  0.00    -0.544 OA
ENDBRANCH   1   6
BRANCH   1   9
ATOM      9  C   UNL     1      37.423  -7.824   4.779  1.00  0.00     0.047 C 
ATOM     10  C   UNL     1      36.314  -6.981   4.129  1.00  0.00     0.014 C 
ATOM     11  C   UNL     1      38.517  -8.144   3.749  1.00  0.00     0.014 C 
ENDBRANCH   1   9
TORSDOF 3
ENDMDL
MODEL 3
REMARK VINA RESULT:    -4.112      3.149      3.580
REMARK INTER + INTRA:          -4.773
REMARK INTER:                  -4.819
REMARK INTRA:                   0.045
REMARK UNBOUND:                -0.061
REMARK SMILES CC(C)[C@H]([NH3+])C(=O)[O-]
REMARK SMILES IDX 4 1 5 2 6 6 7 7 8 8 2 9 1 10 3 11
REMARK H PARENT 5 3 5 4 5 5
REMARK Flexibility Score: inf
ROOT
ATOM      1  C   UNL     1      36.783  -9.495   5.459  1.00  0.00     0.230 C 
ENDROOT
BRANCH   1   2
ATOM      2  N   UNL     1      35.324  -9.681   5.519  1.00  0.00    -0.350 N 
ATOM      3  H   UNL     1      34.945 -10.028   4.610  1.00  0.00     0.345 HD
ATOM      4  H   UNL     1      34.867  -8.767   5.742  1.00  0.00     0.345 HD
ATOM      5  H   UNL     1      35.074 -10.352   6.279  1.00  0.00     0.345 HD
ENDBRANCH   1   2
BRANCH   1   6
ATOM      6  C   UNL     1      37.309  -8.930   6.756  1.00  0.00     0.099 C 
ATOM      7  O   UNL     1      38.243  -9.500   7.379  1.00  0.00    -0.544 OA
ATOM      8  O   UNL     1      36.723  -7.792   7.297  1.00  0.00    -0.544 OA
ENDBRANCH   1   6
BRANCH   1   9
ATOM      9  C   UNL     1      37.240  -8.626   4.248  1.00  0.00     0.047 C 
ATOM     10  C   UNL     1      38.721  -8.216   4.308  1.00  0.00     0.014 C 
ATOM     11  C   UNL     1      36.354  -7.384   4.070  1.00  0.00     0.014 C 
ENDBRANCH   1   9
TORSDOF 3
ENDMDL
MODEL 4
REMARK VINA RESULT:    -4.072     23.118     24.033
REMARK INTER + INTRA:          -4.728
REMARK INTER:                  -4.888
REMARK INTRA:                   0.160
REMARK UNBOUND:                -0.061
REMARK SMILES CC(C)[C@H]([NH3+])C(=O)[O-]
REMARK SMILES IDX 4 1 5 2 6 6 7 7 8 8 2 9 1 10 3 11
REMARK H PARENT 5 3 5 4 5 5
REMARK Flexibility Score: inf
ROOT
ATOM      1  C   UNL     1      21.435   0.649  20.911  1.00  0.00     0.230 C 
ENDROOT
BRANCH   1   2
ATOM      2  N   UNL     1      20.515   1.471  20.108  1.00  0.00    -0.350 N 
ATOM      3  H   UNL     1      19.713   1.817  20.680  1.00  0.00     0.345 HD
ATOM      4  H   UNL     1      20.137   0.897  19.319  1.00  0.00     0.345 HD
ATOM      5  H   UNL     1      21.022   2.284  19.692  1.00  0.00     0.345 HD
ENDBRANCH   1   2
BRANCH   1   6
ATOM      6  C   UNL     1      20.935   0.511  22.329  1.00  0.00     0.099 C 
ATOM      7  O   UNL     1      21.185  -0.522  23.005  1.00  0.00    -0.544 OA
ATOM      8  O   UNL     1      20.148   1.513  22.882  1.00  0.00    -0.544 OA
ENDBRANCH   1   6
BRANCH   1   9
ATOM      9  C   UNL     1      22.903   1.173  20.889  1.00  0.00     0.047 C 
ATOM     10  C   UNL     1      23.922   0.129  20.402  1.00  0.00     0.014 C 
ATOM     11  C   UNL     1      23.331   1.734  22.253  1.00  0.00     0.014 C 
ENDBRANCH   1   9
TORSDOF 3
ENDMDL
MODEL 5
REMARK VINA RESULT:    -4.036     22.789     23.746
REMARK INTER + INTRA:          -4.687
REMARK INTER:                  -4.625
REMARK INTRA:                  -0.062
REMARK UNBOUND:                -0.061
REMARK SMILES CC(C)[C@H]([NH3+])C(=O)[O-]
REMARK SMILES IDX 4 1 5 2 6 6 7 7 8 8 2 9 1 10 3 11
REMARK H PARENT 5 3 5 4 5 5
REMARK Flexibility Score: inf
ROOT
ATOM      1  C   UNL     1      22.534   1.257  21.618  1.00  0.00     0.230 C 
ENDROOT
BRANCH   1   2
ATOM      2  N   UNL     1      23.750   1.620  22.364  1.00  0.00    -0.350 N 
ATOM      3  H   UNL     1      23.703   1.293  23.355  1.00  0.00     0.345 HD
ATOM      4  H   UNL     1      23.861   2.660  22.363  1.00  0.00     0.345 HD
ATOM      5  H   UNL     1      24.595   1.212  21.903  1.00  0.00     0.345 HD
ENDBRANCH   1   2
BRANCH   1   6
ATOM      6  C   UNL     1      21.396   0.950  22.561  1.00  0.00     0.099 C 
ATOM      7  O   UNL     1      20.627   1.861  22.966  1.00  0.00    -0.544 OA
ATOM      8  O   UNL     1      21.221  -0.347  23.028  1.00  0.00    -0.544 OA
ENDBRANCH   1   6
BRANCH   1   9
ATOM      9  C   UNL     1      22.757   0.084  20.616  1.00  0.00     0.047 C 
ATOM     10  C   UNL     1      24.211  -0.042  20.129  1.00  0.00     0.014 C 
ATOM     11  C   UNL     1      21.803   0.169  19.416  1.00  0.00     0.014 C 
ENDBRANCH   1   9
TORSDOF 3
ENDMDL
MODEL 6
REMARK VINA RESULT:    -3.998      2.304      2.758
REMARK INTER + INTRA:          -4.643
REMARK INTER:                  -4.654
REMARK INTRA:                   0.010
REMARK UNBOUND:                -0.061
REMARK SMILES CC(C)[C@H]([NH3+])C(=O)[O-]
REMARK SMILES IDX 4 1 5 2 6 6 7 7 8 8 2 9 1 10 3 11
REMARK H PARENT 5 3 5 4 5 5
REMARK Flexibility Score: inf
ROOT
ATOM      1  C   UNL     1      37.441  -8.311   3.917  1.00  0.00     0.230 C 
ENDROOT
BRANCH   1   2
ATOM      2  N   UNL     1      38.834  -8.036   3.527  1.00  0.00    -0.350 N 
ATOM      3  H   UNL     1      39.464  -8.833   3.769  1.00  0.00     0.345 HD
ATOM      4  H   UNL     1      39.173  -7.182   4.027  1.00  0.00     0.345 HD
ATOM      5  H   UNL     1      38.894  -7.845   2.501  1.00  0.00     0.345 HD
ENDBRANCH   1   2
BRANCH   1   6
ATOM      6  C   UNL     1      36.785  -7.074   4.481  1.00  0.00     0.099 C 
ATOM      7  O   UNL     1      35.673  -6.676   4.046  1.00  0.00    -0.544 OA
ATOM      8  O   UNL     1      37.439  -6.334   5.459  1.00  0.00    -0.544 OA
ENDBRANCH   1   6
BRANCH   1   9
ATOM      9  C   UNL     1      37.308  -9.509   4.904  1.00  0.00     0.047 C 
ATOM     10  C   UNL     1      35.977  -9.527   5.675  1.00  0.00     0.014 C 
ATOM     11  C   UNL     1      38.488  -9.577   5.884  1.00  0.00     0.014 C 
ENDBRANCH   1   9
TORSDOF 3
ENDMDL
MODEL 7
REMARK VINA RESULT:    -3.960      2.334      2.753
REMARK INTER + INTRA:          -4.600
REMARK INTER:                  -4.556
REMARK INTRA:                  -0.044
REMARK UNBOUND:                -0.061
REMARK SMILES CC(C)[C@H]([NH3+])C(=O)[O-]
REMARK SMILES IDX 4 1 5 2 6 6 7 7 8 8 2 9 1 10 3 11
REMARK H PARENT 5 3 5 4 5 5
REMARK Flexibility Score: inf
ROOT
ATOM      1  C   UNL     1      36.609  -8.788   5.166  1.00  0.00     0.230 C 
ENDROOT
BRANCH   1   2
ATOM      2  N   UNL     1      35.883  -8.526   3.913  1.00  0.00    -0.350 N 
ATOM      3  H   UNL     1      36.360  -7.795   3.339  1.00  0.00     0.345 HD
ATOM      4  H   UNL     1      34.916  -8.194   4.135  1.00  0.00     0.345 HD
ATOM      5  H   UNL     1      35.794  -9.404   3.353  1.00  0.00     0.345 HD
ENDBRANCH   1   2
BRANCH   1   6
ATOM      6  C   UNL     1      35.878  -8.195   6.346  1.00  0.00     0.099 C 
ATOM      7  O   UNL     1      35.124  -7.197   6.206  1.00  0.00    -0.544 OA
ATOM      8  O   UNL     1      36.076  -8.726   7.615  1.00  0.00    -0.544 OA
ENDBRANCH   1   6
BRANCH   1   9
ATOM      9  C   UNL     1      38.089  -8.301   5.129  1.00  0.00     0.047 C 
ATOM     10  C   UNL     1      38.584  -7.941   3.718  1.00  0.00     0.014 C 
ATOM     11  C   UNL     1      39.041  -9.316   5.780  1.00  0.00     0.014 C 
ENDBRANCH   1   9
TORSDOF 3
ENDMDL
MODEL 8
REMARK VINA RESULT:    -3.959     22.283     23.253
REMARK INTER + INTRA:          -4.598
REMARK INTER:                  -4.546
REMARK INTRA:                  -0.052
REMARK UNBOUND:                -0.061
REMARK SMILES CC(C)[C@H]([NH3+])C(=O)[O-]
REMARK SMILES IDX 4 1 5 2 6 6 7 7 8 8 2 9 1 10 3 11
REMARK H PARENT 5 3 5 4 5 5
REMARK Flexibility Score: inf
ROOT
ATOM      1  C   UNL     1      22.077   1.050  20.549  1.00  0.00     0.230 C 
ENDROOT
BRANCH   1   2
ATOM      2  N   UNL     1      20.686   1.159  20.079  1.00  0.00    -0.350 N 
ATOM      3  H   UNL     1      20.565   1.965  19.426  1.00  0.00     0.345 HD
ATOM      4  H   UNL     1      20.053   1.300  20.900  1.00  0.00     0.345 HD
ATOM      5  H   UNL     1      20.392   0.278  19.602  1.00  0.00     0.345 HD
ENDBRANCH   1   2
BRANCH   1   6
ATOM      6  C   UNL     1      22.835   0.017  19.751  1.00  0.00     0.099 C 
ATOM      7  O   UNL     1      22.376  -0.428  18.666  1.00  0.00    -0.544 OA
ATOM      8  O   UNL     1      24.033  -0.489  20.242  1.00  0.00    -0.544 OA
ENDBRANCH   1   6
BRANCH   1   9
ATOM      9  C   UNL     1      22.187   0.762  22.076  1.00  0.00     0.047 C 
ATOM     10  C   UNL     1      20.840   0.422  22.737  1.00  0.00     0.014 C 
ATOM     11  C   UNL     1      22.869   1.915  22.828  1.00  0.00     0.014 C 
ENDBRANCH   1   9
TORSDOF 3
ENDMDL
MODEL 9
REMARK VINA RESULT:    -3.913      2.574      3.410
REMARK INTER + INTRA:          -4.546
REMARK INTER:                  -4.486
REMARK INTRA:                  -0.060
REMARK UNBOUND:                -0.061
REMARK SMILES CC(C)[C@H]([NH3+])C(=O)[O-]
REMARK SMILES IDX 4 1 5 2 6 6 7 7 8 8 2 9 1 10 3 11
REMARK H PARENT 5 3 5 4 5 5
REMARK Flexibility Score: inf
ROOT
ATOM      1  C   UNL     1      36.149  -7.694   4.354  1.00  0.00     0.230 C 
ENDROOT
BRANCH   1   2
ATOM      2  N   UNL     1      35.334  -7.981   5.546  1.00  0.00    -0.350 N 
ATOM      3  H   UNL     1      35.524  -8.938   5.918  1.00  0.00     0.345 HD
ATOM      4  H   UNL     1      34.320  -7.917   5.297  1.00  0.00     0.345 HD
ATOM      5  H   UNL     1      35.520  -7.274   6.292  1.00  0.00     0.345 HD
ENDBRANCH   1   2
BRANCH   1   6
ATOM      6  C   UNL     1      37.301  -8.664   4.243  1.00  0.00     0.099 C 
ATOM      7  O   UNL     1      37.241  -9.803   4.775  1.00  0.00    -0.544 OA
ATOM      8  O   UNL     1      38.464  -8.277   3.588  1.00  0.00    -0.544 OA
ENDBRANCH   1   6
BRANCH   1   9
ATOM      9  C   UNL     1      36.655  -6.222   4.298  1.00  0.00     0.047 C 
ATOM     10  C   UNL     1      37.059  -5.656   5.669  1.00  0.00     0.014 C 
ATOM     11  C   UNL     1      35.635  -5.292   3.623  1.00  0.00     0.014 C 
ENDBRANCH   1   9
TORSDOF 3
ENDMDL
