MODEL 1
REMARK VINA RESULT:    -2.241      0.000      0.000
REMARK INTER + INTRA:          -3.371
REMARK INTER:                  -2.961
REMARK INTRA:                  -0.410
REMARK UNBOUND:                -0.410
REMARK SMILES C=C[C@H](O)CCCCC
REMARK SMILES IDX 6 1 7 2 8 3 9 4 5 5 3 6 2 7 1 8 4 9
REMARK H PARENT 4 10
REMARK Flexibility Score: inf
ROOT
ATOM      1  C   UNL     1      95.657   8.202  63.315  1.00  0.00     0.003 C 
ENDROOT
BRANCH   1   2
ATOM      2  C   UNL     1      96.443   8.872  62.174  1.00  0.00    -0.000 C 
BRANCH   2   3
ATOM      3  C   UNL     1      96.278  10.399  62.163  1.00  0.00    -0.003 C 
ATOM      4  C   UNL     1      97.061  11.086  63.281  1.00  0.00     0.004 C 
ENDBRANCH   2   3
ENDBRANCH   1   2
BRANCH   1   5
ATOM      5  C   UNL     1      94.618   7.188  62.805  1.00  0.00     0.036 C 
BRANCH   5   6
ATOM      6  C   UNL     1      93.162   7.629  63.041  1.00  0.00     0.136 C 
BRANCH   6   7
ATOM      7  C   UNL     1      92.668   8.450  61.875  1.00  0.00    -0.004 C 
ATOM      8  C   UNL     1      92.308   9.729  62.019  1.00  0.00     0.007 C 
ENDBRANCH   6   7
BRANCH   6   9
ATOM      9  O   UNL     1      93.090   8.397  64.215  1.00  0.00    -0.389 OA
ATOM     10  H   UNL     1      93.735   9.144  64.109  1.00  0.00     0.211 HD
ENDBRANCH   6   9
ENDBRANCH   5   6
ENDBRANCH   1   5
TORSDOF 6
ENDMDL
MODEL 2
REMARK VINA RESULT:    -1.695      1.757      4.065
REMARK INTER + INTRA:          -2.650
REMARK INTER:                  -2.559
REMARK INTRA:                  -0.091
REMARK UNBOUND:                -0.410
REMARK SMILES C=C[C@H](O)CCCCC
REMARK SMILES IDX 6 1 7 2 8 3 9 4 5 5 3 6 2 7 1 8 4 9
REMARK H PARENT 4 10
REMARK Flexibility Score: inf
ROOT
ATOM      1  C   UNL     1      94.742   7.836  63.343  1.00  0.00     0.003 C 
ENDROOT
BRANCH   1   2
ATOM      2  C   UNL     1      93.292   7.392  63.079  1.00  0.00    -0.000 C 
BRANCH   2   3
ATOM      3  C   UNL     1      92.666   8.113  61.875  1.00  0.00    -0.003 C 
ATOM      4  C   UNL     1      92.375   9.586  62.156  1.00  0.00     0.004 C 
ENDBRANCH   2   3
ENDBRANCH   1   2
BRANCH   1   5
ATOM      5  C   UNL     1      95.495   8.200  62.052  1.00  0.00     0.036 C 
BRANCH   5   6
ATOM      6  C   UNL     1      96.706   9.124  62.288  1.00  0.00     0.136 C 
BRANCH   6   7
ATOM      7  C   UNL     1      97.121   9.082  63.737  1.00  0.00    -0.004 C 
ATOM      8  C   UNL     1      97.119  10.179  64.501  1.00  0.00     0.007 C 
ENDBRANCH   6   7
BRANCH   6   9
ATOM      9  O   UNL     1      96.363  10.441  61.939  1.00  0.00    -0.389 OA
ATOM     10  H   UNL     1      95.914  10.840  62.730  1.00  0.00     0.211 HD
ENDBRANCH   6   9
ENDBRANCH   5   6
ENDBRANCH   1   5
TORSDOF 6
ENDMDL
MODEL 3
REMARK VINA RESULT:    -1.344      1.602      3.751
REMARK INTER + INTRA:          -2.186
REMARK INTER:                  -1.790
REMARK INTRA:                  -0.396
REMARK UNBOUND:                -0.410
REMARK SMILES C=C[C@H](O)CCCCC
REMARK SMILES IDX 6 1 7 2 8 3 9 4 5 5 3 6 2 7 1 8 4 9
REMARK H PARENT 4 10
REMARK Flexibility Score: inf
ROOT
ATOM      1  C   UNL     1      94.066   7.897  63.757  1.00  0.00     0.003 C 
ENDROOT
BRANCH   1   2
ATOM      2  C   UNL     1      93.389   7.395  62.469  1.00  0.00    -0.000 C 
BRANCH   2   3
ATOM      3  C   UNL     1      92.416   8.425  61.875  1.00  0.00    -0.003 C 
ATOM      4  C   UNL     1      92.932   9.859  61.990  1.00  0.00     0.004 C 
ENDBRANCH   2   3
ENDBRANCH   1   2
BRANCH   1   5
ATOM      5  C   UNL     1      95.598   7.959  63.637  1.00  0.00     0.036 C 
BRANCH   5   6
ATOM      6  C   UNL     1      96.195   9.306  64.085  1.00  0.00     0.136 C 
BRANCH   6   7
ATOM      7  C   UNL     1      97.070   9.878  62.998  1.00  0.00    -0.004 C 
ATOM      8  C   UNL     1      96.554  10.388  61.875  1.00  0.00     0.007 C 
ENDBRANCH   6   7
BRANCH   6   9
ATOM      9  O   UNL     1      96.962   9.115  65.247  1.00  0.00    -0.389 OA
ATOM     10  H   UNL     1      96.358   9.268  66.019  1.00  0.00     0.211 HD
ENDBRANCH   6   9
ENDBRANCH   5   6
ENDBRANCH   1   5
TORSDOF 6
ENDMDL
MODEL 4
REMARK VINA RESULT:    -0.989      1.729      2.210
REMARK INTER + INTRA:          -1.716
REMARK INTER:                  -2.306
REMARK INTRA:                   0.589
REMARK UNBOUND:                -0.410
REMARK SMILES C=C[C@H](O)CCCCC
REMARK SMILES IDX 6 1 7 2 8 3 9 4 5 5 3 6 2 7 1 8 4 9
REMARK H PARENT 4 10
REMARK Flexibility Score: inf
ROOT
ATOM      1  C   UNL     1      94.654   9.888  61.973  1.00  0.00     0.003 C 
ENDROOT
BRANCH   1   2
ATOM      2  C   UNL     1      95.913  10.759  62.129  1.00  0.00    -0.000 C 
BRANCH   2   3
ATOM      3  C   UNL     1      97.113   9.967  62.670  1.00  0.00    -0.003 C 
ATOM      4  C   UNL     1      96.800   9.241  63.977  1.00  0.00     0.004 C 
ENDBRANCH   2   3
ENDBRANCH   1   2
BRANCH   1   5
ATOM      5  C   UNL     1      94.972   8.382  61.961  1.00  0.00     0.036 C 
BRANCH   5   6
ATOM      6  C   UNL     1      93.718   7.489  62.009  1.00  0.00     0.136 C 
BRANCH   6   7
ATOM      7  C   UNL     1      92.992   7.677  63.319  1.00  0.00    -0.004 C 
ATOM      8  C   UNL     1      93.651   7.847  64.469  1.00  0.00     0.007 C 
ENDBRANCH   6   7
BRANCH   6   9
ATOM      9  O   UNL     1      94.096   6.143  61.875  1.00  0.00    -0.389 OA
ATOM     10  H   UNL     1      93.497   5.743  61.193  1.00  0.00     0.211 HD
ENDBRANCH   6   9
ENDBRANCH   5   6
ENDBRANCH   1   5
TORSDOF 6
ENDMDL
