MODEL 1
REMARK VINA RESULT:    -1.111      0.000      0.000
REMARK INTER + INTRA:           0.247
REMARK INTER:                  -1.501
REMARK INTRA:                   1.748
REMARK UNBOUND:                 1.748
REMARK SMILES O=c1c(-c2ccc(O)cc2)coc2c([C@@H]3O[C@@H](CO)[C@H](O)[C@@H](O)[C@@H]3O)c(O)ccc12
REMARK SMILES IDX 3 1 11 2 12 3 13 4 30 5 2 6 1 7 29 8 28 9 26 10 14 11 4 12
REMARK SMILES IDX 5 13 6 14 7 15 10 16 9 17 8 18 15 20 24 21 16 22 22 23 17 24
REMARK SMILES IDX 20 25 25 26 23 28 18 30 19 31 21 33 27 35
REMARK H PARENT 8 19 25 27 23 29 19 32 21 34 27 36
REMARK Flexibility Score: inf
ROOT
ATOM      1  C   UNL     1     -11.299  -3.614  21.700  1.00  0.00     0.065 A 
ATOM      2  C   UNL     1     -10.887  -2.383  22.229  1.00  0.00     0.208 A 
ATOM      3  O   UNL     1     -10.871  -2.177  23.540  1.00  0.00    -0.463 OA
ATOM      4  C   UNL     1     -11.237  -3.097  24.431  1.00  0.00     0.147 A 
ATOM      5  C   UNL     1     -11.681  -4.362  23.980  1.00  0.00     0.066 A 
ATOM      6  C   UNL     1     -11.711  -4.616  22.596  1.00  0.00     0.200 A 
ATOM      7  O   UNL     1     -12.125  -5.726  22.159  1.00  0.00    -0.288 OA
ATOM      8  C   UNL     1     -12.098  -5.320  24.912  1.00  0.00     0.020 A 
ATOM      9  C   UNL     1     -12.087  -5.028  26.270  1.00  0.00     0.047 A 
ATOM     10  C   UNL     1     -11.642  -3.787  26.739  1.00  0.00     0.125 A 
ATOM     11  C   UNL     1     -11.186  -2.798  25.820  1.00  0.00     0.069 A 
ENDROOT
BRANCH   1  12
ATOM     12  C   UNL     1     -11.296  -3.825  20.231  1.00  0.00    -0.011 A 
ATOM     13  C   UNL     1     -11.875  -2.871  19.378  1.00  0.00     0.013 A 
ATOM     14  C   UNL     1     -11.861  -3.060  17.993  1.00  0.00     0.047 A 
ATOM     15  C   UNL     1     -11.262  -4.196  17.444  1.00  0.00     0.115 A 
ATOM     16  C   UNL     1     -10.696  -4.968  19.673  1.00  0.00     0.013 A 
ATOM     17  C   UNL     1     -10.680  -5.150  18.287  1.00  0.00     0.047 A 
BRANCH  15  18
ATOM     18  O   UNL     1     -11.249  -4.367  16.061  1.00  0.00    -0.508 OA
ATOM     19  H   UNL     1     -11.439  -3.597  15.431  1.00  0.00     0.293 HD
ENDBRANCH  15  18
ENDBRANCH   1  12
BRANCH  11  20
ATOM     20  C   UNL     1     -10.730  -1.400  26.254  1.00  0.00     0.188 C 
ATOM     21  C   UNL     1      -9.697  -1.437  27.430  1.00  0.00     0.179 C 
ATOM     22  O   UNL     1     -10.287  -0.657  25.126  1.00  0.00    -0.362 OA
ATOM     23  C   UNL     1      -8.351  -0.831  27.012  1.00  0.00     0.177 C 
ATOM     24  C   UNL     1      -9.785   0.632  25.463  1.00  0.00     0.176 C 
ATOM     25  C   UNL     1      -8.545   0.574  26.405  1.00  0.00     0.177 C 
BRANCH  21  26
ATOM     26  O   UNL     1      -9.486  -2.744  27.912  1.00  0.00    -0.387 OA
ATOM     27  H   UNL     1      -8.527  -2.955  27.759  1.00  0.00     0.211 HD
ENDBRANCH  21  26
BRANCH  23  28
ATOM     28  O   UNL     1      -7.461  -0.789  28.101  1.00  0.00    -0.387 OA
ATOM     29  H   UNL     1      -6.824  -1.544  28.001  1.00  0.00     0.211 HD
ENDBRANCH  23  28
BRANCH  24  30
ATOM     30  C   UNL     1     -10.886   1.577  25.993  1.00  0.00     0.191 C 
BRANCH  30  31
ATOM     31  O   UNL     1     -10.565   2.002  27.289  1.00  0.00    -0.394 OA
ATOM     32  H   UNL     1     -11.416   2.004  27.799  1.00  0.00     0.210 HD
ENDBRANCH  30  31
ENDBRANCH  24  30
BRANCH  25  33
ATOM     33  O   UNL     1      -7.390   0.930  25.682  1.00  0.00    -0.388 OA
ATOM     34  H   UNL     1      -6.761   0.165  25.743  1.00  0.00     0.211 HD
ENDBRANCH  25  33
ENDBRANCH  11  20
BRANCH  10  35
ATOM     35  O   UNL     1     -11.680  -3.600  28.125  1.00  0.00    -0.507 OA
ATOM     36  H   UNL     1     -12.214  -4.157  28.770  1.00  0.00     0.293 HD
ENDBRANCH  10  35
TORSDOF 9
ENDMDL
MODEL 2
REMARK VINA RESULT:     0.336      6.470      8.649
REMARK INTER + INTRA:           2.201
REMARK INTER:                   0.725
REMARK INTRA:                   1.476
REMARK UNBOUND:                 1.748
REMARK SMILES O=c1c(-c2ccc(O)cc2)coc2c([C@@H]3O[C@@H](CO)[C@H](O)[C@@H](O)[C@@H]3O)c(O)ccc12
REMARK SMILES IDX 3 1 11 2 12 3 13 4 30 5 2 6 1 7 29 8 28 9 26 10 14 11 4 12
REMARK SMILES IDX 5 13 6 14 7 15 10 16 9 17 8 18 15 20 24 21 16 22 22 23 17 24
REMARK SMILES IDX 20 25 25 26 23 28 18 30 19 31 21 33 27 35
REMARK H PARENT 8 19 25 27 23 29 19 32 21 34 27 36
REMARK Flexibility Score: inf
ROOT
ATOM      1  C   UNL     1      -3.611  -6.397  23.946  1.00  0.00     0.065 A 
ATOM      2  C   UNL     1      -4.404  -6.037  25.045  1.00  0.00     0.208 A 
ATOM      3  O   UNL     1      -5.728  -6.060  24.964  1.00  0.00    -0.463 OA
ATOM      4  C   UNL     1      -6.391  -6.417  23.865  1.00  0.00     0.147 A 
ATOM      5  C   UNL     1      -5.665  -6.781  22.706  1.00  0.00     0.066 A 
ATOM      6  C   UNL     1      -4.259  -6.767  22.755  1.00  0.00     0.200 A 
ATOM      7  O   UNL     1      -3.580  -7.062  21.731  1.00  0.00    -0.288 OA
ATOM      8  C   UNL     1      -6.356  -7.125  21.538  1.00  0.00     0.020 A 
ATOM      9  C   UNL     1      -7.745  -7.098  21.512  1.00  0.00     0.047 A 
ATOM     10  C   UNL     1      -8.483  -6.751  22.649  1.00  0.00     0.125 A 
ATOM     11  C   UNL     1      -7.811  -6.422  23.863  1.00  0.00     0.069 A 
ENDROOT
BRANCH   1  12
ATOM     12  C   UNL     1      -2.132  -6.374  24.064  1.00  0.00    -0.011 A 
ATOM     13  C   UNL     1      -1.340  -7.125  23.179  1.00  0.00     0.013 A 
ATOM     14  C   UNL     1       0.054  -7.093  23.277  1.00  0.00     0.047 A 
ATOM     15  C   UNL     1       0.673  -6.307  24.252  1.00  0.00     0.115 A 
ATOM     16  C   UNL     1      -1.504  -5.585  25.043  1.00  0.00     0.013 A 
ATOM     17  C   UNL     1      -0.109  -5.552  25.135  1.00  0.00     0.047 A 
BRANCH  15  18
ATOM     18  O   UNL     1       2.064  -6.280  24.333  1.00  0.00    -0.508 OA
ATOM     19  H   UNL     1       2.625  -5.799  23.640  1.00  0.00     0.293 HD
ENDBRANCH  15  18
ENDBRANCH   1  12
BRANCH  11  20
ATOM     20  C   UNL     1      -8.549  -5.985  25.134  1.00  0.00     0.188 C 
ATOM     21  C   UNL     1      -9.714  -4.980  24.845  1.00  0.00     0.179 C 
ATOM     22  O   UNL     1      -8.949  -7.125  25.883  1.00  0.00    -0.362 OA
ATOM     23  C   UNL     1     -11.072  -5.561  25.263  1.00  0.00     0.177 C 
ATOM     24  C   UNL     1      -9.701  -6.798  27.048  1.00  0.00     0.176 C 
ATOM     25  C   UNL     1     -11.032  -6.056  26.724  1.00  0.00     0.177 C 
BRANCH  21  26
ATOM     26  O   UNL     1      -9.770  -4.607  23.488  1.00  0.00    -0.387 OA
ATOM     27  H   UNL     1      -8.922  -4.910  23.071  1.00  0.00     0.211 HD
ENDBRANCH  21  26
BRANCH  23  28
ATOM     28  O   UNL     1     -12.098  -4.617  25.080  1.00  0.00    -0.387 OA
ATOM     29  H   UNL     1     -12.281  -4.192  25.958  1.00  0.00     0.211 HD
ENDBRANCH  23  28
BRANCH  24  30
ATOM     30  C   UNL     1      -8.856  -6.060  28.110  1.00  0.00     0.191 C 
BRANCH  30  31
ATOM     31  O   UNL     1      -9.176  -4.695  28.108  1.00  0.00    -0.394 OA
ATOM     32  H   UNL     1      -9.664  -4.523  28.954  1.00  0.00     0.210 HD
ENDBRANCH  30  31
ENDBRANCH  24  30
BRANCH  25  33
ATOM     33  O   UNL     1     -12.119  -6.923  26.948  1.00  0.00    -0.388 OA
ATOM     34  H   UNL     1     -11.741  -7.813  27.171  1.00  0.00     0.211 HD
ENDBRANCH  25  33
ENDBRANCH  11  20
BRANCH  10  35
ATOM     35  O   UNL     1      -9.874  -6.752  22.508  1.00  0.00    -0.507 OA
ATOM     36  H   UNL     1     -10.493  -6.048  22.871  1.00  0.00     0.293 HD
ENDBRANCH  10  35
TORSDOF 9
ENDMDL
