MODEL 1
REMARK VINA RESULT:     2.151      0.000      0.000
REMARK INTER + INTRA:           4.825
REMARK INTER:                   5.420
REMARK INTRA:                  -0.595
REMARK UNBOUND:                -0.595
REMARK SMILES CCCCCCCCCCCCCCCCCCCCCCCCCCCC(=O)[O-]
REMARK SMILES IDX 15 1 16 2 17 3 18 4 19 5 20 6 21 7 22 8 23 9 24 10 25 11
REMARK SMILES IDX 26 12 27 13 28 14 29 15 30 16 14 17 13 18 12 19 11 20 10 21
REMARK SMILES IDX 9 22 8 23 7 24 6 25 5 26 4 27 3 28 2 29 1 30
REMARK H PARENT
REMARK Flexibility Score: inf
ROOT
ATOM      1  C   UNL     1       5.702 -37.493  25.564  1.00  0.00     0.000 C 
ENDROOT
BRANCH   1   2
ATOM      2  C   UNL     1       5.058 -36.345  24.771  1.00  0.00     0.000 C 
BRANCH   2   3
ATOM      3  C   UNL     1       6.098 -35.329  24.267  1.00  0.00     0.000 C 
BRANCH   3   4
ATOM      4  C   UNL     1       5.897 -34.973  22.784  1.00  0.00     0.000 C 
BRANCH   4   5
ATOM      5  C   UNL     1       4.427 -35.103  22.332  1.00  0.00     0.000 C 
BRANCH   5   6
ATOM      6  C   UNL     1       4.245 -35.077  20.801  1.00  0.00     0.000 C 
BRANCH   6   7
ATOM      7  C   UNL     1       5.394 -35.717  19.999  1.00  0.00     0.000 C 
BRANCH   7   8
ATOM      8  C   UNL     1       5.788 -34.966  18.709  1.00  0.00     0.000 C 
BRANCH   8   9
ATOM      9  C   UNL     1       4.610 -34.572  17.798  1.00  0.00     0.000 C 
BRANCH   9  10
ATOM     10  C   UNL     1       3.909 -35.787  17.169  1.00  0.00     0.000 C 
BRANCH  10  11
ATOM     11  C   UNL     1       2.641 -35.396  16.394  1.00  0.00     0.000 C 
BRANCH  11  12
ATOM     12  C   UNL     1       1.958 -36.609  15.734  1.00  0.00     0.006 C 
BRANCH  12  13
ATOM     13  C   UNL     1       2.529 -36.905  14.341  1.00  0.00     0.053 C 
BRANCH  13  14
ATOM     14  C   UNL     1       3.845 -37.618  14.421  1.00  0.00     0.041 C 
ATOM     15  O   UNL     1       4.890 -37.073  13.975  1.00  0.00    -0.550 OA
ATOM     16  O   UNL     1       3.910 -38.902  14.955  1.00  0.00    -0.550 OA
ENDBRANCH  13  14
ENDBRANCH  12  13
ENDBRANCH  11  12
ENDBRANCH  10  11
ENDBRANCH   9  10
ENDBRANCH   8   9
ENDBRANCH   7   8
ENDBRANCH   6   7
ENDBRANCH   5   6
ENDBRANCH   4   5
ENDBRANCH   3   4
ENDBRANCH   2   3
ENDBRANCH   1   2
BRANCH   1  17
ATOM     17  C   UNL     1       4.996 -38.827  25.282  1.00  0.00     0.000 C 
BRANCH  17  18
ATOM     18  C   UNL     1       5.953 -40.031  25.346  1.00  0.00     0.000 C 
BRANCH  18  19
ATOM     19  C   UNL     1       5.266 -41.406  25.272  1.00  0.00     0.000 C 
BRANCH  19  20
ATOM     20  C   UNL     1       6.007 -42.399  24.358  1.00  0.00     0.000 C 
BRANCH  20  21
ATOM     21  C   UNL     1       5.442 -42.400  22.921  1.00  0.00     0.000 C 
BRANCH  21  22
ATOM     22  C   UNL     1       6.125 -41.396  21.976  1.00  0.00    -0.000 C 
BRANCH  22  23
ATOM     23  C   UNL     1       5.811 -39.934  22.328  1.00  0.00    -0.000 C 
BRANCH  23  24
ATOM     24  C   UNL     1       5.750 -39.014  21.094  1.00  0.00    -0.000 C 
BRANCH  24  25
ATOM     25  C   UNL     1       4.329 -38.624  20.630  1.00  0.00    -0.000 C 
BRANCH  25  26
ATOM     26  C   UNL     1       4.182 -38.315  19.128  1.00  0.00    -0.000 C 
BRANCH  26  27
ATOM     27  C   UNL     1       2.751 -37.905  18.739  1.00  0.00    -0.000 C 
BRANCH  27  28
ATOM     28  C   UNL     1       1.832 -37.712  19.960  1.00  0.00    -0.000 C 
BRANCH  28  29
ATOM     29  C   UNL     1       0.345 -37.501  19.626  1.00  0.00    -0.003 C 
ATOM     30  C   UNL     1       0.050 -37.596  18.128  1.00  0.00     0.004 C 
ENDBRANCH  28  29
ENDBRANCH  27  28
ENDBRANCH  26  27
ENDBRANCH  25  26
ENDBRANCH  24  25
ENDBRANCH  23  24
ENDBRANCH  22  23
ENDBRANCH  21  22
ENDBRANCH  20  21
ENDBRANCH  19  20
ENDBRANCH  18  19
ENDBRANCH  17  18
ENDBRANCH   1  17
TORSDOF 26
ENDMDL
MODEL 2
REMARK VINA RESULT:     2.576      2.930      7.433
REMARK INTER + INTRA:           5.897
REMARK INTER:                   4.416
REMARK INTRA:                   1.481
REMARK UNBOUND:                -0.595
REMARK SMILES CCCCCCCCCCCCCCCCCCCCCCCCCCCC(=O)[O-]
REMARK SMILES IDX 15 1 16 2 17 3 18 4 19 5 20 6 21 7 22 8 23 9 24 10 25 11
REMARK SMILES IDX 26 12 27 13 28 14 29 15 30 16 14 17 13 18 12 19 11 20 10 21
REMARK SMILES IDX 9 22 8 23 7 24 6 25 5 26 4 27 3 28 2 29 1 30
REMARK H PARENT
REMARK Flexibility Score: inf
ROOT
ATOM      1  C   UNL     1       2.995 -38.282  19.388  1.00  0.00     0.000 C 
ENDROOT
BRANCH   1   2
ATOM      2  C   UNL     1       4.285 -37.665  18.825  1.00  0.00     0.000 C 
BRANCH   2   3
ATOM      3  C   UNL     1       4.002 -36.529  17.827  1.00  0.00     0.000 C 
BRANCH   3   4
ATOM      4  C   UNL     1       4.219 -35.138  18.446  1.00  0.00     0.000 C 
BRANCH   4   5
ATOM      5  C   UNL     1       5.689 -34.881  18.840  1.00  0.00     0.000 C 
BRANCH   5   6
ATOM      6  C   UNL     1       5.879 -34.526  20.328  1.00  0.00     0.000 C 
BRANCH   6   7
ATOM      7  C   UNL     1       6.123 -35.730  21.258  1.00  0.00     0.000 C 
BRANCH   7   8
ATOM      8  C   UNL     1       4.893 -36.189  22.069  1.00  0.00     0.000 C 
BRANCH   8   9
ATOM      9  C   UNL     1       4.661 -35.431  23.389  1.00  0.00     0.000 C 
BRANCH   9  10
ATOM     10  C   UNL     1       5.641 -35.850  24.498  1.00  0.00     0.000 C 
BRANCH  10  11
ATOM     11  C   UNL     1       5.326 -37.245  25.062  1.00  0.00     0.000 C 
BRANCH  11  12
ATOM     12  C   UNL     1       5.819 -38.377  24.141  1.00  0.00     0.006 C 
BRANCH  12  13
ATOM     13  C   UNL     1       4.780 -39.497  23.997  1.00  0.00     0.053 C 
BRANCH  13  14
ATOM     14  C   UNL     1       5.430 -40.837  23.820  1.00  0.00     0.041 C 
ATOM     15  O   UNL     1       5.813 -41.493  24.825  1.00  0.00    -0.550 OA
ATOM     16  O   UNL     1       5.645 -41.343  22.541  1.00  0.00    -0.550 OA
ENDBRANCH  13  14
ENDBRANCH  12  13
ENDBRANCH  11  12
ENDBRANCH  10  11
ENDBRANCH   9  10
ENDBRANCH   8   9
ENDBRANCH   7   8
ENDBRANCH   6   7
ENDBRANCH   5   6
ENDBRANCH   4   5
ENDBRANCH   3   4
ENDBRANCH   2   3
ENDBRANCH   1   2
BRANCH   1  17
ATOM     17  C   UNL     1       2.657 -37.700  20.768  1.00  0.00     0.000 C 
BRANCH  17  18
ATOM     18  C   UNL     1       1.423 -36.780  20.739  1.00  0.00     0.000 C 
BRANCH  18  19
ATOM     19  C   UNL     1       0.241 -37.311  19.908  1.00  0.00     0.000 C 
BRANCH  19  20
ATOM     20  C   UNL     1       0.685 -38.221  18.749  1.00  0.00     0.000 C 
BRANCH  20  21
ATOM     21  C   UNL     1       0.433 -37.573  17.370  1.00  0.00     0.000 C 
BRANCH  21  22
ATOM     22  C   UNL     1       1.702 -37.388  16.520  1.00  0.00    -0.000 C 
BRANCH  22  23
ATOM     23  C   UNL     1       1.864 -35.955  15.991  1.00  0.00    -0.000 C 
BRANCH  23  24
ATOM     24  C   UNL     1       2.191 -35.899  14.487  1.00  0.00    -0.000 C 
BRANCH  24  25
ATOM     25  C   UNL     1       2.717 -37.216  13.875  1.00  0.00    -0.000 C 
BRANCH  25  26
ATOM     26  C   UNL     1       3.789 -37.952  14.702  1.00  0.00    -0.000 C 
BRANCH  26  27
ATOM     27  C   UNL     1       4.580 -38.980  13.876  1.00  0.00    -0.000 C 
BRANCH  27  28
ATOM     28  C   UNL     1       4.720 -40.339  14.587  1.00  0.00    -0.000 C 
BRANCH  28  29
ATOM     29  C   UNL     1       5.845 -41.240  14.050  1.00  0.00    -0.003 C 
ATOM     30  C   UNL     1       5.858 -42.628  14.693  1.00  0.00     0.004 C 
ENDBRANCH  28  29
ENDBRANCH  27  28
ENDBRANCH  26  27
ENDBRANCH  25  26
ENDBRANCH  24  25
ENDBRANCH  23  24
ENDBRANCH  22  23
ENDBRANCH  21  22
ENDBRANCH  20  21
ENDBRANCH  19  20
ENDBRANCH  18  19
ENDBRANCH  17  18
ENDBRANCH   1  17
TORSDOF 26
ENDMDL
MODEL 3
REMARK VINA RESULT:     3.619      4.480      8.368
REMARK INTER + INTRA:           8.525
REMARK INTER:                   9.494
REMARK INTRA:                  -0.969
REMARK UNBOUND:                -0.595
REMARK SMILES CCCCCCCCCCCCCCCCCCCCCCCCCCCC(=O)[O-]
REMARK SMILES IDX 15 1 16 2 17 3 18 4 19 5 20 6 21 7 22 8 23 9 24 10 25 11
REMARK SMILES IDX 26 12 27 13 28 14 29 15 30 16 14 17 13 18 12 19 11 20 10 21
REMARK SMILES IDX 9 22 8 23 7 24 6 25 5 26 4 27 3 28 2 29 1 30
REMARK H PARENT
REMARK Flexibility Score: inf
ROOT
ATOM      1  C   UNL     1       6.079 -37.720  23.161  1.00  0.00     0.000 C 
ENDROOT
BRANCH   1   2
ATOM      2  C   UNL     1       6.033 -37.813  21.627  1.00  0.00     0.000 C 
BRANCH   2   3
ATOM      3  C   UNL     1       5.746 -39.243  21.138  1.00  0.00     0.000 C 
BRANCH   3   4
ATOM      4  C   UNL     1       5.092 -40.113  22.224  1.00  0.00     0.000 C 
BRANCH   4   5
ATOM      5  C   UNL     1       5.840 -41.444  22.454  1.00  0.00     0.000 C 
BRANCH   5   6
ATOM      6  C   UNL     1       5.560 -42.082  23.830  1.00  0.00     0.000 C 
BRANCH   6   7
ATOM      7  C   UNL     1       5.697 -41.125  25.030  1.00  0.00     0.000 C 
BRANCH   7   8
ATOM      8  C   UNL     1       4.765 -39.895  24.994  1.00  0.00     0.000 C 
BRANCH   8   9
ATOM      9  C   UNL     1       4.650 -39.124  26.322  1.00  0.00     0.000 C 
BRANCH   9  10
ATOM     10  C   UNL     1       4.008 -37.737  26.153  1.00  0.00     0.000 C 
BRANCH  10  11
ATOM     11  C   UNL     1       2.693 -37.600  26.939  1.00  0.00     0.000 C 
BRANCH  11  12
ATOM     12  C   UNL     1       2.670 -36.346  27.832  1.00  0.00     0.006 C 
BRANCH  12  13
ATOM     13  C   UNL     1       1.248 -35.807  28.034  1.00  0.00     0.053 C 
BRANCH  13  14
ATOM     14  C   UNL     1       1.194 -34.776  29.121  1.00  0.00     0.041 C 
ATOM     15  O   UNL     1       0.157 -34.079  29.282  1.00  0.00    -0.550 OA
ATOM     16  O   UNL     1       2.304 -34.560  29.932  1.00  0.00    -0.550 OA
ENDBRANCH  13  14
ENDBRANCH  12  13
ENDBRANCH  11  12
ENDBRANCH  10  11
ENDBRANCH   9  10
ENDBRANCH   8   9
ENDBRANCH   7   8
ENDBRANCH   6   7
ENDBRANCH   5   6
ENDBRANCH   4   5
ENDBRANCH   3   4
ENDBRANCH   2   3
ENDBRANCH   1   2
BRANCH   1  17
ATOM     17  C   UNL     1       6.121 -36.258  23.627  1.00  0.00     0.000 C 
BRANCH  17  18
ATOM     18  C   UNL     1       5.769 -35.265  22.504  1.00  0.00     0.000 C 
BRANCH  18  19
ATOM     19  C   UNL     1       4.274 -34.920  22.392  1.00  0.00     0.000 C 
BRANCH  19  20
ATOM     20  C   UNL     1       3.693 -35.219  20.999  1.00  0.00     0.000 C 
BRANCH  20  21
ATOM     21  C   UNL     1       4.797 -35.400  19.934  1.00  0.00     0.000 C 
BRANCH  21  22
ATOM     22  C   UNL     1       4.310 -36.053  18.628  1.00  0.00    -0.000 C 
BRANCH  22  23
ATOM     23  C   UNL     1       3.831 -37.499  18.825  1.00  0.00    -0.000 C 
BRANCH  23  24
ATOM     24  C   UNL     1       2.441 -37.592  19.481  1.00  0.00    -0.000 C 
BRANCH  24  25
ATOM     25  C   UNL     1       1.244 -37.475  18.513  1.00  0.00    -0.000 C 
BRANCH  25  26
ATOM     26  C   UNL     1       1.566 -37.710  17.025  1.00  0.00    -0.000 C 
BRANCH  26  27
ATOM     27  C   UNL     1       1.834 -36.405  16.256  1.00  0.00    -0.000 C 
BRANCH  27  28
ATOM     28  C   UNL     1       2.182 -36.645  14.774  1.00  0.00    -0.000 C 
BRANCH  28  29
ATOM     29  C   UNL     1       3.678 -36.860  14.486  1.00  0.00    -0.003 C 
ATOM     30  C   UNL     1       4.041 -38.330  14.271  1.00  0.00     0.004 C 
ENDBRANCH  28  29
ENDBRANCH  27  28
ENDBRANCH  26  27
ENDBRANCH  25  26
ENDBRANCH  24  25
ENDBRANCH  23  24
ENDBRANCH  22  23
ENDBRANCH  21  22
ENDBRANCH  20  21
ENDBRANCH  19  20
ENDBRANCH  18  19
ENDBRANCH  17  18
ENDBRANCH   1  17
TORSDOF 26
ENDMDL
MODEL 4
REMARK VINA RESULT:     4.035      4.578      8.288
REMARK INTER + INTRA:           9.573
REMARK INTER:                   9.068
REMARK INTRA:                   0.505
REMARK UNBOUND:                -0.595
REMARK SMILES CCCCCCCCCCCCCCCCCCCCCCCCCCCC(=O)[O-]
REMARK SMILES IDX 15 1 16 2 17 3 18 4 19 5 20 6 21 7 22 8 23 9 24 10 25 11
REMARK SMILES IDX 26 12 27 13 28 14 29 15 30 16 14 17 13 18 12 19 11 20 10 21
REMARK SMILES IDX 9 22 8 23 7 24 6 25 5 26 4 27 3 28 2 29 1 30
REMARK H PARENT
REMARK Flexibility Score: inf
ROOT
ATOM      1  C   UNL     1       1.591 -36.454  21.006  1.00  0.00     0.000 C 
ENDROOT
BRANCH   1   2
ATOM      2  C   UNL     1       3.014 -35.882  21.098  1.00  0.00     0.000 C 
BRANCH   2   3
ATOM      3  C   UNL     1       3.070 -34.586  21.926  1.00  0.00     0.000 C 
BRANCH   3   4
ATOM      4  C   UNL     1       4.316 -34.520  22.825  1.00  0.00     0.000 C 
BRANCH   4   5
ATOM      5  C   UNL     1       5.572 -35.113  22.151  1.00  0.00     0.000 C 
BRANCH   5   6
ATOM      6  C   UNL     1       6.123 -36.365  22.861  1.00  0.00     0.000 C 
BRANCH   6   7
ATOM      7  C   UNL     1       5.646 -36.551  24.314  1.00  0.00     0.000 C 
BRANCH   7   8
ATOM      8  C   UNL     1       4.909 -37.878  24.595  1.00  0.00     0.000 C 
BRANCH   8   9
ATOM      9  C   UNL     1       4.578 -38.140  26.076  1.00  0.00     0.000 C 
BRANCH   9  10
ATOM     10  C   UNL     1       3.614 -37.096  26.665  1.00  0.00     0.000 C 
BRANCH  10  11
ATOM     11  C   UNL     1       2.331 -37.733  27.223  1.00  0.00     0.000 C 
BRANCH  11  12
ATOM     12  C   UNL     1       1.403 -36.699  27.887  1.00  0.00     0.006 C 
BRANCH  12  13
ATOM     13  C   UNL     1       2.178 -35.491  28.428  1.00  0.00     0.053 C 
BRANCH  13  14
ATOM     14  C   UNL     1       1.339 -34.660  29.352  1.00  0.00     0.041 C 
ATOM     15  O   UNL     1       1.791 -34.308  30.474  1.00  0.00    -0.550 OA
ATOM     16  O   UNL     1       0.043 -34.307  28.987  1.00  0.00    -0.550 OA
ENDBRANCH  13  14
ENDBRANCH  12  13
ENDBRANCH  11  12
ENDBRANCH  10  11
ENDBRANCH   9  10
ENDBRANCH   8   9
ENDBRANCH   7   8
ENDBRANCH   6   7
ENDBRANCH   5   6
ENDBRANCH   4   5
ENDBRANCH   3   4
ENDBRANCH   2   3
ENDBRANCH   1   2
BRANCH   1  17
ATOM     17  C   UNL     1       1.476 -37.479  19.869  1.00  0.00     0.000 C 
BRANCH  17  18
ATOM     18  C   UNL     1       2.848 -37.939  19.342  1.00  0.00     0.000 C 
BRANCH  18  19
ATOM     19  C   UNL     1       3.878 -38.277  20.434  1.00  0.00     0.000 C 
BRANCH  19  20
ATOM     20  C   UNL     1       5.330 -38.034  19.985  1.00  0.00     0.000 C 
BRANCH  20  21
ATOM     21  C   UNL     1       5.426 -36.950  18.890  1.00  0.00     0.000 C 
BRANCH  21  22
ATOM     22  C   UNL     1       5.943 -35.591  19.395  1.00  0.00    -0.000 C 
BRANCH  22  23
ATOM     23  C   UNL     1       5.606 -34.432  18.445  1.00  0.00    -0.000 C 
BRANCH  23  24
ATOM     24  C   UNL     1       4.184 -34.522  17.862  1.00  0.00    -0.000 C 
BRANCH  24  25
ATOM     25  C   UNL     1       3.728 -35.938  17.447  1.00  0.00    -0.000 C 
BRANCH  25  26
ATOM     26  C   UNL     1       2.783 -36.003  16.232  1.00  0.00    -0.000 C 
BRANCH  26  27
ATOM     27  C   UNL     1       2.822 -37.364  15.516  1.00  0.00    -0.000 C 
BRANCH  27  28
ATOM     28  C   UNL     1       3.401 -37.274  14.091  1.00  0.00    -0.000 C 
BRANCH  28  29
ATOM     29  C   UNL     1       4.720 -38.038  13.878  1.00  0.00    -0.003 C 
ATOM     30  C   UNL     1       4.556 -39.554  13.982  1.00  0.00     0.004 C 
ENDBRANCH  28  29
ENDBRANCH  27  28
ENDBRANCH  26  27
ENDBRANCH  25  26
ENDBRANCH  24  25
ENDBRANCH  23  24
ENDBRANCH  22  23
ENDBRANCH  21  22
ENDBRANCH  20  21
ENDBRANCH  19  20
ENDBRANCH  18  19
ENDBRANCH  17  18
ENDBRANCH   1  17
TORSDOF 26
ENDMDL
MODEL 5
REMARK VINA RESULT:     4.602      2.179      4.872
REMARK INTER + INTRA:          11.002
REMARK INTER:                  10.744
REMARK INTRA:                   0.259
REMARK UNBOUND:                -0.595
REMARK SMILES CCCCCCCCCCCCCCCCCCCCCCCCCCCC(=O)[O-]
REMARK SMILES IDX 15 1 16 2 17 3 18 4 19 5 20 6 21 7 22 8 23 9 24 10 25 11
REMARK SMILES IDX 26 12 27 13 28 14 29 15 30 16 14 17 13 18 12 19 11 20 10 21
REMARK SMILES IDX 9 22 8 23 7 24 6 25 5 26 4 27 3 28 2 29 1 30
REMARK H PARENT
REMARK Flexibility Score: inf
ROOT
ATOM      1  C   UNL     1       6.078 -36.326  21.866  1.00  0.00     0.000 C 
ENDROOT
BRANCH   1   2
ATOM      2  C   UNL     1       4.853 -35.580  22.418  1.00  0.00     0.000 C 
BRANCH   2   3
ATOM      3  C   UNL     1       3.786 -35.330  21.338  1.00  0.00     0.000 C 
BRANCH   3   4
ATOM      4  C   UNL     1       4.332 -34.514  20.154  1.00  0.00     0.000 C 
BRANCH   4   5
ATOM      5  C   UNL     1       5.167 -35.368  19.175  1.00  0.00     0.000 C 
BRANCH   5   6
ATOM      6  C   UNL     1       4.412 -35.749  17.886  1.00  0.00     0.000 C 
BRANCH   6   7
ATOM      7  C   UNL     1       3.855 -37.186  17.860  1.00  0.00     0.000 C 
BRANCH   7   8
ATOM      8  C   UNL     1       2.620 -37.424  18.755  1.00  0.00     0.000 C 
BRANCH   8   9
ATOM      9  C   UNL     1       1.279 -37.518  18.005  1.00  0.00     0.000 C 
BRANCH   9  10
ATOM     10  C   UNL     1       1.451 -37.545  16.476  1.00  0.00     0.000 C 
BRANCH  10  11
ATOM     11  C   UNL     1       1.733 -36.150  15.894  1.00  0.00     0.000 C 
BRANCH  11  12
ATOM     12  C   UNL     1       2.556 -36.213  14.593  1.00  0.00     0.006 C 
BRANCH  12  13
ATOM     13  C   UNL     1       2.723 -37.650  14.084  1.00  0.00     0.053 C 
BRANCH  13  14
ATOM     14  C   UNL     1       4.162 -38.070  14.070  1.00  0.00     0.041 C 
ATOM     15  O   UNL     1       5.069 -37.217  13.877  1.00  0.00    -0.550 OA
ATOM     16  O   UNL     1       4.498 -39.411  14.232  1.00  0.00    -0.550 OA
ENDBRANCH  13  14
ENDBRANCH  12  13
ENDBRANCH  11  12
ENDBRANCH  10  11
ENDBRANCH   9  10
ENDBRANCH   8   9
ENDBRANCH   7   8
ENDBRANCH   6   7
ENDBRANCH   5   6
ENDBRANCH   4   5
ENDBRANCH   3   4
ENDBRANCH   2   3
ENDBRANCH   1   2
BRANCH   1  17
ATOM     17  C   UNL     1       5.855 -37.845  21.877  1.00  0.00     0.000 C 
BRANCH  17  18
ATOM     18  C   UNL     1       5.592 -38.417  20.471  1.00  0.00     0.000 C 
BRANCH  18  19
ATOM     19  C   UNL     1       6.103 -39.853  20.254  1.00  0.00     0.000 C 
BRANCH  19  20
ATOM     20  C   UNL     1       6.087 -40.696  21.541  1.00  0.00     0.000 C 
BRANCH  20  21
ATOM     21  C   UNL     1       5.392 -39.962  22.709  1.00  0.00     0.000 C 
BRANCH  21  22
ATOM     22  C   UNL     1       5.567 -40.648  24.076  1.00  0.00    -0.000 C 
BRANCH  22  23
ATOM     23  C   UNL     1       4.772 -39.961  25.196  1.00  0.00    -0.000 C 
BRANCH  23  24
ATOM     24  C   UNL     1       4.953 -38.432  25.216  1.00  0.00    -0.000 C 
BRANCH  24  25
ATOM     25  C   UNL     1       4.506 -37.729  26.516  1.00  0.00    -0.000 C 
BRANCH  25  26
ATOM     26  C   UNL     1       3.035 -37.950  26.920  1.00  0.00    -0.000 C 
BRANCH  26  27
ATOM     27  C   UNL     1       2.233 -36.640  26.999  1.00  0.00    -0.000 C 
BRANCH  27  28
ATOM     28  C   UNL     1       1.756 -36.317  28.428  1.00  0.00    -0.000 C 
BRANCH  28  29
ATOM     29  C   UNL     1       1.980 -34.861  28.873  1.00  0.00    -0.003 C 
ATOM     30  C   UNL     1       0.675 -34.101  29.113  1.00  0.00     0.004 C 
ENDBRANCH  28  29
ENDBRANCH  27  28
ENDBRANCH  26  27
ENDBRANCH  25  26
ENDBRANCH  24  25
ENDBRANCH  23  24
ENDBRANCH  22  23
ENDBRANCH  21  22
ENDBRANCH  20  21
ENDBRANCH  19  20
ENDBRANCH  18  19
ENDBRANCH  17  18
ENDBRANCH   1  17
TORSDOF 26
ENDMDL
MODEL 6
REMARK VINA RESULT:     4.607      2.158      6.654
REMARK INTER + INTRA:          11.015
REMARK INTER:                  12.079
REMARK INTRA:                  -1.064
REMARK UNBOUND:                -0.595
REMARK SMILES CCCCCCCCCCCCCCCCCCCCCCCCCCCC(=O)[O-]
REMARK SMILES IDX 15 1 16 2 17 3 18 4 19 5 20 6 21 7 22 8 23 9 24 10 25 11
REMARK SMILES IDX 26 12 27 13 28 14 29 15 30 16 14 17 13 18 12 19 11 20 10 21
REMARK SMILES IDX 9 22 8 23 7 24 6 25 5 26 4 27 3 28 2 29 1 30
REMARK H PARENT
REMARK Flexibility Score: inf
ROOT
ATOM      1  C   UNL     1       2.556 -36.028  21.642  1.00  0.00     0.000 C 
ENDROOT
BRANCH   1   2
ATOM      2  C   UNL     1       3.708 -35.028  21.454  1.00  0.00     0.000 C 
BRANCH   2   3
ATOM      3  C   UNL     1       3.978 -34.204  22.725  1.00  0.00     0.000 C 
BRANCH   3   4
ATOM      4  C   UNL     1       5.449 -34.279  23.170  1.00  0.00     0.000 C 
BRANCH   4   5
ATOM      5  C   UNL     1       6.124 -35.611  22.777  1.00  0.00     0.000 C 
BRANCH   5   6
ATOM      6  C   UNL     1       5.766 -36.785  23.709  1.00  0.00     0.000 C 
BRANCH   6   7
ATOM      7  C   UNL     1       4.781 -36.439  24.842  1.00  0.00     0.000 C 
BRANCH   7   8
ATOM      8  C   UNL     1       5.039 -37.169  26.178  1.00  0.00     0.000 C 
BRANCH   8   9
ATOM      9  C   UNL     1       4.017 -38.265  26.530  1.00  0.00     0.000 C 
BRANCH   9  10
ATOM     10  C   UNL     1       4.068 -39.462  25.565  1.00  0.00     0.000 C 
BRANCH  10  11
ATOM     11  C   UNL     1       5.296 -40.355  25.805  1.00  0.00     0.000 C 
BRANCH  11  12
ATOM     12  C   UNL     1       5.669 -41.187  24.563  1.00  0.00     0.006 C 
BRANCH  12  13
ATOM     13  C   UNL     1       5.865 -40.311  23.319  1.00  0.00     0.053 C 
BRANCH  13  14
ATOM     14  C   UNL     1       5.892 -41.129  22.063  1.00  0.00     0.041 C 
ATOM     15  O   UNL     1       5.740 -42.379  22.117  1.00  0.00    -0.550 OA
ATOM     16  O   UNL     1       6.125 -40.514  20.837  1.00  0.00    -0.550 OA
ENDBRANCH  13  14
ENDBRANCH  12  13
ENDBRANCH  11  12
ENDBRANCH  10  11
ENDBRANCH   9  10
ENDBRANCH   8   9
ENDBRANCH   7   8
ENDBRANCH   6   7
ENDBRANCH   5   6
ENDBRANCH   4   5
ENDBRANCH   3   4
ENDBRANCH   2   3
ENDBRANCH   1   2
BRANCH   1  17
ATOM     17  C   UNL     1       2.040 -36.541  20.290  1.00  0.00     0.000 C 
BRANCH  17  18
ATOM     18  C   UNL     1       2.648 -37.901  19.899  1.00  0.00     0.000 C 
BRANCH  18  19
ATOM     19  C   UNL     1       3.741 -38.416  20.851  1.00  0.00     0.000 C 
BRANCH  19  20
ATOM     20  C   UNL     1       5.164 -38.102  20.355  1.00  0.00     0.000 C 
BRANCH  20  21
ATOM     21  C   UNL     1       5.157 -37.278  19.049  1.00  0.00     0.000 C 
BRANCH  21  22
ATOM     22  C   UNL     1       5.917 -35.943  19.144  1.00  0.00    -0.000 C 
BRANCH  22  23
ATOM     23  C   UNL     1       4.987 -34.720  19.098  1.00  0.00    -0.000 C 
BRANCH  23  24
ATOM     24  C   UNL     1       4.267 -34.559  17.746  1.00  0.00    -0.000 C 
BRANCH  24  25
ATOM     25  C   UNL     1       3.800 -35.875  17.085  1.00  0.00    -0.000 C 
BRANCH  25  26
ATOM     26  C   UNL     1       2.282 -36.001  16.855  1.00  0.00    -0.000 C 
BRANCH  26  27
ATOM     27  C   UNL     1       1.934 -36.732  15.547  1.00  0.00    -0.000 C 
BRANCH  27  28
ATOM     28  C   UNL     1       2.994 -36.528  14.448  1.00  0.00    -0.000 C 
BRANCH  28  29
ATOM     29  C   UNL     1       3.593 -37.824  13.875  1.00  0.00    -0.003 C 
ATOM     30  C   UNL     1       4.101 -38.777  14.958  1.00  0.00     0.004 C 
ENDBRANCH  28  29
ENDBRANCH  27  28
ENDBRANCH  26  27
ENDBRANCH  25  26
ENDBRANCH  24  25
ENDBRANCH  23  24
ENDBRANCH  22  23
ENDBRANCH  21  22
ENDBRANCH  20  21
ENDBRANCH  19  20
ENDBRANCH  18  19
ENDBRANCH  17  18
ENDBRANCH   1  17
TORSDOF 26
ENDMDL
MODEL 7
REMARK VINA RESULT:     4.930      3.540      7.797
REMARK INTER + INTRA:          11.827
REMARK INTER:                  13.555
REMARK INTRA:                  -1.728
REMARK UNBOUND:                -0.595
REMARK SMILES CCCCCCCCCCCCCCCCCCCCCCCCCCCC(=O)[O-]
REMARK SMILES IDX 15 1 16 2 17 3 18 4 19 5 20 6 21 7 22 8 23 9 24 10 25 11
REMARK SMILES IDX 26 12 27 13 28 14 29 15 30 16 14 17 13 18 12 19 11 20 10 21
REMARK SMILES IDX 9 22 8 23 7 24 6 25 5 26 4 27 3 28 2 29 1 30
REMARK H PARENT
REMARK Flexibility Score: inf
ROOT
ATOM      1  C   UNL     1       5.403 -36.323  23.601  1.00  0.00     0.000 C 
ENDROOT
BRANCH   1   2
ATOM      2  C   UNL     1       6.036 -37.449  22.768  1.00  0.00     0.000 C 
BRANCH   2   3
ATOM      3  C   UNL     1       4.978 -38.330  22.079  1.00  0.00     0.000 C 
BRANCH   3   4
ATOM      4  C   UNL     1       5.512 -38.991  20.797  1.00  0.00     0.000 C 
BRANCH   4   5
ATOM      5  C   UNL     1       5.400 -40.531  20.828  1.00  0.00     0.000 C 
BRANCH   5   6
ATOM      6  C   UNL     1       6.125 -41.180  22.024  1.00  0.00     0.000 C 
BRANCH   6   7
ATOM      7  C   UNL     1       5.371 -42.353  22.681  1.00  0.00     0.000 C 
BRANCH   7   8
ATOM      8  C   UNL     1       4.972 -42.128  24.155  1.00  0.00     0.000 C 
BRANCH   8   9
ATOM      9  C   UNL     1       5.626 -40.908  24.830  1.00  0.00     0.000 C 
BRANCH   9  10
ATOM     10  C   UNL     1       4.637 -39.754  25.064  1.00  0.00     0.000 C 
BRANCH  10  11
ATOM     11  C   UNL     1       5.317 -38.512  25.663  1.00  0.00     0.000 C 
BRANCH  11  12
ATOM     12  C   UNL     1       4.308 -37.543  26.307  1.00  0.00     0.006 C 
BRANCH  12  13
ATOM     13  C   UNL     1       3.409 -38.245  27.333  1.00  0.00     0.053 C 
BRANCH  13  14
ATOM     14  C   UNL     1       2.006 -37.717  27.295  1.00  0.00     0.041 C 
ATOM     15  O   UNL     1       1.073 -38.432  26.841  1.00  0.00    -0.550 OA
ATOM     16  O   UNL     1       1.737 -36.422  27.726  1.00  0.00    -0.550 OA
ENDBRANCH  13  14
ENDBRANCH  12  13
ENDBRANCH  11  12
ENDBRANCH  10  11
ENDBRANCH   9  10
ENDBRANCH   8   9
ENDBRANCH   7   8
ENDBRANCH   6   7
ENDBRANCH   5   6
ENDBRANCH   4   5
ENDBRANCH   3   4
ENDBRANCH   2   3
ENDBRANCH   1   2
BRANCH   1  17
ATOM     17  C   UNL     1       5.854 -34.943  23.103  1.00  0.00     0.000 C 
BRANCH  17  18
ATOM     18  C   UNL     1       5.112 -34.500  21.828  1.00  0.00     0.000 C 
BRANCH  18  19
ATOM     19  C   UNL     1       5.610 -35.159  20.530  1.00  0.00     0.000 C 
BRANCH  19  20
ATOM     20  C   UNL     1       4.599 -35.045  19.375  1.00  0.00     0.000 C 
BRANCH  20  21
ATOM     21  C   UNL     1       4.848 -36.103  18.277  1.00  0.00     0.000 C 
BRANCH  21  22
ATOM     22  C   UNL     1       4.008 -37.383  18.436  1.00  0.00    -0.000 C 
BRANCH  22  23
ATOM     23  C   UNL     1       2.909 -37.249  19.502  1.00  0.00    -0.000 C 
BRANCH  23  24
ATOM     24  C   UNL     1       1.694 -38.156  19.235  1.00  0.00    -0.000 C 
BRANCH  24  25
ATOM     25  C   UNL     1       0.561 -37.516  18.404  1.00  0.00    -0.000 C 
BRANCH  25  26
ATOM     26  C   UNL     1       0.804 -37.455  16.884  1.00  0.00    -0.000 C 
BRANCH  26  27
ATOM     27  C   UNL     1       1.559 -36.188  16.449  1.00  0.00    -0.000 C 
BRANCH  27  28
ATOM     28  C   UNL     1       2.227 -36.334  15.069  1.00  0.00    -0.000 C 
BRANCH  28  29
ATOM     29  C   UNL     1       2.890 -37.699  14.810  1.00  0.00    -0.003 C 
ATOM     30  C   UNL     1       4.172 -37.594  13.984  1.00  0.00     0.004 C 
ENDBRANCH  28  29
ENDBRANCH  27  28
ENDBRANCH  26  27
ENDBRANCH  25  26
ENDBRANCH  24  25
ENDBRANCH  23  24
ENDBRANCH  22  23
ENDBRANCH  21  22
ENDBRANCH  20  21
ENDBRANCH  19  20
ENDBRANCH  18  19
ENDBRANCH  17  18
ENDBRANCH   1  17
TORSDOF 26
ENDMDL
MODEL 8
REMARK VINA RESULT:     5.039      2.832      6.000
REMARK INTER + INTRA:          12.103
REMARK INTER:                  12.685
REMARK INTRA:                  -0.582
REMARK UNBOUND:                -0.595
REMARK SMILES CCCCCCCCCCCCCCCCCCCCCCCCCCCC(=O)[O-]
REMARK SMILES IDX 15 1 16 2 17 3 18 4 19 5 20 6 21 7 22 8 23 9 24 10 25 11
REMARK SMILES IDX 26 12 27 13 28 14 29 15 30 16 14 17 13 18 12 19 11 20 10 21
REMARK SMILES IDX 9 22 8 23 7 24 6 25 5 26 4 27 3 28 2 29 1 30
REMARK H PARENT
REMARK Flexibility Score: inf
ROOT
ATOM      1  C   UNL     1       3.506 -35.390  21.419  1.00  0.00     0.000 C 
ENDROOT
BRANCH   1   2
ATOM      2  C   UNL     1       4.408 -34.833  20.306  1.00  0.00     0.000 C 
BRANCH   2   3
ATOM      3  C   UNL     1       5.660 -35.700  20.082  1.00  0.00     0.000 C 
BRANCH   3   4
ATOM      4  C   UNL     1       5.817 -36.790  21.155  1.00  0.00     0.000 C 
BRANCH   4   5
ATOM      5  C   UNL     1       5.485 -38.202  20.627  1.00  0.00     0.000 C 
BRANCH   5   6
ATOM      6  C   UNL     1       4.850 -38.204  19.221  1.00  0.00     0.000 C 
BRANCH   6   7
ATOM      7  C   UNL     1       3.344 -38.527  19.189  1.00  0.00     0.000 C 
BRANCH   7   8
ATOM      8  C   UNL     1       2.430 -37.443  19.801  1.00  0.00     0.000 C 
BRANCH   8   9
ATOM      9  C   UNL     1       0.971 -37.468  19.312  1.00  0.00     0.000 C 
BRANCH   9  10
ATOM     10  C   UNL     1       0.838 -37.942  17.855  1.00  0.00     0.000 C 
BRANCH  10  11
ATOM     11  C   UNL     1       1.032 -36.799  16.846  1.00  0.00     0.000 C 
BRANCH  11  12
ATOM     12  C   UNL     1       2.505 -36.624  16.432  1.00  0.00     0.006 C 
BRANCH  12  13
ATOM     13  C   UNL     1       3.090 -37.907  15.828  1.00  0.00     0.053 C 
BRANCH  13  14
ATOM     14  C   UNL     1       3.714 -37.656  14.488  1.00  0.00     0.041 C 
ATOM     15  O   UNL     1       4.396 -38.556  13.928  1.00  0.00    -0.550 OA
ATOM     16  O   UNL     1       3.571 -36.415  13.875  1.00  0.00    -0.550 OA
ENDBRANCH  13  14
ENDBRANCH  12  13
ENDBRANCH  11  12
ENDBRANCH  10  11
ENDBRANCH   9  10
ENDBRANCH   8   9
ENDBRANCH   7   8
ENDBRANCH   6   7
ENDBRANCH   5   6
ENDBRANCH   4   5
ENDBRANCH   3   4
ENDBRANCH   2   3
ENDBRANCH   1   2
BRANCH   1  17
ATOM     17  C   UNL     1       3.553 -34.499  22.669  1.00  0.00     0.000 C 
BRANCH  17  18
ATOM     18  C   UNL     1       4.870 -33.709  22.788  1.00  0.00     0.000 C 
BRANCH  18  19
ATOM     19  C   UNL     1       5.904 -34.322  23.748  1.00  0.00     0.000 C 
BRANCH  19  20
ATOM     20  C   UNL     1       5.951 -35.859  23.677  1.00  0.00     0.000 C 
BRANCH  20  21
ATOM     21  C   UNL     1       5.827 -36.509  25.073  1.00  0.00     0.000 C 
BRANCH  21  22
ATOM     22  C   UNL     1       4.838 -37.687  25.131  1.00  0.00    -0.000 C 
BRANCH  22  23
ATOM     23  C   UNL     1       4.690 -38.274  26.543  1.00  0.00    -0.000 C 
BRANCH  23  24
ATOM     24  C   UNL     1       3.225 -38.372  27.007  1.00  0.00    -0.000 C 
BRANCH  24  25
ATOM     25  C   UNL     1       2.395 -37.079  26.853  1.00  0.00    -0.000 C 
BRANCH  25  26
ATOM     26  C   UNL     1       1.745 -36.547  28.146  1.00  0.00    -0.000 C 
BRANCH  26  27
ATOM     27  C   UNL     1       2.032 -35.056  28.389  1.00  0.00    -0.000 C 
BRANCH  27  28
ATOM     28  C   UNL     1       1.675 -34.605  29.819  1.00  0.00    -0.000 C 
BRANCH  28  29
ATOM     29  C   UNL     1       0.376 -33.789  29.936  1.00  0.00    -0.003 C 
ATOM     30  C   UNL     1      -0.676 -34.188  28.900  1.00  0.00     0.004 C 
ENDBRANCH  28  29
ENDBRANCH  27  28
ENDBRANCH  26  27
ENDBRANCH  25  26
ENDBRANCH  24  25
ENDBRANCH  23  24
ENDBRANCH  22  23
ENDBRANCH  21  22
ENDBRANCH  20  21
ENDBRANCH  19  20
ENDBRANCH  18  19
ENDBRANCH  17  18
ENDBRANCH   1  17
TORSDOF 26
ENDMDL
