MODEL 1
REMARK VINA RESULT:    -4.246      0.000      0.000
REMARK INTER + INTRA:          -4.616
REMARK INTER:                  -4.494
REMARK INTRA:                  -0.121
REMARK UNBOUND:                -0.121
REMARK SMILES C=C(C)[C@@H]1CC=C(C)CC1
REMARK SMILES IDX 8 1 7 2 6 3 5 4 4 5 10 6 9 7 2 8 1 9 3 10
REMARK H PARENT
REMARK Flexibility Score: inf
ROOT
ATOM      1  C   UNL     1     143.419 137.967 131.768  1.00  0.00     0.039 C 
ATOM      2  C   UNL     1     142.520 137.951 132.974  1.00  0.00    -0.077 C 
ATOM      3  C   UNL     1     143.014 138.356 134.163  1.00  0.00    -0.027 C 
ATOM      4  C   UNL     1     142.178 138.427 135.418  1.00  0.00     0.035 C 
ATOM      5  C   UNL     1     140.947 137.506 135.350  1.00  0.00     0.018 C 
ATOM      6  C   UNL     1     140.213 137.715 134.017  1.00  0.00     0.013 C 
ATOM      7  C   UNL     1     141.131 137.356 132.843  1.00  0.00     0.031 C 
ENDROOT
BRANCH   5   8
ATOM      8  C   UNL     1     140.023 137.716 136.542  1.00  0.00    -0.077 C 
ATOM      9  C   UNL     1     140.119 136.953 137.645  1.00  0.00     0.008 C 
ATOM     10  C   UNL     1     138.974 138.798 136.504  1.00  0.00     0.039 C 
ENDBRANCH   5   8
TORSDOF 1
ENDMDL
MODEL 2
REMARK VINA RESULT:    -4.244      3.817      5.007
REMARK INTER + INTRA:          -4.613
REMARK INTER:                  -4.492
REMARK INTRA:                  -0.122
REMARK UNBOUND:                -0.121
REMARK SMILES C=C(C)[C@@H]1CC=C(C)CC1
REMARK SMILES IDX 8 1 7 2 6 3 5 4 4 5 10 6 9 7 2 8 1 9 3 10
REMARK H PARENT
REMARK Flexibility Score: inf
ROOT
ATOM      1  C   UNL     1     138.028 138.742 131.831  1.00  0.00     0.039 C 
ATOM      2  C   UNL     1     137.993 139.653 133.027  1.00  0.00    -0.077 C 
ATOM      3  C   UNL     1     138.387 139.174 134.227  1.00  0.00    -0.027 C 
ATOM      4  C   UNL     1     138.439 140.022 135.473  1.00  0.00     0.035 C 
ATOM      5  C   UNL     1     137.514 141.248 135.382  1.00  0.00     0.018 C 
ATOM      6  C   UNL     1     137.736 141.970 134.044  1.00  0.00     0.013 C 
ATOM      7  C   UNL     1     137.395 141.038 132.875  1.00  0.00     0.031 C 
ENDROOT
BRANCH   5   8
ATOM      8  C   UNL     1     137.706 142.186 136.567  1.00  0.00    -0.077 C 
ATOM      9  C   UNL     1     136.979 142.053 137.690  1.00  0.00     0.008 C 
ATOM     10  C   UNL     1     138.729 143.291 136.498  1.00  0.00     0.039 C 
ENDBRANCH   5   8
TORSDOF 1
ENDMDL
MODEL 3
REMARK VINA RESULT:    -4.203      6.292      7.106
REMARK INTER + INTRA:          -4.570
REMARK INTER:                  -4.449
REMARK INTRA:                  -0.122
REMARK UNBOUND:                -0.121
REMARK SMILES C=C(C)[C@@H]1CC=C(C)CC1
REMARK SMILES IDX 8 1 7 2 6 3 5 4 4 5 10 6 9 7 2 8 1 9 3 10
REMARK H PARENT
REMARK Flexibility Score: inf
ROOT
ATOM      1  C   UNL     1     138.962 144.362 131.749  1.00  0.00     0.039 C 
ATOM      2  C   UNL     1     139.829 144.330 132.978  1.00  0.00    -0.077 C 
ATOM      3  C   UNL     1     139.285 143.945 134.153  1.00  0.00    -0.027 C 
ATOM      4  C   UNL     1     140.082 143.829 135.428  1.00  0.00     0.035 C 
ATOM      5  C   UNL     1     141.357 144.690 135.398  1.00  0.00     0.018 C 
ATOM      6  C   UNL     1     142.116 144.450 134.083  1.00  0.00     0.013 C 
ATOM      7  C   UNL     1     141.248 144.857 132.887  1.00  0.00     0.031 C 
ENDROOT
BRANCH   5   8
ATOM      8  C   UNL     1     142.238 144.431 136.613  1.00  0.00    -0.077 C 
ATOM      9  C   UNL     1     142.113 145.159 137.736  1.00  0.00     0.008 C 
ATOM     10  C   UNL     1     143.276 143.338 136.575  1.00  0.00     0.039 C 
ENDBRANCH   5   8
TORSDOF 1
ENDMDL
MODEL 4
REMARK VINA RESULT:    -4.192      3.718      4.874
REMARK INTER + INTRA:          -4.558
REMARK INTER:                  -4.436
REMARK INTRA:                  -0.122
REMARK UNBOUND:                -0.121
REMARK SMILES C=C(C)[C@@H]1CC=C(C)CC1
REMARK SMILES IDX 8 1 7 2 6 3 5 4 4 5 10 6 9 7 2 8 1 9 3 10
REMARK H PARENT
REMARK Flexibility Score: inf
ROOT
ATOM      1  C   UNL     1     144.371 143.237 131.811  1.00  0.00     0.039 C 
ATOM      2  C   UNL     1     144.322 142.349 133.024  1.00  0.00    -0.077 C 
ATOM      3  C   UNL     1     143.978 142.885 134.215  1.00  0.00    -0.027 C 
ATOM      4  C   UNL     1     143.848 142.069 135.477  1.00  0.00     0.035 C 
ATOM      5  C   UNL     1     144.652 140.758 135.408  1.00  0.00     0.018 C 
ATOM      6  C   UNL     1     144.359 140.037 134.083  1.00  0.00     0.013 C 
ATOM      7  C   UNL     1     144.785 140.910 132.897  1.00  0.00     0.031 C 
ENDROOT
BRANCH   5   8
ATOM      8  C   UNL     1     144.375 139.865 136.610  1.00  0.00    -0.077 C 
ATOM      9  C   UNL     1     145.101 139.962 137.737  1.00  0.00     0.008 C 
ATOM     10  C   UNL     1     143.264 138.847 136.554  1.00  0.00     0.039 C 
ENDBRANCH   5   8
TORSDOF 1
ENDMDL
MODEL 5
REMARK VINA RESULT:    -4.171      6.226      6.971
REMARK INTER + INTRA:          -4.537
REMARK INTER:                  -4.413
REMARK INTRA:                  -0.124
REMARK UNBOUND:                -0.121
REMARK SMILES C=C(C)[C@@H]1CC=C(C)CC1
REMARK SMILES IDX 8 1 7 2 6 3 5 4 4 5 10 6 9 7 2 8 1 9 3 10
REMARK H PARENT
REMARK Flexibility Score: inf
ROOT
ATOM      1  C   UNL     1     138.390 143.976 131.310  1.00  0.00     0.039 C 
ATOM      2  C   UNL     1     139.264 144.085 132.530  1.00  0.00    -0.077 C 
ATOM      3  C   UNL     1     140.445 144.734 132.434  1.00  0.00    -0.027 C 
ATOM      4  C   UNL     1     141.365 144.943 133.610  1.00  0.00     0.035 C 
ATOM      5  C   UNL     1     141.123 143.914 134.729  1.00  0.00     0.018 C 
ATOM      6  C   UNL     1     139.619 143.822 135.035  1.00  0.00     0.013 C 
ATOM      7  C   UNL     1     138.854 143.352 133.793  1.00  0.00     0.031 C 
ENDROOT
BRANCH   5   8
ATOM      8  C   UNL     1     141.933 144.241 135.977  1.00  0.00    -0.077 C 
ATOM      9  C   UNL     1     141.504 145.146 136.873  1.00  0.00     0.008 C 
ATOM     10  C   UNL     1     143.244 143.542 136.231  1.00  0.00     0.039 C 
ENDBRANCH   5   8
TORSDOF 1
ENDMDL
MODEL 6
REMARK VINA RESULT:    -4.169      3.507      4.866
REMARK INTER + INTRA:          -4.534
REMARK INTER:                  -4.410
REMARK INTRA:                  -0.124
REMARK UNBOUND:                -0.121
REMARK SMILES C=C(C)[C@@H]1CC=C(C)CC1
REMARK SMILES IDX 8 1 7 2 6 3 5 4 4 5 10 6 9 7 2 8 1 9 3 10
REMARK H PARENT
REMARK Flexibility Score: inf
ROOT
ATOM      1  C   UNL     1     138.170 138.382 131.362  1.00  0.00     0.039 C 
ATOM      2  C   UNL     1     138.077 139.273 132.570  1.00  0.00    -0.077 C 
ATOM      3  C   UNL     1     137.432 140.455 132.464  1.00  0.00    -0.027 C 
ATOM      4  C   UNL     1     137.239 141.393 133.630  1.00  0.00     0.035 C 
ATOM      5  C   UNL     1     138.279 141.162 134.741  1.00  0.00     0.018 C 
ATOM      6  C   UNL     1     138.368 139.663 135.067  1.00  0.00     0.013 C 
ATOM      7  C   UNL     1     138.822 138.877 133.831  1.00  0.00     0.031 C 
ENDROOT
BRANCH   5   8
ATOM      8  C   UNL     1     137.969 141.991 135.980  1.00  0.00    -0.077 C 
ATOM      9  C   UNL     1     137.056 141.588 136.882  1.00  0.00     0.008 C 
ATOM     10  C   UNL     1     138.693 143.291 136.220  1.00  0.00     0.039 C 
ENDBRANCH   5   8
TORSDOF 1
ENDMDL
MODEL 7
REMARK VINA RESULT:    -4.155      0.630      2.009
REMARK INTER + INTRA:          -4.519
REMARK INTER:                  -4.398
REMARK INTRA:                  -0.121
REMARK UNBOUND:                -0.121
REMARK SMILES C=C(C)[C@@H]1CC=C(C)CC1
REMARK SMILES IDX 8 1 7 2 6 3 5 4 4 5 10 6 9 7 2 8 1 9 3 10
REMARK H PARENT
REMARK Flexibility Score: inf
ROOT
ATOM      1  C   UNL     1     143.714 138.094 131.383  1.00  0.00     0.039 C 
ATOM      2  C   UNL     1     142.834 138.025 132.601  1.00  0.00    -0.077 C 
ATOM      3  C   UNL     1     141.648 137.384 132.516  1.00  0.00    -0.027 C 
ATOM      4  C   UNL     1     140.720 137.214 133.693  1.00  0.00     0.035 C 
ATOM      5  C   UNL     1     140.966 138.270 134.785  1.00  0.00     0.018 C 
ATOM      6  C   UNL     1     142.469 138.358 135.096  1.00  0.00     0.013 C 
ATOM      7  C   UNL     1     143.245 138.788 133.845  1.00  0.00     0.031 C 
ENDROOT
BRANCH   5   8
ATOM      8  C   UNL     1     140.148 137.984 136.037  1.00  0.00    -0.077 C 
ATOM      9  C   UNL     1     138.996 138.633 136.284  1.00  0.00     0.008 C 
ATOM     10  C   UNL     1     140.621 136.954 137.031  1.00  0.00     0.039 C 
ENDBRANCH   5   8
TORSDOF 1
ENDMDL
MODEL 8
REMARK VINA RESULT:    -4.133      4.858      5.697
REMARK INTER + INTRA:          -4.496
REMARK INTER:                  -4.371
REMARK INTRA:                  -0.126
REMARK UNBOUND:                -0.121
REMARK SMILES C=C(C)[C@@H]1CC=C(C)CC1
REMARK SMILES IDX 8 1 7 2 6 3 5 4 4 5 10 6 9 7 2 8 1 9 3 10
REMARK H PARENT
REMARK Flexibility Score: inf
ROOT
ATOM      1  C   UNL     1     139.046 144.722 131.394  1.00  0.00     0.039 C 
ATOM      2  C   UNL     1     138.740 143.774 132.520  1.00  0.00    -0.077 C 
ATOM      3  C   UNL     1     139.223 144.042 133.752  1.00  0.00    -0.027 C 
ATOM      4  C   UNL     1     138.927 143.183 134.956  1.00  0.00     0.035 C 
ATOM      5  C   UNL     1     138.529 141.749 134.564  1.00  0.00     0.018 C 
ATOM      6  C   UNL     1     137.458 141.789 133.462  1.00  0.00     0.013 C 
ATOM      7  C   UNL     1     138.011 142.480 132.210  1.00  0.00     0.031 C 
ENDROOT
BRANCH   5   8
ATOM      8  C   UNL     1     138.066 140.945 135.771  1.00  0.00    -0.077 C 
ATOM      9  C   UNL     1     137.203 141.458 136.665  1.00  0.00     0.008 C 
ATOM     10  C   UNL     1     138.573 139.541 135.983  1.00  0.00     0.039 C 
ENDBRANCH   5   8
TORSDOF 1
ENDMDL
MODEL 9
REMARK VINA RESULT:    -4.117      0.983      4.704
REMARK INTER + INTRA:          -4.479
REMARK INTER:                  -4.353
REMARK INTRA:                  -0.127
REMARK UNBOUND:                -0.121
REMARK SMILES C=C(C)[C@@H]1CC=C(C)CC1
REMARK SMILES IDX 8 1 7 2 6 3 5 4 4 5 10 6 9 7 2 8 1 9 3 10
REMARK H PARENT
REMARK Flexibility Score: inf
ROOT
ATOM      1  C   UNL     1     140.193 137.265 136.973  1.00  0.00     0.039 C 
ATOM      2  C   UNL     1     141.038 137.664 135.795  1.00  0.00    -0.077 C 
ATOM      3  C   UNL     1     140.677 137.251 134.561  1.00  0.00    -0.027 C 
ATOM      4  C   UNL     1     141.427 137.641 133.312  1.00  0.00     0.035 C 
ATOM      5  C   UNL     1     142.881 138.050 133.610  1.00  0.00     0.018 C 
ATOM      6  C   UNL     1     142.912 139.050 134.777  1.00  0.00     0.013 C 
ATOM      7  C   UNL     1     142.338 138.404 136.044  1.00  0.00     0.031 C 
ENDROOT
BRANCH   5   8
ATOM      8  C   UNL     1     143.573 138.606 132.372  1.00  0.00    -0.077 C 
ATOM      9  C   UNL     1     143.577 137.932 131.210  1.00  0.00     0.008 C 
ATOM     10  C   UNL     1     144.271 139.941 132.433  1.00  0.00     0.039 C 
ENDBRANCH   5   8
TORSDOF 1
ENDMDL
