MODEL 1
REMARK VINA RESULT:    -2.540      0.000      0.000
REMARK INTER + INTRA:          -5.381
REMARK INTER:                  -4.619
REMARK INTRA:                  -0.761
REMARK UNBOUND:                -0.761
REMARK SMILES CCCCCCCCCCCCCC[C@@H](C)C(=O)[O-]
REMARK SMILES IDX 9 1 10 2 11 3 12 4 13 5 14 6 15 7 16 8 17 9 18 10 19 11 8 12
REMARK SMILES IDX 7 13 6 14 5 15 4 16 3 17 2 18 1 19
REMARK H PARENT
REMARK Flexibility Score: inf
ROOT
ATOM      1  C   UNL     1       8.307 -21.775  15.423  1.00  0.00     0.000 C 
ENDROOT
BRANCH   1   2
ATOM      2  C   UNL     1       8.641 -22.121  16.884  1.00  0.00     0.000 C 
BRANCH   2   3
ATOM      3  C   UNL     1       7.384 -22.293  17.751  1.00  0.00     0.000 C 
BRANCH   3   4
ATOM      4  C   UNL     1       6.386 -21.133  17.588  1.00  0.00     0.000 C 
BRANCH   4   5
ATOM      5  C   UNL     1       4.937 -21.617  17.414  1.00  0.00     0.001 C 
BRANCH   5   6
ATOM      6  C   UNL     1       4.812 -22.746  16.375  1.00  0.00     0.009 C 
BRANCH   6   7
ATOM      7  C   UNL     1       3.350 -22.971  15.937  1.00  0.00     0.032 C 
ATOM      8  C   UNL     1       2.445 -21.856  16.473  1.00  0.00     0.014 C 
BRANCH   7   9
ATOM      9  C   UNL     1       3.227 -23.052  14.438  1.00  0.00     0.044 C 
ATOM     10  O   UNL     1       2.094 -23.086  13.889  1.00  0.00    -0.550 OA
ATOM     11  O   UNL     1       4.371 -23.091  13.651  1.00  0.00    -0.550 OA
ENDBRANCH   7   9
ENDBRANCH   6   7
ENDBRANCH   5   6
ENDBRANCH   4   5
ENDBRANCH   3   4
ENDBRANCH   2   3
ENDBRANCH   1   2
BRANCH   1  12
ATOM     12  C   UNL     1       8.750 -22.873  14.442  1.00  0.00     0.000 C 
BRANCH  12  13
ATOM     13  C   UNL     1       8.457 -22.511  12.974  1.00  0.00    -0.000 C 
BRANCH  13  14
ATOM     14  C   UNL     1       6.953 -22.501  12.655  1.00  0.00    -0.000 C 
BRANCH  14  15
ATOM     15  C   UNL     1       6.608 -21.580  11.472  1.00  0.00    -0.000 C 
BRANCH  15  16
ATOM     16  C   UNL     1       7.738 -21.498  10.429  1.00  0.00    -0.000 C 
BRANCH  16  17
ATOM     17  C   UNL     1       8.091 -20.074   9.953  1.00  0.00    -0.000 C 
BRANCH  17  18
ATOM     18  C   UNL     1       6.997 -19.019  10.191  1.00  0.00    -0.003 C 
ATOM     19  C   UNL     1       6.260 -18.625   8.911  1.00  0.00     0.004 C 
ENDBRANCH  17  18
ENDBRANCH  16  17
ENDBRANCH  15  16
ENDBRANCH  14  15
ENDBRANCH  13  14
ENDBRANCH  12  13
ENDBRANCH   1  12
TORSDOF 14
ENDMDL
MODEL 2
REMARK VINA RESULT:    -2.284      2.109      6.634
REMARK INTER + INTRA:          -4.915
REMARK INTER:                  -4.519
REMARK INTRA:                  -0.396
REMARK UNBOUND:                -0.761
REMARK SMILES CCCCCCCCCCCCCC[C@@H](C)C(=O)[O-]
REMARK SMILES IDX 9 1 10 2 11 3 12 4 13 5 14 6 15 7 16 8 17 9 18 10 19 11 8 12
REMARK SMILES IDX 7 13 6 14 5 15 4 16 3 17 2 18 1 19
REMARK H PARENT
REMARK Flexibility Score: inf
ROOT
ATOM      1  C   UNL     1       8.707 -22.417  15.514  1.00  0.00     0.000 C 
ENDROOT
BRANCH   1   2
ATOM      2  C   UNL     1       7.546 -23.117  14.789  1.00  0.00     0.000 C 
BRANCH   2   3
ATOM      3  C   UNL     1       7.500 -22.784  13.290  1.00  0.00     0.000 C 
BRANCH   3   4
ATOM      4  C   UNL     1       8.139 -21.422  12.965  1.00  0.00     0.000 C 
BRANCH   4   5
ATOM      5  C   UNL     1       8.937 -21.440  11.651  1.00  0.00     0.001 C 
BRANCH   5   6
ATOM      6  C   UNL     1       8.669 -20.201  10.778  1.00  0.00     0.009 C 
BRANCH   6   7
ATOM      7  C   UNL     1       8.053 -20.574   9.414  1.00  0.00     0.032 C 
ATOM      8  C   UNL     1       8.969 -20.132   8.267  1.00  0.00     0.014 C 
BRANCH   7   9
ATOM      9  C   UNL     1       7.784 -22.052   9.313  1.00  0.00     0.044 C 
ATOM     10  O   UNL     1       6.728 -22.545   9.791  1.00  0.00    -0.550 OA
ATOM     11  O   UNL     1       8.706 -22.883   8.690  1.00  0.00    -0.550 OA
ENDBRANCH   7   9
ENDBRANCH   6   7
ENDBRANCH   5   6
ENDBRANCH   4   5
ENDBRANCH   3   4
ENDBRANCH   2   3
ENDBRANCH   1   2
BRANCH   1  12
ATOM     12  C   UNL     1       8.678 -22.648  17.034  1.00  0.00     0.000 C 
BRANCH  12  13
ATOM     13  C   UNL     1       7.247 -22.701  17.600  1.00  0.00    -0.000 C 
BRANCH  13  14
ATOM     14  C   UNL     1       6.384 -21.515  17.142  1.00  0.00    -0.000 C 
BRANCH  14  15
ATOM     15  C   UNL     1       4.878 -21.824  17.198  1.00  0.00    -0.000 C 
BRANCH  15  16
ATOM     16  C   UNL     1       4.432 -22.820  16.112  1.00  0.00    -0.000 C 
BRANCH  16  17
ATOM     17  C   UNL     1       2.961 -22.690  15.665  1.00  0.00    -0.000 C 
BRANCH  17  18
ATOM     18  C   UNL     1       2.101 -21.749  16.526  1.00  0.00    -0.003 C 
ATOM     19  C   UNL     1       0.604 -22.030  16.403  1.00  0.00     0.004 C 
ENDBRANCH  17  18
ENDBRANCH  16  17
ENDBRANCH  15  16
ENDBRANCH  14  15
ENDBRANCH  13  14
ENDBRANCH  12  13
ENDBRANCH   1  12
TORSDOF 14
ENDMDL
MODEL 3
REMARK VINA RESULT:    -1.822      5.857     10.521
REMARK INTER + INTRA:          -4.074
REMARK INTER:                  -3.730
REMARK INTRA:                  -0.344
REMARK UNBOUND:                -0.761
REMARK SMILES CCCCCCCCCCCCCC[C@@H](C)C(=O)[O-]
REMARK SMILES IDX 9 1 10 2 11 3 12 4 13 5 14 6 15 7 16 8 17 9 18 10 19 11 8 12
REMARK SMILES IDX 7 13 6 14 5 15 4 16 3 17 2 18 1 19
REMARK H PARENT
REMARK Flexibility Score: inf
ROOT
ATOM      1  C   UNL     1      -0.342 -22.402  16.300  1.00  0.00     0.000 C 
ENDROOT
BRANCH   1   2
ATOM      2  C   UNL     1       0.911 -23.009  15.646  1.00  0.00     0.000 C 
BRANCH   2   3
ATOM      3  C   UNL     1       2.190 -22.226  15.984  1.00  0.00     0.000 C 
BRANCH   3   4
ATOM      4  C   UNL     1       3.449 -23.111  15.968  1.00  0.00     0.000 C 
BRANCH   4   5
ATOM      5  C   UNL     1       4.716 -22.345  16.383  1.00  0.00     0.001 C 
BRANCH   5   6
ATOM      6  C   UNL     1       5.949 -22.749  15.554  1.00  0.00     0.009 C 
BRANCH   6   7
ATOM      7  C   UNL     1       7.221 -22.002  16.005  1.00  0.00     0.032 C 
ATOM      8  C   UNL     1       8.031 -22.855  16.988  1.00  0.00     0.014 C 
BRANCH   7   9
ATOM      9  C   UNL     1       8.082 -21.618  14.832  1.00  0.00     0.044 C 
ATOM     10  O   UNL     1       8.314 -22.444  13.909  1.00  0.00    -0.550 OA
ATOM     11  O   UNL     1       8.631 -20.344  14.762  1.00  0.00    -0.550 OA
ENDBRANCH   7   9
ENDBRANCH   6   7
ENDBRANCH   5   6
ENDBRANCH   4   5
ENDBRANCH   3   4
ENDBRANCH   2   3
ENDBRANCH   1   2
BRANCH   1  12
ATOM     12  C   UNL     1      -1.633 -23.125  15.883  1.00  0.00     0.000 C 
BRANCH  12  13
ATOM     13  C   UNL     1      -2.886 -22.244  16.045  1.00  0.00    -0.000 C 
BRANCH  13  14
ATOM     14  C   UNL     1      -4.000 -22.938  16.845  1.00  0.00    -0.000 C 
BRANCH  14  15
ATOM     15  C   UNL     1      -5.401 -22.641  16.285  1.00  0.00    -0.000 C 
BRANCH  15  16
ATOM     16  C   UNL     1      -6.398 -22.200  17.373  1.00  0.00    -0.000 C 
BRANCH  16  17
ATOM     17  C   UNL     1      -7.887 -22.322  16.989  1.00  0.00    -0.000 C 
BRANCH  17  18
ATOM     18  C   UNL     1      -8.823 -22.737  18.138  1.00  0.00    -0.003 C 
ATOM     19  C   UNL     1      -8.115 -22.795  19.491  1.00  0.00     0.004 C 
ENDBRANCH  17  18
ENDBRANCH  16  17
ENDBRANCH  15  16
ENDBRANCH  14  15
ENDBRANCH  13  14
ENDBRANCH  12  13
ENDBRANCH   1  12
TORSDOF 14
ENDMDL
MODEL 4
REMARK VINA RESULT:    -1.736      8.007     11.029
REMARK INTER + INTRA:          -3.918
REMARK INTER:                  -3.598
REMARK INTRA:                  -0.320
REMARK UNBOUND:                -0.761
REMARK SMILES CCCCCCCCCCCCCC[C@@H](C)C(=O)[O-]
REMARK SMILES IDX 9 1 10 2 11 3 12 4 13 5 14 6 15 7 16 8 17 9 18 10 19 11 8 12
REMARK SMILES IDX 7 13 6 14 5 15 4 16 3 17 2 18 1 19
REMARK H PARENT
REMARK Flexibility Score: inf
ROOT
ATOM      1  C   UNL     1      -2.379 -22.173  16.054  1.00  0.00     0.000 C 
ENDROOT
BRANCH   1   2
ATOM      2  C   UNL     1      -3.630 -23.066  16.006  1.00  0.00     0.000 C 
BRANCH   2   3
ATOM      3  C   UNL     1      -4.611 -22.768  17.151  1.00  0.00     0.000 C 
BRANCH   3   4
ATOM      4  C   UNL     1      -6.082 -22.917  16.727  1.00  0.00     0.000 C 
BRANCH   4   5
ATOM      5  C   UNL     1      -7.032 -23.070  17.926  1.00  0.00     0.001 C 
BRANCH   5   6
ATOM      6  C   UNL     1      -7.999 -21.881  18.070  1.00  0.00     0.009 C 
BRANCH   6   7
ATOM      7  C   UNL     1      -9.344 -22.137  17.359  1.00  0.00     0.032 C 
ATOM      8  C   UNL     1     -10.324 -22.852  18.296  1.00  0.00     0.014 C 
BRANCH   7   9
ATOM      9  C   UNL     1      -9.958 -20.858  16.857  1.00  0.00     0.044 C 
ATOM     10  O   UNL     1      -9.775 -20.482  15.668  1.00  0.00    -0.550 OA
ATOM     11  O   UNL     1     -10.733 -20.080  17.708  1.00  0.00    -0.550 OA
ENDBRANCH   7   9
ENDBRANCH   6   7
ENDBRANCH   5   6
ENDBRANCH   4   5
ENDBRANCH   3   4
ENDBRANCH   2   3
ENDBRANCH   1   2
BRANCH   1  12
ATOM     12  C   UNL     1      -1.074 -22.983  15.998  1.00  0.00     0.000 C 
BRANCH  12  13
ATOM     13  C   UNL     1       0.163 -22.144  16.370  1.00  0.00    -0.000 C 
BRANCH  13  14
ATOM     14  C   UNL     1       1.477 -22.775  15.881  1.00  0.00    -0.000 C 
BRANCH  14  15
ATOM     15  C   UNL     1       2.703 -21.898  16.189  1.00  0.00    -0.000 C 
BRANCH  15  16
ATOM     16  C   UNL     1       4.007 -22.709  16.290  1.00  0.00    -0.000 C 
BRANCH  16  17
ATOM     17  C   UNL     1       5.142 -22.031  17.086  1.00  0.00    -0.000 C 
BRANCH  17  18
ATOM     18  C   UNL     1       6.525 -22.075  16.412  1.00  0.00    -0.003 C 
ATOM     19  C   UNL     1       7.658 -22.364  17.395  1.00  0.00     0.004 C 
ENDBRANCH  17  18
ENDBRANCH  16  17
ENDBRANCH  15  16
ENDBRANCH  14  15
ENDBRANCH  13  14
ENDBRANCH  12  13
ENDBRANCH   1  12
TORSDOF 14
ENDMDL
MODEL 5
REMARK VINA RESULT:    -1.447     12.270     15.706
REMARK INTER + INTRA:          -3.393
REMARK INTER:                  -3.742
REMARK INTRA:                   0.349
REMARK UNBOUND:                -0.761
REMARK SMILES CCCCCCCCCCCCCC[C@@H](C)C(=O)[O-]
REMARK SMILES IDX 9 1 10 2 11 3 12 4 13 5 14 6 15 7 16 8 17 9 18 10 19 11 8 12
REMARK SMILES IDX 7 13 6 14 5 15 4 16 3 17 2 18 1 19
REMARK H PARENT
REMARK Flexibility Score: inf
ROOT
ATOM      1  C   UNL     1      -4.596 -21.931  16.143  1.00  0.00     0.000 C 
ENDROOT
BRANCH   1   2
ATOM      2  C   UNL     1      -5.121 -23.125  16.958  1.00  0.00     0.000 C 
BRANCH   2   3
ATOM      3  C   UNL     1      -6.572 -22.929  17.424  1.00  0.00     0.000 C 
BRANCH   3   4
ATOM      4  C   UNL     1      -6.738 -23.113  18.943  1.00  0.00     0.000 C 
BRANCH   4   5
ATOM      5  C   UNL     1      -8.036 -22.488  19.478  1.00  0.00     0.001 C 
BRANCH   5   6
ATOM      6  C   UNL     1      -8.365 -22.942  20.911  1.00  0.00     0.009 C 
BRANCH   6   7
ATOM      7  C   UNL     1      -9.576 -22.185  21.497  1.00  0.00     0.032 C 
ATOM      8  C   UNL     1     -10.828 -23.069  21.476  1.00  0.00     0.014 C 
BRANCH   7   9
ATOM      9  C   UNL     1      -9.307 -21.712  22.900  1.00  0.00     0.044 C 
ATOM     10  O   UNL     1      -9.716 -20.584  23.286  1.00  0.00    -0.550 OA
ATOM     11  O   UNL     1      -8.601 -22.521  23.781  1.00  0.00    -0.550 OA
ENDBRANCH   7   9
ENDBRANCH   6   7
ENDBRANCH   5   6
ENDBRANCH   4   5
ENDBRANCH   3   4
ENDBRANCH   2   3
ENDBRANCH   1   2
BRANCH   1  12
ATOM     12  C   UNL     1      -5.720 -20.977  15.704  1.00  0.00     0.000 C 
BRANCH  12  13
ATOM     13  C   UNL     1      -6.982 -21.724  15.234  1.00  0.00    -0.000 C 
BRANCH  13  14
ATOM     14  C   UNL     1      -8.255 -20.869  15.350  1.00  0.00    -0.000 C 
BRANCH  14  15
ATOM     15  C   UNL     1      -9.122 -20.927  14.081  1.00  0.00    -0.000 C 
BRANCH  15  16
ATOM     16  C   UNL     1     -10.581 -20.507  14.335  1.00  0.00    -0.000 C 
BRANCH  16  17
ATOM     17  C   UNL     1     -11.124 -20.836  15.741  1.00  0.00    -0.000 C 
BRANCH  17  18
ATOM     18  C   UNL     1     -11.092 -19.667  16.740  1.00  0.00    -0.003 C 
ATOM     19  C   UNL     1     -10.599 -20.081  18.126  1.00  0.00     0.004 C 
ENDBRANCH  17  18
ENDBRANCH  16  17
ENDBRANCH  15  16
ENDBRANCH  14  15
ENDBRANCH  13  14
ENDBRANCH  12  13
ENDBRANCH   1  12
TORSDOF 14
ENDMDL
MODEL 6
REMARK VINA RESULT:    -1.400      9.394     12.538
REMARK INTER + INTRA:          -3.307
REMARK INTER:                  -2.876
REMARK INTRA:                  -0.431
REMARK UNBOUND:                -0.761
REMARK SMILES CCCCCCCCCCCCCC[C@@H](C)C(=O)[O-]
REMARK SMILES IDX 9 1 10 2 11 3 12 4 13 5 14 6 15 7 16 8 17 9 18 10 19 11 8 12
REMARK SMILES IDX 7 13 6 14 5 15 4 16 3 17 2 18 1 19
REMARK H PARENT
REMARK Flexibility Score: inf
ROOT
ATOM      1  C   UNL     1      -4.390 -23.051  16.711  1.00  0.00     0.000 C 
ENDROOT
BRANCH   1   2
ATOM      2  C   UNL     1      -5.690 -22.230  16.727  1.00  0.00     0.000 C 
BRANCH   2   3
ATOM      3  C   UNL     1      -6.784 -22.874  17.593  1.00  0.00     0.000 C 
BRANCH   3   4
ATOM      4  C   UNL     1      -8.000 -21.953  17.796  1.00  0.00     0.000 C 
BRANCH   4   5
ATOM      5  C   UNL     1      -9.239 -22.711  18.301  1.00  0.00     0.001 C 
BRANCH   5   6
ATOM      6  C   UNL     1     -10.348 -21.766  18.799  1.00  0.00     0.009 C 
BRANCH   6   7
ATOM      7  C   UNL     1     -10.507 -21.814  20.333  1.00  0.00     0.032 C 
ATOM      8  C   UNL     1      -9.419 -22.691  20.963  1.00  0.00     0.014 C 
BRANCH   7   9
ATOM      9  C   UNL     1     -10.465 -20.436  20.937  1.00  0.00     0.044 C 
ATOM     10  O   UNL     1     -10.473 -19.412  20.201  1.00  0.00    -0.550 OA
ATOM     11  O   UNL     1     -10.417 -20.285  22.317  1.00  0.00    -0.550 OA
ENDBRANCH   7   9
ENDBRANCH   6   7
ENDBRANCH   5   6
ENDBRANCH   4   5
ENDBRANCH   3   4
ENDBRANCH   2   3
ENDBRANCH   1   2
BRANCH   1  12
ATOM     12  C   UNL     1      -3.209 -22.274  16.106  1.00  0.00     0.000 C 
BRANCH  12  13
ATOM     13  C   UNL     1      -1.930 -23.125  16.000  1.00  0.00    -0.000 C 
BRANCH  13  14
ATOM     14  C   UNL     1      -0.661 -22.336  16.360  1.00  0.00    -0.000 C 
BRANCH  14  15
ATOM     15  C   UNL     1       0.391 -22.367  15.238  1.00  0.00    -0.000 C 
BRANCH  15  16
ATOM     16  C   UNL     1       1.690 -23.079  15.656  1.00  0.00    -0.000 C 
BRANCH  16  17
ATOM     17  C   UNL     1       2.743 -22.180  16.335  1.00  0.00    -0.000 C 
BRANCH  17  18
ATOM     18  C   UNL     1       4.193 -22.683  16.229  1.00  0.00    -0.003 C 
ATOM     19  C   UNL     1       4.569 -23.124  14.815  1.00  0.00     0.004 C 
ENDBRANCH  17  18
ENDBRANCH  16  17
ENDBRANCH  15  16
ENDBRANCH  14  15
ENDBRANCH  13  14
ENDBRANCH  12  13
ENDBRANCH   1  12
TORSDOF 14
ENDMDL
