MODEL 1
REMARK VINA RESULT:    -3.623      0.000      0.000
REMARK INTER + INTRA:         -15.620
REMARK INTER:                  -9.552
REMARK INTRA:                  -6.068
REMARK UNBOUND:                -6.068
REMARK SMILES CCCCCCCCCCCCCCCCCCCCCCCCCCCCCC(=O)[O-]
REMARK SMILES IDX 16 1 17 2 18 3 19 4 20 5 21 6 22 7 23 8 24 9 25 10 26 11
REMARK SMILES IDX 27 12 28 13 29 14 30 15 31 16 32 17 15 18 14 19 13 20 12 21
REMARK SMILES IDX 11 22 10 23 9 24 8 25 7 26 6 27 5 28 4 29 3 30 2 31 1 32
REMARK H PARENT
REMARK Flexibility Score: inf
ROOT
ATOM      1  C   UNL     1      -2.249   7.511  38.991  1.00  0.00     0.000 C 
ENDROOT
BRANCH   1   2
ATOM      2  C   UNL     1      -2.650   8.996  38.969  1.00  0.00     0.000 C 
BRANCH   2   3
ATOM      3  C   UNL     1      -1.656   9.935  38.257  1.00  0.00     0.000 C 
BRANCH   3   4
ATOM      4  C   UNL     1      -1.161   9.406  36.894  1.00  0.00     0.000 C 
BRANCH   4   5
ATOM      5  C   UNL     1       0.360   9.567  36.720  1.00  0.00     0.000 C 
BRANCH   5   6
ATOM      6  C   UNL     1       0.983   8.420  35.909  1.00  0.00     0.000 C 
BRANCH   6   7
ATOM      7  C   UNL     1       0.974   8.699  34.395  1.00  0.00     0.000 C 
BRANCH   7   8
ATOM      8  C   UNL     1       1.186   7.427  33.558  1.00  0.00     0.000 C 
BRANCH   8   9
ATOM      9  C   UNL     1       0.025   6.428  33.703  1.00  0.00     0.000 C 
BRANCH   9  10
ATOM     10  C   UNL     1       0.504   4.968  33.766  1.00  0.00     0.000 C 
BRANCH  10  11
ATOM     11  C   UNL     1       1.821   4.812  34.550  1.00  0.00     0.000 C 
BRANCH  11  12
ATOM     12  C   UNL     1       2.167   3.341  34.830  1.00  0.00     0.000 C 
BRANCH  12  13
ATOM     13  C   UNL     1       3.641   3.014  34.543  1.00  0.00     0.006 C 
BRANCH  13  14
ATOM     14  C   UNL     1       4.513   4.269  34.655  1.00  0.00     0.053 C 
BRANCH  14  15
ATOM     15  C   UNL     1       5.353   4.216  35.892  1.00  0.00     0.041 C 
ATOM     16  O   UNL     1       6.575   3.923  35.815  1.00  0.00    -0.550 OA
ATOM     17  O   UNL     1       4.798   4.539  37.124  1.00  0.00    -0.550 OA
ENDBRANCH  14  15
ENDBRANCH  13  14
ENDBRANCH  12  13
ENDBRANCH  11  12
ENDBRANCH  10  11
ENDBRANCH   9  10
ENDBRANCH   8   9
ENDBRANCH   7   8
ENDBRANCH   6   7
ENDBRANCH   5   6
ENDBRANCH   4   5
ENDBRANCH   3   4
ENDBRANCH   2   3
ENDBRANCH   1   2
BRANCH   1  18
ATOM     18  C   UNL     1      -3.198   6.653  39.845  1.00  0.00     0.000 C 
BRANCH  18  19
ATOM     19  C   UNL     1      -2.472   5.523  40.595  1.00  0.00     0.000 C 
BRANCH  19  20
ATOM     20  C   UNL     1      -2.066   5.849  42.048  1.00  0.00     0.000 C 
BRANCH  20  21
ATOM     21  C   UNL     1      -2.830   7.020  42.691  1.00  0.00     0.000 C 
BRANCH  21  22
ATOM     22  C   UNL     1      -1.921   8.217  43.020  1.00  0.00     0.000 C 
BRANCH  22  23
ATOM     23  C   UNL     1      -0.487   8.037  42.494  1.00  0.00     0.000 C 
BRANCH  23  24
ATOM     24  C   UNL     1      -0.000   9.147  41.539  1.00  0.00    -0.000 C 
BRANCH  24  25
ATOM     25  C   UNL     1       1.003   8.695  40.459  1.00  0.00    -0.000 C 
BRANCH  25  26
ATOM     26  C   UNL     1       1.131   7.171  40.281  1.00  0.00    -0.000 C 
BRANCH  26  27
ATOM     27  C   UNL     1       1.847   6.782  38.978  1.00  0.00    -0.000 C 
BRANCH  27  28
ATOM     28  C   UNL     1       1.488   5.365  38.502  1.00  0.00    -0.000 C 
BRANCH  28  29
ATOM     29  C   UNL     1       0.105   5.273  37.822  1.00  0.00    -0.000 C 
BRANCH  29  30
ATOM     30  C   UNL     1      -0.325   3.817  37.586  1.00  0.00    -0.000 C 
BRANCH  30  31
ATOM     31  C   UNL     1      -1.509   3.742  36.613  1.00  0.00    -0.003 C 
ATOM     32  C   UNL     1      -2.132   5.117  36.396  1.00  0.00     0.004 C 
ENDBRANCH  30  31
ENDBRANCH  29  30
ENDBRANCH  28  29
ENDBRANCH  27  28
ENDBRANCH  26  27
ENDBRANCH  25  26
ENDBRANCH  24  25
ENDBRANCH  23  24
ENDBRANCH  22  23
ENDBRANCH  21  22
ENDBRANCH  20  21
ENDBRANCH  19  20
ENDBRANCH  18  19
ENDBRANCH   1  18
TORSDOF 28
ENDMDL
MODEL 2
REMARK VINA RESULT:    -3.486      1.554      3.215
REMARK INTER + INTRA:         -15.261
REMARK INTER:                  -9.339
REMARK INTRA:                  -5.922
REMARK UNBOUND:                -6.068
REMARK SMILES CCCCCCCCCCCCCCCCCCCCCCCCCCCCCC(=O)[O-]
REMARK SMILES IDX 16 1 17 2 18 3 19 4 20 5 21 6 22 7 23 8 24 9 25 10 26 11
REMARK SMILES IDX 27 12 28 13 29 14 30 15 31 16 32 17 15 18 14 19 13 20 12 21
REMARK SMILES IDX 11 22 10 23 9 24 8 25 7 26 6 27 5 28 4 29 3 30 2 31 1 32
REMARK H PARENT
REMARK Flexibility Score: inf
ROOT
ATOM      1  C   UNL     1      -1.979   8.207  38.927  1.00  0.00     0.000 C 
ENDROOT
BRANCH   1   2
ATOM      2  C   UNL     1      -1.636   9.678  38.635  1.00  0.00     0.000 C 
BRANCH   2   3
ATOM      3  C   UNL     1      -0.229  10.125  39.075  1.00  0.00     0.000 C 
BRANCH   3   4
ATOM      4  C   UNL     1       0.868   9.875  38.018  1.00  0.00     0.000 C 
BRANCH   4   5
ATOM      5  C   UNL     1       1.903   8.834  38.482  1.00  0.00     0.000 C 
BRANCH   5   6
ATOM      6  C   UNL     1       1.455   7.392  38.194  1.00  0.00     0.000 C 
BRANCH   6   7
ATOM      7  C   UNL     1       2.605   6.379  38.344  1.00  0.00     0.000 C 
BRANCH   7   8
ATOM      8  C   UNL     1       2.491   5.205  37.359  1.00  0.00     0.000 C 
BRANCH   8   9
ATOM      9  C   UNL     1       2.567   5.659  35.891  1.00  0.00     0.000 C 
BRANCH   9  10
ATOM     10  C   UNL     1       2.429   4.489  34.902  1.00  0.00     0.000 C 
BRANCH  10  11
ATOM     11  C   UNL     1       3.344   4.644  33.673  1.00  0.00     0.000 C 
BRANCH  11  12
ATOM     12  C   UNL     1       4.617   3.789  33.777  1.00  0.00     0.000 C 
BRANCH  12  13
ATOM     13  C   UNL     1       5.769   4.521  34.483  1.00  0.00     0.006 C 
BRANCH  13  14
ATOM     14  C   UNL     1       6.204   3.770  35.745  1.00  0.00     0.053 C 
BRANCH  14  15
ATOM     15  C   UNL     1       7.501   3.061  35.513  1.00  0.00     0.041 C 
ATOM     16  O   UNL     1       7.558   2.090  34.715  1.00  0.00    -0.550 OA
ATOM     17  O   UNL     1       8.658   3.504  36.143  1.00  0.00    -0.550 OA
ENDBRANCH  14  15
ENDBRANCH  13  14
ENDBRANCH  12  13
ENDBRANCH  11  12
ENDBRANCH  10  11
ENDBRANCH   9  10
ENDBRANCH   8   9
ENDBRANCH   7   8
ENDBRANCH   6   7
ENDBRANCH   5   6
ENDBRANCH   4   5
ENDBRANCH   3   4
ENDBRANCH   2   3
ENDBRANCH   1   2
BRANCH   1  18
ATOM     18  C   UNL     1      -3.005   8.051  40.062  1.00  0.00     0.000 C 
BRANCH  18  19
ATOM     19  C   UNL     1      -2.422   7.359  41.306  1.00  0.00     0.000 C 
BRANCH  19  20
ATOM     20  C   UNL     1      -1.484   8.229  42.168  1.00  0.00     0.000 C 
BRANCH  20  21
ATOM     21  C   UNL     1      -0.143   7.572  42.541  1.00  0.00     0.000 C 
BRANCH  21  22
ATOM     22  C   UNL     1       0.503   6.825  41.361  1.00  0.00     0.000 C 
BRANCH  22  23
ATOM     23  C   UNL     1       0.809   5.352  41.684  1.00  0.00     0.000 C 
BRANCH  23  24
ATOM     24  C   UNL     1       0.490   4.358  40.548  1.00  0.00    -0.000 C 
BRANCH  24  25
ATOM     25  C   UNL     1      -1.004   4.226  40.187  1.00  0.00    -0.000 C 
BRANCH  25  26
ATOM     26  C   UNL     1      -1.380   4.701  38.772  1.00  0.00    -0.000 C 
BRANCH  26  27
ATOM     27  C   UNL     1      -0.777   3.818  37.668  1.00  0.00    -0.000 C 
BRANCH  27  28
ATOM     28  C   UNL     1      -1.040   4.368  36.256  1.00  0.00    -0.000 C 
BRANCH  28  29
ATOM     29  C   UNL     1      -1.441   5.858  36.238  1.00  0.00    -0.000 C 
BRANCH  29  30
ATOM     30  C   UNL     1      -0.951   6.572  34.969  1.00  0.00    -0.000 C 
BRANCH  30  31
ATOM     31  C   UNL     1      -0.562   8.025  35.267  1.00  0.00    -0.003 C 
ATOM     32  C   UNL     1       0.712   8.418  34.525  1.00  0.00     0.004 C 
ENDBRANCH  30  31
ENDBRANCH  29  30
ENDBRANCH  28  29
ENDBRANCH  27  28
ENDBRANCH  26  27
ENDBRANCH  25  26
ENDBRANCH  24  25
ENDBRANCH  23  24
ENDBRANCH  22  23
ENDBRANCH  21  22
ENDBRANCH  20  21
ENDBRANCH  19  20
ENDBRANCH  18  19
ENDBRANCH   1  18
TORSDOF 28
ENDMDL
MODEL 3
REMARK VINA RESULT:    -3.379      2.655      5.194
REMARK INTER + INTRA:         -14.978
REMARK INTER:                  -8.731
REMARK INTRA:                  -6.247
REMARK UNBOUND:                -6.068
REMARK SMILES CCCCCCCCCCCCCCCCCCCCCCCCCCCCCC(=O)[O-]
REMARK SMILES IDX 16 1 17 2 18 3 19 4 20 5 21 6 22 7 23 8 24 9 25 10 26 11
REMARK SMILES IDX 27 12 28 13 29 14 30 15 31 16 32 17 15 18 14 19 13 20 12 21
REMARK SMILES IDX 11 22 10 23 9 24 8 25 7 26 6 27 5 28 4 29 3 30 2 31 1 32
REMARK H PARENT
REMARK Flexibility Score: inf
ROOT
ATOM      1  C   UNL     1      -2.582   8.998  38.625  1.00  0.00     0.000 C 
ENDROOT
BRANCH   1   2
ATOM      2  C   UNL     1      -1.298   9.841  38.535  1.00  0.00     0.000 C 
BRANCH   2   3
ATOM      3  C   UNL     1      -0.370   9.758  39.762  1.00  0.00     0.000 C 
BRANCH   3   4
ATOM      4  C   UNL     1       1.122   9.986  39.437  1.00  0.00     0.000 C 
BRANCH   4   5
ATOM      5  C   UNL     1       1.723   8.838  38.607  1.00  0.00     0.000 C 
BRANCH   5   6
ATOM      6  C   UNL     1       1.513   7.465  39.265  1.00  0.00     0.000 C 
BRANCH   6   7
ATOM      7  C   UNL     1       2.349   6.359  38.595  1.00  0.00     0.000 C 
BRANCH   7   8
ATOM      8  C   UNL     1       2.293   5.029  39.363  1.00  0.00     0.000 C 
BRANCH   8   9
ATOM      9  C   UNL     1       2.276   3.809  38.425  1.00  0.00     0.000 C 
BRANCH   9  10
ATOM     10  C   UNL     1       2.094   4.200  36.949  1.00  0.00     0.000 C 
BRANCH  10  11
ATOM     11  C   UNL     1       2.641   3.132  35.984  1.00  0.00     0.000 C 
BRANCH  11  12
ATOM     12  C   UNL     1       1.532   2.239  35.405  1.00  0.00     0.000 C 
BRANCH  12  13
ATOM     13  C   UNL     1       0.131   2.844  35.581  1.00  0.00     0.006 C 
BRANCH  13  14
ATOM     14  C   UNL     1      -0.707   2.666  34.311  1.00  0.00     0.053 C 
BRANCH  14  15
ATOM     15  C   UNL     1      -1.546   1.431  34.405  1.00  0.00     0.041 C 
ATOM     16  O   UNL     1      -1.001   0.297  34.469  1.00  0.00    -0.550 OA
ATOM     17  O   UNL     1      -2.931   1.534  34.470  1.00  0.00    -0.550 OA
ENDBRANCH  14  15
ENDBRANCH  13  14
ENDBRANCH  12  13
ENDBRANCH  11  12
ENDBRANCH  10  11
ENDBRANCH   9  10
ENDBRANCH   8   9
ENDBRANCH   7   8
ENDBRANCH   6   7
ENDBRANCH   5   6
ENDBRANCH   4   5
ENDBRANCH   3   4
ENDBRANCH   2   3
ENDBRANCH   1   2
BRANCH   1  18
ATOM     18  C   UNL     1      -2.602   8.077  39.857  1.00  0.00     0.000 C 
BRANCH  18  19
ATOM     19  C   UNL     1      -2.926   6.615  39.506  1.00  0.00     0.000 C 
BRANCH  19  20
ATOM     20  C   UNL     1      -1.749   5.626  39.641  1.00  0.00     0.000 C 
BRANCH  20  21
ATOM     21  C   UNL     1      -1.296   4.967  38.325  1.00  0.00     0.000 C 
BRANCH  21  22
ATOM     22  C   UNL     1      -2.330   5.117  37.196  1.00  0.00     0.000 C 
BRANCH  22  23
ATOM     23  C   UNL     1      -1.817   5.976  36.027  1.00  0.00     0.000 C 
BRANCH  23  24
ATOM     24  C   UNL     1      -0.524   6.765  36.318  1.00  0.00    -0.000 C 
BRANCH  24  25
ATOM     25  C   UNL     1      -0.333   8.050  35.487  1.00  0.00    -0.000 C 
BRANCH  25  26
ATOM     26  C   UNL     1       0.771   7.980  34.417  1.00  0.00    -0.000 C 
BRANCH  26  27
ATOM     27  C   UNL     1       1.212   6.540  34.111  1.00  0.00    -0.000 C 
BRANCH  27  28
ATOM     28  C   UNL     1       0.423   5.909  32.952  1.00  0.00    -0.000 C 
BRANCH  28  29
ATOM     29  C   UNL     1       1.288   5.036  32.018  1.00  0.00    -0.000 C 
BRANCH  29  30
ATOM     30  C   UNL     1       2.581   4.566  32.702  1.00  0.00    -0.000 C 
BRANCH  30  31
ATOM     31  C   UNL     1       3.050   3.221  32.133  1.00  0.00    -0.003 C 
ATOM     32  C   UNL     1       4.536   2.998  32.400  1.00  0.00     0.004 C 
ENDBRANCH  30  31
ENDBRANCH  29  30
ENDBRANCH  28  29
ENDBRANCH  27  28
ENDBRANCH  26  27
ENDBRANCH  25  26
ENDBRANCH  24  25
ENDBRANCH  23  24
ENDBRANCH  22  23
ENDBRANCH  21  22
ENDBRANCH  20  21
ENDBRANCH  19  20
ENDBRANCH  18  19
ENDBRANCH   1  18
TORSDOF 28
ENDMDL
MODEL 4
REMARK VINA RESULT:    -3.361      2.496      4.429
REMARK INTER + INTRA:         -14.931
REMARK INTER:                  -9.450
REMARK INTRA:                  -5.481
REMARK UNBOUND:                -6.068
REMARK SMILES CCCCCCCCCCCCCCCCCCCCCCCCCCCCCC(=O)[O-]
REMARK SMILES IDX 16 1 17 2 18 3 19 4 20 5 21 6 22 7 23 8 24 9 25 10 26 11
REMARK SMILES IDX 27 12 28 13 29 14 30 15 31 16 32 17 15 18 14 19 13 20 12 21
REMARK SMILES IDX 11 22 10 23 9 24 8 25 7 26 6 27 5 28 4 29 3 30 2 31 1 32
REMARK H PARENT
REMARK Flexibility Score: inf
ROOT
ATOM      1  C   UNL     1      -0.319   9.853  35.829  1.00  0.00     0.000 C 
ENDROOT
BRANCH   1   2
ATOM      2  C   UNL     1       0.672   8.689  35.658  1.00  0.00     0.000 C 
BRANCH   2   3
ATOM      3  C   UNL     1       0.701   8.052  34.255  1.00  0.00     0.000 C 
BRANCH   3   4
ATOM      4  C   UNL     1      -0.050   6.706  34.163  1.00  0.00     0.000 C 
BRANCH   4   5
ATOM      5  C   UNL     1      -1.170   6.587  35.212  1.00  0.00     0.000 C 
BRANCH   5   6
ATOM      6  C   UNL     1      -1.024   5.331  36.086  1.00  0.00     0.000 C 
BRANCH   6   7
ATOM      7  C   UNL     1      -0.169   4.243  35.412  1.00  0.00     0.000 C 
BRANCH   7   8
ATOM      8  C   UNL     1       0.891   3.655  36.357  1.00  0.00     0.000 C 
BRANCH   8   9
ATOM      9  C   UNL     1       2.283   3.580  35.705  1.00  0.00     0.000 C 
BRANCH   9  10
ATOM     10  C   UNL     1       2.834   4.965  35.325  1.00  0.00     0.000 C 
BRANCH  10  11
ATOM     11  C   UNL     1       3.537   4.965  33.955  1.00  0.00     0.000 C 
BRANCH  11  12
ATOM     12  C   UNL     1       3.575   3.568  33.314  1.00  0.00     0.000 C 
BRANCH  12  13
ATOM     13  C   UNL     1       2.946   3.541  31.913  1.00  0.00     0.006 C 
BRANCH  13  14
ATOM     14  C   UNL     1       1.940   4.685  31.741  1.00  0.00     0.053 C 
BRANCH  14  15
ATOM     15  C   UNL     1       1.070   4.444  30.549  1.00  0.00     0.041 C 
ATOM     16  O   UNL     1       1.564   3.984  29.486  1.00  0.00    -0.550 OA
ATOM     17  O   UNL     1      -0.297   4.683  30.626  1.00  0.00    -0.550 OA
ENDBRANCH  14  15
ENDBRANCH  13  14
ENDBRANCH  12  13
ENDBRANCH  11  12
ENDBRANCH  10  11
ENDBRANCH   9  10
ENDBRANCH   8   9
ENDBRANCH   7   8
ENDBRANCH   6   7
ENDBRANCH   5   6
ENDBRANCH   4   5
ENDBRANCH   3   4
ENDBRANCH   2   3
ENDBRANCH   1   2
BRANCH   1  18
ATOM     18  C   UNL     1      -0.704  10.094  37.299  1.00  0.00     0.000 C 
BRANCH  18  19
ATOM     19  C   UNL     1      -2.170   9.739  37.600  1.00  0.00     0.000 C 
BRANCH  19  20
ATOM     20  C   UNL     1      -2.410   8.989  38.927  1.00  0.00     0.000 C 
BRANCH  20  21
ATOM     21  C   UNL     1      -2.428   7.454  38.814  1.00  0.00     0.000 C 
BRANCH  21  22
ATOM     22  C   UNL     1      -2.927   6.767  40.097  1.00  0.00     0.000 C 
BRANCH  22  23
ATOM     23  C   UNL     1      -3.000   7.727  41.297  1.00  0.00     0.000 C 
BRANCH  23  24
ATOM     24  C   UNL     1      -2.077   7.364  42.478  1.00  0.00    -0.000 C 
BRANCH  24  25
ATOM     25  C   UNL     1      -1.028   8.432  42.849  1.00  0.00    -0.000 C 
BRANCH  25  26
ATOM     26  C   UNL     1      -0.119   8.886  41.692  1.00  0.00    -0.000 C 
BRANCH  26  27
ATOM     27  C   UNL     1       0.706   7.736  41.097  1.00  0.00    -0.000 C 
BRANCH  27  28
ATOM     28  C   UNL     1       1.167   8.016  39.657  1.00  0.00    -0.000 C 
BRANCH  28  29
ATOM     29  C   UNL     1       1.149   6.768  38.748  1.00  0.00    -0.000 C 
BRANCH  29  30
ATOM     30  C   UNL     1       1.928   5.596  39.363  1.00  0.00    -0.000 C 
BRANCH  30  31
ATOM     31  C   UNL     1       3.335   5.491  38.761  1.00  0.00    -0.003 C 
ATOM     32  C   UNL     1       3.956   4.127  39.046  1.00  0.00     0.004 C 
ENDBRANCH  30  31
ENDBRANCH  29  30
ENDBRANCH  28  29
ENDBRANCH  27  28
ENDBRANCH  26  27
ENDBRANCH  25  26
ENDBRANCH  24  25
ENDBRANCH  23  24
ENDBRANCH  22  23
ENDBRANCH  21  22
ENDBRANCH  20  21
ENDBRANCH  19  20
ENDBRANCH  18  19
ENDBRANCH   1  18
TORSDOF 28
ENDMDL
MODEL 5
REMARK VINA RESULT:    -3.345      3.779      5.918
REMARK INTER + INTRA:         -14.890
REMARK INTER:                 -10.259
REMARK INTRA:                  -4.631
REMARK UNBOUND:                -6.068
REMARK SMILES CCCCCCCCCCCCCCCCCCCCCCCCCCCCCC(=O)[O-]
REMARK SMILES IDX 16 1 17 2 18 3 19 4 20 5 21 6 22 7 23 8 24 9 25 10 26 11
REMARK SMILES IDX 27 12 28 13 29 14 30 15 31 16 32 17 15 18 14 19 13 20 12 21
REMARK SMILES IDX 11 22 10 23 9 24 8 25 7 26 6 27 5 28 4 29 3 30 2 31 1 32
REMARK H PARENT
REMARK Flexibility Score: inf
ROOT
ATOM      1  C   UNL     1       1.021   3.777  36.866  1.00  0.00     0.000 C 
ENDROOT
BRANCH   1   2
ATOM      2  C   UNL     1       1.943   4.935  37.287  1.00  0.00     0.000 C 
BRANCH   2   3
ATOM      3  C   UNL     1       2.555   5.742  36.125  1.00  0.00     0.000 C 
BRANCH   3   4
ATOM      4  C   UNL     1       2.125   5.252  34.726  1.00  0.00     0.000 C 
BRANCH   4   5
ATOM      5  C   UNL     1       1.699   6.410  33.806  1.00  0.00     0.000 C 
BRANCH   5   6
ATOM      6  C   UNL     1       0.596   5.999  32.817  1.00  0.00     0.000 C 
BRANCH   6   7
ATOM      7  C   UNL     1       0.872   4.632  32.165  1.00  0.00     0.000 C 
BRANCH   7   8
ATOM      8  C   UNL     1       1.689   4.749  30.869  1.00  0.00     0.000 C 
BRANCH   8   9
ATOM      9  C   UNL     1       1.284   5.971  30.026  1.00  0.00     0.000 C 
BRANCH   9  10
ATOM     10  C   UNL     1       1.240   5.664  28.520  1.00  0.00     0.000 C 
BRANCH  10  11
ATOM     11  C   UNL     1       2.645   5.552  27.899  1.00  0.00     0.000 C 
BRANCH  11  12
ATOM     12  C   UNL     1       3.269   6.926  27.605  1.00  0.00     0.000 C 
BRANCH  12  13
ATOM     13  C   UNL     1       2.228   7.970  27.175  1.00  0.00     0.006 C 
BRANCH  13  14
ATOM     14  C   UNL     1       2.745   9.392  27.417  1.00  0.00     0.053 C 
BRANCH  14  15
ATOM     15  C   UNL     1       2.993   9.619  28.874  1.00  0.00     0.041 C 
ATOM     16  O   UNL     1       4.162   9.834  29.292  1.00  0.00    -0.550 OA
ATOM     17  O   UNL     1       1.928   9.641  29.766  1.00  0.00    -0.550 OA
ENDBRANCH  14  15
ENDBRANCH  13  14
ENDBRANCH  12  13
ENDBRANCH  11  12
ENDBRANCH  10  11
ENDBRANCH   9  10
ENDBRANCH   8   9
ENDBRANCH   7   8
ENDBRANCH   6   7
ENDBRANCH   5   6
ENDBRANCH   4   5
ENDBRANCH   3   4
ENDBRANCH   2   3
ENDBRANCH   1   2
BRANCH   1  18
ATOM     18  C   UNL     1      -0.380   3.876  37.494  1.00  0.00     0.000 C 
BRANCH  18  19
ATOM     19  C   UNL     1      -0.949   5.305  37.466  1.00  0.00     0.000 C 
BRANCH  19  20
ATOM     20  C   UNL     1      -1.739   5.677  36.194  1.00  0.00     0.000 C 
BRANCH  20  21
ATOM     21  C   UNL     1      -1.413   7.062  35.605  1.00  0.00     0.000 C 
BRANCH  21  22
ATOM     22  C   UNL     1      -1.270   8.150  36.683  1.00  0.00     0.000 C 
BRANCH  22  23
ATOM     23  C   UNL     1       0.146   8.748  36.741  1.00  0.00     0.000 C 
BRANCH  23  24
ATOM     24  C   UNL     1       0.632   9.134  38.153  1.00  0.00    -0.000 C 
BRANCH  24  25
ATOM     25  C   UNL     1       1.199   7.974  38.996  1.00  0.00    -0.000 C 
BRANCH  25  26
ATOM     26  C   UNL     1       0.367   7.596  40.234  1.00  0.00    -0.000 C 
BRANCH  26  27
ATOM     27  C   UNL     1      -0.838   8.525  40.448  1.00  0.00    -0.000 C 
BRANCH  27  28
ATOM     28  C   UNL     1      -2.096   7.772  40.911  1.00  0.00    -0.000 C 
BRANCH  28  29
ATOM     29  C   UNL     1      -3.090   7.468  39.770  1.00  0.00    -0.000 C 
BRANCH  29  30
ATOM     30  C   UNL     1      -3.474   5.982  39.720  1.00  0.00    -0.000 C 
BRANCH  30  31
ATOM     31  C   UNL     1      -2.566   5.146  40.631  1.00  0.00    -0.003 C 
ATOM     32  C   UNL     1      -3.385   4.235  41.540  1.00  0.00     0.004 C 
ENDBRANCH  30  31
ENDBRANCH  29  30
ENDBRANCH  28  29
ENDBRANCH  27  28
ENDBRANCH  26  27
ENDBRANCH  25  26
ENDBRANCH  24  25
ENDBRANCH  23  24
ENDBRANCH  22  23
ENDBRANCH  21  22
ENDBRANCH  20  21
ENDBRANCH  19  20
ENDBRANCH  18  19
ENDBRANCH   1  18
TORSDOF 28
ENDMDL
MODEL 6
REMARK VINA RESULT:    -3.334      2.035      5.783
REMARK INTER + INTRA:         -14.860
REMARK INTER:                  -8.876
REMARK INTRA:                  -5.984
REMARK UNBOUND:                -6.068
REMARK SMILES CCCCCCCCCCCCCCCCCCCCCCCCCCCCCC(=O)[O-]
REMARK SMILES IDX 16 1 17 2 18 3 19 4 20 5 21 6 22 7 23 8 24 9 25 10 26 11
REMARK SMILES IDX 27 12 28 13 29 14 30 15 31 16 32 17 15 18 14 19 13 20 12 21
REMARK SMILES IDX 11 22 10 23 9 24 8 25 7 26 6 27 5 28 4 29 3 30 2 31 1 32
REMARK H PARENT
REMARK Flexibility Score: inf
ROOT
ATOM      1  C   UNL     1      -2.637   6.715  39.599  1.00  0.00     0.000 C 
ENDROOT
BRANCH   1   2
ATOM      2  C   UNL     1      -3.000   7.469  40.889  1.00  0.00     0.000 C 
BRANCH   2   3
ATOM      3  C   UNL     1      -2.519   6.805  42.195  1.00  0.00     0.000 C 
BRANCH   3   4
ATOM      4  C   UNL     1      -1.057   7.135  42.565  1.00  0.00     0.000 C 
BRANCH   4   5
ATOM      5  C   UNL     1      -0.878   8.603  42.991  1.00  0.00     0.000 C 
BRANCH   5   6
ATOM      6  C   UNL     1       0.099   9.364  42.081  1.00  0.00     0.000 C 
BRANCH   6   7
ATOM      7  C   UNL     1       0.691   8.468  40.977  1.00  0.00     0.000 C 
BRANCH   7   8
ATOM      8  C   UNL     1       1.169   9.272  39.756  1.00  0.00     0.000 C 
BRANCH   8   9
ATOM      9  C   UNL     1       1.719   8.370  38.638  1.00  0.00     0.000 C 
BRANCH   9  10
ATOM     10  C   UNL     1       1.634   6.875  38.987  1.00  0.00     0.000 C 
BRANCH  10  11
ATOM     11  C   UNL     1       2.569   6.012  38.120  1.00  0.00     0.000 C 
BRANCH  11  12
ATOM     12  C   UNL     1       2.658   4.559  38.617  1.00  0.00     0.000 C 
BRANCH  12  13
ATOM     13  C   UNL     1       1.736   3.609  37.838  1.00  0.00     0.006 C 
BRANCH  13  14
ATOM     14  C   UNL     1       0.294   3.701  38.350  1.00  0.00     0.053 C 
BRANCH  14  15
ATOM     15  C   UNL     1       0.236   3.394  39.813  1.00  0.00     0.041 C 
ATOM     16  O   UNL     1      -0.241   4.236  40.618  1.00  0.00    -0.550 OA
ATOM     17  O   UNL     1       0.663   2.158  40.281  1.00  0.00    -0.550 OA
ENDBRANCH  14  15
ENDBRANCH  13  14
ENDBRANCH  12  13
ENDBRANCH  11  12
ENDBRANCH  10  11
ENDBRANCH   9  10
ENDBRANCH   8   9
ENDBRANCH   7   8
ENDBRANCH   6   7
ENDBRANCH   5   6
ENDBRANCH   4   5
ENDBRANCH   3   4
ENDBRANCH   2   3
ENDBRANCH   1   2
BRANCH   1  18
ATOM     18  C   UNL     1      -1.969   7.621  38.550  1.00  0.00     0.000 C 
BRANCH  18  19
ATOM     19  C   UNL     1      -2.431   9.086  38.644  1.00  0.00     0.000 C 
BRANCH  19  20
ATOM     20  C   UNL     1      -1.668  10.078  37.742  1.00  0.00     0.000 C 
BRANCH  20  21
ATOM     21  C   UNL     1      -1.564   9.666  36.262  1.00  0.00     0.000 C 
BRANCH  21  22
ATOM     22  C   UNL     1      -0.128   9.306  35.843  1.00  0.00     0.000 C 
BRANCH  22  23
ATOM     23  C   UNL     1      -0.073   8.122  34.861  1.00  0.00     0.000 C 
BRANCH  23  24
ATOM     24  C   UNL     1       0.182   6.748  35.514  1.00  0.00    -0.000 C 
BRANCH  24  25
ATOM     25  C   UNL     1      -1.037   5.805  35.564  1.00  0.00    -0.000 C 
BRANCH  25  26
ATOM     26  C   UNL     1      -0.809   4.407  34.959  1.00  0.00    -0.000 C 
BRANCH  26  27
ATOM     27  C   UNL     1       0.179   4.422  33.783  1.00  0.00    -0.000 C 
BRANCH  27  28
ATOM     28  C   UNL     1       1.352   3.447  33.979  1.00  0.00    -0.000 C 
BRANCH  28  29
ATOM     29  C   UNL     1       2.719   4.032  33.563  1.00  0.00    -0.000 C 
BRANCH  29  30
ATOM     30  C   UNL     1       3.341   4.891  34.674  1.00  0.00    -0.000 C 
BRANCH  30  31
ATOM     31  C   UNL     1       4.835   4.586  34.838  1.00  0.00    -0.003 C 
ATOM     32  C   UNL     1       5.067   3.535  35.919  1.00  0.00     0.004 C 
ENDBRANCH  30  31
ENDBRANCH  29  30
ENDBRANCH  28  29
ENDBRANCH  27  28
ENDBRANCH  26  27
ENDBRANCH  25  26
ENDBRANCH  24  25
ENDBRANCH  23  24
ENDBRANCH  22  23
ENDBRANCH  21  22
ENDBRANCH  20  21
ENDBRANCH  19  20
ENDBRANCH  18  19
ENDBRANCH   1  18
TORSDOF 28
ENDMDL
MODEL 7
REMARK VINA RESULT:    -3.320      2.241      4.176
REMARK INTER + INTRA:         -14.822
REMARK INTER:                  -8.871
REMARK INTRA:                  -5.951
REMARK UNBOUND:                -6.068
REMARK SMILES CCCCCCCCCCCCCCCCCCCCCCCCCCCCCC(=O)[O-]
REMARK SMILES IDX 16 1 17 2 18 3 19 4 20 5 21 6 22 7 23 8 24 9 25 10 26 11
REMARK SMILES IDX 27 12 28 13 29 14 30 15 31 16 32 17 15 18 14 19 13 20 12 21
REMARK SMILES IDX 11 22 10 23 9 24 8 25 7 26 6 27 5 28 4 29 3 30 2 31 1 32
REMARK H PARENT
REMARK Flexibility Score: inf
ROOT
ATOM      1  C   UNL     1      -1.846   9.513  37.935  1.00  0.00     0.000 C 
ENDROOT
BRANCH   1   2
ATOM      2  C   UNL     1      -1.425   9.259  36.478  1.00  0.00     0.000 C 
BRANCH   2   3
ATOM      3  C   UNL     1      -1.519   7.793  36.012  1.00  0.00     0.000 C 
BRANCH   3   4
ATOM      4  C   UNL     1      -0.366   7.354  35.085  1.00  0.00     0.000 C 
BRANCH   4   5
ATOM      5  C   UNL     1      -0.235   5.823  34.999  1.00  0.00     0.000 C 
BRANCH   5   6
ATOM      6  C   UNL     1      -1.404   5.094  35.679  1.00  0.00     0.000 C 
BRANCH   6   7
ATOM      7  C   UNL     1      -1.136   3.588  35.851  1.00  0.00     0.000 C 
BRANCH   7   8
ATOM      8  C   UNL     1       0.171   3.139  35.178  1.00  0.00     0.000 C 
BRANCH   8   9
ATOM      9  C   UNL     1       1.171   2.536  36.179  1.00  0.00     0.000 C 
BRANCH   9  10
ATOM     10  C   UNL     1       2.553   2.281  35.554  1.00  0.00     0.000 C 
BRANCH  10  11
ATOM     11  C   UNL     1       3.463   3.522  35.606  1.00  0.00     0.000 C 
BRANCH  11  12
ATOM     12  C   UNL     1       3.963   3.944  34.215  1.00  0.00     0.000 C 
BRANCH  12  13
ATOM     13  C   UNL     1       2.958   4.837  33.471  1.00  0.00     0.006 C 
BRANCH  13  14
ATOM     14  C   UNL     1       2.407   4.127  32.230  1.00  0.00     0.053 C 
BRANCH  14  15
ATOM     15  C   UNL     1       1.219   4.857  31.691  1.00  0.00     0.041 C 
ATOM     16  O   UNL     1       1.366   5.962  31.104  1.00  0.00    -0.550 OA
ATOM     17  O   UNL     1      -0.048   4.296  31.794  1.00  0.00    -0.550 OA
ENDBRANCH  14  15
ENDBRANCH  13  14
ENDBRANCH  12  13
ENDBRANCH  11  12
ENDBRANCH  10  11
ENDBRANCH   9  10
ENDBRANCH   8   9
ENDBRANCH   7   8
ENDBRANCH   6   7
ENDBRANCH   5   6
ENDBRANCH   4   5
ENDBRANCH   3   4
ENDBRANCH   2   3
ENDBRANCH   1   2
BRANCH   1  18
ATOM     18  C   UNL     1      -0.716  10.125  38.781  1.00  0.00     0.000 C 
BRANCH  18  19
ATOM     19  C   UNL     1       0.532   9.227  38.852  1.00  0.00     0.000 C 
BRANCH  19  20
ATOM     20  C   UNL     1       0.732   8.478  40.186  1.00  0.00     0.000 C 
BRANCH  20  21
ATOM     21  C   UNL     1      -0.293   8.816  41.284  1.00  0.00     0.000 C 
BRANCH  21  22
ATOM     22  C   UNL     1      -0.724   7.584  42.098  1.00  0.00     0.000 C 
BRANCH  22  23
ATOM     23  C   UNL     1      -2.252   7.421  42.168  1.00  0.00     0.000 C 
BRANCH  23  24
ATOM     24  C   UNL     1      -3.014   7.882  40.909  1.00  0.00    -0.000 C 
BRANCH  24  25
ATOM     25  C   UNL     1      -3.076   6.853  39.762  1.00  0.00    -0.000 C 
BRANCH  25  26
ATOM     26  C   UNL     1      -3.052   5.378  40.203  1.00  0.00    -0.000 C 
BRANCH  26  27
ATOM     27  C   UNL     1      -1.811   4.626  39.697  1.00  0.00    -0.000 C 
BRANCH  27  28
ATOM     28  C   UNL     1      -0.763   5.561  39.071  1.00  0.00    -0.000 C 
BRANCH  28  29
ATOM     29  C   UNL     1       0.676   5.002  39.128  1.00  0.00    -0.000 C 
BRANCH  29  30
ATOM     30  C   UNL     1       1.563   5.582  38.017  1.00  0.00    -0.000 C 
BRANCH  30  31
ATOM     31  C   UNL     1       2.966   5.909  38.544  1.00  0.00    -0.003 C 
ATOM     32  C   UNL     1       3.677   4.652  39.034  1.00  0.00     0.004 C 
ENDBRANCH  30  31
ENDBRANCH  29  30
ENDBRANCH  28  29
ENDBRANCH  27  28
ENDBRANCH  26  27
ENDBRANCH  25  26
ENDBRANCH  24  25
ENDBRANCH  23  24
ENDBRANCH  22  23
ENDBRANCH  21  22
ENDBRANCH  20  21
ENDBRANCH  19  20
ENDBRANCH  18  19
ENDBRANCH   1  18
TORSDOF 28
ENDMDL
MODEL 8
REMARK VINA RESULT:    -3.320      3.864      5.336
REMARK INTER + INTRA:         -14.821
REMARK INTER:                  -9.479
REMARK INTRA:                  -5.343
REMARK UNBOUND:                -6.068
REMARK SMILES CCCCCCCCCCCCCCCCCCCCCCCCCCCCCC(=O)[O-]
REMARK SMILES IDX 16 1 17 2 18 3 19 4 20 5 21 6 22 7 23 8 24 9 25 10 26 11
REMARK SMILES IDX 27 12 28 13 29 14 30 15 31 16 32 17 15 18 14 19 13 20 12 21
REMARK SMILES IDX 11 22 10 23 9 24 8 25 7 26 6 27 5 28 4 29 3 30 2 31 1 32
REMARK H PARENT
REMARK Flexibility Score: inf
ROOT
ATOM      1  C   UNL     1      -1.481   5.107  38.662  1.00  0.00     0.000 C 
ENDROOT
BRANCH   1   2
ATOM      2  C   UNL     1      -1.851   5.416  37.202  1.00  0.00     0.000 C 
BRANCH   2   3
ATOM      3  C   UNL     1      -0.672   5.821  36.297  1.00  0.00     0.000 C 
BRANCH   3   4
ATOM      4  C   UNL     1      -1.099   6.391  34.927  1.00  0.00     0.000 C 
BRANCH   4   5
ATOM      5  C   UNL     1       0.104   6.831  34.075  1.00  0.00     0.000 C 
BRANCH   5   6
ATOM      6  C   UNL     1       1.438   6.301  34.624  1.00  0.00     0.000 C 
BRANCH   6   7
ATOM      7  C   UNL     1       2.224   5.492  33.576  1.00  0.00     0.000 C 
BRANCH   7   8
ATOM      8  C   UNL     1       1.370   4.404  32.906  1.00  0.00     0.000 C 
BRANCH   8   9
ATOM      9  C   UNL     1       1.513   4.404  31.374  1.00  0.00     0.000 C 
BRANCH   9  10
ATOM     10  C   UNL     1       0.643   5.478  30.698  1.00  0.00     0.000 C 
BRANCH  10  11
ATOM     11  C   UNL     1       1.453   6.721  30.286  1.00  0.00     0.000 C 
BRANCH  11  12
ATOM     12  C   UNL     1       2.156   6.542  28.931  1.00  0.00     0.000 C 
BRANCH  12  13
ATOM     13  C   UNL     1       2.229   7.847  28.123  1.00  0.00     0.006 C 
BRANCH  13  14
ATOM     14  C   UNL     1       3.375   7.799  27.107  1.00  0.00     0.053 C 
BRANCH  14  15
ATOM     15  C   UNL     1       3.833   9.182  26.768  1.00  0.00     0.041 C 
ATOM     16  O   UNL     1       4.023   9.509  25.566  1.00  0.00    -0.550 OA
ATOM     17  O   UNL     1       4.006  10.124  27.774  1.00  0.00    -0.550 OA
ENDBRANCH  14  15
ENDBRANCH  13  14
ENDBRANCH  12  13
ENDBRANCH  11  12
ENDBRANCH  10  11
ENDBRANCH   9  10
ENDBRANCH   8   9
ENDBRANCH   7   8
ENDBRANCH   6   7
ENDBRANCH   5   6
ENDBRANCH   4   5
ENDBRANCH   3   4
ENDBRANCH   2   3
ENDBRANCH   1   2
BRANCH   1  18
ATOM     18  C   UNL     1      -2.187   6.038  39.663  1.00  0.00     0.000 C 
BRANCH  18  19
ATOM     19  C   UNL     1      -2.652   7.359  39.026  1.00  0.00     0.000 C 
BRANCH  19  20
ATOM     20  C   UNL     1      -1.927   8.626  39.527  1.00  0.00     0.000 C 
BRANCH  20  21
ATOM     21  C   UNL     1      -1.814   9.762  38.495  1.00  0.00     0.000 C 
BRANCH  21  22
ATOM     22  C   UNL     1      -1.821   9.254  37.043  1.00  0.00     0.000 C 
BRANCH  22  23
ATOM     23  C   UNL     1      -0.556   9.655  36.265  1.00  0.00     0.000 C 
BRANCH  23  24
ATOM     24  C   UNL     1       0.697   9.887  37.134  1.00  0.00    -0.000 C 
BRANCH  24  25
ATOM     25  C   UNL     1       1.507   8.620  37.476  1.00  0.00    -0.000 C 
BRANCH  25  26
ATOM     26  C   UNL     1       1.605   8.291  38.977  1.00  0.00    -0.000 C 
BRANCH  26  27
ATOM     27  C   UNL     1       1.568   6.781  39.258  1.00  0.00    -0.000 C 
BRANCH  27  28
ATOM     28  C   UNL     1       2.660   6.008  38.501  1.00  0.00    -0.000 C 
BRANCH  28  29
ATOM     29  C   UNL     1       2.190   4.639  37.964  1.00  0.00    -0.000 C 
BRANCH  29  30
ATOM     30  C   UNL     1       3.153   4.071  36.910  1.00  0.00    -0.000 C 
BRANCH  30  31
ATOM     31  C   UNL     1       2.579   2.805  36.262  1.00  0.00    -0.003 C 
ATOM     32  C   UNL     1       1.104   2.628  36.611  1.00  0.00     0.004 C 
ENDBRANCH  30  31
ENDBRANCH  29  30
ENDBRANCH  28  29
ENDBRANCH  27  28
ENDBRANCH  26  27
ENDBRANCH  25  26
ENDBRANCH  24  25
ENDBRANCH  23  24
ENDBRANCH  22  23
ENDBRANCH  21  22
ENDBRANCH  20  21
ENDBRANCH  19  20
ENDBRANCH  18  19
ENDBRANCH   1  18
TORSDOF 28
ENDMDL
MODEL 9
REMARK VINA RESULT:    -3.253      1.306      3.303
REMARK INTER + INTRA:         -14.646
REMARK INTER:                  -8.323
REMARK INTRA:                  -6.324
REMARK UNBOUND:                -6.068
REMARK SMILES CCCCCCCCCCCCCCCCCCCCCCCCCCCCCC(=O)[O-]
REMARK SMILES IDX 16 1 17 2 18 3 19 4 20 5 21 6 22 7 23 8 24 9 25 10 26 11
REMARK SMILES IDX 27 12 28 13 29 14 30 15 31 16 32 17 15 18 14 19 13 20 12 21
REMARK SMILES IDX 11 22 10 23 9 24 8 25 7 26 6 27 5 28 4 29 3 30 2 31 1 32
REMARK H PARENT
REMARK Flexibility Score: inf
ROOT
ATOM      1  C   UNL     1      -0.659   9.955  37.250  1.00  0.00     0.000 C 
ENDROOT
BRANCH   1   2
ATOM      2  C   UNL     1      -0.642   9.215  35.901  1.00  0.00     0.000 C 
BRANCH   2   3
ATOM      3  C   UNL     1       0.758   8.957  35.310  1.00  0.00     0.000 C 
BRANCH   3   4
ATOM      4  C   UNL     1       0.760   8.009  34.092  1.00  0.00     0.000 C 
BRANCH   4   5
ATOM      5  C   UNL     1       0.926   6.534  34.498  1.00  0.00     0.000 C 
BRANCH   5   6
ATOM      6  C   UNL     1      -0.410   5.775  34.513  1.00  0.00     0.000 C 
BRANCH   6   7
ATOM      7  C   UNL     1      -0.989   5.633  35.933  1.00  0.00     0.000 C 
BRANCH   7   8
ATOM      8  C   UNL     1      -0.919   4.190  36.458  1.00  0.00     0.000 C 
BRANCH   8   9
ATOM      9  C   UNL     1      -0.928   3.150  35.324  1.00  0.00     0.000 C 
BRANCH   9  10
ATOM     10  C   UNL     1       0.340   2.279  35.309  1.00  0.00     0.000 C 
BRANCH  10  11
ATOM     11  C   UNL     1       1.323   2.686  34.197  1.00  0.00     0.000 C 
BRANCH  11  12
ATOM     12  C   UNL     1       2.629   3.277  34.753  1.00  0.00     0.000 C 
BRANCH  12  13
ATOM     13  C   UNL     1       3.629   3.651  33.648  1.00  0.00     0.006 C 
BRANCH  13  14
ATOM     14  C   UNL     1       4.572   4.764  34.116  1.00  0.00     0.053 C 
BRANCH  14  15
ATOM     15  C   UNL     1       5.682   4.198  34.945  1.00  0.00     0.041 C 
ATOM     16  O   UNL     1       5.637   4.274  36.201  1.00  0.00    -0.550 OA
ATOM     17  O   UNL     1       6.743   3.543  34.331  1.00  0.00    -0.550 OA
ENDBRANCH  14  15
ENDBRANCH  13  14
ENDBRANCH  12  13
ENDBRANCH  11  12
ENDBRANCH  10  11
ENDBRANCH   9  10
ENDBRANCH   8   9
ENDBRANCH   7   8
ENDBRANCH   6   7
ENDBRANCH   5   6
ENDBRANCH   4   5
ENDBRANCH   3   4
ENDBRANCH   2   3
ENDBRANCH   1   2
BRANCH   1  18
ATOM     18  C   UNL     1      -2.070  10.055  37.854  1.00  0.00     0.000 C 
BRANCH  18  19
ATOM     19  C   UNL     1      -2.275   9.114  39.054  1.00  0.00     0.000 C 
BRANCH  19  20
ATOM     20  C   UNL     1      -2.505   7.630  38.700  1.00  0.00     0.000 C 
BRANCH  20  21
ATOM     21  C   UNL     1      -2.861   6.723  39.891  1.00  0.00     0.000 C 
BRANCH  21  22
ATOM     22  C   UNL     1      -2.584   5.236  39.611  1.00  0.00     0.000 C 
BRANCH  22  23
ATOM     23  C   UNL     1      -1.522   4.640  40.552  1.00  0.00     0.000 C 
BRANCH  23  24
ATOM     24  C   UNL     1      -0.950   5.623  41.593  1.00  0.00    -0.000 C 
BRANCH  24  25
ATOM     25  C   UNL     1       0.489   6.107  41.322  1.00  0.00    -0.000 C 
BRANCH  25  26
ATOM     26  C   UNL     1       0.661   7.635  41.237  1.00  0.00    -0.000 C 
BRANCH  26  27
ATOM     27  C   UNL     1       1.131   8.105  39.852  1.00  0.00    -0.000 C 
BRANCH  27  28
ATOM     28  C   UNL     1       0.979   7.020  38.773  1.00  0.00    -0.000 C 
BRANCH  28  29
ATOM     29  C   UNL     1       2.271   6.766  37.967  1.00  0.00    -0.000 C 
BRANCH  29  30
ATOM     30  C   UNL     1       2.426   5.288  37.578  1.00  0.00    -0.000 C 
BRANCH  30  31
ATOM     31  C   UNL     1       2.670   4.413  38.814  1.00  0.00    -0.003 C 
ATOM     32  C   UNL     1       1.862   3.121  38.742  1.00  0.00     0.004 C 
ENDBRANCH  30  31
ENDBRANCH  29  30
ENDBRANCH  28  29
ENDBRANCH  27  28
ENDBRANCH  26  27
ENDBRANCH  25  26
ENDBRANCH  24  25
ENDBRANCH  23  24
ENDBRANCH  22  23
ENDBRANCH  21  22
ENDBRANCH  20  21
ENDBRANCH  19  20
ENDBRANCH  18  19
ENDBRANCH   1  18
TORSDOF 28
ENDMDL
