MODEL 1
REMARK VINA RESULT:    -4.462      0.000      0.000
REMARK INTER + INTRA:          -6.288
REMARK INTER:                  -6.027
REMARK INTRA:                  -0.261
REMARK UNBOUND:                -0.261
REMARK SMILES CCCCCCCC(=O)[O-]
REMARK SMILES IDX 5 1 6 2 7 3 8 4 9 5 10 6 4 7 3 8 2 9 1 10
REMARK H PARENT
REMARK Flexibility Score: inf
ROOT
ATOM      1  C   UNL     1       0.191   6.257  19.450  1.00  0.00     0.000 C 
ENDROOT
BRANCH   1   2
ATOM      2  C   UNL     1       0.218   6.939  18.073  1.00  0.00     0.006 C 
BRANCH   2   3
ATOM      3  C   UNL     1       0.891   8.317  18.108  1.00  0.00     0.053 C 
BRANCH   3   4
ATOM      4  C   UNL     1       1.807   8.480  16.937  1.00  0.00     0.041 C 
ATOM      5  O   UNL     1       2.027   7.511  16.165  1.00  0.00    -0.550 OA
ATOM      6  O   UNL     1       2.381   9.716  16.671  1.00  0.00    -0.550 OA
ENDBRANCH   3   4
ENDBRANCH   2   3
ENDBRANCH   1   2
BRANCH   1   7
ATOM      7  C   UNL     1       0.223   7.265  20.610  1.00  0.00     0.000 C 
BRANCH   7   8
ATOM      8  C   UNL     1       1.370   6.947  21.580  1.00  0.00    -0.000 C 
BRANCH   8   9
ATOM      9  C   UNL     1       0.868   6.506  22.965  1.00  0.00    -0.003 C 
ATOM     10  C   UNL     1      -0.654   6.558  23.086  1.00  0.00     0.004 C 
ENDBRANCH   8   9
ENDBRANCH   7   8
ENDBRANCH   1   7
TORSDOF 6
ENDMDL
MODEL 2
REMARK VINA RESULT:    -4.375      3.195      5.780
REMARK INTER + INTRA:          -6.170
REMARK INTER:                  -5.978
REMARK INTRA:                  -0.192
REMARK UNBOUND:                -0.261
REMARK SMILES CCCCCCCC(=O)[O-]
REMARK SMILES IDX 5 1 6 2 7 3 8 4 9 5 10 6 4 7 3 8 2 9 1 10
REMARK H PARENT
REMARK Flexibility Score: inf
ROOT
ATOM      1  C   UNL     1       1.027   8.148  17.962  1.00  0.00     0.000 C 
ENDROOT
BRANCH   1   2
ATOM      2  C   UNL     1       0.860   8.253  19.486  1.00  0.00     0.006 C 
BRANCH   2   3
ATOM      3  C   UNL     1       0.066   7.081  20.077  1.00  0.00     0.053 C 
BRANCH   3   4
ATOM      4  C   UNL     1       0.479   6.831  21.493  1.00  0.00     0.041 C 
ATOM      5  O   UNL     1       1.696   6.864  21.813  1.00  0.00    -0.550 OA
ATOM      6  O   UNL     1      -0.484   6.611  22.469  1.00  0.00    -0.550 OA
ENDBRANCH   3   4
ENDBRANCH   2   3
ENDBRANCH   1   2
BRANCH   1   7
ATOM      7  C   UNL     1       2.194   8.997  17.435  1.00  0.00     0.000 C 
BRANCH   7   8
ATOM      8  C   UNL     1       1.746   9.869  16.252  1.00  0.00    -0.000 C 
BRANCH   8   9
ATOM      9  C   UNL     1       0.695   9.176  15.370  1.00  0.00    -0.003 C 
ATOM     10  C   UNL     1       0.052  10.125  14.360  1.00  0.00     0.004 C 
ENDBRANCH   8   9
ENDBRANCH   7   8
ENDBRANCH   1   7
TORSDOF 6
ENDMDL
MODEL 3
REMARK VINA RESULT:    -4.329      2.932      3.475
REMARK INTER + INTRA:          -6.108
REMARK INTER:                  -5.853
REMARK INTRA:                  -0.255
REMARK UNBOUND:                -0.261
REMARK SMILES CCCCCCCC(=O)[O-]
REMARK SMILES IDX 5 1 6 2 7 3 8 4 9 5 10 6 4 7 3 8 2 9 1 10
REMARK H PARENT
REMARK Flexibility Score: inf
ROOT
ATOM      1  C   UNL     1       0.440   7.345  18.772  1.00  0.00     0.000 C 
ENDROOT
BRANCH   1   2
ATOM      2  C   UNL     1      -0.268   6.002  18.537  1.00  0.00     0.006 C 
BRANCH   2   3
ATOM      3  C   UNL     1      -0.156   5.520  17.084  1.00  0.00     0.053 C 
BRANCH   3   4
ATOM      4  C   UNL     1      -1.274   4.580  16.758  1.00  0.00     0.041 C 
ATOM      5  O   UNL     1      -1.091   3.336  16.815  1.00  0.00    -0.550 OA
ATOM      6  O   UNL     1      -2.530   5.078  16.440  1.00  0.00    -0.550 OA
ENDBRANCH   3   4
ENDBRANCH   2   3
ENDBRANCH   1   2
BRANCH   1   7
ATOM      7  C   UNL     1       0.458   7.753  20.253  1.00  0.00     0.000 C 
BRANCH   7   8
ATOM      8  C   UNL     1      -0.289   6.724  21.114  1.00  0.00    -0.000 C 
BRANCH   8   9
ATOM      9  C   UNL     1       0.152   6.753  22.586  1.00  0.00    -0.003 C 
ATOM     10  C   UNL     1       1.672   6.752  22.748  1.00  0.00     0.004 C 
ENDBRANCH   8   9
ENDBRANCH   7   8
ENDBRANCH   1   7
TORSDOF 6
ENDMDL
MODEL 4
REMARK VINA RESULT:    -3.935      4.188      5.659
REMARK INTER + INTRA:          -5.576
REMARK INTER:                  -5.381
REMARK INTRA:                  -0.195
REMARK UNBOUND:                -0.261
REMARK SMILES CCCCCCCC(=O)[O-]
REMARK SMILES IDX 5 1 6 2 7 3 8 4 9 5 10 6 4 7 3 8 2 9 1 10
REMARK H PARENT
REMARK Flexibility Score: inf
ROOT
ATOM      1  C   UNL     1      -0.220   6.088  17.408  1.00  0.00     0.000 C 
ENDROOT
BRANCH   1   2
ATOM      2  C   UNL     1      -0.508   4.586  17.554  1.00  0.00     0.006 C 
BRANCH   2   3
ATOM      3  C   UNL     1      -1.240   4.003  16.339  1.00  0.00     0.053 C 
BRANCH   3   4
ATOM      4  C   UNL     1      -1.990   2.767  16.724  1.00  0.00     0.041 C 
ATOM      5  O   UNL     1      -1.408   1.842  17.348  1.00  0.00    -0.550 OA
ATOM      6  O   UNL     1      -3.344   2.658  16.437  1.00  0.00    -0.550 OA
ENDBRANCH   3   4
ENDBRANCH   2   3
ENDBRANCH   1   2
BRANCH   1   7
ATOM      7  C   UNL     1       0.075   6.768  18.754  1.00  0.00     0.000 C 
BRANCH   7   8
ATOM      8  C   UNL     1       0.873   8.065  18.550  1.00  0.00    -0.000 C 
BRANCH   8   9
ATOM      9  C   UNL     1       1.077   8.406  17.065  1.00  0.00    -0.003 C 
ATOM     10  C   UNL     1       2.219   9.396  16.837  1.00  0.00     0.004 C 
ENDBRANCH   8   9
ENDBRANCH   7   8
ENDBRANCH   1   7
TORSDOF 6
ENDMDL
MODEL 5
REMARK VINA RESULT:    -3.862      4.406      5.657
REMARK INTER + INTRA:          -5.478
REMARK INTER:                  -5.274
REMARK INTRA:                  -0.204
REMARK UNBOUND:                -0.261
REMARK SMILES CCCCCCCC(=O)[O-]
REMARK SMILES IDX 5 1 6 2 7 3 8 4 9 5 10 6 4 7 3 8 2 9 1 10
REMARK H PARENT
REMARK Flexibility Score: inf
ROOT
ATOM      1  C   UNL     1      -0.746   4.711  16.946  1.00  0.00     0.000 C 
ENDROOT
BRANCH   1   2
ATOM      2  C   UNL     1      -1.848   4.991  15.912  1.00  0.00     0.006 C 
BRANCH   2   3
ATOM      3  C   UNL     1      -2.648   3.734  15.545  1.00  0.00     0.053 C 
BRANCH   3   4
ATOM      4  C   UNL     1      -3.819   3.573  16.461  1.00  0.00     0.041 C 
ATOM      5  O   UNL     1      -4.068   2.454  16.981  1.00  0.00    -0.550 OA
ATOM      6  O   UNL     1      -4.608   4.671  16.780  1.00  0.00    -0.550 OA
ENDBRANCH   3   4
ENDBRANCH   2   3
ENDBRANCH   1   2
BRANCH   1   7
ATOM      7  C   UNL     1      -0.035   5.990  17.413  1.00  0.00     0.000 C 
BRANCH   7   8
ATOM      8  C   UNL     1      -0.105   6.128  18.942  1.00  0.00    -0.000 C 
BRANCH   8   9
ATOM      9  C   UNL     1       0.422   7.484  19.437  1.00  0.00    -0.003 C 
ATOM     10  C   UNL     1       1.002   8.341  18.312  1.00  0.00     0.004 C 
ENDBRANCH   8   9
ENDBRANCH   7   8
ENDBRANCH   1   7
TORSDOF 6
ENDMDL
MODEL 6
REMARK VINA RESULT:    -3.862      3.794      5.473
REMARK INTER + INTRA:          -5.477
REMARK INTER:                  -5.291
REMARK INTRA:                  -0.186
REMARK UNBOUND:                -0.261
REMARK SMILES CCCCCCCC(=O)[O-]
REMARK SMILES IDX 5 1 6 2 7 3 8 4 9 5 10 6 4 7 3 8 2 9 1 10
REMARK H PARENT
REMARK Flexibility Score: inf
ROOT
ATOM      1  C   UNL     1       0.250   7.139  18.458  1.00  0.00     0.000 C 
ENDROOT
BRANCH   1   2
ATOM      2  C   UNL     1       0.142   6.451  19.827  1.00  0.00     0.006 C 
BRANCH   2   3
ATOM      3  C   UNL     1       0.305   7.431  20.996  1.00  0.00     0.053 C 
BRANCH   3   4
ATOM      4  C   UNL     1       0.282   6.698  22.300  1.00  0.00     0.041 C 
ATOM      5  O   UNL     1       1.359   6.417  22.888  1.00  0.00    -0.550 OA
ATOM      6  O   UNL     1      -0.931   6.367  22.890  1.00  0.00    -0.550 OA
ENDBRANCH   3   4
ENDBRANCH   2   3
ENDBRANCH   1   2
BRANCH   1   7
ATOM      7  C   UNL     1       0.273   6.138  17.293  1.00  0.00     0.000 C 
BRANCH   7   8
ATOM      8  C   UNL     1      -0.486   4.854  17.658  1.00  0.00    -0.000 C 
BRANCH   8   9
ATOM      9  C   UNL     1      -1.342   4.322  16.498  1.00  0.00    -0.003 C 
ATOM     10  C   UNL     1      -1.717   2.850  16.665  1.00  0.00     0.004 C 
ENDBRANCH   8   9
ENDBRANCH   7   8
ENDBRANCH   1   7
TORSDOF 6
ENDMDL
MODEL 7
REMARK VINA RESULT:    -3.770      3.740      5.408
REMARK INTER + INTRA:          -5.352
REMARK INTER:                  -5.135
REMARK INTRA:                  -0.217
REMARK UNBOUND:                -0.261
REMARK SMILES CCCCCCCC(=O)[O-]
REMARK SMILES IDX 5 1 6 2 7 3 8 4 9 5 10 6 4 7 3 8 2 9 1 10
REMARK H PARENT
REMARK Flexibility Score: inf
ROOT
ATOM      1  C   UNL     1      -0.387   5.821  16.666  1.00  0.00     0.000 C 
ENDROOT
BRANCH   1   2
ATOM      2  C   UNL     1       0.241   6.662  17.788  1.00  0.00     0.006 C 
BRANCH   2   3
ATOM      3  C   UNL     1      -0.053   6.097  19.185  1.00  0.00     0.053 C 
BRANCH   3   4
ATOM      4  C   UNL     1       0.136   7.155  20.225  1.00  0.00     0.041 C 
ATOM      5  O   UNL     1       0.560   8.295  19.900  1.00  0.00    -0.550 OA
ATOM      6  O   UNL     1      -0.203   6.899  21.547  1.00  0.00    -0.550 OA
ENDBRANCH   3   4
ENDBRANCH   2   3
ENDBRANCH   1   2
BRANCH   1   7
ATOM      7  C   UNL     1      -0.759   4.403  17.125  1.00  0.00     0.000 C 
BRANCH   7   8
ATOM      8  C   UNL     1      -1.586   3.679  16.053  1.00  0.00    -0.000 C 
BRANCH   8   9
ATOM      9  C   UNL     1      -3.083   4.020  16.131  1.00  0.00    -0.003 C 
ATOM     10  C   UNL     1      -3.936   2.839  16.591  1.00  0.00     0.004 C 
ENDBRANCH   8   9
ENDBRANCH   7   8
ENDBRANCH   1   7
TORSDOF 6
ENDMDL
MODEL 8
REMARK VINA RESULT:    -3.723      6.528      8.386
REMARK INTER + INTRA:          -5.289
REMARK INTER:                  -4.859
REMARK INTRA:                  -0.431
REMARK UNBOUND:                -0.261
REMARK SMILES CCCCCCCC(=O)[O-]
REMARK SMILES IDX 5 1 6 2 7 3 8 4 9 5 10 6 4 7 3 8 2 9 1 10
REMARK H PARENT
REMARK Flexibility Score: inf
ROOT
ATOM      1  C   UNL     1      -4.975   4.077  16.851  1.00  0.00     0.000 C 
ENDROOT
BRANCH   1   2
ATOM      2  C   UNL     1      -4.051   2.892  16.530  1.00  0.00     0.006 C 
BRANCH   2   3
ATOM      3  C   UNL     1      -2.761   3.324  15.819  1.00  0.00     0.053 C 
BRANCH   3   4
ATOM      4  C   UNL     1      -1.581   3.138  16.720  1.00  0.00     0.041 C 
ATOM      5  O   UNL     1      -0.761   4.078  16.891  1.00  0.00    -0.550 OA
ATOM      6  O   UNL     1      -1.414   1.945  17.409  1.00  0.00    -0.550 OA
ENDBRANCH   3   4
ENDBRANCH   2   3
ENDBRANCH   1   2
BRANCH   1   7
ATOM      7  C   UNL     1      -5.243   4.967  15.628  1.00  0.00     0.000 C 
BRANCH   7   8
ATOM      8  C   UNL     1      -6.698   4.828  15.157  1.00  0.00    -0.000 C 
BRANCH   8   9
ATOM      9  C   UNL     1      -6.807   4.245  13.739  1.00  0.00    -0.003 C 
ATOM     10  C   UNL     1      -5.445   3.923  13.125  1.00  0.00     0.004 C 
ENDBRANCH   8   9
ENDBRANCH   7   8
ENDBRANCH   1   7
TORSDOF 6
ENDMDL
MODEL 9
REMARK VINA RESULT:    -3.607      6.228      7.691
REMARK INTER + INTRA:          -5.134
REMARK INTER:                  -4.826
REMARK INTRA:                  -0.308
REMARK UNBOUND:                -0.261
REMARK SMILES CCCCCCCC(=O)[O-]
REMARK SMILES IDX 5 1 6 2 7 3 8 4 9 5 10 6 4 7 3 8 2 9 1 10
REMARK H PARENT
REMARK Flexibility Score: inf
ROOT
ATOM      1  C   UNL     1      -5.331   3.780  16.700  1.00  0.00     0.000 C 
ENDROOT
BRANCH   1   2
ATOM      2  C   UNL     1      -4.146   2.803  16.651  1.00  0.00     0.006 C 
BRANCH   2   3
ATOM      3  C   UNL     1      -2.977   3.332  15.811  1.00  0.00     0.053 C 
BRANCH   3   4
ATOM      4  C   UNL     1      -1.688   3.177  16.554  1.00  0.00     0.041 C 
ATOM      5  O   UNL     1      -1.451   2.122  17.198  1.00  0.00    -0.550 OA
ATOM      6  O   UNL     1      -0.727   4.178  16.496  1.00  0.00    -0.550 OA
ENDBRANCH   3   4
ENDBRANCH   2   3
ENDBRANCH   1   2
BRANCH   1   7
ATOM      7  C   UNL     1      -4.890   5.233  16.931  1.00  0.00     0.000 C 
BRANCH   7   8
ATOM      8  C   UNL     1      -5.496   6.166  15.871  1.00  0.00    -0.000 C 
BRANCH   8   9
ATOM      9  C   UNL     1      -6.960   5.825  15.551  1.00  0.00    -0.003 C 
ATOM     10  C   UNL     1      -7.949   6.770  16.233  1.00  0.00     0.004 C 
ENDBRANCH   8   9
ENDBRANCH   7   8
ENDBRANCH   1   7
TORSDOF 6
ENDMDL
