MODEL 1
REMARK VINA RESULT:    -4.439      0.000      0.000
REMARK INTER + INTRA:          -9.261
REMARK INTER:                  -6.774
REMARK INTRA:                  -2.486
REMARK UNBOUND:                -2.486
REMARK SMILES CC(=O)CCC=C(C)CCC=C(C)CCC=C(C)C
REMARK SMILES IDX 10 1 11 2 12 3 13 4 14 5 15 6 16 7 18 8 17 9 19 10 9 11 7 12
REMARK SMILES IDX 6 13 8 14 5 15 4 16 2 17 3 18 1 19
REMARK H PARENT
REMARK Flexibility Score: inf
ROOT
ATOM      1  C   UNL     1       0.279 -13.954   9.457  1.00  0.00     0.032 C 
ENDROOT
BRANCH   1   2
ATOM      2  C   UNL     1       0.609 -13.359   8.109  1.00  0.00    -0.028 C 
ATOM      3  C   UNL     1       1.648 -12.530   7.860  1.00  0.00    -0.077 C 
ATOM      4  C   UNL     1       1.862 -12.057   6.446  1.00  0.00     0.039 C 
BRANCH   3   5
ATOM      5  C   UNL     1       2.565 -12.005   8.949  1.00  0.00     0.034 C 
BRANCH   5   6
ATOM      6  C   UNL     1       4.025 -12.352   8.637  1.00  0.00     0.032 C 
BRANCH   6   7
ATOM      7  C   UNL     1       4.202 -13.836   8.416  1.00  0.00    -0.028 C 
ATOM      8  C   UNL     1       5.106 -14.159  10.722  1.00  0.00     0.039 C 
ATOM      9  C   UNL     1       4.694 -14.664   9.362  1.00  0.00    -0.080 C 
ATOM     10  C   UNL     1       4.844 -16.136   9.073  1.00  0.00     0.039 C 
ENDBRANCH   6   7
ENDBRANCH   5   6
ENDBRANCH   3   5
ENDBRANCH   1   2
BRANCH   1  11
ATOM     11  C   UNL     1       1.040 -15.265   9.702  1.00  0.00     0.034 C 
BRANCH  11  12
ATOM     12  C   UNL     1       1.570 -15.353  11.119  1.00  0.00    -0.077 C 
ATOM     13  C   UNL     1       2.049 -16.534  11.571  1.00  0.00    -0.028 C 
ATOM     14  C   UNL     1       1.542 -14.118  11.991  1.00  0.00     0.039 C 
BRANCH  13  15
ATOM     15  C   UNL     1       2.667 -16.738  12.931  1.00  0.00     0.035 C 
BRANCH  15  16
ATOM     16  C   UNL     1       2.134 -18.022  13.577  1.00  0.00     0.079 C 
BRANCH  16  17
ATOM     17  C   UNL     1       1.074 -17.703  14.596  1.00  0.00     0.130 C 
ATOM     18  O   UNL     1       0.466 -18.614  15.137  1.00  0.00    -0.300 OA
ATOM     19  C   UNL     1       0.751 -16.287  14.970  1.00  0.00     0.087 C 
ENDBRANCH  16  17
ENDBRANCH  15  16
ENDBRANCH  13  15
ENDBRANCH  11  12
ENDBRANCH   1  11
TORSDOF 9
ENDMDL
MODEL 2
REMARK VINA RESULT:    -4.057      1.548      2.639
REMARK INTER + INTRA:          -8.678
REMARK INTER:                  -6.530
REMARK INTRA:                  -2.148
REMARK UNBOUND:                -2.486
REMARK SMILES CC(=O)CCC=C(C)CCC=C(C)CCC=C(C)C
REMARK SMILES IDX 10 1 11 2 12 3 13 4 14 5 15 6 16 7 18 8 17 9 19 10 9 11 7 12
REMARK SMILES IDX 6 13 8 14 5 15 4 16 2 17 3 18 1 19
REMARK H PARENT
REMARK Flexibility Score: inf
ROOT
ATOM      1  C   UNL     1       1.496 -13.213  10.244  1.00  0.00     0.032 C 
ENDROOT
BRANCH   1   2
ATOM      2  C   UNL     1       0.585 -14.025   9.355  1.00  0.00    -0.028 C 
ATOM      3  C   UNL     1       0.541 -15.376   9.314  1.00  0.00    -0.077 C 
ATOM      4  C   UNL     1      -0.459 -16.031   8.398  1.00  0.00     0.039 C 
BRANCH   3   5
ATOM      5  C   UNL     1       1.496 -16.256  10.098  1.00  0.00     0.034 C 
BRANCH   5   6
ATOM      6  C   UNL     1       2.797 -16.470   9.316  1.00  0.00     0.032 C 
BRANCH   6   7
ATOM      7  C   UNL     1       3.993 -15.984  10.099  1.00  0.00    -0.028 C 
ATOM      8  C   UNL     1       4.397 -14.116   8.491  1.00  0.00     0.039 C 
ATOM      9  C   UNL     1       4.727 -14.912   9.728  1.00  0.00    -0.080 C 
ATOM     10  C   UNL     1       5.909 -14.483  10.558  1.00  0.00     0.039 C 
ENDBRANCH   6   7
ENDBRANCH   5   6
ENDBRANCH   3   5
ENDBRANCH   1   2
BRANCH   1  11
ATOM     11  C   UNL     1       0.973 -13.146  11.686  1.00  0.00     0.034 C 
BRANCH  11  12
ATOM     12  C   UNL     1       1.819 -13.975  12.631  1.00  0.00    -0.077 C 
ATOM     13  C   UNL     1       1.283 -15.081  13.196  1.00  0.00    -0.028 C 
ATOM     14  C   UNL     1       3.237 -13.539  12.921  1.00  0.00     0.039 C 
BRANCH  13  15
ATOM     15  C   UNL     1       2.037 -16.028  14.095  1.00  0.00     0.035 C 
BRANCH  15  16
ATOM     16  C   UNL     1       1.943 -17.463  13.566  1.00  0.00     0.079 C 
BRANCH  16  17
ATOM     17  C   UNL     1       1.416 -18.389  14.629  1.00  0.00     0.130 C 
ATOM     18  O   UNL     1       2.097 -19.333  14.996  1.00  0.00    -0.300 OA
ATOM     19  C   UNL     1       0.071 -18.171  15.257  1.00  0.00     0.087 C 
ENDBRANCH  16  17
ENDBRANCH  15  16
ENDBRANCH  13  15
ENDBRANCH  11  12
ENDBRANCH   1  11
TORSDOF 9
ENDMDL
MODEL 3
REMARK VINA RESULT:    -3.993      3.058      7.515
REMARK INTER + INTRA:          -8.580
REMARK INTER:                  -5.939
REMARK INTRA:                  -2.641
REMARK UNBOUND:                -2.486
REMARK SMILES CC(=O)CCC=C(C)CCC=C(C)CCC=C(C)C
REMARK SMILES IDX 10 1 11 2 12 3 13 4 14 5 15 6 16 7 18 8 17 9 19 10 9 11 7 12
REMARK SMILES IDX 6 13 8 14 5 15 4 16 2 17 3 18 1 19
REMARK H PARENT
REMARK Flexibility Score: inf
ROOT
ATOM      1  C   UNL     1       2.575 -19.146  13.950  1.00  0.00     0.032 C 
ENDROOT
BRANCH   1   2
ATOM      2  C   UNL     1       2.111 -19.657  15.293  1.00  0.00    -0.028 C 
ATOM      3  C   UNL     1       0.936 -19.338  15.881  1.00  0.00    -0.077 C 
ATOM      4  C   UNL     1       0.607 -19.969  17.208  1.00  0.00     0.039 C 
BRANCH   3   5
ATOM      5  C   UNL     1      -0.033 -18.328  15.295  1.00  0.00     0.034 C 
BRANCH   5   6
ATOM      6  C   UNL     1      -0.253 -17.165  16.269  1.00  0.00     0.032 C 
BRANCH   6   7
ATOM      7  C   UNL     1       0.473 -15.922  15.813  1.00  0.00    -0.028 C 
ATOM      8  C   UNL     1       2.381 -16.362  17.364  1.00  0.00     0.039 C 
ATOM      9  C   UNL     1       1.673 -15.550  16.308  1.00  0.00    -0.080 C 
ATOM     10  C   UNL     1       2.341 -14.296  15.806  1.00  0.00     0.039 C 
ENDBRANCH   6   7
ENDBRANCH   5   6
ENDBRANCH   3   5
ENDBRANCH   1   2
BRANCH   1  11
ATOM     11  C   UNL     1       3.583 -17.997  14.095  1.00  0.00     0.034 C 
BRANCH  11  12
ATOM     12  C   UNL     1       3.254 -16.840  13.172  1.00  0.00    -0.077 C 
ATOM     13  C   UNL     1       2.049 -16.810  12.559  1.00  0.00    -0.028 C 
ATOM     14  C   UNL     1       4.285 -15.756  12.958  1.00  0.00     0.039 C 
BRANCH  13  15
ATOM     15  C   UNL     1       1.572 -15.685  11.675  1.00  0.00     0.035 C 
BRANCH  15  16
ATOM     16  C   UNL     1       1.859 -15.999  10.202  1.00  0.00     0.079 C 
BRANCH  16  17
ATOM     17  C   UNL     1       0.898 -15.265   9.305  1.00  0.00     0.130 C 
ATOM     18  O   UNL     1       1.045 -14.067   9.119  1.00  0.00    -0.300 OA
ATOM     19  C   UNL     1      -0.235 -15.977   8.627  1.00  0.00     0.087 C 
ENDBRANCH  16  17
ENDBRANCH  15  16
ENDBRANCH  13  15
ENDBRANCH  11  12
ENDBRANCH   1  11
TORSDOF 9
ENDMDL
MODEL 4
REMARK VINA RESULT:    -3.813      2.814      7.066
REMARK INTER + INTRA:          -8.305
REMARK INTER:                  -5.754
REMARK INTRA:                  -2.552
REMARK UNBOUND:                -2.486
REMARK SMILES CC(=O)CCC=C(C)CCC=C(C)CCC=C(C)C
REMARK SMILES IDX 10 1 11 2 12 3 13 4 14 5 15 6 16 7 18 8 17 9 19 10 9 11 7 12
REMARK SMILES IDX 6 13 8 14 5 15 4 16 2 17 3 18 1 19
REMARK H PARENT
REMARK Flexibility Score: inf
ROOT
ATOM      1  C   UNL     1       0.988 -18.016  14.258  1.00  0.00     0.032 C 
ENDROOT
BRANCH   1   2
ATOM      2  C   UNL     1       1.153 -18.828  15.520  1.00  0.00    -0.028 C 
ATOM      3  C   UNL     1       2.115 -19.756  15.726  1.00  0.00    -0.077 C 
ATOM      4  C   UNL     1       2.165 -20.449  17.063  1.00  0.00     0.039 C 
BRANCH   3   5
ATOM      5  C   UNL     1       3.102 -20.175  14.653  1.00  0.00     0.034 C 
BRANCH   5   6
ATOM      6  C   UNL     1       4.515 -19.695  15.003  1.00  0.00     0.032 C 
BRANCH   6   7
ATOM      7  C   UNL     1       4.848 -18.405  14.292  1.00  0.00    -0.028 C 
ATOM      8  C   UNL     1       4.553 -17.075  16.385  1.00  0.00     0.039 C 
ATOM      9  C   UNL     1       4.866 -17.207  14.916  1.00  0.00    -0.080 C 
ATOM     10  C   UNL     1       5.206 -15.959  14.143  1.00  0.00     0.039 C 
ENDBRANCH   6   7
ENDBRANCH   5   6
ENDBRANCH   3   5
ENDBRANCH   1   2
BRANCH   1  11
ATOM     11  C   UNL     1       1.283 -16.528  14.497  1.00  0.00     0.034 C 
BRANCH  11  12
ATOM     12  C   UNL     1       1.631 -15.810  13.209  1.00  0.00    -0.077 C 
ATOM     13  C   UNL     1       2.099 -16.526  12.161  1.00  0.00    -0.028 C 
ATOM     14  C   UNL     1       1.450 -14.311  13.132  1.00  0.00     0.039 C 
BRANCH  13  15
ATOM     15  C   UNL     1       2.414 -15.946  10.806  1.00  0.00     0.035 C 
BRANCH  15  16
ATOM     16  C   UNL     1       1.592 -16.644   9.717  1.00  0.00     0.079 C 
BRANCH  16  17
ATOM     17  C   UNL     1       0.525 -15.725   9.185  1.00  0.00     0.130 C 
ATOM     18  O   UNL     1      -0.383 -16.185   8.510  1.00  0.00    -0.300 OA
ATOM     19  C   UNL     1       0.548 -14.253   9.473  1.00  0.00     0.087 C 
ENDBRANCH  16  17
ENDBRANCH  15  16
ENDBRANCH  13  15
ENDBRANCH  11  12
ENDBRANCH   1  11
TORSDOF 9
ENDMDL
MODEL 5
REMARK VINA RESULT:    -3.804      1.768      3.349
REMARK INTER + INTRA:          -8.291
REMARK INTER:                  -7.049
REMARK INTRA:                  -1.242
REMARK UNBOUND:                -2.486
REMARK SMILES CC(=O)CCC=C(C)CCC=C(C)CCC=C(C)C
REMARK SMILES IDX 10 1 11 2 12 3 13 4 14 5 15 6 16 7 18 8 17 9 19 10 9 11 7 12
REMARK SMILES IDX 6 13 8 14 5 15 4 16 2 17 3 18 1 19
REMARK H PARENT
REMARK Flexibility Score: inf
ROOT
ATOM      1  C   UNL     1       2.399 -15.832  11.060  1.00  0.00     0.032 C 
ENDROOT
BRANCH   1   2
ATOM      2  C   UNL     1       1.365 -16.257  10.046  1.00  0.00    -0.028 C 
ATOM      3  C   UNL     1       0.564 -15.415   9.354  1.00  0.00    -0.077 C 
ATOM      4  C   UNL     1      -0.388 -16.002   8.345  1.00  0.00     0.039 C 
BRANCH   3   5
ATOM      5  C   UNL     1       0.535 -13.918   9.595  1.00  0.00     0.034 C 
BRANCH   5   6
ATOM      6  C   UNL     1       1.413 -13.190   8.571  1.00  0.00     0.032 C 
BRANCH   6   7
ATOM      7  C   UNL     1       2.531 -12.433   9.247  1.00  0.00    -0.028 C 
ATOM      8  C   UNL     1       4.240 -14.069   8.445  1.00  0.00     0.039 C 
ATOM      9  C   UNL     1       3.822 -12.828   9.194  1.00  0.00    -0.080 C 
ATOM     10  C   UNL     1       4.887 -12.024   9.894  1.00  0.00     0.039 C 
ENDBRANCH   6   7
ENDBRANCH   5   6
ENDBRANCH   3   5
ENDBRANCH   1   2
BRANCH   1  11
ATOM     11  C   UNL     1       1.751 -15.235  12.317  1.00  0.00     0.034 C 
BRANCH  11  12
ATOM     12  C   UNL     1       1.733 -16.224  13.465  1.00  0.00    -0.077 C 
ATOM     13  C   UNL     1       1.989 -17.529  13.214  1.00  0.00    -0.028 C 
ATOM     14  C   UNL     1       1.423 -15.727  14.858  1.00  0.00     0.039 C 
BRANCH  13  15
ATOM     15  C   UNL     1       2.071 -18.599  14.272  1.00  0.00     0.035 C 
BRANCH  15  16
ATOM     16  C   UNL     1       3.515 -19.087  14.434  1.00  0.00     0.079 C 
BRANCH  16  17
ATOM     17  C   UNL     1       3.546 -20.550  14.787  1.00  0.00     0.130 C 
ATOM     18  O   UNL     1       3.337 -20.895  15.939  1.00  0.00    -0.300 OA
ATOM     19  C   UNL     1       3.821 -21.598  13.749  1.00  0.00     0.087 C 
ENDBRANCH  16  17
ENDBRANCH  15  16
ENDBRANCH  13  15
ENDBRANCH  11  12
ENDBRANCH   1  11
TORSDOF 9
ENDMDL
MODEL 6
REMARK VINA RESULT:    -3.792      1.712      3.313
REMARK INTER + INTRA:          -8.273
REMARK INTER:                  -6.950
REMARK INTRA:                  -1.322
REMARK UNBOUND:                -2.486
REMARK SMILES CC(=O)CCC=C(C)CCC=C(C)CCC=C(C)C
REMARK SMILES IDX 10 1 11 2 12 3 13 4 14 5 15 6 16 7 18 8 17 9 19 10 9 11 7 12
REMARK SMILES IDX 6 13 8 14 5 15 4 16 2 17 3 18 1 19
REMARK H PARENT
REMARK Flexibility Score: inf
ROOT
ATOM      1  C   UNL     1       2.332 -15.391  11.442  1.00  0.00     0.032 C 
ENDROOT
BRANCH   1   2
ATOM      2  C   UNL     1       1.461 -15.991  10.365  1.00  0.00    -0.028 C 
ATOM      3  C   UNL     1       0.620 -15.293   9.568  1.00  0.00    -0.077 C 
ATOM      4  C   UNL     1      -0.148 -16.043   8.511  1.00  0.00     0.039 C 
BRANCH   3   5
ATOM      5  C   UNL     1       0.370 -13.807   9.733  1.00  0.00     0.034 C 
BRANCH   5   6
ATOM      6  C   UNL     1       0.955 -13.027   8.550  1.00  0.00     0.032 C 
BRANCH   6   7
ATOM      7  C   UNL     1       2.456 -12.906   8.662  1.00  0.00    -0.028 C 
ATOM      8  C   UNL     1       2.670 -12.257   6.260  1.00  0.00     0.039 C 
ATOM      9  C   UNL     1       3.243 -12.556   7.622  1.00  0.00    -0.080 C 
ATOM     10  C   UNL     1       4.736 -12.457   7.805  1.00  0.00     0.039 C 
ENDBRANCH   6   7
ENDBRANCH   5   6
ENDBRANCH   3   5
ENDBRANCH   1   2
BRANCH   1  11
ATOM     11  C   UNL     1       1.616 -15.359  12.800  1.00  0.00     0.034 C 
BRANCH  11  12
ATOM     12  C   UNL     1       2.145 -16.423  13.741  1.00  0.00    -0.077 C 
ATOM     13  C   UNL     1       1.566 -17.645  13.746  1.00  0.00    -0.028 C 
ATOM     14  C   UNL     1       3.303 -16.086  14.653  1.00  0.00     0.039 C 
BRANCH  13  15
ATOM     15  C   UNL     1       2.039 -18.809  14.579  1.00  0.00     0.035 C 
BRANCH  15  16
ATOM     16  C   UNL     1       1.002 -19.161  15.651  1.00  0.00     0.079 C 
BRANCH  16  17
ATOM     17  C   UNL     1       1.123 -18.237  16.832  1.00  0.00     0.130 C 
ATOM     18  O   UNL     1       2.128 -18.275  17.525  1.00  0.00    -0.300 OA
ATOM     19  C   UNL     1       0.036 -17.261  17.174  1.00  0.00     0.087 C 
ENDBRANCH  16  17
ENDBRANCH  15  16
ENDBRANCH  13  15
ENDBRANCH  11  12
ENDBRANCH   1  11
TORSDOF 9
ENDMDL
MODEL 7
REMARK VINA RESULT:    -3.719      1.470      2.241
REMARK INTER + INTRA:          -8.162
REMARK INTER:                  -5.842
REMARK INTRA:                  -2.320
REMARK UNBOUND:                -2.486
REMARK SMILES CC(=O)CCC=C(C)CCC=C(C)CCC=C(C)C
REMARK SMILES IDX 10 1 11 2 12 3 13 4 14 5 15 6 16 7 18 8 17 9 19 10 9 11 7 12
REMARK SMILES IDX 6 13 8 14 5 15 4 16 2 17 3 18 1 19
REMARK H PARENT
REMARK Flexibility Score: inf
ROOT
ATOM      1  C   UNL     1       0.731 -15.985   9.546  1.00  0.00     0.032 C 
ENDROOT
BRANCH   1   2
ATOM      2  C   UNL     1       0.448 -14.946   8.487  1.00  0.00    -0.028 C 
ATOM      3  C   UNL     1       0.574 -13.610   8.657  1.00  0.00    -0.077 C 
ATOM      4  C   UNL     1       0.291 -12.711   7.482  1.00  0.00     0.039 C 
BRANCH   3   5
ATOM      5  C   UNL     1       0.924 -12.977   9.990  1.00  0.00     0.034 C 
BRANCH   5   6
ATOM      6  C   UNL     1       2.067 -11.969   9.825  1.00  0.00     0.032 C 
BRANCH   6   7
ATOM      7  C   UNL     1       3.402 -12.595  10.151  1.00  0.00    -0.028 C 
ATOM      8  C   UNL     1       3.985 -12.818   7.733  1.00  0.00     0.039 C 
ATOM      9  C   UNL     1       4.280 -12.985   9.202  1.00  0.00    -0.080 C 
ATOM     10  C   UNL     1       5.595 -13.605   9.600  1.00  0.00     0.039 C 
ENDBRANCH   6   7
ENDBRANCH   5   6
ENDBRANCH   3   5
ENDBRANCH   1   2
BRANCH   1  11
ATOM     11  C   UNL     1       2.237 -16.131   9.809  1.00  0.00     0.034 C 
BRANCH  11  12
ATOM     12  C   UNL     1       2.552 -16.124  11.292  1.00  0.00    -0.077 C 
ATOM     13  C   UNL     1       1.541 -16.258  12.180  1.00  0.00    -0.028 C 
ATOM     14  C   UNL     1       3.987 -15.961  11.737  1.00  0.00     0.039 C 
BRANCH  13  15
ATOM     15  C   UNL     1       1.725 -16.338  13.674  1.00  0.00     0.035 C 
BRANCH  15  16
ATOM     16  C   UNL     1       1.590 -17.786  14.158  1.00  0.00     0.079 C 
BRANCH  16  17
ATOM     17  C   UNL     1       2.793 -18.190  14.968  1.00  0.00     0.130 C 
ATOM     18  O   UNL     1       2.804 -17.985  16.172  1.00  0.00    -0.300 OA
ATOM     19  C   UNL     1       3.979 -18.849  14.329  1.00  0.00     0.087 C 
ENDBRANCH  16  17
ENDBRANCH  15  16
ENDBRANCH  13  15
ENDBRANCH  11  12
ENDBRANCH   1  11
TORSDOF 9
ENDMDL
MODEL 8
REMARK VINA RESULT:    -3.691      1.622      3.682
REMARK INTER + INTRA:          -8.119
REMARK INTER:                  -6.253
REMARK INTRA:                  -1.867
REMARK UNBOUND:                -2.486
REMARK SMILES CC(=O)CCC=C(C)CCC=C(C)CCC=C(C)C
REMARK SMILES IDX 10 1 11 2 12 3 13 4 14 5 15 6 16 7 18 8 17 9 19 10 9 11 7 12
REMARK SMILES IDX 6 13 8 14 5 15 4 16 2 17 3 18 1 19
REMARK H PARENT
REMARK Flexibility Score: inf
ROOT
ATOM      1  C   UNL     1       4.795 -14.324  12.201  1.00  0.00     0.032 C 
ENDROOT
BRANCH   1   2
ATOM      2  C   UNL     1       4.609 -13.754  10.815  1.00  0.00    -0.028 C 
ATOM      3  C   UNL     1       4.201 -14.457   9.734  1.00  0.00    -0.077 C 
ATOM      4  C   UNL     1       4.026 -13.724   8.430  1.00  0.00     0.039 C 
BRANCH   3   5
ATOM      5  C   UNL     1       3.974 -15.956   9.763  1.00  0.00     0.034 C 
BRANCH   5   6
ATOM      6  C   UNL     1       2.664 -16.290  10.485  1.00  0.00     0.032 C 
BRANCH   6   7
ATOM      7  C   UNL     1       1.547 -16.550   9.503  1.00  0.00    -0.028 C 
ATOM      8  C   UNL     1       0.596 -14.267   9.847  1.00  0.00     0.039 C 
ATOM      9  C   UNL     1       0.601 -15.633   9.208  1.00  0.00    -0.080 C 
ATOM     10  C   UNL     1      -0.486 -15.961   8.217  1.00  0.00     0.039 C 
ENDBRANCH   6   7
ENDBRANCH   5   6
ENDBRANCH   3   5
ENDBRANCH   1   2
BRANCH   1  11
ATOM     11  C   UNL     1       3.874 -13.644  13.224  1.00  0.00     0.034 C 
BRANCH  11  12
ATOM     12  C   UNL     1       2.654 -14.489  13.533  1.00  0.00    -0.077 C 
ATOM     13  C   UNL     1       2.824 -15.780  13.899  1.00  0.00    -0.028 C 
ATOM     14  C   UNL     1       1.282 -13.867  13.418  1.00  0.00     0.039 C 
BRANCH  13  15
ATOM     15  C   UNL     1       1.703 -16.705  14.300  1.00  0.00     0.035 C 
BRANCH  15  16
ATOM     16  C   UNL     1       2.012 -18.143  13.871  1.00  0.00     0.079 C 
BRANCH  16  17
ATOM     17  C   UNL     1       1.636 -19.115  14.956  1.00  0.00     0.130 C 
ATOM     18  O   UNL     1       2.341 -20.091  15.162  1.00  0.00    -0.300 OA
ATOM     19  C   UNL     1       0.413 -18.907  15.800  1.00  0.00     0.087 C 
ENDBRANCH  16  17
ENDBRANCH  15  16
ENDBRANCH  13  15
ENDBRANCH  11  12
ENDBRANCH   1  11
TORSDOF 9
ENDMDL
MODEL 9
REMARK VINA RESULT:    -3.644      2.603      5.037
REMARK INTER + INTRA:          -8.048
REMARK INTER:                  -5.475
REMARK INTRA:                  -2.573
REMARK UNBOUND:                -2.486
REMARK SMILES CC(=O)CCC=C(C)CCC=C(C)CCC=C(C)C
REMARK SMILES IDX 10 1 11 2 12 3 13 4 14 5 15 6 16 7 18 8 17 9 19 10 9 11 7 12
REMARK SMILES IDX 6 13 8 14 5 15 4 16 2 17 3 18 1 19
REMARK H PARENT
REMARK Flexibility Score: inf
ROOT
ATOM      1  C   UNL     1       1.302 -12.968  10.052  1.00  0.00     0.032 C 
ENDROOT
BRANCH   1   2
ATOM      2  C   UNL     1       0.373 -13.924   9.343  1.00  0.00    -0.028 C 
ATOM      3  C   UNL     1       0.602 -15.246   9.172  1.00  0.00    -0.077 C 
ATOM      4  C   UNL     1      -0.449 -16.069   8.477  1.00  0.00     0.039 C 
BRANCH   3   5
ATOM      5  C   UNL     1       1.895 -15.920   9.591  1.00  0.00     0.034 C 
BRANCH   5   6
ATOM      6  C   UNL     1       1.782 -16.463  11.020  1.00  0.00     0.032 C 
BRANCH   6   7
ATOM      7  C   UNL     1       2.904 -15.950  11.891  1.00  0.00    -0.028 C 
ATOM      8  C   UNL     1       1.331 -14.572  13.256  1.00  0.00     0.039 C 
ATOM      9  C   UNL     1       2.705 -15.088  12.911  1.00  0.00    -0.080 C 
ATOM     10  C   UNL     1       3.873 -14.617  13.740  1.00  0.00     0.039 C 
ENDBRANCH   6   7
ENDBRANCH   5   6
ENDBRANCH   3   5
ENDBRANCH   1   2
BRANCH   1  11
ATOM     11  C   UNL     1       2.106 -12.116   9.060  1.00  0.00     0.034 C 
BRANCH  11  12
ATOM     12  C   UNL     1       3.493 -12.682   8.827  1.00  0.00    -0.077 C 
ATOM     13  C   UNL     1       4.221 -13.097   9.889  1.00  0.00    -0.028 C 
ATOM     14  C   UNL     1       4.026 -12.760   7.415  1.00  0.00     0.039 C 
BRANCH  13  15
ATOM     15  C   UNL     1       5.580 -13.742   9.789  1.00  0.00     0.035 C 
BRANCH  15  16
ATOM     16  C   UNL     1       5.446 -15.261   9.641  1.00  0.00     0.079 C 
BRANCH  16  17
ATOM     17  C   UNL     1       6.590 -15.965  10.320  1.00  0.00     0.130 C 
ATOM     18  O   UNL     1       7.344 -16.663   9.660  1.00  0.00    -0.300 OA
ATOM     19  C   UNL     1       6.831 -15.820  11.794  1.00  0.00     0.087 C 
ENDBRANCH  16  17
ENDBRANCH  15  16
ENDBRANCH  13  15
ENDBRANCH  11  12
ENDBRANCH   1  11
TORSDOF 9
ENDMDL
