MODEL 1
REMARK VINA RESULT:    -4.395      0.000      0.000
REMARK INTER + INTRA:          -4.793
REMARK INTER:                  -4.780
REMARK INTRA:                  -0.013
REMARK UNBOUND:                -0.013
REMARK SMILES OCc1ccccc1
REMARK SMILES IDX 2 1 3 2 6 3 5 4 7 5 4 6 8 7 1 8
REMARK H PARENT 1 9
REMARK Flexibility Score: inf
ROOT
ATOM      1  C   UNL     1      11.612  16.013  52.308  1.00  0.00     0.191 C 
ENDROOT
BRANCH   1   2
ATOM      2  C   UNL     1      10.424  16.033  53.229  1.00  0.00    -0.023 A 
ATOM      3  C   UNL     1       8.254  16.087  55.007  1.00  0.00     0.000 A 
ATOM      4  C   UNL     1       8.973  14.902  54.818  1.00  0.00     0.000 A 
ATOM      5  C   UNL     1       8.622  17.246  54.319  1.00  0.00     0.000 A 
ATOM      6  C   UNL     1      10.058  14.875  53.936  1.00  0.00     0.006 A 
ATOM      7  C   UNL     1       9.707  17.223  53.437  1.00  0.00     0.006 A 
ENDBRANCH   1   2
BRANCH   1   8
ATOM      8  O   UNL     1      12.538  16.991  52.697  1.00  0.00    -0.392 OA
ATOM      9  H   UNL     1      12.014  17.740  53.082  1.00  0.00     0.211 HD
ENDBRANCH   1   8
TORSDOF 2
ENDMDL
MODEL 2
REMARK VINA RESULT:    -4.262     13.080     14.418
REMARK INTER + INTRA:          -4.649
REMARK INTER:                  -4.636
REMARK INTRA:                  -0.014
REMARK UNBOUND:                -0.013
REMARK SMILES OCc1ccccc1
REMARK SMILES IDX 2 1 3 2 6 3 5 4 7 5 4 6 8 7 1 8
REMARK H PARENT 1 9
REMARK Flexibility Score: inf
ROOT
ATOM      1  C   UNL     1       4.117  31.285  54.089  1.00  0.00     0.191 C 
ENDROOT
BRANCH   1   2
ATOM      2  C   UNL     1       4.325  29.832  53.767  1.00  0.00    -0.023 A 
ATOM      3  C   UNL     1       4.718  27.102  53.243  1.00  0.00     0.000 A 
ATOM      4  C   UNL     1       5.819  27.954  53.375  1.00  0.00     0.000 A 
ATOM      5  C   UNL     1       3.423  27.608  53.382  1.00  0.00     0.000 A 
ATOM      6  C   UNL     1       5.625  29.313  53.641  1.00  0.00     0.006 A 
ATOM      7  C   UNL     1       3.224  28.966  53.649  1.00  0.00     0.006 A 
ENDBRANCH   1   2
BRANCH   1   8
ATOM      8  O   UNL     1       4.871  31.640  55.216  1.00  0.00    -0.392 OA
ATOM      9  H   UNL     1       5.045  30.801  55.717  1.00  0.00     0.211 HD
ENDBRANCH   1   8
TORSDOF 2
ENDMDL
MODEL 3
REMARK VINA RESULT:    -4.050     10.130     10.540
REMARK INTER + INTRA:          -4.418
REMARK INTER:                  -4.409
REMARK INTRA:                  -0.009
REMARK UNBOUND:                -0.013
REMARK SMILES OCc1ccccc1
REMARK SMILES IDX 2 1 3 2 6 3 5 4 7 5 4 6 8 7 1 8
REMARK H PARENT 1 9
REMARK Flexibility Score: inf
ROOT
ATOM      1  C   UNL     1      17.587  23.042  60.343  1.00  0.00     0.191 C 
ENDROOT
BRANCH   1   2
ATOM      2  C   UNL     1      16.169  22.734  59.951  1.00  0.00    -0.023 A 
ATOM      3  C   UNL     1      13.505  22.235  59.221  1.00  0.00     0.000 A 
ATOM      4  C   UNL     1      13.857  22.313  60.573  1.00  0.00     0.000 A 
ATOM      5  C   UNL     1      14.478  22.416  58.235  1.00  0.00     0.000 A 
ATOM      6  C   UNL     1      15.183  22.566  60.938  1.00  0.00     0.006 A 
ATOM      7  C   UNL     1      15.805  22.670  58.596  1.00  0.00     0.006 A 
ENDBRANCH   1   2
BRANCH   1   8
ATOM      8  O   UNL     1      18.337  21.859  60.403  1.00  0.00    -0.392 OA
ATOM      9  H   UNL     1      17.875  21.264  61.049  1.00  0.00     0.211 HD
ENDBRANCH   1   8
TORSDOF 2
ENDMDL
MODEL 4
REMARK VINA RESULT:    -4.044     12.615     14.036
REMARK INTER + INTRA:          -4.411
REMARK INTER:                  -4.394
REMARK INTRA:                  -0.017
REMARK UNBOUND:                -0.013
REMARK SMILES OCc1ccccc1
REMARK SMILES IDX 2 1 3 2 6 3 5 4 7 5 4 6 8 7 1 8
REMARK H PARENT 1 9
REMARK Flexibility Score: inf
ROOT
ATOM      1  C   UNL     1       2.777  29.655  53.784  1.00  0.00     0.191 C 
ENDROOT
BRANCH   1   2
ATOM      2  C   UNL     1       3.591  28.729  52.925  1.00  0.00    -0.023 A 
ATOM      3  C   UNL     1       5.175  27.025  51.355  1.00  0.00     0.000 A 
ATOM      4  C   UNL     1       4.901  28.325  50.917  1.00  0.00     0.000 A 
ATOM      5  C   UNL     1       4.669  26.578  52.578  1.00  0.00     0.000 A 
ATOM      6  C   UNL     1       4.116  29.176  51.701  1.00  0.00     0.006 A 
ATOM      7  C   UNL     1       3.884  27.427  53.365  1.00  0.00     0.006 A 
ENDBRANCH   1   2
BRANCH   1   8
ATOM      8  O   UNL     1       1.914  28.917  54.605  1.00  0.00    -0.392 OA
ATOM      9  H   UNL     1       2.489  28.348  55.181  1.00  0.00     0.211 HD
ENDBRANCH   1   8
TORSDOF 2
ENDMDL
MODEL 5
REMARK VINA RESULT:    -4.030     10.158     10.589
REMARK INTER + INTRA:          -4.397
REMARK INTER:                  -4.387
REMARK INTRA:                  -0.010
REMARK UNBOUND:                -0.013
REMARK SMILES OCc1ccccc1
REMARK SMILES IDX 2 1 3 2 6 3 5 4 7 5 4 6 8 7 1 8
REMARK H PARENT 1 9
REMARK Flexibility Score: inf
ROOT
ATOM      1  C   UNL     1      17.606  23.025  60.363  1.00  0.00     0.191 C 
ENDROOT
BRANCH   1   2
ATOM      2  C   UNL     1      16.170  22.748  60.015  1.00  0.00    -0.023 A 
ATOM      3  C   UNL     1      13.506  22.155  59.362  1.00  0.00     0.000 A 
ATOM      4  C   UNL     1      14.444  22.366  58.346  1.00  0.00     0.000 A 
ATOM      5  C   UNL     1      13.896  22.230  60.701  1.00  0.00     0.000 A 
ATOM      6  C   UNL     1      15.773  22.656  58.670  1.00  0.00     0.006 A 
ATOM      7  C   UNL     1      15.225  22.519  61.029  1.00  0.00     0.006 A 
ENDBRANCH   1   2
BRANCH   1   8
ATOM      8  O   UNL     1      18.330  21.826  60.403  1.00  0.00    -0.392 OA
ATOM      9  H   UNL     1      18.748  21.777  61.303  1.00  0.00     0.211 HD
ENDBRANCH   1   8
TORSDOF 2
ENDMDL
MODEL 6
REMARK VINA RESULT:    -4.001      8.616      9.402
REMARK INTER + INTRA:          -4.365
REMARK INTER:                  -4.348
REMARK INTRA:                  -0.017
REMARK UNBOUND:                -0.013
REMARK SMILES OCc1ccccc1
REMARK SMILES IDX 2 1 3 2 6 3 5 4 7 5 4 6 8 7 1 8
REMARK H PARENT 1 9
REMARK Flexibility Score: inf
ROOT
ATOM      1  C   UNL     1      10.819  22.018  58.867  1.00  0.00     0.191 C 
ENDROOT
BRANCH   1   2
ATOM      2  C   UNL     1      12.305  22.187  59.010  1.00  0.00    -0.023 A 
ATOM      3  C   UNL     1      15.072  22.579  59.265  1.00  0.00     0.000 A 
ATOM      4  C   UNL     1      14.513  22.346  58.004  1.00  0.00     0.000 A 
ATOM      5  C   UNL     1      14.253  22.627  60.395  1.00  0.00     0.000 A 
ATOM      6  C   UNL     1      13.133  22.155  57.875  1.00  0.00     0.006 A 
ATOM      7  C   UNL     1      12.873  22.437  60.270  1.00  0.00     0.006 A 
ENDBRANCH   1   2
BRANCH   1   8
ATOM      8  O   UNL     1      10.153  22.757  59.855  1.00  0.00    -0.392 OA
ATOM      9  H   UNL     1       9.195  22.776  59.598  1.00  0.00     0.211 HD
ENDBRANCH   1   8
TORSDOF 2
ENDMDL
MODEL 7
REMARK VINA RESULT:    -3.999      8.579      9.357
REMARK INTER + INTRA:          -4.363
REMARK INTER:                  -4.345
REMARK INTRA:                  -0.018
REMARK UNBOUND:                -0.013
REMARK SMILES OCc1ccccc1
REMARK SMILES IDX 2 1 3 2 6 3 5 4 7 5 4 6 8 7 1 8
REMARK H PARENT 1 9
REMARK Flexibility Score: inf
ROOT
ATOM      1  C   UNL     1      10.768  22.021  58.847  1.00  0.00     0.191 C 
ENDROOT
BRANCH   1   2
ATOM      2  C   UNL     1      12.251  22.205  59.002  1.00  0.00    -0.023 A 
ATOM      3  C   UNL     1      15.028  22.472  59.309  1.00  0.00     0.000 A 
ATOM      4  C   UNL     1      14.186  22.612  60.417  1.00  0.00     0.000 A 
ATOM      5  C   UNL     1      14.488  22.190  58.052  1.00  0.00     0.000 A 
ATOM      6  C   UNL     1      12.803  22.474  60.267  1.00  0.00     0.006 A 
ATOM      7  C   UNL     1      13.105  22.050  57.897  1.00  0.00     0.006 A 
ENDBRANCH   1   2
BRANCH   1   8
ATOM      8  O   UNL     1      10.089  22.702  59.867  1.00  0.00    -0.392 OA
ATOM      9  H   UNL     1      10.623  22.579  60.694  1.00  0.00     0.211 HD
ENDBRANCH   1   8
TORSDOF 2
ENDMDL
MODEL 8
REMARK VINA RESULT:    -3.869     13.427     14.632
REMARK INTER + INTRA:          -4.222
REMARK INTER:                  -4.208
REMARK INTRA:                  -0.014
REMARK UNBOUND:                -0.013
REMARK SMILES OCc1ccccc1
REMARK SMILES IDX 2 1 3 2 6 3 5 4 7 5 4 6 8 7 1 8
REMARK H PARENT 1 9
REMARK Flexibility Score: inf
ROOT
ATOM      1  C   UNL     1       3.771  28.069  53.113  1.00  0.00     0.191 C 
ENDROOT
BRANCH   1   2
ATOM      2  C   UNL     1       4.579  29.234  53.612  1.00  0.00    -0.023 A 
ATOM      3  C   UNL     1       6.093  31.436  54.469  1.00  0.00     0.000 A 
ATOM      4  C   UNL     1       6.736  30.269  54.043  1.00  0.00     0.000 A 
ATOM      5  C   UNL     1       4.698  31.509  54.458  1.00  0.00     0.000 A 
ATOM      6  C   UNL     1       5.983  29.173  53.610  1.00  0.00     0.006 A 
ATOM      7  C   UNL     1       3.942  30.415  54.026  1.00  0.00     0.006 A 
ENDBRANCH   1   2
BRANCH   1   8
ATOM      8  O   UNL     1       4.280  26.872  53.635  1.00  0.00    -0.392 OA
ATOM      9  H   UNL     1       5.202  27.067  53.946  1.00  0.00     0.211 HD
ENDBRANCH   1   8
TORSDOF 2
ENDMDL
