MODEL 1
REMARK VINA RESULT:    -5.792      0.000      0.000
REMARK INTER + INTRA:          -9.262
REMARK INTER:                  -8.839
REMARK INTRA:                  -0.424
REMARK UNBOUND:                -0.424
REMARK SMILES O=C([O-])CCCCCCCCC(=O)[O-]
REMARK SMILES IDX 7 1 6 2 5 3 4 4 2 5 1 6 3 7 8 8 9 9 10 10 11 11 12 12 13 13
REMARK SMILES IDX 14 14
REMARK H PARENT
REMARK Flexibility Score: inf
ROOT
ATOM      1  C   UNL     1      -3.128  26.891  55.844  1.00  0.00     0.000 C 
ENDROOT
BRANCH   1   2
ATOM      2  C   UNL     1      -2.332  26.318  54.661  1.00  0.00     0.000 C 
BRANCH   2   3
ATOM      3  C   UNL     1      -3.146  26.398  53.364  1.00  0.00     0.006 C 
BRANCH   3   4
ATOM      4  C   UNL     1      -2.238  26.271  52.137  1.00  0.00     0.053 C 
BRANCH   4   5
ATOM      5  C   UNL     1      -2.972  26.676  50.897  1.00  0.00     0.041 C 
ATOM      6  O   UNL     1      -2.425  27.439  50.058  1.00  0.00    -0.550 OA
ATOM      7  O   UNL     1      -4.241  26.171  50.644  1.00  0.00    -0.550 OA
ENDBRANCH   4   5
ENDBRANCH   3   4
ENDBRANCH   2   3
ENDBRANCH   1   2
BRANCH   1   8
ATOM      8  C   UNL     1      -4.516  27.405  55.431  1.00  0.00     0.000 C 
BRANCH   8   9
ATOM      9  C   UNL     1      -4.972  28.612  56.264  1.00  0.00     0.000 C 
BRANCH   9  10
ATOM     10  C   UNL     1      -3.813  29.167  57.106  1.00  0.00     0.006 C 
BRANCH  10  11
ATOM     11  C   UNL     1      -4.039  30.629  57.514  1.00  0.00     0.053 C 
BRANCH  11  12
ATOM     12  C   UNL     1      -4.307  30.760  58.983  1.00  0.00     0.041 C 
ATOM     13  O   UNL     1      -5.174  30.035  59.537  1.00  0.00    -0.550 OA
ATOM     14  O   UNL     1      -3.619  31.706  59.732  1.00  0.00    -0.550 OA
ENDBRANCH  11  12
ENDBRANCH  10  11
ENDBRANCH   9  10
ENDBRANCH   8   9
ENDBRANCH   1   8
TORSDOF 9
ENDMDL
MODEL 2
REMARK VINA RESULT:    -5.612      0.755      7.314
REMARK INTER + INTRA:          -8.989
REMARK INTER:                  -8.546
REMARK INTRA:                  -0.443
REMARK UNBOUND:                -0.424
REMARK SMILES O=C([O-])CCCCCCCCC(=O)[O-]
REMARK SMILES IDX 7 1 6 2 5 3 4 4 2 5 1 6 3 7 8 8 9 9 10 10 11 11 12 12 13 13
REMARK SMILES IDX 14 14
REMARK H PARENT
REMARK Flexibility Score: inf
ROOT
ATOM      1  C   UNL     1      -4.342  27.438  55.241  1.00  0.00     0.000 C 
ENDROOT
BRANCH   1   2
ATOM      2  C   UNL     1      -4.579  28.594  56.223  1.00  0.00     0.000 C 
BRANCH   2   3
ATOM      3  C   UNL     1      -3.466  28.654  57.277  1.00  0.00     0.006 C 
BRANCH   3   4
ATOM      4  C   UNL     1      -3.001  30.096  57.503  1.00  0.00     0.053 C 
BRANCH   4   5
ATOM      5  C   UNL     1      -4.004  30.849  58.319  1.00  0.00     0.041 C 
ATOM      6  O   UNL     1      -4.611  30.277  59.263  1.00  0.00    -0.550 OA
ATOM      7  O   UNL     1      -4.233  32.196  58.071  1.00  0.00    -0.550 OA
ENDBRANCH   4   5
ENDBRANCH   3   4
ENDBRANCH   2   3
ENDBRANCH   1   2
BRANCH   1   8
ATOM      8  C   UNL     1      -3.098  26.606  55.593  1.00  0.00     0.000 C 
BRANCH   8   9
ATOM      9  C   UNL     1      -2.228  26.294  54.367  1.00  0.00     0.000 C 
BRANCH   9  10
ATOM     10  C   UNL     1      -3.044  26.414  53.070  1.00  0.00     0.006 C 
BRANCH  10  11
ATOM     11  C   UNL     1      -2.227  26.027  51.831  1.00  0.00     0.053 C 
BRANCH  11  12
ATOM     12  C   UNL     1      -2.696  26.753  50.607  1.00  0.00     0.041 C 
ATOM     13  O   UNL     1      -3.889  26.642  50.222  1.00  0.00    -0.550 OA
ATOM     14  O   UNL     1      -1.805  27.527  49.875  1.00  0.00    -0.550 OA
ENDBRANCH  11  12
ENDBRANCH  10  11
ENDBRANCH   9  10
ENDBRANCH   8   9
ENDBRANCH   1   8
TORSDOF 9
ENDMDL
MODEL 3
REMARK VINA RESULT:    -5.324      3.549      4.359
REMARK INTER + INTRA:          -8.549
REMARK INTER:                  -7.959
REMARK INTRA:                  -0.590
REMARK UNBOUND:                -0.424
REMARK SMILES O=C([O-])CCCCCCCCC(=O)[O-]
REMARK SMILES IDX 7 1 6 2 5 3 4 4 2 5 1 6 3 7 8 8 9 9 10 10 11 11 12 12 13 13
REMARK SMILES IDX 14 14
REMARK H PARENT
REMARK Flexibility Score: inf
ROOT
ATOM      1  C   UNL     1      -2.699  26.218  55.424  1.00  0.00     0.000 C 
ENDROOT
BRANCH   1   2
ATOM      2  C   UNL     1      -1.446  26.125  54.539  1.00  0.00     0.000 C 
BRANCH   2   3
ATOM      3  C   UNL     1      -0.171  26.139  55.391  1.00  0.00     0.006 C 
BRANCH   3   4
ATOM      4  C   UNL     1      -0.318  27.089  56.584  1.00  0.00     0.053 C 
BRANCH   4   5
ATOM      5  C   UNL     1       1.027  27.475  57.114  1.00  0.00     0.041 C 
ATOM      6  O   UNL     1       2.024  26.733  56.914  1.00  0.00    -0.550 OA
ATOM      7  O   UNL     1       1.190  28.680  57.787  1.00  0.00    -0.550 OA
ENDBRANCH   4   5
ENDBRANCH   3   4
ENDBRANCH   2   3
ENDBRANCH   1   2
BRANCH   1   8
ATOM      8  C   UNL     1      -3.905  26.816  54.683  1.00  0.00     0.000 C 
BRANCH   8   9
ATOM      9  C   UNL     1      -4.670  27.844  55.530  1.00  0.00     0.000 C 
BRANCH   9  10
ATOM     10  C   UNL     1      -3.698  28.761  56.289  1.00  0.00     0.006 C 
BRANCH  10  11
ATOM     11  C   UNL     1      -4.417  29.651  57.310  1.00  0.00     0.053 C 
BRANCH  11  12
ATOM     12  C   UNL     1      -3.447  30.404  58.169  1.00  0.00     0.041 C 
ATOM     13  O   UNL     1      -2.208  30.253  58.011  1.00  0.00    -0.550 OA
ATOM     14  O   UNL     1      -3.916  31.250  59.167  1.00  0.00    -0.550 OA
ENDBRANCH  11  12
ENDBRANCH  10  11
ENDBRANCH   9  10
ENDBRANCH   8   9
ENDBRANCH   1   8
TORSDOF 9
ENDMDL
MODEL 4
REMARK VINA RESULT:    -5.232      3.536      6.413
REMARK INTER + INTRA:          -8.408
REMARK INTER:                  -7.751
REMARK INTRA:                  -0.657
REMARK UNBOUND:                -0.424
REMARK SMILES O=C([O-])CCCCCCCCC(=O)[O-]
REMARK SMILES IDX 7 1 6 2 5 3 4 4 2 5 1 6 3 7 8 8 9 9 10 10 11 11 12 12 13 13
REMARK SMILES IDX 14 14
REMARK H PARENT
REMARK Flexibility Score: inf
ROOT
ATOM      1  C   UNL     1      -4.138  27.165  55.364  1.00  0.00     0.000 C 
ENDROOT
BRANCH   1   2
ATOM      2  C   UNL     1      -4.558  28.362  56.230  1.00  0.00     0.000 C 
BRANCH   2   3
ATOM      3  C   UNL     1      -3.450  29.421  56.275  1.00  0.00     0.006 C 
BRANCH   3   4
ATOM      4  C   UNL     1      -3.070  29.757  57.721  1.00  0.00     0.053 C 
BRANCH   4   5
ATOM      5  C   UNL     1      -4.094  30.658  58.336  1.00  0.00     0.041 C 
ATOM      6  O   UNL     1      -4.842  30.233  59.255  1.00  0.00    -0.550 OA
ATOM      7  O   UNL     1      -4.189  31.983  57.930  1.00  0.00    -0.550 OA
ENDBRANCH   4   5
ENDBRANCH   3   4
ENDBRANCH   2   3
ENDBRANCH   1   2
BRANCH   1   8
ATOM      8  C   UNL     1      -2.872  26.469  55.889  1.00  0.00     0.000 C 
BRANCH   8   9
ATOM      9  C   UNL     1      -1.700  26.546  54.900  1.00  0.00     0.000 C 
BRANCH   9  10
ATOM     10  C   UNL     1      -0.367  26.250  55.604  1.00  0.00     0.006 C 
BRANCH  10  11
ATOM     11  C   UNL     1      -0.101  27.208  56.772  1.00  0.00     0.053 C 
BRANCH  11  12
ATOM     12  C   UNL     1       1.335  27.176  57.200  1.00  0.00     0.041 C 
ATOM     13  O   UNL     1       2.253  27.355  56.357  1.00  0.00    -0.550 OA
ATOM     14  O   UNL     1       1.659  26.917  58.526  1.00  0.00    -0.550 OA
ENDBRANCH  11  12
ENDBRANCH  10  11
ENDBRANCH   9  10
ENDBRANCH   8   9
ENDBRANCH   1   8
TORSDOF 9
ENDMDL
MODEL 5
REMARK VINA RESULT:    -5.125      2.606      2.976
REMARK INTER + INTRA:          -8.245
REMARK INTER:                  -7.833
REMARK INTRA:                  -0.412
REMARK UNBOUND:                -0.424
REMARK SMILES O=C([O-])CCCCCCCCC(=O)[O-]
REMARK SMILES IDX 7 1 6 2 5 3 4 4 2 5 1 6 3 7 8 8 9 9 10 10 11 11 12 12 13 13
REMARK SMILES IDX 14 14
REMARK H PARENT
REMARK Flexibility Score: inf
ROOT
ATOM      1  C   UNL     1      -2.699  26.235  55.064  1.00  0.00     0.000 C 
ENDROOT
BRANCH   1   2
ATOM      2  C   UNL     1      -1.408  26.675  55.771  1.00  0.00     0.000 C 
BRANCH   2   3
ATOM      3  C   UNL     1      -0.181  26.006  55.138  1.00  0.00     0.006 C 
BRANCH   3   4
ATOM      4  C   UNL     1      -0.462  25.603  53.687  1.00  0.00     0.053 C 
BRANCH   4   5
ATOM      5  C   UNL     1       0.632  24.726  53.166  1.00  0.00     0.041 C 
ATOM      6  O   UNL     1       1.092  23.796  53.878  1.00  0.00    -0.550 OA
ATOM      7  O   UNL     1       1.109  24.903  51.873  1.00  0.00    -0.550 OA
ENDBRANCH   4   5
ENDBRANCH   3   4
ENDBRANCH   2   3
ENDBRANCH   1   2
BRANCH   1   8
ATOM      8  C   UNL     1      -3.914  27.085  55.467  1.00  0.00     0.000 C 
BRANCH   8   9
ATOM      9  C   UNL     1      -3.555  28.562  55.691  1.00  0.00     0.000 C 
BRANCH   9  10
ATOM     10  C   UNL     1      -4.274  29.119  56.929  1.00  0.00     0.006 C 
BRANCH  10  11
ATOM     11  C   UNL     1      -3.364  30.019  57.773  1.00  0.00     0.053 C 
BRANCH  11  12
ATOM     12  C   UNL     1      -4.150  31.034  58.548  1.00  0.00     0.041 C 
ATOM     13  O   UNL     1      -4.712  30.712  59.627  1.00  0.00    -0.550 OA
ATOM     14  O   UNL     1      -4.287  32.327  58.058  1.00  0.00    -0.550 OA
ENDBRANCH  11  12
ENDBRANCH  10  11
ENDBRANCH   9  10
ENDBRANCH   8   9
ENDBRANCH   1   8
TORSDOF 9
ENDMDL
MODEL 6
REMARK VINA RESULT:    -5.112      2.133      2.648
REMARK INTER + INTRA:          -8.226
REMARK INTER:                  -7.867
REMARK INTRA:                  -0.358
REMARK UNBOUND:                -0.424
REMARK SMILES O=C([O-])CCCCCCCCC(=O)[O-]
REMARK SMILES IDX 7 1 6 2 5 3 4 4 2 5 1 6 3 7 8 8 9 9 10 10 11 11 12 12 13 13
REMARK SMILES IDX 14 14
REMARK H PARENT
REMARK Flexibility Score: inf
ROOT
ATOM      1  C   UNL     1      -1.666  26.418  55.345  1.00  0.00     0.000 C 
ENDROOT
BRANCH   1   2
ATOM      2  C   UNL     1      -0.469  25.782  54.622  1.00  0.00     0.000 C 
BRANCH   2   3
ATOM      3  C   UNL     1      -0.718  25.704  53.111  1.00  0.00     0.006 C 
BRANCH   3   4
ATOM      4  C   UNL     1       0.453  25.024  52.395  1.00  0.00     0.053 C 
BRANCH   4   5
ATOM      5  C   UNL     1       0.521  25.466  50.967  1.00  0.00     0.041 C 
ATOM      6  O   UNL     1       1.609  25.406  50.337  1.00  0.00    -0.550 OA
ATOM      7  O   UNL     1      -0.628  25.896  50.316  1.00  0.00    -0.550 OA
ENDBRANCH   4   5
ENDBRANCH   3   4
ENDBRANCH   2   3
ENDBRANCH   1   2
BRANCH   1   8
ATOM      8  C   UNL     1      -2.966  26.328  54.529  1.00  0.00     0.000 C 
BRANCH   8   9
ATOM      9  C   UNL     1      -4.126  27.096  55.178  1.00  0.00     0.000 C 
BRANCH   9  10
ATOM     10  C   UNL     1      -3.609  28.316  55.956  1.00  0.00     0.006 C 
BRANCH  10  11
ATOM     11  C   UNL     1      -4.699  28.955  56.826  1.00  0.00     0.053 C 
BRANCH  11  12
ATOM     12  C   UNL     1      -4.120  29.896  57.839  1.00  0.00     0.041 C 
ATOM     13  O   UNL     1      -2.945  30.327  57.706  1.00  0.00    -0.550 OA
ATOM     14  O   UNL     1      -4.869  30.269  58.948  1.00  0.00    -0.550 OA
ENDBRANCH  11  12
ENDBRANCH  10  11
ENDBRANCH   9  10
ENDBRANCH   8   9
ENDBRANCH   1   8
TORSDOF 9
ENDMDL
MODEL 7
REMARK VINA RESULT:    -5.027      2.726      7.661
REMARK INTER + INTRA:          -8.095
REMARK INTER:                  -7.791
REMARK INTRA:                  -0.304
REMARK UNBOUND:                -0.424
REMARK SMILES O=C([O-])CCCCCCCCC(=O)[O-]
REMARK SMILES IDX 7 1 6 2 5 3 4 4 2 5 1 6 3 7 8 8 9 9 10 10 11 11 12 12 13 13
REMARK SMILES IDX 14 14
REMARK H PARENT
REMARK Flexibility Score: inf
ROOT
ATOM      1  C   UNL     1      -4.221  27.761  55.501  1.00  0.00     0.000 C 
ENDROOT
BRANCH   1   2
ATOM      2  C   UNL     1      -3.389  28.848  56.198  1.00  0.00     0.000 C 
BRANCH   2   3
ATOM      3  C   UNL     1      -4.266  29.703  57.121  1.00  0.00     0.006 C 
BRANCH   3   4
ATOM      4  C   UNL     1      -3.409  30.519  58.093  1.00  0.00     0.053 C 
BRANCH   4   5
ATOM      5  C   UNL     1      -4.190  30.858  59.323  1.00  0.00     0.041 C 
ATOM      6  O   UNL     1      -5.208  30.185  59.633  1.00  0.00    -0.550 OA
ATOM      7  O   UNL     1      -3.765  31.886  60.156  1.00  0.00    -0.550 OA
ENDBRANCH   4   5
ENDBRANCH   3   4
ENDBRANCH   2   3
ENDBRANCH   1   2
BRANCH   1   8
ATOM      8  C   UNL     1      -3.390  26.518  55.142  1.00  0.00     0.000 C 
BRANCH   8   9
ATOM      9  C   UNL     1      -1.911  26.664  55.529  1.00  0.00     0.000 C 
BRANCH   9  10
ATOM     10  C   UNL     1      -1.008  25.915  54.535  1.00  0.00     0.006 C 
BRANCH  10  11
ATOM     11  C   UNL     1       0.457  25.887  54.988  1.00  0.00     0.053 C 
BRANCH  11  12
ATOM     12  C   UNL     1       1.324  25.147  54.015  1.00  0.00     0.041 C 
ATOM     13  O   UNL     1       2.577  25.202  54.113  1.00  0.00    -0.550 OA
ATOM     14  O   UNL     1       0.745  24.423  52.980  1.00  0.00    -0.550 OA
ENDBRANCH  11  12
ENDBRANCH  10  11
ENDBRANCH   9  10
ENDBRANCH   8   9
ENDBRANCH   1   8
TORSDOF 9
ENDMDL
MODEL 8
REMARK VINA RESULT:    -4.956      3.607      4.124
REMARK INTER + INTRA:          -7.987
REMARK INTER:                  -7.660
REMARK INTRA:                  -0.327
REMARK UNBOUND:                -0.424
REMARK SMILES O=C([O-])CCCCCCCCC(=O)[O-]
REMARK SMILES IDX 7 1 6 2 5 3 4 4 2 5 1 6 3 7 8 8 9 9 10 10 11 11 12 12 13 13
REMARK SMILES IDX 14 14
REMARK H PARENT
REMARK Flexibility Score: inf
ROOT
ATOM      1  C   UNL     1      -2.544  26.049  55.082  1.00  0.00     0.000 C 
ENDROOT
BRANCH   1   2
ATOM      2  C   UNL     1      -1.274  26.016  54.218  1.00  0.00     0.000 C 
BRANCH   2   3
ATOM      3  C   UNL     1      -0.016  26.014  55.094  1.00  0.00     0.006 C 
BRANCH   3   4
ATOM      4  C   UNL     1       1.160  25.357  54.365  1.00  0.00     0.053 C 
BRANCH   4   5
ATOM      5  C   UNL     1       2.444  25.640  55.079  1.00  0.00     0.041 C 
ATOM      6  O   UNL     1       2.617  26.745  55.658  1.00  0.00    -0.550 OA
ATOM      7  O   UNL     1       3.432  24.665  55.148  1.00  0.00    -0.550 OA
ENDBRANCH   4   5
ENDBRANCH   3   4
ENDBRANCH   2   3
ENDBRANCH   1   2
BRANCH   1   8
ATOM      8  C   UNL     1      -3.728  26.723  54.369  1.00  0.00     0.000 C 
BRANCH   8   9
ATOM      9  C   UNL     1      -4.607  27.542  55.326  1.00  0.00     0.000 C 
BRANCH   9  10
ATOM     10  C   UNL     1      -3.743  28.385  56.278  1.00  0.00     0.006 C 
BRANCH  10  11
ATOM     11  C   UNL     1      -4.575  29.399  57.073  1.00  0.00     0.053 C 
BRANCH  11  12
ATOM     12  C   UNL     1      -3.733  30.164  58.048  1.00  0.00     0.041 C 
ATOM     13  O   UNL     1      -4.273  30.804  58.988  1.00  0.00    -0.550 OA
ATOM     14  O   UNL     1      -2.352  30.196  57.898  1.00  0.00    -0.550 OA
ENDBRANCH  11  12
ENDBRANCH  10  11
ENDBRANCH   9  10
ENDBRANCH   8   9
ENDBRANCH   1   8
TORSDOF 9
ENDMDL
