MODEL 1
REMARK VINA RESULT:    -3.771      0.000      0.000
REMARK INTER + INTRA:          -5.951
REMARK INTER:                  -5.314
REMARK INTRA:                  -0.637
REMARK UNBOUND:                -0.637
REMARK SMILES CCCCCCCCC(=O)[O-]
REMARK SMILES IDX 6 1 7 2 8 3 9 4 10 5 11 6 5 7 4 8 3 9 2 10 1 11
REMARK H PARENT
REMARK Flexibility Score: inf
ROOT
ATOM      1  C   UNL     1     -10.357   2.155   4.769  1.00  0.00     0.000 C 
ENDROOT
BRANCH   1   2
ATOM      2  C   UNL     1      -9.880   3.376   5.580  1.00  0.00     0.006 C 
BRANCH   2   3
ATOM      3  C   UNL     1      -8.511   3.194   6.254  1.00  0.00     0.053 C 
BRANCH   3   4
ATOM      4  C   UNL     1      -7.417   2.979   5.254  1.00  0.00     0.041 C 
ATOM      5  O   UNL     1      -6.856   1.855   5.163  1.00  0.00    -0.550 OA
ATOM      6  O   UNL     1      -7.041   4.007   4.399  1.00  0.00    -0.550 OA
ENDBRANCH   3   4
ENDBRANCH   2   3
ENDBRANCH   1   2
BRANCH   1   7
ATOM      7  C   UNL     1     -11.479   1.327   5.428  1.00  0.00     0.000 C 
BRANCH   7   8
ATOM      8  C   UNL     1     -11.066  -0.082   5.888  1.00  0.00    -0.000 C 
BRANCH   8   9
ATOM      9  C   UNL     1      -9.597  -0.405   5.574  1.00  0.00    -0.000 C 
BRANCH   9  10
ATOM     10  C   UNL     1      -9.486  -1.299   4.333  1.00  0.00    -0.003 C 
ATOM     11  C   UNL     1      -8.488  -0.728   3.330  1.00  0.00     0.004 C 
ENDBRANCH   9  10
ENDBRANCH   8   9
ENDBRANCH   7   8
ENDBRANCH   1   7
TORSDOF 7
ENDMDL
MODEL 2
REMARK VINA RESULT:    -3.703      1.225      1.680
REMARK INTER + INTRA:          -5.855
REMARK INTER:                  -5.187
REMARK INTRA:                  -0.668
REMARK UNBOUND:                -0.637
REMARK SMILES CCCCCCCCC(=O)[O-]
REMARK SMILES IDX 6 1 7 2 8 3 9 4 10 5 11 6 5 7 4 8 3 9 2 10 1 11
REMARK H PARENT
REMARK Flexibility Score: inf
ROOT
ATOM      1  C   UNL     1      -9.342   2.120   6.471  1.00  0.00     0.000 C 
ENDROOT
BRANCH   1   2
ATOM      2  C   UNL     1      -7.841   2.468   6.421  1.00  0.00     0.006 C 
BRANCH   2   3
ATOM      3  C   UNL     1      -7.290   2.697   5.005  1.00  0.00     0.053 C 
BRANCH   3   4
ATOM      4  C   UNL     1      -6.868   4.118   4.790  1.00  0.00     0.041 C 
ATOM      5  O   UNL     1      -6.188   4.715   5.665  1.00  0.00    -0.550 OA
ATOM      6  O   UNL     1      -7.198   4.772   3.609  1.00  0.00    -0.550 OA
ENDBRANCH   3   4
ENDBRANCH   2   3
ENDBRANCH   1   2
BRANCH   1   7
ATOM      7  C   UNL     1     -10.091   2.249   5.129  1.00  0.00     0.000 C 
BRANCH   7   8
ATOM      8  C   UNL     1     -10.659   0.932   4.569  1.00  0.00    -0.000 C 
BRANCH   8   9
ATOM      9  C   UNL     1     -10.041  -0.311   5.227  1.00  0.00    -0.000 C 
BRANCH   9  10
ATOM     10  C   UNL     1      -9.454  -1.255   4.170  1.00  0.00    -0.003 C 
ATOM     11  C   UNL     1      -8.370  -0.560   3.353  1.00  0.00     0.004 C 
ENDBRANCH   9  10
ENDBRANCH   8   9
ENDBRANCH   7   8
ENDBRANCH   1   7
TORSDOF 7
ENDMDL
MODEL 3
REMARK VINA RESULT:    -3.662     12.708     14.511
REMARK INTER + INTRA:          -5.797
REMARK INTER:                  -5.142
REMARK INTRA:                  -0.656
REMARK UNBOUND:                -0.637
REMARK SMILES CCCCCCCCC(=O)[O-]
REMARK SMILES IDX 6 1 7 2 8 3 9 4 10 5 11 6 5 7 4 8 3 9 2 10 1 11
REMARK H PARENT
REMARK Flexibility Score: inf
ROOT
ATOM      1  C   UNL     1       0.258 -11.550   6.260  1.00  0.00     0.000 C 
ENDROOT
BRANCH   1   2
ATOM      2  C   UNL     1       1.175 -11.039   7.389  1.00  0.00     0.006 C 
BRANCH   2   3
ATOM      3  C   UNL     1       0.429 -10.406   8.574  1.00  0.00     0.053 C 
BRANCH   3   4
ATOM      4  C   UNL     1       0.636  -8.923   8.639  1.00  0.00     0.041 C 
ATOM      5  O   UNL     1       0.902  -8.276   7.593  1.00  0.00    -0.550 OA
ATOM      6  O   UNL     1       0.500  -8.253   9.848  1.00  0.00    -0.550 OA
ENDBRANCH   3   4
ENDBRANCH   2   3
ENDBRANCH   1   2
BRANCH   1   7
ATOM      7  C   UNL     1      -1.247 -11.571   6.596  1.00  0.00     0.000 C 
BRANCH   7   8
ATOM      8  C   UNL     1      -2.069 -10.423   5.982  1.00  0.00    -0.000 C 
BRANCH   8   9
ATOM      9  C   UNL     1      -2.980  -9.729   7.004  1.00  0.00    -0.000 C 
BRANCH   9  10
ATOM     10  C   UNL     1      -2.625  -8.243   7.135  1.00  0.00    -0.003 C 
ATOM     11  C   UNL     1      -2.408  -7.606   5.766  1.00  0.00     0.004 C 
ENDBRANCH   9  10
ENDBRANCH   8   9
ENDBRANCH   7   8
ENDBRANCH   1   7
TORSDOF 7
ENDMDL
MODEL 4
REMARK VINA RESULT:    -3.509     12.561     14.114
REMARK INTER + INTRA:          -5.582
REMARK INTER:                  -4.875
REMARK INTRA:                  -0.707
REMARK UNBOUND:                -0.637
REMARK SMILES CCCCCCCCC(=O)[O-]
REMARK SMILES IDX 6 1 7 2 8 3 9 4 10 5 11 6 5 7 4 8 3 9 2 10 1 11
REMARK H PARENT
REMARK Flexibility Score: inf
ROOT
ATOM      1  C   UNL     1      -1.614  -8.208   6.290  1.00  0.00     0.000 C 
ENDROOT
BRANCH   1   2
ATOM      2  C   UNL     1      -0.435  -9.194   6.410  1.00  0.00     0.006 C 
BRANCH   2   3
ATOM      3  C   UNL     1       0.778  -8.643   7.176  1.00  0.00     0.053 C 
BRANCH   3   4
ATOM      4  C   UNL     1       0.730  -8.995   8.631  1.00  0.00     0.041 C 
ATOM      5  O   UNL     1       0.310  -8.156   9.471  1.00  0.00    -0.550 OA
ATOM      6  O   UNL     1       1.116 -10.260   9.055  1.00  0.00    -0.550 OA
ENDBRANCH   3   4
ENDBRANCH   2   3
ENDBRANCH   1   2
BRANCH   1   7
ATOM      7  C   UNL     1      -2.774  -8.450   7.276  1.00  0.00     0.000 C 
BRANCH   7   8
ATOM      8  C   UNL     1      -2.794  -9.843   7.931  1.00  0.00    -0.000 C 
BRANCH   8   9
ATOM      9  C   UNL     1      -3.741 -10.822   7.222  1.00  0.00    -0.000 C 
BRANCH   9  10
ATOM     10  C   UNL     1      -2.953 -11.930   6.512  1.00  0.00    -0.003 C 
ATOM     11  C   UNL     1      -1.828 -12.459   7.396  1.00  0.00     0.004 C 
ENDBRANCH   9  10
ENDBRANCH   8   9
ENDBRANCH   7   8
ENDBRANCH   1   7
TORSDOF 7
ENDMDL
MODEL 5
REMARK VINA RESULT:    -3.480     12.692     14.242
REMARK INTER + INTRA:          -5.541
REMARK INTER:                  -4.710
REMARK INTRA:                  -0.831
REMARK UNBOUND:                -0.637
REMARK SMILES CCCCCCCCC(=O)[O-]
REMARK SMILES IDX 6 1 7 2 8 3 9 4 10 5 11 6 5 7 4 8 3 9 2 10 1 11
REMARK H PARENT
REMARK Flexibility Score: inf
ROOT
ATOM      1  C   UNL     1      -2.957  -9.155   6.881  1.00  0.00     0.000 C 
ENDROOT
BRANCH   1   2
ATOM      2  C   UNL     1      -1.873  -8.071   7.047  1.00  0.00     0.006 C 
BRANCH   2   3
ATOM      3  C   UNL     1      -0.490  -8.469   6.509  1.00  0.00     0.053 C 
BRANCH   3   4
ATOM      4  C   UNL     1       0.502  -8.679   7.612  1.00  0.00     0.041 C 
ATOM      5  O   UNL     1       0.233  -8.304   8.784  1.00  0.00    -0.550 OA
ATOM      6  O   UNL     1       1.707  -9.318   7.353  1.00  0.00    -0.550 OA
ENDBRANCH   3   4
ENDBRANCH   2   3
ENDBRANCH   1   2
BRANCH   1   7
ATOM      7  C   UNL     1      -2.891 -10.310   7.900  1.00  0.00     0.000 C 
BRANCH   7   8
ATOM      8  C   UNL     1      -2.364 -11.644   7.341  1.00  0.00    -0.000 C 
BRANCH   8   9
ATOM      9  C   UNL     1      -2.273 -11.653   5.808  1.00  0.00    -0.000 C 
BRANCH   9  10
ATOM     10  C   UNL     1      -0.835 -11.917   5.346  1.00  0.00    -0.003 C 
ATOM     11  C   UNL     1       0.058 -12.305   6.521  1.00  0.00     0.004 C 
ENDBRANCH   9  10
ENDBRANCH   8   9
ENDBRANCH   7   8
ENDBRANCH   1   7
TORSDOF 7
ENDMDL
MODEL 6
REMARK VINA RESULT:    -3.441      1.931      4.099
REMARK INTER + INTRA:          -5.486
REMARK INTER:                  -4.932
REMARK INTRA:                  -0.554
REMARK UNBOUND:                -0.637
REMARK SMILES CCCCCCCCC(=O)[O-]
REMARK SMILES IDX 6 1 7 2 8 3 9 4 10 5 11 6 5 7 4 8 3 9 2 10 1 11
REMARK H PARENT
REMARK Flexibility Score: inf
ROOT
ATOM      1  C   UNL     1     -11.299   2.004   6.044  1.00  0.00     0.000 C 
ENDROOT
BRANCH   1   2
ATOM      2  C   UNL     1     -10.969   0.583   5.545  1.00  0.00     0.006 C 
BRANCH   2   3
ATOM      3  C   UNL     1     -10.094   0.540   4.283  1.00  0.00     0.053 C 
BRANCH   3   4
ATOM      4  C   UNL     1      -9.057  -0.539   4.355  1.00  0.00     0.041 C 
ATOM      5  O   UNL     1      -8.077  -0.527   3.565  1.00  0.00    -0.550 OA
ATOM      6  O   UNL     1      -9.156  -1.537   5.316  1.00  0.00    -0.550 OA
ENDBRANCH   3   4
ENDBRANCH   2   3
ENDBRANCH   1   2
BRANCH   1   7
ATOM      7  C   UNL     1     -10.696   3.149   5.205  1.00  0.00     0.000 C 
BRANCH   7   8
ATOM      8  C   UNL     1      -9.480   3.850   5.835  1.00  0.00    -0.000 C 
BRANCH   8   9
ATOM      9  C   UNL     1      -8.560   4.501   4.791  1.00  0.00    -0.000 C 
BRANCH   9  10
ATOM     10  C   UNL     1      -7.113   4.020   4.961  1.00  0.00    -0.003 C 
ATOM     11  C   UNL     1      -7.059   2.519   5.227  1.00  0.00     0.004 C 
ENDBRANCH   9  10
ENDBRANCH   8   9
ENDBRANCH   7   8
ENDBRANCH   1   7
TORSDOF 7
ENDMDL
MODEL 7
REMARK VINA RESULT:    -3.386      2.696      3.456
REMARK INTER + INTRA:          -5.409
REMARK INTER:                  -4.765
REMARK INTRA:                  -0.644
REMARK UNBOUND:                -0.637
REMARK SMILES CCCCCCCCC(=O)[O-]
REMARK SMILES IDX 6 1 7 2 8 3 9 4 10 5 11 6 5 7 4 8 3 9 2 10 1 11
REMARK H PARENT
REMARK Flexibility Score: inf
ROOT
ATOM      1  C   UNL     1     -12.034   1.278   6.548  1.00  0.00     0.000 C 
ENDROOT
BRANCH   1   2
ATOM      2  C   UNL     1     -11.504   0.460   7.744  1.00  0.00     0.006 C 
BRANCH   2   3
ATOM      3  C   UNL     1     -10.080   0.831   8.184  1.00  0.00     0.053 C 
BRANCH   3   4
ATOM      4  C   UNL     1      -9.109  -0.284   7.937  1.00  0.00     0.041 C 
ATOM      5  O   UNL     1      -8.002  -0.302   8.537  1.00  0.00    -0.550 OA
ATOM      6  O   UNL     1      -9.441  -1.318   7.072  1.00  0.00    -0.550 OA
ENDBRANCH   3   4
ENDBRANCH   2   3
ENDBRANCH   1   2
BRANCH   1   7
ATOM      7  C   UNL     1     -11.206   2.528   6.191  1.00  0.00     0.000 C 
BRANCH   7   8
ATOM      8  C   UNL     1     -10.391   2.422   4.889  1.00  0.00    -0.000 C 
BRANCH   8   9
ATOM      9  C   UNL     1     -10.388   1.003   4.302  1.00  0.00    -0.000 C 
BRANCH   9  10
ATOM     10  C   UNL     1      -8.963   0.442   4.233  1.00  0.00    -0.003 C 
ATOM     11  C   UNL     1      -8.951  -0.956   3.623  1.00  0.00     0.004 C 
ENDBRANCH   9  10
ENDBRANCH   8   9
ENDBRANCH   7   8
ENDBRANCH   1   7
TORSDOF 7
ENDMDL
MODEL 8
REMARK VINA RESULT:    -3.343     14.659     16.312
REMARK INTER + INTRA:          -5.349
REMARK INTER:                  -4.900
REMARK INTRA:                  -0.449
REMARK UNBOUND:                -0.637
REMARK SMILES CCCCCCCCC(=O)[O-]
REMARK SMILES IDX 6 1 7 2 8 3 9 4 10 5 11 6 5 7 4 8 3 9 2 10 1 11
REMARK H PARENT
REMARK Flexibility Score: inf
ROOT
ATOM      1  C   UNL     1      -1.559 -10.995   6.241  1.00  0.00     0.000 C 
ENDROOT
BRANCH   1   2
ATOM      2  C   UNL     1      -1.279  -9.511   6.552  1.00  0.00     0.006 C 
BRANCH   2   3
ATOM      3  C   UNL     1       0.213  -9.153   6.647  1.00  0.00     0.053 C 
BRANCH   3   4
ATOM      4  C   UNL     1       0.714  -9.210   8.058  1.00  0.00     0.041 C 
ATOM      5  O   UNL     1       0.569  -8.219   8.820  1.00  0.00    -0.550 OA
ATOM      6  O   UNL     1       1.311 -10.368   8.539  1.00  0.00    -0.550 OA
ENDBRANCH   3   4
ENDBRANCH   2   3
ENDBRANCH   1   2
BRANCH   1   7
ATOM      7  C   UNL     1      -0.427 -11.734   5.498  1.00  0.00     0.000 C 
BRANCH   7   8
ATOM      8  C   UNL     1       0.128 -12.973   6.223  1.00  0.00    -0.000 C 
BRANCH   8   9
ATOM      9  C   UNL     1       1.663 -13.027   6.220  1.00  0.00    -0.000 C 
BRANCH   9  10
ATOM     10  C   UNL     1       2.165 -14.283   5.497  1.00  0.00    -0.003 C 
ATOM     11  C   UNL     1       3.668 -14.463   5.685  1.00  0.00     0.004 C 
ENDBRANCH   9  10
ENDBRANCH   8   9
ENDBRANCH   7   8
ENDBRANCH   1   7
TORSDOF 7
ENDMDL
MODEL 9
REMARK VINA RESULT:    -3.303     14.028     15.881
REMARK INTER + INTRA:          -5.292
REMARK INTER:                  -4.536
REMARK INTRA:                  -0.756
REMARK UNBOUND:                -0.637
REMARK SMILES CCCCCCCCC(=O)[O-]
REMARK SMILES IDX 6 1 7 2 8 3 9 4 10 5 11 6 5 7 4 8 3 9 2 10 1 11
REMARK H PARENT
REMARK Flexibility Score: inf
ROOT
ATOM      1  C   UNL     1      -1.737 -11.513   5.565  1.00  0.00     0.000 C 
ENDROOT
BRANCH   1   2
ATOM      2  C   UNL     1      -0.327 -12.135   5.512  1.00  0.00     0.006 C 
BRANCH   2   3
ATOM      3  C   UNL     1       0.323 -12.352   6.887  1.00  0.00     0.053 C 
BRANCH   3   4
ATOM      4  C   UNL     1       1.797 -12.596   6.779  1.00  0.00     0.041 C 
ATOM      5  O   UNL     1       2.598 -11.969   7.522  1.00  0.00    -0.550 OA
ATOM      6  O   UNL     1       2.284 -13.538   5.882  1.00  0.00    -0.550 OA
ENDBRANCH   3   4
ENDBRANCH   2   3
ENDBRANCH   1   2
BRANCH   1   7
ATOM      7  C   UNL     1      -2.067 -10.747   6.863  1.00  0.00     0.000 C 
BRANCH   7   8
ATOM      8  C   UNL     1      -2.489  -9.280   6.665  1.00  0.00    -0.000 C 
BRANCH   8   9
ATOM      9  C   UNL     1      -1.292  -8.332   6.503  1.00  0.00    -0.000 C 
BRANCH   9  10
ATOM     10  C   UNL     1      -0.239  -8.588   7.589  1.00  0.00    -0.003 C 
ATOM     11  C   UNL     1       1.151  -8.744   6.981  1.00  0.00     0.004 C 
ENDBRANCH   9  10
ENDBRANCH   8   9
ENDBRANCH   7   8
ENDBRANCH   1   7
TORSDOF 7
ENDMDL
