MODEL 1
REMARK VINA RESULT:    -7.556      0.000      0.000
REMARK INTER + INTRA:         -11.746
REMARK INTER:                 -10.206
REMARK INTRA:                  -1.539
REMARK UNBOUND:                -1.539
REMARK SMILES CC[C@@H](CC[C@@H](C)[C@H]1CC[C@H]2[C@@H]3CC(=O)C4=CC(=O)CC[C@]4(C)[C@@H]3CC[C@]12C)C(C)C
REMARK SMILES IDX 4 1 3 2 2 3 1 4 29 5 30 6 31 7 5 8 6 9 7 10 8 11 9 12 27 13
REMARK SMILES IDX 10 14 11 15 26 16 28 17 12 18 25 19 24 20 13 21 22 22 14 23
REMARK SMILES IDX 16 24 21 25 23 26 15 27 17 28 20 29 18 30 19 31
REMARK H PARENT
REMARK Flexibility Score: inf
ROOT
ATOM      1  C   UNL     1      12.976 -31.222  21.627  1.00  0.00     0.004 C 
ENDROOT
BRANCH   1   2
ATOM      2  C   UNL     1      13.436 -30.077  22.571  1.00  0.00    -0.009 C 
BRANCH   2   3
ATOM      3  C   UNL     1      14.021 -30.654  23.892  1.00  0.00     0.000 C 
ATOM      4  C   UNL     1      13.551 -32.075  24.213  1.00  0.00     0.004 C 
ENDBRANCH   2   3
BRANCH   2   5
ATOM      5  C   UNL     1      12.306 -29.017  22.813  1.00  0.00    -0.014 C 
ATOM      6  C   UNL     1      12.241 -28.506  24.262  1.00  0.00     0.007 C 
ATOM      7  C   UNL     1      10.922 -29.519  22.368  1.00  0.00     0.007 C 
ENDBRANCH   2   5
ENDBRANCH   1   2
BRANCH   1   8
ATOM      8  C   UNL     1      14.029 -31.602  20.564  1.00  0.00     0.004 C 
BRANCH   8   9
ATOM      9  C   UNL     1      14.812 -32.892  20.946  1.00  0.00    -0.011 C 
ATOM     10  C   UNL     1      14.485 -33.997  19.923  1.00  0.00     0.008 C 
BRANCH   9  11
ATOM     11  C   UNL     1      16.354 -32.620  21.023  1.00  0.00    -0.002 C 
ATOM     12  C   UNL     1      16.693 -31.192  21.540  1.00  0.00     0.005 C 
ATOM     13  C   UNL     1      17.215 -33.553  21.937  1.00  0.00    -0.026 C 
ATOM     14  C   UNL     1      18.001 -31.294  22.340  1.00  0.00     0.005 C 
ATOM     15  C   UNL     1      18.485 -32.708  22.066  1.00  0.00    -0.001 C 
ATOM     16  C   UNL     1      17.622 -34.917  21.279  1.00  0.00     0.007 C 
ATOM     17  C   UNL     1      16.501 -33.753  23.318  1.00  0.00     0.012 C 
ATOM     18  C   UNL     1      19.590 -33.295  23.001  1.00  0.00     0.004 C 
ATOM     19  C   UNL     1      19.087 -35.371  21.572  1.00  0.00     0.005 C 
ATOM     20  C   UNL     1      19.585 -34.874  22.961  1.00  0.00     0.003 C 
ATOM     21  C   UNL     1      20.941 -32.684  22.560  1.00  0.00     0.085 C 
ATOM     22  C   UNL     1      20.879 -35.561  23.586  1.00  0.00    -0.000 C 
ATOM     23  C   UNL     1      22.117 -33.339  23.186  1.00  0.00     0.159 C 
ATOM     24  C   UNL     1      22.164 -34.805  23.268  1.00  0.00     0.005 C 
ATOM     25  C   UNL     1      21.022 -37.043  23.115  1.00  0.00     0.020 C 
ATOM     26  C   UNL     1      20.726 -35.538  25.133  1.00  0.00     0.017 C 
ATOM     27  O   UNL     1      23.103 -32.639  23.539  1.00  0.00    -0.295 OA
ATOM     28  C   UNL     1      23.360 -35.427  23.267  1.00  0.00     0.055 C 
ATOM     29  C   UNL     1      22.270 -37.736  23.670  1.00  0.00     0.081 C 
ATOM     30  C   UNL     1      23.484 -36.881  23.464  1.00  0.00     0.156 C 
ATOM     31  O   UNL     1      24.627 -37.406  23.501  1.00  0.00    -0.295 OA
ENDBRANCH   9  11
ENDBRANCH   8   9
ENDBRANCH   1   8
TORSDOF 6
ENDMDL
MODEL 2
REMARK VINA RESULT:    -7.462      2.444      3.423
REMARK INTER + INTRA:         -11.619
REMARK INTER:                 -10.150
REMARK INTRA:                  -1.469
REMARK UNBOUND:                -1.539
REMARK SMILES CC[C@@H](CC[C@@H](C)[C@H]1CC[C@H]2[C@@H]3CC(=O)C4=CC(=O)CC[C@]4(C)[C@@H]3CC[C@]12C)C(C)C
REMARK SMILES IDX 4 1 3 2 2 3 1 4 29 5 30 6 31 7 5 8 6 9 7 10 8 11 9 12 27 13
REMARK SMILES IDX 10 14 11 15 26 16 28 17 12 18 25 19 24 20 13 21 22 22 14 23
REMARK SMILES IDX 16 24 21 25 23 26 15 27 17 28 20 29 18 30 19 31
REMARK H PARENT
REMARK Flexibility Score: inf
ROOT
ATOM      1  C   UNL     1      13.818 -31.991  23.261  1.00  0.00     0.004 C 
ENDROOT
BRANCH   1   2
ATOM      2  C   UNL     1      12.820 -30.807  23.124  1.00  0.00    -0.009 C 
BRANCH   2   3
ATOM      3  C   UNL     1      12.390 -30.618  21.640  1.00  0.00     0.000 C 
ATOM      4  C   UNL     1      10.880 -30.464  21.444  1.00  0.00     0.004 C 
ENDBRANCH   2   3
BRANCH   2   5
ATOM      5  C   UNL     1      13.367 -29.490  23.775  1.00  0.00    -0.014 C 
ATOM      6  C   UNL     1      12.261 -28.536  24.258  1.00  0.00     0.007 C 
ATOM      7  C   UNL     1      14.346 -28.740  22.856  1.00  0.00     0.007 C 
ENDBRANCH   2   5
ENDBRANCH   1   2
BRANCH   1   8
ATOM      8  C   UNL     1      14.270 -32.572  21.904  1.00  0.00     0.004 C 
BRANCH   8   9
ATOM      9  C   UNL     1      15.569 -33.421  22.031  1.00  0.00    -0.011 C 
ATOM     10  C   UNL     1      15.447 -34.660  21.124  1.00  0.00     0.008 C 
BRANCH   9  11
ATOM     11  C   UNL     1      16.839 -32.572  21.676  1.00  0.00    -0.002 C 
ATOM     12  C   UNL     1      16.495 -31.118  21.245  1.00  0.00     0.005 C 
ATOM     13  C   UNL     1      17.921 -32.378  22.789  1.00  0.00    -0.026 C 
ATOM     14  C   UNL     1      17.643 -30.216  21.726  1.00  0.00     0.005 C 
ATOM     15  C   UNL     1      18.699 -31.196  22.204  1.00  0.00    -0.001 C 
ATOM     16  C   UNL     1      18.924 -33.574  22.941  1.00  0.00     0.007 C 
ATOM     17  C   UNL     1      17.229 -32.010  24.146  1.00  0.00     0.012 C 
ATOM     18  C   UNL     1      19.855 -30.645  23.101  1.00  0.00     0.004 C 
ATOM     19  C   UNL     1      20.408 -33.153  23.178  1.00  0.00     0.005 C 
ATOM     20  C   UNL     1      20.517 -31.803  23.946  1.00  0.00     0.003 C 
ATOM     21  C   UNL     1      20.858 -29.926  22.169  1.00  0.00     0.085 C 
ATOM     22  C   UNL     1      21.914 -31.427  24.612  1.00  0.00    -0.000 C 
ATOM     23  C   UNL     1      22.136 -29.573  22.838  1.00  0.00     0.159 C 
ATOM     24  C   UNL     1      22.787 -30.559  23.711  1.00  0.00     0.005 C 
ATOM     25  C   UNL     1      22.710 -32.704  25.027  1.00  0.00     0.020 C 
ATOM     26  C   UNL     1      21.619 -30.583  25.884  1.00  0.00     0.017 C 
ATOM     27  O   UNL     1      22.698 -28.479  22.566  1.00  0.00    -0.295 OA
ATOM     28  C   UNL     1      24.127 -30.535  23.850  1.00  0.00     0.055 C 
ATOM     29  C   UNL     1      24.076 -32.390  25.648  1.00  0.00     0.081 C 
ATOM     30  C   UNL     1      24.831 -31.416  24.796  1.00  0.00     0.156 C 
ATOM     31  O   UNL     1      26.080 -31.320  24.920  1.00  0.00    -0.295 OA
ENDBRANCH   9  11
ENDBRANCH   8   9
ENDBRANCH   1   8
TORSDOF 6
ENDMDL
MODEL 3
REMARK VINA RESULT:    -7.425      2.303      3.646
REMARK INTER + INTRA:         -11.569
REMARK INTER:                  -9.969
REMARK INTRA:                  -1.599
REMARK UNBOUND:                -1.539
REMARK SMILES CC[C@@H](CC[C@@H](C)[C@H]1CC[C@H]2[C@@H]3CC(=O)C4=CC(=O)CC[C@]4(C)[C@@H]3CC[C@]12C)C(C)C
REMARK SMILES IDX 4 1 3 2 2 3 1 4 29 5 30 6 31 7 5 8 6 9 7 10 8 11 9 12 27 13
REMARK SMILES IDX 10 14 11 15 26 16 28 17 12 18 25 19 24 20 13 21 22 22 14 23
REMARK SMILES IDX 16 24 21 25 23 26 15 27 17 28 20 29 18 30 19 31
REMARK H PARENT
REMARK Flexibility Score: inf
ROOT
ATOM      1  C   UNL     1      13.660 -30.819  21.605  1.00  0.00     0.004 C 
ENDROOT
BRANCH   1   2
ATOM      2  C   UNL     1      13.210 -30.036  22.870  1.00  0.00    -0.009 C 
BRANCH   2   3
ATOM      3  C   UNL     1      11.728 -29.582  22.737  1.00  0.00     0.000 C 
ATOM      4  C   UNL     1      10.975 -30.242  21.580  1.00  0.00     0.004 C 
ENDBRANCH   2   3
BRANCH   2   5
ATOM      5  C   UNL     1      14.184 -28.857  23.216  1.00  0.00    -0.014 C 
ATOM      6  C   UNL     1      13.484 -27.650  23.863  1.00  0.00     0.007 C 
ATOM      7  C   UNL     1      15.010 -28.399  22.002  1.00  0.00     0.007 C 
ENDBRANCH   2   5
ENDBRANCH   1   2
BRANCH   1   8
ATOM      8  C   UNL     1      14.141 -32.253  21.910  1.00  0.00     0.004 C 
BRANCH   8   9
ATOM      9  C   UNL     1      14.956 -32.332  23.234  1.00  0.00    -0.011 C 
ATOM     10  C   UNL     1      14.207 -33.241  24.228  1.00  0.00     0.008 C 
BRANCH   9  11
ATOM     11  C   UNL     1      16.414 -32.844  22.975  1.00  0.00    -0.002 C 
ATOM     12  C   UNL     1      16.825 -32.775  21.476  1.00  0.00     0.005 C 
ATOM     13  C   UNL     1      17.586 -32.111  23.709  1.00  0.00    -0.026 C 
ATOM     14  C   UNL     1      18.329 -32.468  21.428  1.00  0.00     0.005 C 
ATOM     15  C   UNL     1      18.774 -32.599  22.875  1.00  0.00    -0.001 C 
ATOM     16  C   UNL     1      17.825 -32.579  25.187  1.00  0.00     0.007 C 
ATOM     17  C   UNL     1      17.393 -30.560  23.604  1.00  0.00     0.012 C 
ATOM     18  C   UNL     1      20.162 -32.000  23.270  1.00  0.00     0.004 C 
ATOM     19  C   UNL     1      19.326 -32.719  25.591  1.00  0.00     0.005 C 
ATOM     20  C   UNL     1      20.234 -31.715  24.822  1.00  0.00     0.003 C 
ATOM     21  C   UNL     1      21.246 -32.990  22.785  1.00  0.00     0.085 C 
ATOM     22  C   UNL     1      21.701 -31.446  25.381  1.00  0.00    -0.000 C 
ATOM     23  C   UNL     1      22.601 -32.686  23.312  1.00  0.00     0.159 C 
ATOM     24  C   UNL     1      22.758 -32.331  24.728  1.00  0.00     0.005 C 
ATOM     25  C   UNL     1      21.762 -31.627  26.931  1.00  0.00     0.020 C 
ATOM     26  C   UNL     1      22.079 -29.979  25.032  1.00  0.00     0.017 C 
ATOM     27  O   UNL     1      23.605 -32.842  22.569  1.00  0.00    -0.295 OA
ATOM     28  C   UNL     1      23.916 -32.615  25.355  1.00  0.00     0.055 C 
ATOM     29  C   UNL     1      23.163 -31.405  27.511  1.00  0.00     0.081 C 
ATOM     30  C   UNL     1      24.183 -32.183  26.738  1.00  0.00     0.156 C 
ATOM     31  O   UNL     1      25.301 -32.434  27.260  1.00  0.00    -0.295 OA
ENDBRANCH   9  11
ENDBRANCH   8   9
ENDBRANCH   1   8
TORSDOF 6
ENDMDL
MODEL 4
REMARK VINA RESULT:    -7.379      1.268      1.841
REMARK INTER + INTRA:         -11.507
REMARK INTER:                 -10.075
REMARK INTRA:                  -1.432
REMARK UNBOUND:                -1.539
REMARK SMILES CC[C@@H](CC[C@@H](C)[C@H]1CC[C@H]2[C@@H]3CC(=O)C4=CC(=O)CC[C@]4(C)[C@@H]3CC[C@]12C)C(C)C
REMARK SMILES IDX 4 1 3 2 2 3 1 4 29 5 30 6 31 7 5 8 6 9 7 10 8 11 9 12 27 13
REMARK SMILES IDX 10 14 11 15 26 16 28 17 12 18 25 19 24 20 13 21 22 22 14 23
REMARK SMILES IDX 16 24 21 25 23 26 15 27 17 28 20 29 18 30 19 31
REMARK H PARENT
REMARK Flexibility Score: inf
ROOT
ATOM      1  C   UNL     1      13.221 -31.229  22.612  1.00  0.00     0.004 C 
ENDROOT
BRANCH   1   2
ATOM      2  C   UNL     1      12.789 -29.942  23.368  1.00  0.00    -0.009 C 
BRANCH   2   3
ATOM      3  C   UNL     1      11.520 -29.321  22.718  1.00  0.00     0.000 C 
ATOM      4  C   UNL     1      10.905 -30.178  21.609  1.00  0.00     0.004 C 
ENDBRANCH   2   3
BRANCH   2   5
ATOM      5  C   UNL     1      13.966 -28.916  23.515  1.00  0.00    -0.014 C 
ATOM      6  C   UNL     1      13.515 -27.523  23.984  1.00  0.00     0.007 C 
ATOM      7  C   UNL     1      14.805 -28.794  22.231  1.00  0.00     0.007 C 
ENDBRANCH   2   5
ENDBRANCH   1   2
BRANCH   1   8
ATOM      8  C   UNL     1      14.035 -32.209  23.483  1.00  0.00     0.004 C 
BRANCH   8   9
ATOM      9  C   UNL     1      14.970 -33.117  22.631  1.00  0.00    -0.011 C 
ATOM     10  C   UNL     1      14.551 -33.019  21.152  1.00  0.00     0.008 C 
BRANCH   9  11
ATOM     11  C   UNL     1      16.475 -32.726  22.828  1.00  0.00    -0.002 C 
ATOM     12  C   UNL     1      16.674 -31.574  23.853  1.00  0.00     0.005 C 
ATOM     13  C   UNL     1      17.458 -33.835  23.330  1.00  0.00    -0.026 C 
ATOM     14  C   UNL     1      18.008 -31.827  24.572  1.00  0.00     0.005 C 
ATOM     15  C   UNL     1      18.633 -32.967  23.788  1.00  0.00    -0.001 C 
ATOM     16  C   UNL     1      17.990 -34.793  22.208  1.00  0.00     0.007 C 
ATOM     17  C   UNL     1      16.811 -34.621  24.520  1.00  0.00     0.012 C 
ATOM     18  C   UNL     1      19.822 -33.740  24.445  1.00  0.00     0.004 C 
ATOM     19  C   UNL     1      19.502 -35.160  22.327  1.00  0.00     0.005 C 
ATOM     20  C   UNL     1      19.985 -35.176  23.807  1.00  0.00     0.003 C 
ATOM     21  C   UNL     1      21.085 -32.862  24.289  1.00  0.00     0.085 C 
ATOM     22  C   UNL     1      21.363 -35.901  24.141  1.00  0.00    -0.000 C 
ATOM     23  C   UNL     1      22.343 -33.572  24.634  1.00  0.00     0.159 C 
ATOM     24  C   UNL     1      22.550 -34.944  24.153  1.00  0.00     0.005 C 
ATOM     25  C   UNL     1      21.650 -37.068  23.144  1.00  0.00     0.020 C 
ATOM     26  C   UNL     1      21.254 -36.484  25.578  1.00  0.00     0.017 C 
ATOM     27  O   UNL     1      23.258 -32.954  25.240  1.00  0.00    -0.295 OA
ATOM     28  C   UNL     1      23.805 -35.383  23.932  1.00  0.00     0.055 C 
ATOM     29  C   UNL     1      22.982 -37.777  23.411  1.00  0.00     0.081 C 
ATOM     30  C   UNL     1      24.090 -36.780  23.562  1.00  0.00     0.156 C 
ATOM     31  O   UNL     1      25.284 -37.150  23.413  1.00  0.00    -0.295 OA
ENDBRANCH   9  11
ENDBRANCH   8   9
ENDBRANCH   1   8
TORSDOF 6
ENDMDL
MODEL 5
REMARK VINA RESULT:    -7.264      3.105      9.142
REMARK INTER + INTRA:         -11.351
REMARK INTER:                  -9.685
REMARK INTRA:                  -1.666
REMARK UNBOUND:                -1.539
REMARK SMILES CC[C@@H](CC[C@@H](C)[C@H]1CC[C@H]2[C@@H]3CC(=O)C4=CC(=O)CC[C@]4(C)[C@@H]3CC[C@]12C)C(C)C
REMARK SMILES IDX 4 1 3 2 2 3 1 4 29 5 30 6 31 7 5 8 6 9 7 10 8 11 9 12 27 13
REMARK SMILES IDX 10 14 11 15 26 16 28 17 12 18 25 19 24 20 13 21 22 22 14 23
REMARK SMILES IDX 16 24 21 25 23 26 15 27 17 28 20 29 18 30 19 31
REMARK H PARENT
REMARK Flexibility Score: inf
ROOT
ATOM      1  C   UNL     1      23.409 -34.346  25.164  1.00  0.00     0.004 C 
ENDROOT
BRANCH   1   2
ATOM      2  C   UNL     1      23.724 -35.690  24.450  1.00  0.00    -0.009 C 
BRANCH   2   3
ATOM      3  C   UNL     1      24.029 -35.454  22.942  1.00  0.00     0.000 C 
ATOM      4  C   UNL     1      25.517 -35.295  22.625  1.00  0.00     0.004 C 
ENDBRANCH   2   3
BRANCH   2   5
ATOM      5  C   UNL     1      22.608 -36.765  24.688  1.00  0.00    -0.014 C 
ATOM      6  C   UNL     1      22.040 -37.363  23.389  1.00  0.00     0.007 C 
ATOM      7  C   UNL     1      21.462 -36.240  25.571  1.00  0.00     0.007 C 
ENDBRANCH   2   5
ENDBRANCH   1   2
BRANCH   1   8
ATOM      8  C   UNL     1      22.966 -33.227  24.198  1.00  0.00     0.004 C 
BRANCH   8   9
ATOM      9  C   UNL     1      21.607 -32.592  24.616  1.00  0.00    -0.011 C 
ATOM     10  C   UNL     1      21.846 -31.127  25.027  1.00  0.00     0.008 C 
BRANCH   9  11
ATOM     11  C   UNL     1      20.551 -32.700  23.462  1.00  0.00    -0.002 C 
ATOM     12  C   UNL     1      20.583 -34.076  22.737  1.00  0.00     0.005 C 
ATOM     13  C   UNL     1      19.043 -32.519  23.835  1.00  0.00    -0.026 C 
ATOM     14  C   UNL     1      19.144 -34.400  22.308  1.00  0.00     0.005 C 
ATOM     15  C   UNL     1      18.383 -33.116  22.589  1.00  0.00    -0.001 C 
ATOM     16  C   UNL     1      18.572 -31.027  23.948  1.00  0.00     0.007 C 
ATOM     17  C   UNL     1      18.710 -33.343  25.126  1.00  0.00     0.012 C 
ATOM     18  C   UNL     1      16.822 -33.184  22.623  1.00  0.00     0.004 C 
ATOM     19  C   UNL     1      17.163 -30.741  23.342  1.00  0.00     0.005 C 
ATOM     20  C   UNL     1      16.221 -31.976  23.444  1.00  0.00     0.003 C 
ATOM     21  C   UNL     1      16.330 -33.225  21.158  1.00  0.00     0.085 C 
ATOM     22  C   UNL     1      14.658 -31.748  23.245  1.00  0.00    -0.000 C 
ATOM     23  C   UNL     1      14.864 -33.032  21.023  1.00  0.00     0.159 C 
ATOM     24  C   UNL     1      14.201 -31.984  21.809  1.00  0.00     0.005 C 
ATOM     25  C   UNL     1      14.228 -30.316  23.695  1.00  0.00     0.020 C 
ATOM     26  C   UNL     1      13.912 -32.794  24.121  1.00  0.00     0.017 C 
ATOM     27  O   UNL     1      14.228 -33.694  20.160  1.00  0.00    -0.295 OA
ATOM     28  C   UNL     1      13.084 -31.404  21.326  1.00  0.00     0.055 C 
ATOM     29  C   UNL     1      12.733 -30.042  23.494  1.00  0.00     0.081 C 
ATOM     30  C   UNL     1      12.306 -30.432  22.112  1.00  0.00     0.156 C 
ATOM     31  O   UNL     1      11.245 -29.954  21.632  1.00  0.00    -0.295 OA
ENDBRANCH   9  11
ENDBRANCH   8   9
ENDBRANCH   1   8
TORSDOF 6
ENDMDL
MODEL 6
REMARK VINA RESULT:    -7.244      2.766      4.284
REMARK INTER + INTRA:         -11.324
REMARK INTER:                  -9.489
REMARK INTRA:                  -1.835
REMARK UNBOUND:                -1.539
REMARK SMILES CC[C@@H](CC[C@@H](C)[C@H]1CC[C@H]2[C@@H]3CC(=O)C4=CC(=O)CC[C@]4(C)[C@@H]3CC[C@]12C)C(C)C
REMARK SMILES IDX 4 1 3 2 2 3 1 4 29 5 30 6 31 7 5 8 6 9 7 10 8 11 9 12 27 13
REMARK SMILES IDX 10 14 11 15 26 16 28 17 12 18 25 19 24 20 13 21 22 22 14 23
REMARK SMILES IDX 16 24 21 25 23 26 15 27 17 28 20 29 18 30 19 31
REMARK H PARENT
REMARK Flexibility Score: inf
ROOT
ATOM      1  C   UNL     1      14.998 -33.893  20.913  1.00  0.00     0.004 C 
ENDROOT
BRANCH   1   2
ATOM      2  C   UNL     1      15.012 -32.847  22.062  1.00  0.00    -0.009 C 
BRANCH   2   3
ATOM      3  C   UNL     1      14.715 -33.527  23.430  1.00  0.00     0.000 C 
ATOM      4  C   UNL     1      13.854 -32.682  24.371  1.00  0.00     0.004 C 
ENDBRANCH   2   3
BRANCH   2   5
ATOM      5  C   UNL     1      14.070 -31.628  21.767  1.00  0.00    -0.014 C 
ATOM      6  C   UNL     1      13.179 -31.824  20.529  1.00  0.00     0.007 C 
ATOM      7  C   UNL     1      14.841 -30.301  21.657  1.00  0.00     0.007 C 
ENDBRANCH   2   5
ENDBRANCH   1   2
BRANCH   1   8
ATOM      8  C   UNL     1      16.315 -33.938  20.108  1.00  0.00     0.004 C 
BRANCH   8   9
ATOM      9  C   UNL     1      17.536 -34.315  20.998  1.00  0.00    -0.011 C 
ATOM     10  C   UNL     1      18.131 -35.643  20.493  1.00  0.00     0.008 C 
BRANCH   9  11
ATOM     11  C   UNL     1      18.609 -33.172  21.004  1.00  0.00    -0.002 C 
ATOM     12  C   UNL     1      18.051 -31.813  20.492  1.00  0.00     0.005 C 
ATOM     13  C   UNL     1      19.273 -32.802  22.372  1.00  0.00    -0.026 C 
ATOM     14  C   UNL     1      18.773 -30.701  21.269  1.00  0.00     0.005 C 
ATOM     15  C   UNL     1      19.868 -31.436  22.022  1.00  0.00    -0.001 C 
ATOM     16  C   UNL     1      20.458 -33.738  22.796  1.00  0.00     0.007 C 
ATOM     17  C   UNL     1      18.176 -32.696  23.485  1.00  0.00     0.012 C 
ATOM     18  C   UNL     1      20.572 -30.689  23.201  1.00  0.00     0.004 C 
ATOM     19  C   UNL     1      21.676 -32.998  23.433  1.00  0.00     0.005 C 
ATOM     20  C   UNL     1      21.244 -31.713  24.198  1.00  0.00     0.003 C 
ATOM     21  C   UNL     1      21.582 -29.696  22.580  1.00  0.00     0.085 C 
ATOM     22  C   UNL     1      22.277 -31.064  25.222  1.00  0.00    -0.000 C 
ATOM     23  C   UNL     1      22.509 -29.099  23.575  1.00  0.00     0.159 C 
ATOM     24  C   UNL     1      23.121 -29.959  24.595  1.00  0.00     0.005 C 
ATOM     25  C   UNL     1      23.219 -32.144  25.843  1.00  0.00     0.020 C 
ATOM     26  C   UNL     1      21.457 -30.397  26.362  1.00  0.00     0.017 C 
ATOM     27  O   UNL     1      22.840 -27.888  23.465  1.00  0.00    -0.295 OA
ATOM     28  C   UNL     1      24.328 -29.631  25.097  1.00  0.00     0.055 C 
ATOM     29  C   UNL     1      24.250 -31.560  26.815  1.00  0.00     0.081 C 
ATOM     30  C   UNL     1      24.946 -30.383  26.202  1.00  0.00     0.156 C 
ATOM     31  O   UNL     1      26.054 -30.006  26.665  1.00  0.00    -0.295 OA
ENDBRANCH   9  11
ENDBRANCH   8   9
ENDBRANCH   1   8
TORSDOF 6
ENDMDL
MODEL 7
REMARK VINA RESULT:    -7.103      1.970      3.357
REMARK INTER + INTRA:         -11.133
REMARK INTER:                 -10.321
REMARK INTRA:                  -0.812
REMARK UNBOUND:                -1.539
REMARK SMILES CC[C@@H](CC[C@@H](C)[C@H]1CC[C@H]2[C@@H]3CC(=O)C4=CC(=O)CC[C@]4(C)[C@@H]3CC[C@]12C)C(C)C
REMARK SMILES IDX 4 1 3 2 2 3 1 4 29 5 30 6 31 7 5 8 6 9 7 10 8 11 9 12 27 13
REMARK SMILES IDX 10 14 11 15 26 16 28 17 12 18 25 19 24 20 13 21 22 22 14 23
REMARK SMILES IDX 16 24 21 25 23 26 15 27 17 28 20 29 18 30 19 31
REMARK H PARENT
REMARK Flexibility Score: inf
ROOT
ATOM      1  C   UNL     1      13.643 -28.946  22.530  1.00  0.00     0.004 C 
ENDROOT
BRANCH   1   2
ATOM      2  C   UNL     1      12.218 -29.100  23.130  1.00  0.00    -0.009 C 
BRANCH   2   3
ATOM      3  C   UNL     1      11.163 -29.290  22.002  1.00  0.00     0.000 C 
ATOM      4  C   UNL     1      10.917 -30.752  21.620  1.00  0.00     0.004 C 
ENDBRANCH   2   3
BRANCH   2   5
ATOM      5  C   UNL     1      11.858 -27.933  24.113  1.00  0.00    -0.014 C 
ATOM      6  C   UNL     1      10.916 -26.881  23.503  1.00  0.00     0.007 C 
ATOM      7  C   UNL     1      13.106 -27.247  24.696  1.00  0.00     0.007 C 
ENDBRANCH   2   5
ENDBRANCH   1   2
BRANCH   1   8
ATOM      8  C   UNL     1      14.055 -30.121  21.618  1.00  0.00     0.004 C 
BRANCH   8   9
ATOM      9  C   UNL     1      15.569 -30.464  21.747  1.00  0.00    -0.011 C 
ATOM     10  C   UNL     1      16.358 -29.162  21.984  1.00  0.00     0.008 C 
BRANCH   9  11
ATOM     11  C   UNL     1      15.820 -31.504  22.893  1.00  0.00    -0.002 C 
ATOM     12  C   UNL     1      14.570 -32.374  23.207  1.00  0.00     0.005 C 
ATOM     13  C   UNL     1      16.957 -32.559  22.683  1.00  0.00    -0.026 C 
ATOM     14  C   UNL     1      15.075 -33.765  23.624  1.00  0.00     0.005 C 
ATOM     15  C   UNL     1      16.576 -33.582  23.757  1.00  0.00    -0.001 C 
ATOM     16  C   UNL     1      18.399 -32.041  23.017  1.00  0.00     0.007 C 
ATOM     17  C   UNL     1      16.864 -33.162  21.240  1.00  0.00     0.012 C 
ATOM     18  C   UNL     1      17.467 -34.865  23.807  1.00  0.00     0.004 C 
ATOM     19  C   UNL     1      19.303 -33.067  23.769  1.00  0.00     0.005 C 
ATOM     20  C   UNL     1      18.955 -34.537  23.392  1.00  0.00     0.003 C 
ATOM     21  C   UNL     1      17.352 -35.451  25.234  1.00  0.00     0.085 C 
ATOM     22  C   UNL     1      20.012 -35.674  23.747  1.00  0.00    -0.000 C 
ATOM     23  C   UNL     1      18.340 -36.524  25.512  1.00  0.00     0.159 C 
ATOM     24  C   UNL     1      19.735 -36.344  25.089  1.00  0.00     0.005 C 
ATOM     25  C   UNL     1      21.471 -35.120  23.738  1.00  0.00     0.020 C 
ATOM     26  C   UNL     1      19.890 -36.787  22.668  1.00  0.00     0.017 C 
ATOM     27  O   UNL     1      17.995 -37.522  26.199  1.00  0.00    -0.295 OA
ATOM     28  C   UNL     1      20.718 -36.948  25.785  1.00  0.00     0.055 C 
ATOM     29  C   UNL     1      22.521 -36.175  24.103  1.00  0.00     0.081 C 
ATOM     30  C   UNL     1      22.124 -36.905  25.349  1.00  0.00     0.156 C 
ATOM     31  O   UNL     1      22.997 -37.526  26.011  1.00  0.00    -0.295 OA
ENDBRANCH   9  11
ENDBRANCH   8   9
ENDBRANCH   1   8
TORSDOF 6
ENDMDL
MODEL 8
REMARK VINA RESULT:    -7.090      3.268      9.471
REMARK INTER + INTRA:         -11.116
REMARK INTER:                  -9.688
REMARK INTRA:                  -1.428
REMARK UNBOUND:                -1.539
REMARK SMILES CC[C@@H](CC[C@@H](C)[C@H]1CC[C@H]2[C@@H]3CC(=O)C4=CC(=O)CC[C@]4(C)[C@@H]3CC[C@]12C)C(C)C
REMARK SMILES IDX 4 1 3 2 2 3 1 4 29 5 30 6 31 7 5 8 6 9 7 10 8 11 9 12 27 13
REMARK SMILES IDX 10 14 11 15 26 16 28 17 12 18 25 19 24 20 13 21 22 22 14 23
REMARK SMILES IDX 16 24 21 25 23 26 15 27 17 28 20 29 18 30 19 31
REMARK H PARENT
REMARK Flexibility Score: inf
ROOT
ATOM      1  C   UNL     1      23.869 -34.070  24.879  1.00  0.00     0.004 C 
ENDROOT
BRANCH   1   2
ATOM      2  C   UNL     1      24.604 -35.131  24.014  1.00  0.00    -0.009 C 
BRANCH   2   3
ATOM      3  C   UNL     1      26.004 -35.454  24.611  1.00  0.00     0.000 C 
ATOM      4  C   UNL     1      26.637 -34.292  25.379  1.00  0.00     0.004 C 
ENDBRANCH   2   3
BRANCH   2   5
ATOM      5  C   UNL     1      24.663 -34.725  22.500  1.00  0.00    -0.014 C 
ATOM      6  C   UNL     1      25.828 -35.374  21.734  1.00  0.00     0.007 C 
ATOM      7  C   UNL     1      24.684 -33.200  22.299  1.00  0.00     0.007 C 
ENDBRANCH   2   5
ENDBRANCH   1   2
BRANCH   1   8
ATOM      8  C   UNL     1      22.354 -34.332  25.015  1.00  0.00     0.004 C 
BRANCH   8   9
ATOM      9  C   UNL     1      21.520 -33.019  24.940  1.00  0.00    -0.011 C 
ATOM     10  C   UNL     1      22.482 -31.821  24.823  1.00  0.00     0.008 C 
BRANCH   9  11
ATOM     11  C   UNL     1      20.506 -33.058  23.745  1.00  0.00    -0.002 C 
ATOM     12  C   UNL     1      20.514 -34.416  22.987  1.00  0.00     0.005 C 
ATOM     13  C   UNL     1      18.992 -32.828  24.066  1.00  0.00    -0.026 C 
ATOM     14  C   UNL     1      19.081 -34.674  22.496  1.00  0.00     0.005 C 
ATOM     15  C   UNL     1      18.358 -33.369  22.782  1.00  0.00    -0.001 C 
ATOM     16  C   UNL     1      18.574 -31.322  24.200  1.00  0.00     0.007 C 
ATOM     17  C   UNL     1      18.579 -33.669  25.322  1.00  0.00     0.012 C 
ATOM     18  C   UNL     1      16.796 -33.377  22.756  1.00  0.00     0.004 C 
ATOM     19  C   UNL     1      17.200 -30.967  23.549  1.00  0.00     0.005 C 
ATOM     20  C   UNL     1      16.210 -32.167  23.584  1.00  0.00     0.003 C 
ATOM     21  C   UNL     1      16.359 -33.363  21.272  1.00  0.00     0.085 C 
ATOM     22  C   UNL     1      14.664 -31.875  23.333  1.00  0.00    -0.000 C 
ATOM     23  C   UNL     1      14.907 -33.111  21.088  1.00  0.00     0.159 C 
ATOM     24  C   UNL     1      14.254 -32.058  21.876  1.00  0.00     0.005 C 
ATOM     25  C   UNL     1      14.272 -30.439  23.803  1.00  0.00     0.020 C 
ATOM     26  C   UNL     1      13.847 -32.913  24.153  1.00  0.00     0.017 C 
ATOM     27  O   UNL     1      14.280 -33.727  20.185  1.00  0.00    -0.295 OA
ATOM     28  C   UNL     1      13.180 -31.423  21.367  1.00  0.00     0.055 C 
ATOM     29  C   UNL     1      12.797 -30.103  23.555  1.00  0.00     0.081 C 
ATOM     30  C   UNL     1      12.409 -30.442  22.148  1.00  0.00     0.156 C 
ATOM     31  O   UNL     1      11.386 -29.912  21.641  1.00  0.00    -0.295 OA
ENDBRANCH   9  11
ENDBRANCH   8   9
ENDBRANCH   1   8
TORSDOF 6
ENDMDL
MODEL 9
REMARK VINA RESULT:    -6.895      2.819      8.907
REMARK INTER + INTRA:         -10.853
REMARK INTER:                  -9.335
REMARK INTRA:                  -1.518
REMARK UNBOUND:                -1.539
REMARK SMILES CC[C@@H](CC[C@@H](C)[C@H]1CC[C@H]2[C@@H]3CC(=O)C4=CC(=O)CC[C@]4(C)[C@@H]3CC[C@]12C)C(C)C
REMARK SMILES IDX 4 1 3 2 2 3 1 4 29 5 30 6 31 7 5 8 6 9 7 10 8 11 9 12 27 13
REMARK SMILES IDX 10 14 11 15 26 16 28 17 12 18 25 19 24 20 13 21 22 22 14 23
REMARK SMILES IDX 16 24 21 25 23 26 15 27 17 28 20 29 18 30 19 31
REMARK H PARENT
REMARK Flexibility Score: inf
ROOT
ATOM      1  C   UNL     1      21.487 -37.349  24.431  1.00  0.00     0.004 C 
ENDROOT
BRANCH   1   2
ATOM      2  C   UNL     1      22.896 -37.000  23.874  1.00  0.00    -0.009 C 
BRANCH   2   3
ATOM      3  C   UNL     1      23.916 -38.125  24.212  1.00  0.00     0.000 C 
ATOM      4  C   UNL     1      24.886 -37.767  25.340  1.00  0.00     0.004 C 
ENDBRANCH   2   3
BRANCH   2   5
ATOM      5  C   UNL     1      23.378 -35.579  24.329  1.00  0.00    -0.014 C 
ATOM      6  C   UNL     1      22.437 -34.902  25.339  1.00  0.00     0.007 C 
ATOM      7  C   UNL     1      23.641 -34.637  23.141  1.00  0.00     0.007 C 
ENDBRANCH   2   5
ENDBRANCH   1   2
BRANCH   1   8
ATOM      8  C   UNL     1      20.407 -37.469  23.335  1.00  0.00     0.004 C 
BRANCH   8   9
ATOM      9  C   UNL     1      19.050 -36.844  23.775  1.00  0.00    -0.011 C 
ATOM     10  C   UNL     1      18.759 -37.257  25.231  1.00  0.00     0.008 C 
BRANCH   9  11
ATOM     11  C   UNL     1      19.062 -35.285  23.613  1.00  0.00    -0.002 C 
ATOM     12  C   UNL     1      20.090 -34.794  22.554  1.00  0.00     0.005 C 
ATOM     13  C   UNL     1      17.731 -34.586  23.181  1.00  0.00    -0.026 C 
ATOM     14  C   UNL     1      19.497 -33.543  21.887  1.00  0.00     0.005 C 
ATOM     15  C   UNL     1      18.273 -33.228  22.729  1.00  0.00    -0.001 C 
ATOM     16  C   UNL     1      16.721 -34.324  24.352  1.00  0.00     0.007 C 
ATOM     17  C   UNL     1      17.073 -35.377  21.999  1.00  0.00     0.012 C 
ATOM     18  C   UNL     1      17.212 -32.245  22.138  1.00  0.00     0.004 C 
ATOM     19  C   UNL     1      15.999 -32.942  24.293  1.00  0.00     0.005 C 
ATOM     20  C   UNL     1      15.807 -32.445  22.831  1.00  0.00     0.003 C 
ATOM     21  C   UNL     1      17.769 -30.811  22.303  1.00  0.00     0.085 C 
ATOM     22  C   UNL     1      14.761 -31.274  22.565  1.00  0.00    -0.000 C 
ATOM     23  C   UNL     1      16.766 -29.753  22.022  1.00  0.00     0.159 C 
ATOM     24  C   UNL     1      15.406 -29.892  22.557  1.00  0.00     0.005 C 
ATOM     25  C   UNL     1      13.602 -31.296  23.611  1.00  0.00     0.020 C 
ATOM     26  C   UNL     1      14.161 -31.487  21.147  1.00  0.00     0.017 C 
ATOM     27  O   UNL     1      17.123 -28.703  21.424  1.00  0.00    -0.295 OA
ATOM     28  C   UNL     1      14.689 -28.784  22.833  1.00  0.00     0.055 C 
ATOM     29  C   UNL     1      12.585 -30.168  23.411  1.00  0.00     0.081 C 
ATOM     30  C   UNL     1      13.281 -28.850  23.260  1.00  0.00     0.156 C 
ATOM     31  O   UNL     1      12.644 -27.783  23.460  1.00  0.00    -0.295 OA
ENDBRANCH   9  11
ENDBRANCH   8   9
ENDBRANCH   1   8
TORSDOF 6
ENDMDL
