MODEL 1
REMARK VINA RESULT:    -3.432      0.000      0.000
REMARK INTER + INTRA:          -5.214
REMARK INTER:                  -4.736
REMARK INTRA:                  -0.478
REMARK UNBOUND:                -0.478
REMARK SMILES CCCCCCCCO
REMARK SMILES IDX 5 1 4 2 3 3 2 4 1 5 6 6 7 7 8 8 9 9
REMARK H PARENT 9 10
REMARK Flexibility Score: inf
ROOT
ATOM      1  C   UNL     1     162.190 180.036 180.299  1.00  0.00     0.000 C 
ENDROOT
BRANCH   1   2
ATOM      2  C   UNL     1     162.294 179.000 181.425  1.00  0.00    -0.000 C 
BRANCH   2   3
ATOM      3  C   UNL     1     163.758 178.711 181.775  1.00  0.00    -0.000 C 
BRANCH   3   4
ATOM      4  C   UNL     1     164.706 179.557 180.917  1.00  0.00    -0.003 C 
ATOM      5  C   UNL     1     165.912 178.742 180.459  1.00  0.00     0.004 C 
ENDBRANCH   3   4
ENDBRANCH   2   3
ENDBRANCH   1   2
BRANCH   1   6
ATOM      6  C   UNL     1     161.538 179.425 179.049  1.00  0.00     0.002 C 
BRANCH   6   7
ATOM      7  C   UNL     1     162.294 179.773 177.755  1.00  0.00     0.028 C 
BRANCH   7   8
ATOM      8  C   UNL     1     163.524 178.893 177.508  1.00  0.00     0.156 C 
BRANCH   8   9
ATOM      9  O   UNL     1     164.629 179.685 177.173  1.00  0.00    -0.396 OA
ATOM     10  H   UNL     1     164.925 180.115 178.018  1.00  0.00     0.210 HD
ENDBRANCH   8   9
ENDBRANCH   7   8
ENDBRANCH   6   7
ENDBRANCH   1   6
TORSDOF 7
ENDMDL
MODEL 2
REMARK VINA RESULT:    -3.351     11.522     12.700
REMARK INTER + INTRA:          -5.102
REMARK INTER:                  -4.607
REMARK INTRA:                  -0.496
REMARK UNBOUND:                -0.478
REMARK SMILES CCCCCCCCO
REMARK SMILES IDX 5 1 4 2 3 3 2 4 1 5 6 6 7 7 8 8 9 9
REMARK H PARENT 9 10
REMARK Flexibility Score: inf
ROOT
ATOM      1  C   UNL     1     174.325 179.034 179.177  1.00  0.00     0.000 C 
ENDROOT
BRANCH   1   2
ATOM      2  C   UNL     1     174.669 179.281 180.652  1.00  0.00    -0.000 C 
BRANCH   2   3
ATOM      3  C   UNL     1     175.138 177.990 181.332  1.00  0.00    -0.000 C 
BRANCH   3   4
ATOM      4  C   UNL     1     176.566 178.137 181.868  1.00  0.00    -0.003 C 
ATOM      5  C   UNL     1     177.046 179.582 181.769  1.00  0.00     0.004 C 
ENDBRANCH   3   4
ENDBRANCH   2   3
ENDBRANCH   1   2
BRANCH   1   6
ATOM      6  C   UNL     1     175.249 179.842 178.254  1.00  0.00     0.002 C 
BRANCH   6   7
ATOM      7  C   UNL     1     176.661 179.239 178.152  1.00  0.00     0.028 C 
BRANCH   7   8
ATOM      8  C   UNL     1     176.671 177.775 177.701  1.00  0.00     0.156 C 
BRANCH   8   9
ATOM      9  O   UNL     1     177.804 177.516 176.918  1.00  0.00    -0.396 OA
ATOM     10  H   UNL     1     177.483 177.001 176.132  1.00  0.00     0.210 HD
ENDBRANCH   8   9
ENDBRANCH   7   8
ENDBRANCH   6   7
ENDBRANCH   1   6
TORSDOF 7
ENDMDL
MODEL 3
REMARK VINA RESULT:    -3.341     13.524     14.274
REMARK INTER + INTRA:          -5.088
REMARK INTER:                  -4.708
REMARK INTRA:                  -0.379
REMARK UNBOUND:                -0.478
REMARK SMILES CCCCCCCCO
REMARK SMILES IDX 5 1 4 2 3 3 2 4 1 5 6 6 7 7 8 8 9 9
REMARK H PARENT 9 10
REMARK Flexibility Score: inf
ROOT
ATOM      1  C   UNL     1     176.702 178.096 181.841  1.00  0.00     0.000 C 
ENDROOT
BRANCH   1   2
ATOM      2  C   UNL     1     176.506 179.529 181.330  1.00  0.00    -0.000 C 
BRANCH   2   3
ATOM      3  C   UNL     1     177.384 179.802 180.103  1.00  0.00    -0.000 C 
BRANCH   3   4
ATOM      4  C   UNL     1     176.526 180.125 178.874  1.00  0.00    -0.003 C 
ATOM      5  C   UNL     1     176.852 179.191 177.713  1.00  0.00     0.004 C 
ENDBRANCH   3   4
ENDBRANCH   2   3
ENDBRANCH   1   2
BRANCH   1   6
ATOM      6  C   UNL     1     177.640 177.306 180.916  1.00  0.00     0.002 C 
BRANCH   6   7
ATOM      7  C   UNL     1     176.977 176.044 180.337  1.00  0.00     0.028 C 
BRANCH   7   8
ATOM      8  C   UNL     1     177.824 174.777 180.499  1.00  0.00     0.156 C 
BRANCH   8   9
ATOM      9  O   UNL     1     178.293 174.344 179.253  1.00  0.00    -0.396 OA
ATOM     10  H   UNL     1     179.001 174.986 178.986  1.00  0.00     0.210 HD
ENDBRANCH   8   9
ENDBRANCH   7   8
ENDBRANCH   6   7
ENDBRANCH   1   6
TORSDOF 7
ENDMDL
MODEL 4
REMARK VINA RESULT:    -3.339      1.249      1.967
REMARK INTER + INTRA:          -5.086
REMARK INTER:                  -4.578
REMARK INTRA:                  -0.508
REMARK UNBOUND:                -0.478
REMARK SMILES CCCCCCCCO
REMARK SMILES IDX 5 1 4 2 3 3 2 4 1 5 6 6 7 7 8 8 9 9
REMARK H PARENT 9 10
REMARK Flexibility Score: inf
ROOT
ATOM      1  C   UNL     1     162.038 177.238 179.075  1.00  0.00     0.000 C 
ENDROOT
BRANCH   1   2
ATOM      2  C   UNL     1     161.943 177.438 180.593  1.00  0.00    -0.000 C 
BRANCH   2   3
ATOM      3  C   UNL     1     163.325 177.703 181.201  1.00  0.00    -0.000 C 
BRANCH   3   4
ATOM      4  C   UNL     1     163.505 179.189 181.533  1.00  0.00    -0.003 C 
ATOM      5  C   UNL     1     162.158 179.895 181.648  1.00  0.00     0.004 C 
ENDBRANCH   3   4
ENDBRANCH   2   3
ENDBRANCH   1   2
BRANCH   1   6
ATOM      6  C   UNL     1     161.372 178.400 178.324  1.00  0.00     0.002 C 
BRANCH   6   7
ATOM      7  C   UNL     1     162.386 179.445 177.827  1.00  0.00     0.028 C 
BRANCH   7   8
ATOM      8  C   UNL     1     163.659 178.832 177.235  1.00  0.00     0.156 C 
BRANCH   8   9
ATOM      9  O   UNL     1     164.740 179.709 177.391  1.00  0.00    -0.396 OA
ATOM     10  H   UNL     1     164.577 180.460 176.764  1.00  0.00     0.210 HD
ENDBRANCH   8   9
ENDBRANCH   7   8
ENDBRANCH   6   7
ENDBRANCH   1   6
TORSDOF 7
ENDMDL
MODEL 5
REMARK VINA RESULT:    -3.334      1.245      2.009
REMARK INTER + INTRA:          -5.078
REMARK INTER:                  -4.715
REMARK INTRA:                  -0.364
REMARK UNBOUND:                -0.478
REMARK SMILES CCCCCCCCO
REMARK SMILES IDX 5 1 4 2 3 3 2 4 1 5 6 6 7 7 8 8 9 9
REMARK H PARENT 9 10
REMARK Flexibility Score: inf
ROOT
ATOM      1  C   UNL     1     162.090 180.125 180.378  1.00  0.00     0.000 C 
ENDROOT
BRANCH   1   2
ATOM      2  C   UNL     1     162.244 179.141 181.545  1.00  0.00    -0.000 C 
BRANCH   2   3
ATOM      3  C   UNL     1     163.530 178.318 181.405  1.00  0.00    -0.000 C 
BRANCH   3   4
ATOM      4  C   UNL     1     163.217 176.821 181.306  1.00  0.00    -0.003 C 
ATOM      5  C   UNL     1     161.736 176.584 181.031  1.00  0.00     0.004 C 
ENDBRANCH   3   4
ENDBRANCH   2   3
ENDBRANCH   1   2
BRANCH   1   6
ATOM      6  C   UNL     1     163.049 179.773 179.232  1.00  0.00     0.002 C 
BRANCH   6   7
ATOM      7  C   UNL     1     162.316 179.266 177.978  1.00  0.00     0.028 C 
BRANCH   7   8
ATOM      8  C   UNL     1     163.194 179.237 176.723  1.00  0.00     0.156 C 
BRANCH   8   9
ATOM      9  O   UNL     1     164.462 179.763 177.004  1.00  0.00    -0.396 OA
ATOM     10  H   UNL     1     164.847 180.032 176.130  1.00  0.00     0.210 HD
ENDBRANCH   8   9
ENDBRANCH   7   8
ENDBRANCH   6   7
ENDBRANCH   1   6
TORSDOF 7
ENDMDL
MODEL 6
REMARK VINA RESULT:    -3.303      2.028      3.349
REMARK INTER + INTRA:          -5.036
REMARK INTER:                  -4.794
REMARK INTRA:                  -0.241
REMARK UNBOUND:                -0.478
REMARK SMILES CCCCCCCCO
REMARK SMILES IDX 5 1 4 2 3 3 2 4 1 5 6 6 7 7 8 8 9 9
REMARK H PARENT 9 10
REMARK Flexibility Score: inf
ROOT
ATOM      1  C   UNL     1     163.141 179.164 181.780  1.00  0.00     0.000 C 
ENDROOT
BRANCH   1   2
ATOM      2  C   UNL     1     162.015 178.313 181.179  1.00  0.00    -0.000 C 
BRANCH   2   3
ATOM      3  C   UNL     1     162.437 176.844 181.063  1.00  0.00    -0.000 C 
BRANCH   3   4
ATOM      4  C   UNL     1     161.365 176.019 180.340  1.00  0.00    -0.003 C 
ATOM      5  C   UNL     1     160.359 175.435 181.326  1.00  0.00     0.004 C 
ENDBRANCH   3   4
ENDBRANCH   2   3
ENDBRANCH   1   2
BRANCH   1   6
ATOM      6  C   UNL     1     164.472 178.902 181.060  1.00  0.00     0.002 C 
BRANCH   6   7
ATOM      7  C   UNL     1     164.622 179.725 179.770  1.00  0.00     0.028 C 
BRANCH   7   8
ATOM      8  C   UNL     1     164.399 178.910 178.492  1.00  0.00     0.156 C 
BRANCH   8   9
ATOM      9  O   UNL     1     164.737 179.670 177.365  1.00  0.00    -0.396 OA
ATOM     10  H   UNL     1     165.388 180.351 177.677  1.00  0.00     0.210 HD
ENDBRANCH   8   9
ENDBRANCH   7   8
ENDBRANCH   6   7
ENDBRANCH   1   6
TORSDOF 7
ENDMDL
MODEL 7
REMARK VINA RESULT:    -3.294      1.523      3.584
REMARK INTER + INTRA:          -5.023
REMARK INTER:                  -4.643
REMARK INTRA:                  -0.380
REMARK UNBOUND:                -0.478
REMARK SMILES CCCCCCCCO
REMARK SMILES IDX 5 1 4 2 3 3 2 4 1 5 6 6 7 7 8 8 9 9
REMARK H PARENT 9 10
REMARK Flexibility Score: inf
ROOT
ATOM      1  C   UNL     1     163.859 178.666 181.501  1.00  0.00     0.000 C 
ENDROOT
BRANCH   1   2
ATOM      2  C   UNL     1     162.536 179.371 181.827  1.00  0.00    -0.000 C 
BRANCH   2   3
ATOM      3  C   UNL     1     161.988 180.110 180.600  1.00  0.00    -0.000 C 
BRANCH   3   4
ATOM      4  C   UNL     1     161.754 179.141 179.435  1.00  0.00    -0.003 C 
ATOM      5  C   UNL     1     162.146 179.776 178.104  1.00  0.00     0.004 C 
ENDBRANCH   3   4
ENDBRANCH   2   3
ENDBRANCH   1   2
BRANCH   1   6
ATOM      6  C   UNL     1     164.917 179.674 181.029  1.00  0.00     0.002 C 
BRANCH   6   7
ATOM      7  C   UNL     1     165.800 179.121 179.897  1.00  0.00     0.028 C 
BRANCH   7   8
ATOM      8  C   UNL     1     167.275 178.980 180.283  1.00  0.00     0.156 C 
BRANCH   8   9
ATOM      9  O   UNL     1     168.097 179.364 179.215  1.00  0.00    -0.396 OA
ATOM     10  H   UNL     1     167.495 179.485 178.435  1.00  0.00     0.210 HD
ENDBRANCH   8   9
ENDBRANCH   7   8
ENDBRANCH   6   7
ENDBRANCH   1   6
TORSDOF 7
ENDMDL
MODEL 8
REMARK VINA RESULT:    -3.292     11.578     13.929
REMARK INTER + INTRA:          -5.020
REMARK INTER:                  -4.574
REMARK INTRA:                  -0.446
REMARK UNBOUND:                -0.478
REMARK SMILES CCCCCCCCO
REMARK SMILES IDX 5 1 4 2 3 3 2 4 1 5 6 6 7 7 8 8 9 9
REMARK H PARENT 9 10
REMARK Flexibility Score: inf
ROOT
ATOM      1  C   UNL     1     177.459 178.004 179.649  1.00  0.00     0.000 C 
ENDROOT
BRANCH   1   2
ATOM      2  C   UNL     1     177.150 179.328 180.360  1.00  0.00    -0.000 C 
BRANCH   2   3
ATOM      3  C   UNL     1     176.188 179.111 181.534  1.00  0.00    -0.000 C 
BRANCH   3   4
ATOM      4  C   UNL     1     174.730 179.264 181.086  1.00  0.00    -0.003 C 
ATOM      5  C   UNL     1     173.997 177.927 181.125  1.00  0.00     0.004 C 
ENDBRANCH   3   4
ENDBRANCH   2   3
ENDBRANCH   1   2
BRANCH   1   6
ATOM      6  C   UNL     1     177.737 176.886 180.664  1.00  0.00     0.002 C 
BRANCH   6   7
ATOM      7  C   UNL     1     176.895 175.624 180.403  1.00  0.00     0.028 C 
BRANCH   7   8
ATOM      8  C   UNL     1     177.701 174.324 180.474  1.00  0.00     0.156 C 
BRANCH   8   9
ATOM      9  O   UNL     1     178.407 174.123 179.280  1.00  0.00    -0.396 OA
ATOM     10  H   UNL     1     177.722 173.977 178.577  1.00  0.00     0.210 HD
ENDBRANCH   8   9
ENDBRANCH   7   8
ENDBRANCH   6   7
ENDBRANCH   1   6
TORSDOF 7
ENDMDL
