MODEL 1
REMARK VINA RESULT:    -3.154      0.000      0.000
REMARK INTER + INTRA:          -4.572
REMARK INTER:                  -4.260
REMARK INTRA:                  -0.312
REMARK UNBOUND:                -0.312
REMARK SMILES CCCCCCCC(=O)[O-]
REMARK SMILES IDX 5 1 6 2 7 3 8 4 9 5 10 6 4 7 3 8 2 9 1 10
REMARK H PARENT
REMARK Flexibility Score: inf
ROOT
ATOM      1  C   UNL     1     -96.137 -27.745  82.350  1.00  0.00     0.000 C 
ENDROOT
BRANCH   1   2
ATOM      2  C   UNL     1     -96.747 -27.555  80.952  1.00  0.00     0.006 C 
BRANCH   2   3
ATOM      3  C   UNL     1     -97.766 -28.657  80.646  1.00  0.00     0.053 C 
BRANCH   3   4
ATOM      4  C   UNL     1     -97.291 -29.510  79.512  1.00  0.00     0.041 C 
ATOM      5  O   UNL     1     -96.151 -29.324  79.013  1.00  0.00    -0.550 OA
ATOM      6  O   UNL     1     -98.130 -30.478  78.973  1.00  0.00    -0.550 OA
ENDBRANCH   3   4
ENDBRANCH   2   3
ENDBRANCH   1   2
BRANCH   1   7
ATOM      7  C   UNL     1     -96.746 -26.799  83.397  1.00  0.00     0.000 C 
BRANCH   7   8
ATOM      8  C   UNL     1     -96.695 -27.381  84.821  1.00  0.00    -0.000 C 
BRANCH   8   9
ATOM      9  C   UNL     1     -96.874 -28.907  84.839  1.00  0.00    -0.003 C 
ATOM     10  C   UNL     1     -95.811 -29.618  85.677  1.00  0.00     0.004 C 
ENDBRANCH   8   9
ENDBRANCH   7   8
ENDBRANCH   1   7
TORSDOF 6
ENDMDL
MODEL 2
REMARK VINA RESULT:    -3.102      2.374      2.981
REMARK INTER + INTRA:          -4.503
REMARK INTER:                  -4.190
REMARK INTRA:                  -0.313
REMARK UNBOUND:                -0.312
REMARK SMILES CCCCCCCC(=O)[O-]
REMARK SMILES IDX 5 1 6 2 7 3 8 4 9 5 10 6 4 7 3 8 2 9 1 10
REMARK H PARENT
REMARK Flexibility Score: inf
ROOT
ATOM      1  C   UNL     1     -96.838 -27.951  82.186  1.00  0.00     0.000 C 
ENDROOT
BRANCH   1   2
ATOM      2  C   UNL     1     -96.476 -27.581  80.739  1.00  0.00     0.006 C 
BRANCH   2   3
ATOM      3  C   UNL     1     -96.155 -26.089  80.621  1.00  0.00     0.053 C 
BRANCH   3   4
ATOM      4  C   UNL     1     -94.817 -25.890  79.980  1.00  0.00     0.041 C 
ATOM      5  O   UNL     1     -94.706 -25.895  78.726  1.00  0.00    -0.550 OA
ATOM      6  O   UNL     1     -93.683 -25.748  80.771  1.00  0.00    -0.550 OA
ENDBRANCH   3   4
ENDBRANCH   2   3
ENDBRANCH   1   2
BRANCH   1   7
ATOM      7  C   UNL     1     -96.503 -26.833  83.186  1.00  0.00     0.000 C 
BRANCH   7   8
ATOM      8  C   UNL     1     -96.427 -27.340  84.637  1.00  0.00    -0.000 C 
BRANCH   8   9
ATOM      9  C   UNL     1     -96.838 -28.815  84.767  1.00  0.00    -0.003 C 
ATOM     10  C   UNL     1     -95.884 -29.621  85.648  1.00  0.00     0.004 C 
ENDBRANCH   8   9
ENDBRANCH   7   8
ENDBRANCH   1   7
TORSDOF 6
ENDMDL
MODEL 3
REMARK VINA RESULT:    -3.100      3.494      4.204
REMARK INTER + INTRA:          -4.500
REMARK INTER:                  -4.276
REMARK INTRA:                  -0.224
REMARK UNBOUND:                -0.312
REMARK SMILES CCCCCCCC(=O)[O-]
REMARK SMILES IDX 5 1 6 2 7 3 8 4 9 5 10 6 4 7 3 8 2 9 1 10
REMARK H PARENT
REMARK Flexibility Score: inf
ROOT
ATOM      1  C   UNL     1     -96.256 -27.199  81.328  1.00  0.00     0.000 C 
ENDROOT
BRANCH   1   2
ATOM      2  C   UNL     1     -95.395 -25.935  81.465  1.00  0.00     0.006 C 
BRANCH   2   3
ATOM      3  C   UNL     1     -94.449 -25.785  80.269  1.00  0.00     0.053 C 
BRANCH   3   4
ATOM      4  C   UNL     1     -93.213 -25.042  80.668  1.00  0.00     0.041 C 
ATOM      5  O   UNL     1     -93.057 -24.662  81.858  1.00  0.00    -0.550 OA
ATOM      6  O   UNL     1     -92.255 -24.725  79.713  1.00  0.00    -0.550 OA
ENDBRANCH   3   4
ENDBRANCH   2   3
ENDBRANCH   1   2
BRANCH   1   7
ATOM      7  C   UNL     1     -96.359 -27.993  82.640  1.00  0.00     0.000 C 
BRANCH   7   8
ATOM      8  C   UNL     1     -96.718 -27.103  83.843  1.00  0.00    -0.000 C 
BRANCH   8   9
ATOM      9  C   UNL     1     -96.214 -27.681  85.175  1.00  0.00    -0.003 C 
ATOM     10  C   UNL     1     -96.068 -29.203  85.142  1.00  0.00     0.004 C 
ENDBRANCH   8   9
ENDBRANCH   7   8
ENDBRANCH   1   7
TORSDOF 6
ENDMDL
MODEL 4
REMARK VINA RESULT:    -3.038      1.006      1.529
REMARK INTER + INTRA:          -4.416
REMARK INTER:                  -4.164
REMARK INTRA:                  -0.252
REMARK UNBOUND:                -0.312
REMARK SMILES CCCCCCCC(=O)[O-]
REMARK SMILES IDX 5 1 6 2 7 3 8 4 9 5 10 6 4 7 3 8 2 9 1 10
REMARK H PARENT
REMARK Flexibility Score: inf
ROOT
ATOM      1  C   UNL     1     -96.799 -26.515  82.425  1.00  0.00     0.000 C 
ENDROOT
BRANCH   1   2
ATOM      2  C   UNL     1     -96.513 -27.940  81.928  1.00  0.00     0.006 C 
BRANCH   2   3
ATOM      3  C   UNL     1     -97.375 -28.276  80.708  1.00  0.00     0.053 C 
BRANCH   3   4
ATOM      4  C   UNL     1     -96.518 -28.465  79.496  1.00  0.00     0.041 C 
ATOM      5  O   UNL     1     -96.490 -29.576  78.905  1.00  0.00    -0.550 OA
ATOM      6  O   UNL     1     -95.710 -27.427  79.048  1.00  0.00    -0.550 OA
ENDBRANCH   3   4
ENDBRANCH   2   3
ENDBRANCH   1   2
BRANCH   1   7
ATOM      7  C   UNL     1     -97.361 -26.487  83.855  1.00  0.00     0.000 C 
BRANCH   7   8
ATOM      8  C   UNL     1     -97.394 -27.881  84.506  1.00  0.00    -0.000 C 
BRANCH   8   9
ATOM      9  C   UNL     1     -96.157 -28.154  85.376  1.00  0.00    -0.003 C 
ATOM     10  C   UNL     1     -95.841 -29.644  85.505  1.00  0.00     0.004 C 
ENDBRANCH   8   9
ENDBRANCH   7   8
ENDBRANCH   1   7
TORSDOF 6
ENDMDL
MODEL 5
REMARK VINA RESULT:    -3.015     13.676     15.187
REMARK INTER + INTRA:          -4.385
REMARK INTER:                  -3.939
REMARK INTRA:                  -0.447
REMARK UNBOUND:                -0.312
REMARK SMILES CCCCCCCC(=O)[O-]
REMARK SMILES IDX 5 1 6 2 7 3 8 4 9 5 10 6 4 7 3 8 2 9 1 10
REMARK H PARENT
REMARK Flexibility Score: inf
ROOT
ATOM      1  C   UNL     1     -97.450 -39.861  88.720  1.00  0.00     0.000 C 
ENDROOT
BRANCH   1   2
ATOM      2  C   UNL     1     -97.386 -40.726  89.989  1.00  0.00     0.006 C 
BRANCH   2   3
ATOM      3  C   UNL     1     -98.786 -40.960  90.562  1.00  0.00     0.053 C 
BRANCH   3   4
ATOM      4  C   UNL     1     -99.126 -39.903  91.565  1.00  0.00     0.041 C 
ATOM      5  O   UNL     1     -98.882 -40.085  92.786  1.00  0.00    -0.550 OA
ATOM      6  O   UNL     1     -99.759 -38.736  91.156  1.00  0.00    -0.550 OA
ENDBRANCH   3   4
ENDBRANCH   2   3
ENDBRANCH   1   2
BRANCH   1   7
ATOM      7  C   UNL     1     -97.102 -40.648  87.447  1.00  0.00     0.000 C 
BRANCH   7   8
ATOM      8  C   UNL     1     -96.496 -42.029  87.752  1.00  0.00    -0.000 C 
BRANCH   8   9
ATOM      9  C   UNL     1     -97.382 -43.182  87.255  1.00  0.00    -0.003 C 
ATOM     10  C   UNL     1     -98.725 -42.702  86.703  1.00  0.00     0.004 C 
ENDBRANCH   8   9
ENDBRANCH   7   8
ENDBRANCH   1   7
TORSDOF 6
ENDMDL
MODEL 6
REMARK VINA RESULT:    -2.995     14.318     15.950
REMARK INTER + INTRA:          -4.359
REMARK INTER:                  -3.847
REMARK INTRA:                  -0.511
REMARK UNBOUND:                -0.312
REMARK SMILES CCCCCCCC(=O)[O-]
REMARK SMILES IDX 5 1 6 2 7 3 8 4 9 5 10 6 4 7 3 8 2 9 1 10
REMARK H PARENT
REMARK Flexibility Score: inf
ROOT
ATOM      1  C   UNL     1     -98.384 -40.354  90.033  1.00  0.00     0.000 C 
ENDROOT
BRANCH   1   2
ATOM      2  C   UNL     1     -98.101 -41.400  91.123  1.00  0.00     0.006 C 
BRANCH   2   3
ATOM      3  C   UNL     1     -96.604 -41.472  91.435  1.00  0.00     0.053 C 
BRANCH   3   4
ATOM      4  C   UNL     1     -96.373 -41.419  92.913  1.00  0.00     0.041 C 
ATOM      5  O   UNL     1     -97.091 -40.684  93.641  1.00  0.00    -0.550 OA
ATOM      6  O   UNL     1     -95.332 -42.143  93.480  1.00  0.00    -0.550 OA
ENDBRANCH   3   4
ENDBRANCH   2   3
ENDBRANCH   1   2
BRANCH   1   7
ATOM      7  C   UNL     1     -97.124 -39.961  89.246  1.00  0.00     0.000 C 
BRANCH   7   8
ATOM      8  C   UNL     1     -97.268 -40.213  87.734  1.00  0.00    -0.000 C 
BRANCH   8   9
ATOM      9  C   UNL     1     -97.354 -41.709  87.393  1.00  0.00    -0.003 C 
ATOM     10  C   UNL     1     -96.094 -42.479  87.788  1.00  0.00     0.004 C 
ENDBRANCH   8   9
ENDBRANCH   7   8
ENDBRANCH   1   7
TORSDOF 6
ENDMDL
MODEL 7
REMARK VINA RESULT:    -2.987      3.151      3.575
REMARK INTER + INTRA:          -4.347
REMARK INTER:                  -3.742
REMARK INTRA:                  -0.605
REMARK UNBOUND:                -0.312
REMARK SMILES CCCCCCCC(=O)[O-]
REMARK SMILES IDX 5 1 6 2 7 3 8 4 9 5 10 6 4 7 3 8 2 9 1 10
REMARK H PARENT
REMARK Flexibility Score: inf
ROOT
ATOM      1  C   UNL     1     -97.358 -28.036  81.453  1.00  0.00     0.000 C 
ENDROOT
BRANCH   1   2
ATOM      2  C   UNL     1     -98.691 -27.435  81.924  1.00  0.00     0.006 C 
BRANCH   2   3
ATOM      3  C   UNL     1     -99.706 -28.537  82.242  1.00  0.00     0.053 C 
BRANCH   3   4
ATOM      4  C   UNL     1    -100.035 -28.540  83.702  1.00  0.00     0.041 C 
ATOM      5  O   UNL     1    -100.114 -27.456  84.337  1.00  0.00    -0.550 OA
ATOM      6  O   UNL     1    -100.205 -29.745  84.373  1.00  0.00    -0.550 OA
ENDBRANCH   3   4
ENDBRANCH   2   3
ENDBRANCH   1   2
BRANCH   1   7
ATOM      7  C   UNL     1     -96.276 -28.010  82.544  1.00  0.00     0.000 C 
BRANCH   7   8
ATOM      8  C   UNL     1     -96.562 -26.961  83.635  1.00  0.00    -0.000 C 
BRANCH   8   9
ATOM      9  C   UNL     1     -96.595 -27.573  85.044  1.00  0.00    -0.003 C 
ATOM     10  C   UNL     1     -96.209 -29.052  85.057  1.00  0.00     0.004 C 
ENDBRANCH   8   9
ENDBRANCH   7   8
ENDBRANCH   1   7
TORSDOF 6
ENDMDL
MODEL 8
REMARK VINA RESULT:    -2.985     13.083     14.775
REMARK INTER + INTRA:          -4.344
REMARK INTER:                  -3.983
REMARK INTRA:                  -0.361
REMARK UNBOUND:                -0.312
REMARK SMILES CCCCCCCC(=O)[O-]
REMARK SMILES IDX 5 1 6 2 7 3 8 4 9 5 10 6 4 7 3 8 2 9 1 10
REMARK H PARENT
REMARK Flexibility Score: inf
ROOT
ATOM      1  C   UNL     1     -96.835 -41.358  91.824  1.00  0.00     0.000 C 
ENDROOT
BRANCH   1   2
ATOM      2  C   UNL     1     -96.536 -41.216  90.323  1.00  0.00     0.006 C 
BRANCH   2   3
ATOM      3  C   UNL     1     -97.709 -40.558  89.592  1.00  0.00     0.053 C 
BRANCH   3   4
ATOM      4  C   UNL     1     -97.251 -39.954  88.302  1.00  0.00     0.041 C 
ATOM      5  O   UNL     1     -97.205 -40.652  87.255  1.00  0.00    -0.550 OA
ATOM      6  O   UNL     1     -96.825 -38.632  88.267  1.00  0.00    -0.550 OA
ENDBRANCH   3   4
ENDBRANCH   2   3
ENDBRANCH   1   2
BRANCH   1   7
ATOM      7  C   UNL     1     -98.332 -41.222  92.146  1.00  0.00     0.000 C 
BRANCH   7   8
ATOM      8  C   UNL     1     -98.587 -40.468  93.463  1.00  0.00    -0.000 C 
BRANCH   8   9
ATOM      9  C   UNL     1     -99.809 -39.539  93.382  1.00  0.00    -0.003 C 
ATOM     10  C   UNL     1     -99.904 -38.802  92.045  1.00  0.00     0.004 C 
ENDBRANCH   8   9
ENDBRANCH   7   8
ENDBRANCH   1   7
TORSDOF 6
ENDMDL
MODEL 9
REMARK VINA RESULT:    -2.965     13.052     15.070
REMARK INTER + INTRA:          -4.318
REMARK INTER:                  -3.755
REMARK INTRA:                  -0.563
REMARK UNBOUND:                -0.312
REMARK SMILES CCCCCCCC(=O)[O-]
REMARK SMILES IDX 5 1 6 2 7 3 8 4 9 5 10 6 4 7 3 8 2 9 1 10
REMARK H PARENT
REMARK Flexibility Score: inf
ROOT
ATOM      1  C   UNL     1     -96.049 -42.281  89.575  1.00  0.00     0.000 C 
ENDROOT
BRANCH   1   2
ATOM      2  C   UNL     1     -97.298 -42.112  88.695  1.00  0.00     0.006 C 
BRANCH   2   3
ATOM      3  C   UNL     1     -97.194 -40.849  87.836  1.00  0.00     0.053 C 
BRANCH   3   4
ATOM      4  C   UNL     1     -97.463 -39.630  88.661  1.00  0.00     0.041 C 
ATOM      5  O   UNL     1     -98.356 -39.648  89.548  1.00  0.00    -0.550 OA
ATOM      6  O   UNL     1     -96.760 -38.457  88.416  1.00  0.00    -0.550 OA
ENDBRANCH   3   4
ENDBRANCH   2   3
ENDBRANCH   1   2
BRANCH   1   7
ATOM      7  C   UNL     1     -96.393 -42.597  91.039  1.00  0.00     0.000 C 
BRANCH   7   8
ATOM      8  C   UNL     1     -96.342 -41.351  91.941  1.00  0.00    -0.000 C 
BRANCH   8   9
ATOM      9  C   UNL     1     -97.632 -41.159  92.753  1.00  0.00    -0.003 C 
ATOM     10  C   UNL     1     -98.808 -41.962  92.195  1.00  0.00     0.004 C 
ENDBRANCH   8   9
ENDBRANCH   7   8
ENDBRANCH   1   7
TORSDOF 6
ENDMDL
