MODEL 1
REMARK VINA RESULT:    -4.046      0.000      0.000
REMARK INTER + INTRA:          -6.025
REMARK INTER:                  -6.175
REMARK INTRA:                   0.150
REMARK UNBOUND:                 0.150
REMARK SMILES CC1=CCC[C@H](C)C(=O)C[C@@H](C(C)C)C(=O)C1
REMARK SMILES IDX 8 1 9 2 6 3 7 4 5 5 4 6 3 7 2 8 1 9 10 11 11 12 15 13 16 14
REMARK SMILES IDX 17 15 12 17 13 18 14 19
REMARK H PARENT
REMARK Flexibility Score: 70.00
ROOT
ATOM      1  C   UNL     1     137.997 184.847 190.844  1.00  0.00     0.136 C 
ATOM      2  O   UNL     1     138.967 184.870 190.101  1.00  0.00    -0.299 OA
ENDROOT
BRANCH   1   3
ATOM      3  C   UNL     1     137.756 185.998 191.806  1.00  0.00     0.053 C 
ATOM      4  C   UNL     1     136.986 187.137 191.119  1.00  0.00     0.016 C 
BRANCH   3   5
ATOM      5  C   UNL     1     137.001 185.498 193.063  1.00  0.00     0.015 C 
BRANCH   5   6
ATOM      6  C   UNL     1     135.719 186.307 193.336  1.00  0.00     0.028 C 
BRANCH   6   7
ATOM      7  C   UNL     1     134.631 185.434 193.907  1.00  0.00    -0.028 C 
ATOM      8  C   UNL     1     133.692 184.793 193.173  1.00  0.00    -0.070 CG0
ATOM      9  C   UNL     1     132.640 183.999 193.905  1.00  0.00     0.039 C 
ATOM     10  G   UNL     1     133.654 184.837 191.654  1.00  0.00     0.000 G0
ENDBRANCH   6   7
ENDBRANCH   5   6
ENDBRANCH   3   5
ENDBRANCH   1   3
BRANCH   1  11
ATOM     11  C   UNL     1     137.040 183.679 190.763  1.00  0.00     0.087 C 
BRANCH  11  12
ATOM     12  C   UNL     1     135.688 184.083 190.121  1.00  0.00     0.066 C 
BRANCH  12  13
ATOM     13  C   UNL     1     134.498 183.756 191.014  1.00  0.00     0.140 C 
ATOM     14  O   UNL     1     134.282 182.584 191.290  1.00  0.00    -0.299 OA
BRANCH  13  15
ATOM     15  C   UNL     1     133.638 184.822 191.652  1.00  0.00     0.106 CG0
ATOM     16  G   UNL     1     133.718 184.797 193.169  1.00  0.00     0.000 G0
ENDBRANCH  13  15
ENDBRANCH  12  13
BRANCH  12  17
ATOM     17  C   UNL     1     135.492 183.569 188.655  1.00  0.00    -0.006 C 
ATOM     18  C   UNL     1     134.050 183.672 188.125  1.00  0.00     0.008 C 
ATOM     19  C   UNL     1     135.988 182.120 188.502  1.00  0.00     0.008 C 
ENDBRANCH  12  17
ENDBRANCH  11  12
ENDBRANCH   1  11
TORSDOF 1
ENDMDL
MODEL 2
REMARK VINA RESULT:    -3.880      1.565      3.748
REMARK INTER + INTRA:          -5.772
REMARK INTER:                  -5.695
REMARK INTRA:                  -0.078
REMARK UNBOUND:                 0.150
REMARK SMILES CC1=CCC[C@H](C)C(=O)C[C@@H](C(C)C)C(=O)C1
REMARK SMILES IDX 8 1 9 2 6 3 7 4 5 5 4 6 3 7 2 8 1 9 10 11 11 12 15 13 16 14
REMARK SMILES IDX 17 15 12 17 13 18 14 19
REMARK H PARENT
REMARK Flexibility Score: 70.00
ROOT
ATOM      1  C   UNL     1     133.760 183.591 190.857  1.00  0.00     0.136 C 
ATOM      2  O   UNL     1     133.775 182.424 191.224  1.00  0.00    -0.299 OA
ENDROOT
BRANCH   1   3
ATOM      3  C   UNL     1     132.801 184.573 191.507  1.00  0.00     0.053 C 
ATOM      4  C   UNL     1     131.480 183.884 191.885  1.00  0.00     0.016 C 
BRANCH   3   5
ATOM      5  C   UNL     1     133.460 185.226 192.748  1.00  0.00     0.015 C 
BRANCH   5   6
ATOM      6  C   UNL     1     134.510 186.285 192.362  1.00  0.00     0.028 C 
BRANCH   6   7
ATOM      7  C   UNL     1     135.850 185.979 192.981  1.00  0.00    -0.028 C 
ATOM      8  C   UNL     1     136.965 185.657 192.286  1.00  0.00    -0.070 CG0
ATOM      9  C   UNL     1     138.214 185.327 193.063  1.00  0.00     0.039 C 
ATOM     10  G   UNL     1     137.013 185.617 190.767  1.00  0.00     0.000 G0
ENDBRANCH   6   7
ENDBRANCH   5   6
ENDBRANCH   3   5
ENDBRANCH   1   3
BRANCH   1  11
ATOM     11  C   UNL     1     134.726 184.032 189.781  1.00  0.00     0.087 C 
BRANCH  11  12
ATOM     12  C   UNL     1     136.077 183.278 189.873  1.00  0.00     0.066 C 
BRANCH  12  13
ATOM     13  C   UNL     1     137.235 184.199 190.237  1.00  0.00     0.140 C 
ATOM     14  O   UNL     1     138.376 183.810 190.031  1.00  0.00    -0.299 OA
BRANCH  13  15
ATOM     15  C   UNL     1     137.029 185.606 190.748  1.00  0.00     0.106 CG0
ATOM     16  G   UNL     1     136.967 185.667 192.265  1.00  0.00     0.000 G0
ENDBRANCH  13  15
ENDBRANCH  12  13
BRANCH  12  17
ATOM     17  C   UNL     1     136.399 182.380 188.631  1.00  0.00    -0.006 C 
ATOM     18  C   UNL     1     135.258 182.269 187.604  1.00  0.00     0.008 C 
ATOM     19  C   UNL     1     136.834 180.969 189.063  1.00  0.00     0.008 C 
ENDBRANCH  12  17
ENDBRANCH  11  12
ENDBRANCH   1  11
TORSDOF 1
ENDMDL
MODEL 3
REMARK VINA RESULT:    -3.796      2.334      4.595
REMARK INTER + INTRA:          -5.643
REMARK INTER:                  -5.421
REMARK INTRA:                  -0.222
REMARK UNBOUND:                 0.150
REMARK SMILES CC1=CCC[C@H](C)C(=O)C[C@@H](C(C)C)C(=O)C1
REMARK SMILES IDX 8 1 9 2 6 3 7 4 5 5 4 6 3 7 2 8 1 9 10 11 11 12 15 13 16 14
REMARK SMILES IDX 17 15 12 17 13 18 14 19
REMARK H PARENT
REMARK Flexibility Score: 70.00
ROOT
ATOM      1  C   UNL     1     134.271 183.230 187.557  1.00  0.00     0.136 C 
ATOM      2  O   UNL     1     134.745 182.147 187.245  1.00  0.00    -0.299 OA
ENDROOT
BRANCH   1   3
ATOM      3  C   UNL     1     133.018 183.733 186.860  1.00  0.00     0.053 C 
ATOM      4  C   UNL     1     133.154 183.619 185.333  1.00  0.00     0.016 C 
BRANCH   3   5
ATOM      5  C   UNL     1     131.775 182.959 187.367  1.00  0.00     0.015 C 
BRANCH   5   6
ATOM      6  C   UNL     1     131.108 183.648 188.572  1.00  0.00     0.028 C 
BRANCH   6   7
ATOM      7  C   UNL     1     131.100 182.748 189.781  1.00  0.00    -0.028 C 
ATOM      8  C   UNL     1     131.947 182.859 190.830  1.00  0.00    -0.070 CG0
ATOM      9  C   UNL     1     131.839 181.843 191.939  1.00  0.00     0.039 C 
ATOM     10  G   UNL     1     132.993 183.957 190.939  1.00  0.00     0.000 G0
ENDBRANCH   6   7
ENDBRANCH   5   6
ENDBRANCH   3   5
ENDBRANCH   1   3
BRANCH   1  11
ATOM     11  C   UNL     1     134.932 184.029 188.656  1.00  0.00     0.087 C 
BRANCH  11  12
ATOM     12  C   UNL     1     135.308 183.141 189.870  1.00  0.00     0.066 C 
BRANCH  12  13
ATOM     13  C   UNL     1     134.422 183.403 191.081  1.00  0.00     0.140 C 
ATOM     14  O   UNL     1     134.894 183.232 192.197  1.00  0.00    -0.299 OA
BRANCH  13  15
ATOM     15  C   UNL     1     133.022 183.958 190.964  1.00  0.00     0.106 CG0
ATOM     16  G   UNL     1     131.973 182.863 190.855  1.00  0.00     0.000 G0
ENDBRANCH  13  15
ENDBRANCH  12  13
BRANCH  12  17
ATOM     17  C   UNL     1     136.831 183.156 190.232  1.00  0.00    -0.006 C 
ATOM     18  C   UNL     1     137.446 184.561 190.367  1.00  0.00     0.008 C 
ATOM     19  C   UNL     1     137.653 182.337 189.222  1.00  0.00     0.008 C 
ENDBRANCH  12  17
ENDBRANCH  11  12
ENDBRANCH   1  11
TORSDOF 1
ENDMDL
MODEL 4
REMARK VINA RESULT:    -3.744      1.701      3.922
REMARK INTER + INTRA:          -5.564
REMARK INTER:                  -5.368
REMARK INTRA:                  -0.196
REMARK UNBOUND:                 0.150
REMARK SMILES CC1=CCC[C@H](C)C(=O)C[C@@H](C(C)C)C(=O)C1
REMARK SMILES IDX 8 1 9 2 6 3 7 4 5 5 4 6 3 7 2 8 1 9 10 11 11 12 15 13 16 14
REMARK SMILES IDX 17 15 12 17 13 18 14 19
REMARK H PARENT
REMARK Flexibility Score: 70.00
ROOT
ATOM      1  C   UNL     1     136.443 183.626 189.953  1.00  0.00     0.136 C 
ATOM      2  O   UNL     1     137.618 183.322 190.106  1.00  0.00    -0.299 OA
ENDROOT
BRANCH   1   3
ATOM      3  C   UNL     1     135.442 182.570 189.517  1.00  0.00     0.053 C 
ATOM      4  C   UNL     1     135.709 182.122 188.071  1.00  0.00     0.016 C 
BRANCH   3   5
ATOM      5  C   UNL     1     135.479 181.363 190.488  1.00  0.00     0.015 C 
BRANCH   5   6
ATOM      6  C   UNL     1     134.604 181.589 191.735  1.00  0.00     0.028 C 
BRANCH   6   7
ATOM      7  C   UNL     1     133.360 182.370 191.397  1.00  0.00    -0.028 C 
ATOM      8  C   UNL     1     133.029 183.564 191.941  1.00  0.00    -0.070 CG0
ATOM      9  C   UNL     1     131.720 184.190 191.532  1.00  0.00     0.039 C 
ATOM     10  G   UNL     1     133.914 184.297 192.936  1.00  0.00     0.000 G0
ENDBRANCH   6   7
ENDBRANCH   5   6
ENDBRANCH   3   5
ENDBRANCH   1   3
BRANCH   1  11
ATOM     11  C   UNL     1     136.012 185.047 190.234  1.00  0.00     0.087 C 
BRANCH  11  12
ATOM     12  C   UNL     1     136.029 185.367 191.751  1.00  0.00     0.066 C 
BRANCH  12  13
ATOM     13  C   UNL     1     134.627 185.482 192.338  1.00  0.00     0.140 C 
ATOM     14  O   UNL     1     134.037 186.548 192.233  1.00  0.00    -0.299 OA
BRANCH  13  15
ATOM     15  C   UNL     1     133.900 184.309 192.952  1.00  0.00     0.106 CG0
ATOM     16  G   UNL     1     133.045 183.565 191.940  1.00  0.00     0.000 G0
ENDBRANCH  13  15
ENDBRANCH  12  13
BRANCH  12  17
ATOM     17  C   UNL     1     136.940 186.578 192.145  1.00  0.00    -0.006 C 
ATOM     18  C   UNL     1     138.284 186.641 191.398  1.00  0.00     0.008 C 
ATOM     19  C   UNL     1     137.198 186.610 193.661  1.00  0.00     0.008 C 
ENDBRANCH  12  17
ENDBRANCH  11  12
ENDBRANCH   1  11
TORSDOF 1
ENDMDL
MODEL 5
REMARK VINA RESULT:    -3.645      1.853      4.030
REMARK INTER + INTRA:          -5.413
REMARK INTER:                  -5.151
REMARK INTRA:                  -0.261
REMARK UNBOUND:                 0.150
REMARK SMILES CC1=CCC[C@H](C)C(=O)C[C@@H](C(C)C)C(=O)C1
REMARK SMILES IDX 8 1 9 2 6 3 7 4 5 5 4 6 3 7 2 8 1 9 10 11 11 12 15 13 16 14
REMARK SMILES IDX 17 15 12 17 13 18 14 19
REMARK H PARENT
REMARK Flexibility Score: 70.00
ROOT
ATOM      1  C   UNL     1     136.110 186.309 192.350  1.00  0.00     0.136 C 
ATOM      2  O   UNL     1     136.857 186.537 193.291  1.00  0.00    -0.299 OA
ENDROOT
BRANCH   1   3
ATOM      3  C   UNL     1     136.688 186.108 190.960  1.00  0.00     0.053 C 
ATOM      4  C   UNL     1     138.118 186.666 190.872  1.00  0.00     0.016 C 
BRANCH   3   5
ATOM      5  C   UNL     1     136.655 184.606 190.577  1.00  0.00     0.015 C 
BRANCH   5   6
ATOM      6  C   UNL     1     135.600 184.303 189.496  1.00  0.00     0.028 C 
BRANCH   6   7
ATOM      7  C   UNL     1     134.901 182.995 189.765  1.00  0.00    -0.028 C 
ATOM      8  C   UNL     1     133.714 182.873 190.403  1.00  0.00    -0.070 CG0
ATOM      9  C   UNL     1     133.176 181.484 190.638  1.00  0.00     0.039 C 
ATOM     10  G   UNL     1     132.904 184.065 190.885  1.00  0.00     0.000 G0
ENDBRANCH   6   7
ENDBRANCH   5   6
ENDBRANCH   3   5
ENDBRANCH   1   3
BRANCH   1  11
ATOM     11  C   UNL     1     134.624 186.202 192.605  1.00  0.00     0.087 C 
BRANCH  11  12
ATOM     12  C   UNL     1     134.221 184.784 193.087  1.00  0.00     0.066 C 
BRANCH  12  13
ATOM     13  C   UNL     1     132.971 184.265 192.389  1.00  0.00     0.140 C 
ATOM     14  O   UNL     1     131.964 184.080 193.058  1.00  0.00    -0.299 OA
BRANCH  13  15
ATOM     15  C   UNL     1     132.894 184.065 190.893  1.00  0.00     0.106 CG0
ATOM     16  G   UNL     1     133.731 182.887 190.424  1.00  0.00     0.000 G0
ENDBRANCH  13  15
ENDBRANCH  12  13
BRANCH  12  17
ATOM     17  C   UNL     1     134.141 184.632 194.643  1.00  0.00    -0.006 C 
ATOM     18  C   UNL     1     134.010 185.958 195.414  1.00  0.00     0.008 C 
ATOM     19  C   UNL     1     135.344 183.843 195.188  1.00  0.00     0.008 C 
ENDBRANCH  12  17
ENDBRANCH  11  12
ENDBRANCH   1  11
TORSDOF 1
ENDMDL
MODEL 6
REMARK VINA RESULT:    -3.503      1.612      2.109
REMARK INTER + INTRA:          -5.197
REMARK INTER:                  -5.164
REMARK INTRA:                  -0.032
REMARK UNBOUND:                 0.150
REMARK SMILES CC1=CCC[C@H](C)C(=O)C[C@@H](C(C)C)C(=O)C1
REMARK SMILES IDX 8 1 9 2 6 3 7 4 5 5 4 6 3 7 2 8 1 9 10 11 11 12 15 13 16 14
REMARK SMILES IDX 17 15 12 17 13 18 14 19
REMARK H PARENT
REMARK Flexibility Score: 70.00
ROOT
ATOM      1  C   UNL     1     137.474 185.560 192.224  1.00  0.00     0.136 C 
ATOM      2  O   UNL     1     138.432 186.028 191.624  1.00  0.00    -0.299 OA
ENDROOT
BRANCH   1   3
ATOM      3  C   UNL     1     136.476 186.489 192.892  1.00  0.00     0.053 C 
ATOM      4  C   UNL     1     135.253 186.723 191.991  1.00  0.00     0.016 C 
BRANCH   3   5
ATOM      5  C   UNL     1     136.050 185.918 194.269  1.00  0.00     0.015 C 
BRANCH   5   6
ATOM      6  C   UNL     1     134.548 185.581 194.322  1.00  0.00     0.028 C 
BRANCH   6   7
ATOM      7  C   UNL     1     134.303 184.289 195.060  1.00  0.00    -0.028 C 
ATOM      8  C   UNL     1     133.970 183.117 194.472  1.00  0.00    -0.070 CG0
ATOM      9  C   UNL     1     133.707 181.928 195.361  1.00  0.00     0.039 C 
ATOM     10  G   UNL     1     133.854 182.947 192.966  1.00  0.00     0.000 G0
ENDBRANCH   6   7
ENDBRANCH   5   6
ENDBRANCH   3   5
ENDBRANCH   1   3
BRANCH   1  11
ATOM     11  C   UNL     1     137.293 184.059 192.256  1.00  0.00     0.087 C 
BRANCH  11  12
ATOM     12  C   UNL     1     136.001 183.617 191.522  1.00  0.00     0.066 C 
BRANCH  12  13
ATOM     13  C   UNL     1     135.192 182.606 192.324  1.00  0.00     0.140 C 
ATOM     14  O   UNL     1     135.678 181.502 192.530  1.00  0.00    -0.299 OA
BRANCH  13  15
ATOM     15  C   UNL     1     133.863 182.942 192.959  1.00  0.00     0.106 CG0
ATOM     16  G   UNL     1     133.967 183.101 194.467  1.00  0.00     0.000 G0
ENDBRANCH  13  15
ENDBRANCH  12  13
BRANCH  12  17
ATOM     17  C   UNL     1     136.226 183.160 190.042  1.00  0.00    -0.006 C 
ATOM     18  C   UNL     1     137.694 183.172 189.580  1.00  0.00     0.008 C 
ATOM     19  C   UNL     1     135.379 183.996 189.066  1.00  0.00     0.008 C 
ENDBRANCH  12  17
ENDBRANCH  11  12
ENDBRANCH   1  11
TORSDOF 1
ENDMDL
MODEL 7
REMARK VINA RESULT:    -3.366      1.765      3.823
REMARK INTER + INTRA:          -4.988
REMARK INTER:                  -5.586
REMARK INTRA:                   0.598
REMARK UNBOUND:                 0.150
REMARK SMILES CC1=CCC[C@H](C)C(=O)C[C@@H](C(C)C)C(=O)C1
REMARK SMILES IDX 8 1 9 2 6 3 7 4 5 5 4 6 3 7 2 8 1 9 10 11 11 12 15 13 16 14
REMARK SMILES IDX 17 15 12 17 13 18 14 19
REMARK H PARENT
REMARK Flexibility Score: 70.00
ROOT
ATOM      1  C   UNL     1     137.757 185.303 192.708  1.00  0.00     0.136 C 
ATOM      2  O   UNL     1     138.423 186.082 193.375  1.00  0.00    -0.299 OA
ENDROOT
BRANCH   1   3
ATOM      3  C   UNL     1     137.491 185.601 191.243  1.00  0.00     0.053 C 
ATOM      4  C   UNL     1     137.850 187.057 190.903  1.00  0.00     0.016 C 
BRANCH   3   5
ATOM      5  C   UNL     1     138.276 184.613 190.344  1.00  0.00     0.015 C 
BRANCH   5   6
ATOM      6  C   UNL     1     137.429 183.391 189.941  1.00  0.00     0.028 C 
BRANCH   6   7
ATOM      7  C   UNL     1     135.981 183.766 189.755  1.00  0.00    -0.028 C 
ATOM      8  C   UNL     1     134.973 183.374 190.569  1.00  0.00    -0.070 CG0
ATOM      9  C   UNL     1     133.570 183.795 190.211  1.00  0.00     0.039 C 
ATOM     10  G   UNL     1     135.193 182.538 191.819  1.00  0.00     0.000 G0
ENDBRANCH   6   7
ENDBRANCH   5   6
ENDBRANCH   3   5
ENDBRANCH   1   3
BRANCH   1  11
ATOM     11  C   UNL     1     137.238 184.041 193.359  1.00  0.00     0.087 C 
BRANCH  11  12
ATOM     12  C   UNL     1     135.774 184.202 193.845  1.00  0.00     0.066 C 
BRANCH  12  13
ATOM     13  C   UNL     1     134.809 183.290 193.098  1.00  0.00     0.140 C 
ATOM     14  O   UNL     1     133.652 183.221 193.488  1.00  0.00    -0.299 OA
BRANCH  13  15
ATOM     15  C   UNL     1     135.195 182.547 191.840  1.00  0.00     0.106 CG0
ATOM     16  G   UNL     1     134.964 183.376 190.587  1.00  0.00     0.000 G0
ENDBRANCH  13  15
ENDBRANCH  12  13
BRANCH  12  17
ATOM     17  C   UNL     1     135.272 185.683 193.899  1.00  0.00    -0.006 C 
ATOM     18  C   UNL     1     134.579 186.080 195.215  1.00  0.00     0.008 C 
ATOM     19  C   UNL     1     134.337 185.998 192.718  1.00  0.00     0.008 C 
ENDBRANCH  12  17
ENDBRANCH  11  12
ENDBRANCH   1  11
TORSDOF 1
ENDMDL
MODEL 8
REMARK VINA RESULT:    -3.366      2.028      3.943
REMARK INTER + INTRA:          -4.987
REMARK INTER:                  -4.875
REMARK INTRA:                  -0.112
REMARK UNBOUND:                 0.150
REMARK SMILES CC1=CCC[C@H](C)C(=O)C[C@@H](C(C)C)C(=O)C1
REMARK SMILES IDX 8 1 9 2 6 3 7 4 5 5 4 6 3 7 2 8 1 9 10 11 11 12 15 13 16 14
REMARK SMILES IDX 17 15 12 17 13 18 14 19
REMARK H PARENT
REMARK Flexibility Score: 70.00
ROOT
ATOM      1  C   UNL     1     133.607 183.562 191.952  1.00  0.00     0.136 C 
ATOM      2  O   UNL     1     132.680 182.840 191.613  1.00  0.00    -0.299 OA
ENDROOT
BRANCH   1   3
ATOM      3  C   UNL     1     134.120 183.510 193.380  1.00  0.00     0.053 C 
ATOM      4  C   UNL     1     132.957 183.565 194.385  1.00  0.00     0.016 C 
BRANCH   3   5
ATOM      5  C   UNL     1     134.980 182.239 193.597  1.00  0.00     0.015 C 
BRANCH   5   6
ATOM      6  C   UNL     1     136.487 182.554 193.638  1.00  0.00     0.028 C 
BRANCH   6   7
ATOM      7  C   UNL     1     136.747 183.910 194.242  1.00  0.00    -0.028 C 
ATOM      8  C   UNL     1     137.355 184.935 193.602  1.00  0.00    -0.070 CG0
ATOM      9  C   UNL     1     137.586 186.213 194.369  1.00  0.00     0.039 C 
ATOM     10  G   UNL     1     137.811 184.856 192.154  1.00  0.00     0.000 G0
ENDBRANCH   6   7
ENDBRANCH   5   6
ENDBRANCH   3   5
ENDBRANCH   1   3
BRANCH   1  11
ATOM     11  C   UNL     1     134.243 184.469 190.923  1.00  0.00     0.087 C 
BRANCH  11  12
ATOM     12  C   UNL     1     135.727 184.101 190.666  1.00  0.00     0.066 C 
BRANCH  12  13
ATOM     13  C   UNL     1     136.688 185.170 191.170  1.00  0.00     0.140 C 
ATOM     14  O   UNL     1     136.492 186.332 190.840  1.00  0.00    -0.299 OA
BRANCH  13  15
ATOM     15  C   UNL     1     137.809 184.870 192.137  1.00  0.00     0.106 CG0
ATOM     16  G   UNL     1     137.353 184.925 193.585  1.00  0.00     0.000 G0
ENDBRANCH  13  15
ENDBRANCH  12  13
BRANCH  12  17
ATOM     17  C   UNL     1     136.038 183.667 189.194  1.00  0.00    -0.006 C 
ATOM     18  C   UNL     1     134.796 183.468 188.306  1.00  0.00     0.008 C 
ATOM     19  C   UNL     1     136.898 182.392 189.159  1.00  0.00     0.008 C 
ENDBRANCH  12  17
ENDBRANCH  11  12
ENDBRANCH   1  11
TORSDOF 1
ENDMDL
MODEL 9
REMARK VINA RESULT:    -3.175      3.950      5.544
REMARK INTER + INTRA:          -4.696
REMARK INTER:                  -4.535
REMARK INTRA:                  -0.161
REMARK UNBOUND:                 0.150
REMARK SMILES CC1=CCC[C@H](C)C(=O)C[C@@H](C(C)C)C(=O)C1
REMARK SMILES IDX 8 1 9 2 6 3 7 4 5 5 4 6 3 7 2 8 1 9 10 11 11 12 15 13 16 14
REMARK SMILES IDX 17 15 12 17 13 18 14 19
REMARK H PARENT
REMARK Flexibility Score: 70.00
ROOT
ATOM      1  C   UNL     1     135.284 180.836 186.747  1.00  0.00     0.136 C 
ATOM      2  O   UNL     1     136.351 180.554 186.220  1.00  0.00    -0.299 OA
ENDROOT
BRANCH   1   3
ATOM      3  C   UNL     1     135.237 181.156 188.231  1.00  0.00     0.053 C 
ATOM      4  C   UNL     1     135.712 179.958 189.068  1.00  0.00     0.016 C 
BRANCH   3   5
ATOM      5  C   UNL     1     136.087 182.417 188.534  1.00  0.00     0.015 C 
BRANCH   5   6
ATOM      6  C   UNL     1     135.215 183.648 188.844  1.00  0.00     0.028 C 
BRANCH   6   7
ATOM      7  C   UNL     1     133.902 183.247 189.467  1.00  0.00    -0.028 C 
ATOM      8  C   UNL     1     132.695 183.377 188.870  1.00  0.00    -0.070 CG0
ATOM      9  C   UNL     1     131.471 182.974 189.654  1.00  0.00     0.039 C 
ATOM     10  G   UNL     1     132.520 183.903 187.455  1.00  0.00     0.000 G0
ENDBRANCH   6   7
ENDBRANCH   5   6
ENDBRANCH   3   5
ENDBRANCH   1   3
BRANCH   1  11
ATOM     11  C   UNL     1     134.037 180.886 185.894  1.00  0.00     0.087 C 
BRANCH  11  12
ATOM     12  C   UNL     1     133.614 182.343 185.575  1.00  0.00     0.066 C 
BRANCH  12  13
ATOM     13  C   UNL     1     132.424 182.800 186.408  1.00  0.00     0.140 C 
ATOM     14  O   UNL     1     131.367 182.194 186.296  1.00  0.00    -0.299 OA
BRANCH  13  15
ATOM     15  C   UNL     1     132.522 183.902 187.437  1.00  0.00     0.106 CG0
ATOM     16  G   UNL     1     132.687 183.362 188.848  1.00  0.00     0.000 G0
ENDBRANCH  13  15
ENDBRANCH  12  13
BRANCH  12  17
ATOM     17  C   UNL     1     133.422 182.640 184.049  1.00  0.00    -0.006 C 
ATOM     18  C   UNL     1     134.609 182.229 183.159  1.00  0.00     0.008 C 
ATOM     19  C   UNL     1     133.093 184.123 183.807  1.00  0.00     0.008 C 
ENDBRANCH  12  17
ENDBRANCH  11  12
ENDBRANCH   1  11
TORSDOF 1
ENDMDL
