MODEL 1
REMARK VINA RESULT:    -4.909      0.000      0.000
REMARK INTER + INTRA:         -14.929
REMARK INTER:                 -12.371
REMARK INTRA:                  -2.558
REMARK UNBOUND:                -2.558
REMARK SMILES CCCCCCCCCCCCCCCCCCCCCCCCCCCC(=O)[O-]
REMARK SMILES IDX 15 1 16 2 17 3 18 4 19 5 20 6 21 7 22 8 23 9 24 10 25 11
REMARK SMILES IDX 26 12 27 13 28 14 29 15 30 16 14 17 13 18 12 19 11 20 10 21
REMARK SMILES IDX 9 22 8 23 7 24 6 25 5 26 4 27 3 28 2 29 1 30
REMARK H PARENT
REMARK Flexibility Score: inf
ROOT
ATOM      1  C   UNL     1       3.419  -2.627  -7.866  1.00  0.00     0.000 C 
ENDROOT
BRANCH   1   2
ATOM      2  C   UNL     1       1.974  -2.445  -8.358  1.00  0.00     0.000 C 
BRANCH   2   3
ATOM      3  C   UNL     1       1.147  -3.736  -8.231  1.00  0.00     0.000 C 
BRANCH   3   4
ATOM      4  C   UNL     1       0.828  -4.366  -9.599  1.00  0.00     0.000 C 
BRANCH   4   5
ATOM      5  C   UNL     1       1.904  -5.364 -10.054  1.00  0.00     0.000 C 
BRANCH   5   6
ATOM      6  C   UNL     1       1.447  -6.829  -9.940  1.00  0.00     0.000 C 
BRANCH   6   7
ATOM      7  C   UNL     1       2.269  -7.622  -8.911  1.00  0.00     0.000 C 
BRANCH   7   8
ATOM      8  C   UNL     1       3.343  -6.761  -8.225  1.00  0.00     0.000 C 
BRANCH   8   9
ATOM      9  C   UNL     1       3.018  -6.467  -6.752  1.00  0.00     0.000 C 
BRANCH   9  10
ATOM     10  C   UNL     1       4.124  -5.665  -6.048  1.00  0.00     0.000 C 
BRANCH  10  11
ATOM     11  C   UNL     1       5.234  -6.593  -5.533  1.00  0.00     0.000 C 
BRANCH  11  12
ATOM     12  C   UNL     1       4.972  -7.101  -4.106  1.00  0.00     0.006 C 
BRANCH  12  13
ATOM     13  C   UNL     1       4.542  -8.575  -4.071  1.00  0.00     0.053 C 
BRANCH  13  14
ATOM     14  C   UNL     1       5.128  -9.332  -5.222  1.00  0.00     0.041 C 
ATOM     15  O   UNL     1       6.339  -9.684  -5.203  1.00  0.00    -0.550 OA
ATOM     16  O   UNL     1       4.345  -9.624  -6.334  1.00  0.00    -0.550 OA
ENDBRANCH  13  14
ENDBRANCH  12  13
ENDBRANCH  11  12
ENDBRANCH  10  11
ENDBRANCH   9  10
ENDBRANCH   8   9
ENDBRANCH   7   8
ENDBRANCH   6   7
ENDBRANCH   5   6
ENDBRANCH   4   5
ENDBRANCH   3   4
ENDBRANCH   2   3
ENDBRANCH   1   2
BRANCH   1  17
ATOM     17  C   UNL     1       4.292  -3.295  -8.936  1.00  0.00     0.000 C 
BRANCH  17  18
ATOM     18  C   UNL     1       5.051  -2.240  -9.754  1.00  0.00     0.000 C 
BRANCH  18  19
ATOM     19  C   UNL     1       6.574  -2.321  -9.563  1.00  0.00     0.000 C 
BRANCH  19  20
ATOM     20  C   UNL     1       7.173  -1.021  -9.004  1.00  0.00     0.000 C 
BRANCH  20  21
ATOM     21  C   UNL     1       6.101  -0.193  -8.280  1.00  0.00     0.000 C 
BRANCH  21  22
ATOM     22  C   UNL     1       6.668   0.619  -7.101  1.00  0.00    -0.000 C 
BRANCH  22  23
ATOM     23  C   UNL     1       7.397   1.921  -7.493  1.00  0.00    -0.000 C 
BRANCH  23  24
ATOM     24  C   UNL     1       6.798   2.672  -8.696  1.00  0.00    -0.000 C 
BRANCH  24  25
ATOM     25  C   UNL     1       6.485   4.159  -8.446  1.00  0.00    -0.000 C 
BRANCH  25  26
ATOM     26  C   UNL     1       5.275   4.692  -9.248  1.00  0.00    -0.000 C 
BRANCH  26  27
ATOM     27  C   UNL     1       4.988   6.196  -9.066  1.00  0.00    -0.000 C 
BRANCH  27  28
ATOM     28  C   UNL     1       6.184   7.136  -9.325  1.00  0.00    -0.000 C 
BRANCH  28  29
ATOM     29  C   UNL     1       6.450   8.142  -8.188  1.00  0.00    -0.003 C 
ATOM     30  C   UNL     1       6.433   7.480  -6.810  1.00  0.00     0.004 C 
ENDBRANCH  28  29
ENDBRANCH  27  28
ENDBRANCH  26  27
ENDBRANCH  25  26
ENDBRANCH  24  25
ENDBRANCH  23  24
ENDBRANCH  22  23
ENDBRANCH  21  22
ENDBRANCH  20  21
ENDBRANCH  19  20
ENDBRANCH  18  19
ENDBRANCH  17  18
ENDBRANCH   1  17
TORSDOF 26
ENDMDL
MODEL 2
REMARK VINA RESULT:    -4.708      1.589      4.622
REMARK INTER + INTRA:         -14.421
REMARK INTER:                 -12.126
REMARK INTRA:                  -2.296
REMARK UNBOUND:                -2.558
REMARK SMILES CCCCCCCCCCCCCCCCCCCCCCCCCCCC(=O)[O-]
REMARK SMILES IDX 15 1 16 2 17 3 18 4 19 5 20 6 21 7 22 8 23 9 24 10 25 11
REMARK SMILES IDX 26 12 27 13 28 14 29 15 30 16 14 17 13 18 12 19 11 20 10 21
REMARK SMILES IDX 9 22 8 23 7 24 6 25 5 26 4 27 3 28 2 29 1 30
REMARK H PARENT
REMARK Flexibility Score: inf
ROOT
ATOM      1  C   UNL     1       8.529   0.027  -7.331  1.00  0.00     0.000 C 
ENDROOT
BRANCH   1   2
ATOM      2  C   UNL     1       7.154   0.476  -6.810  1.00  0.00     0.000 C 
BRANCH   2   3
ATOM      3  C   UNL     1       5.996  -0.225  -7.540  1.00  0.00     0.000 C 
BRANCH   3   4
ATOM      4  C   UNL     1       6.385  -0.680  -8.958  1.00  0.00     0.000 C 
BRANCH   4   5
ATOM      5  C   UNL     1       5.653  -1.960  -9.389  1.00  0.00     0.000 C 
BRANCH   5   6
ATOM      6  C   UNL     1       4.356  -2.202  -8.598  1.00  0.00     0.000 C 
BRANCH   6   7
ATOM      7  C   UNL     1       3.275  -2.898  -9.441  1.00  0.00     0.000 C 
BRANCH   7   8
ATOM      8  C   UNL     1       2.024  -3.252  -8.618  1.00  0.00     0.000 C 
BRANCH   8   9
ATOM      9  C   UNL     1       2.360  -3.678  -7.180  1.00  0.00     0.000 C 
BRANCH   9  10
ATOM     10  C   UNL     1       2.677  -5.177  -7.065  1.00  0.00     0.000 C 
BRANCH  10  11
ATOM     11  C   UNL     1       4.152  -5.400  -6.696  1.00  0.00     0.000 C 
BRANCH  11  12
ATOM     12  C   UNL     1       4.334  -5.949  -5.272  1.00  0.00     0.006 C 
BRANCH  12  13
ATOM     13  C   UNL     1       5.737  -6.529  -5.034  1.00  0.00     0.053 C 
BRANCH  13  14
ATOM     14  C   UNL     1       6.153  -7.408  -6.172  1.00  0.00     0.041 C 
ATOM     15  O   UNL     1       5.607  -8.531  -6.343  1.00  0.00    -0.550 OA
ATOM     16  O   UNL     1       7.171  -7.002  -7.029  1.00  0.00    -0.550 OA
ENDBRANCH  13  14
ENDBRANCH  12  13
ENDBRANCH  11  12
ENDBRANCH  10  11
ENDBRANCH   9  10
ENDBRANCH   8   9
ENDBRANCH   7   8
ENDBRANCH   6   7
ENDBRANCH   5   6
ENDBRANCH   4   5
ENDBRANCH   3   4
ENDBRANCH   2   3
ENDBRANCH   1   2
BRANCH   1  17
ATOM     17  C   UNL     1       9.235   1.160  -8.087  1.00  0.00     0.000 C 
BRANCH  17  18
ATOM     18  C   UNL     1       8.539   2.504  -7.824  1.00  0.00     0.000 C 
BRANCH  18  19
ATOM     19  C   UNL     1       7.949   3.129  -9.097  1.00  0.00     0.000 C 
BRANCH  19  20
ATOM     20  C   UNL     1       6.416   3.033  -9.152  1.00  0.00     0.000 C 
BRANCH  20  21
ATOM     21  C   UNL     1       5.816   4.276  -9.825  1.00  0.00     0.000 C 
BRANCH  21  22
ATOM     22  C   UNL     1       5.861   5.524  -8.924  1.00  0.00    -0.000 C 
BRANCH  22  23
ATOM     23  C   UNL     1       5.737   6.872  -9.666  1.00  0.00    -0.000 C 
BRANCH  23  24
ATOM     24  C   UNL     1       7.027   7.710  -9.724  1.00  0.00    -0.000 C 
BRANCH  24  25
ATOM     25  C   UNL     1       7.281   8.602  -8.494  1.00  0.00    -0.000 C 
BRANCH  25  26
ATOM     26  C   UNL     1       8.398   8.081  -7.559  1.00  0.00    -0.000 C 
BRANCH  26  27
ATOM     27  C   UNL     1       7.946   7.780  -6.116  1.00  0.00    -0.000 C 
BRANCH  27  28
ATOM     28  C   UNL     1       6.423   7.823  -5.875  1.00  0.00    -0.000 C 
BRANCH  28  29
ATOM     29  C   UNL     1       6.019   8.397  -4.502  1.00  0.00    -0.003 C 
ATOM     30  C   UNL     1       5.573   7.310  -3.526  1.00  0.00     0.004 C 
ENDBRANCH  28  29
ENDBRANCH  27  28
ENDBRANCH  26  27
ENDBRANCH  25  26
ENDBRANCH  24  25
ENDBRANCH  23  24
ENDBRANCH  22  23
ENDBRANCH  21  22
ENDBRANCH  20  21
ENDBRANCH  19  20
ENDBRANCH  18  19
ENDBRANCH  17  18
ENDBRANCH   1  17
TORSDOF 26
ENDMDL
MODEL 3
REMARK VINA RESULT:    -4.678      1.898      5.360
REMARK INTER + INTRA:         -14.347
REMARK INTER:                 -12.081
REMARK INTRA:                  -2.267
REMARK UNBOUND:                -2.558
REMARK SMILES CCCCCCCCCCCCCCCCCCCCCCCCCCCC(=O)[O-]
REMARK SMILES IDX 15 1 16 2 17 3 18 4 19 5 20 6 21 7 22 8 23 9 24 10 25 11
REMARK SMILES IDX 26 12 27 13 28 14 29 15 30 16 14 17 13 18 12 19 11 20 10 21
REMARK SMILES IDX 9 22 8 23 7 24 6 25 5 26 4 27 3 28 2 29 1 30
REMARK H PARENT
REMARK Flexibility Score: inf
ROOT
ATOM      1  C   UNL     1       7.161   1.546  -9.200  1.00  0.00     0.000 C 
ENDROOT
BRANCH   1   2
ATOM      2  C   UNL     1       6.839   1.024  -7.789  1.00  0.00     0.000 C 
BRANCH   2   3
ATOM      3  C   UNL     1       5.978  -0.250  -7.820  1.00  0.00     0.000 C 
BRANCH   3   4
ATOM      4  C   UNL     1       6.184  -1.067  -9.108  1.00  0.00     0.000 C 
BRANCH   4   5
ATOM      5  C   UNL     1       5.151  -2.193  -9.264  1.00  0.00     0.000 C 
BRANCH   5   6
ATOM      6  C   UNL     1       4.245  -2.349  -8.031  1.00  0.00     0.000 C 
BRANCH   6   7
ATOM      7  C   UNL     1       2.771  -2.568  -8.408  1.00  0.00     0.000 C 
BRANCH   7   8
ATOM      8  C   UNL     1       2.083  -3.613  -7.513  1.00  0.00     0.000 C 
BRANCH   8   9
ATOM      9  C   UNL     1       2.608  -5.038  -7.752  1.00  0.00     0.000 C 
BRANCH   9  10
ATOM     10  C   UNL     1       2.838  -5.811  -6.444  1.00  0.00     0.000 C 
BRANCH  10  11
ATOM     11  C   UNL     1       4.260  -5.579  -5.909  1.00  0.00     0.000 C 
BRANCH  11  12
ATOM     12  C   UNL     1       4.847  -6.821  -5.219  1.00  0.00     0.006 C 
BRANCH  12  13
ATOM     13  C   UNL     1       6.212  -6.547  -4.569  1.00  0.00     0.053 C 
BRANCH  13  14
ATOM     14  C   UNL     1       7.220  -7.571  -4.989  1.00  0.00     0.041 C 
ATOM     15  O   UNL     1       6.909  -8.792  -5.030  1.00  0.00    -0.550 OA
ATOM     16  O   UNL     1       8.517  -7.181  -5.306  1.00  0.00    -0.550 OA
ENDBRANCH  13  14
ENDBRANCH  12  13
ENDBRANCH  11  12
ENDBRANCH  10  11
ENDBRANCH   9  10
ENDBRANCH   8   9
ENDBRANCH   7   8
ENDBRANCH   6   7
ENDBRANCH   5   6
ENDBRANCH   4   5
ENDBRANCH   3   4
ENDBRANCH   2   3
ENDBRANCH   1   2
BRANCH   1  17
ATOM     17  C   UNL     1       6.381   2.829  -9.510  1.00  0.00     0.000 C 
BRANCH  17  18
ATOM     18  C   UNL     1       6.737   3.937  -8.507  1.00  0.00     0.000 C 
BRANCH  18  19
ATOM     19  C   UNL     1       6.240   5.322  -8.948  1.00  0.00     0.000 C 
BRANCH  19  20
ATOM     20  C   UNL     1       6.088   6.301  -7.774  1.00  0.00     0.000 C 
BRANCH  20  21
ATOM     21  C   UNL     1       6.109   7.755  -8.269  1.00  0.00     0.000 C 
BRANCH  21  22
ATOM     22  C   UNL     1       7.009   7.953  -9.503  1.00  0.00    -0.000 C 
BRANCH  22  23
ATOM     23  C   UNL     1       8.480   8.298  -9.193  1.00  0.00    -0.000 C 
BRANCH  23  24
ATOM     24  C   UNL     1       8.713   9.046  -7.868  1.00  0.00    -0.000 C 
BRANCH  24  25
ATOM     25  C   UNL     1       9.673   8.347  -6.886  1.00  0.00    -0.000 C 
BRANCH  25  26
ATOM     26  C   UNL     1       8.961   7.528  -5.784  1.00  0.00    -0.000 C 
BRANCH  26  27
ATOM     27  C   UNL     1       8.978   8.174  -4.384  1.00  0.00    -0.000 C 
BRANCH  27  28
ATOM     28  C   UNL     1       7.608   8.639  -3.851  1.00  0.00    -0.000 C 
BRANCH  28  29
ATOM     29  C   UNL     1       6.404   7.935  -4.509  1.00  0.00    -0.003 C 
ATOM     30  C   UNL     1       5.538   7.193  -3.493  1.00  0.00     0.004 C 
ENDBRANCH  28  29
ENDBRANCH  27  28
ENDBRANCH  26  27
ENDBRANCH  25  26
ENDBRANCH  24  25
ENDBRANCH  23  24
ENDBRANCH  22  23
ENDBRANCH  21  22
ENDBRANCH  20  21
ENDBRANCH  19  20
ENDBRANCH  18  19
ENDBRANCH  17  18
ENDBRANCH   1  17
TORSDOF 26
ENDMDL
MODEL 4
REMARK VINA RESULT:    -4.562      4.574     10.542
REMARK INTER + INTRA:         -14.054
REMARK INTER:                 -10.388
REMARK INTRA:                  -3.665
REMARK UNBOUND:                -2.558
REMARK SMILES CCCCCCCCCCCCCCCCCCCCCCCCCCCC(=O)[O-]
REMARK SMILES IDX 15 1 16 2 17 3 18 4 19 5 20 6 21 7 22 8 23 9 24 10 25 11
REMARK SMILES IDX 26 12 27 13 28 14 29 15 30 16 14 17 13 18 12 19 11 20 10 21
REMARK SMILES IDX 9 22 8 23 7 24 6 25 5 26 4 27 3 28 2 29 1 30
REMARK H PARENT
REMARK Flexibility Score: inf
ROOT
ATOM      1  C   UNL     1       3.748  -4.828  -6.621  1.00  0.00     0.000 C 
ENDROOT
BRANCH   1   2
ATOM      2  C   UNL     1       2.346  -4.625  -7.219  1.00  0.00     0.000 C 
BRANCH   2   3
ATOM      3  C   UNL     1       2.170  -3.225  -7.831  1.00  0.00     0.000 C 
BRANCH   3   4
ATOM      4  C   UNL     1       3.516  -2.553  -8.156  1.00  0.00     0.000 C 
BRANCH   4   5
ATOM      5  C   UNL     1       3.892  -2.674  -9.641  1.00  0.00     0.000 C 
BRANCH   5   6
ATOM      6  C   UNL     1       5.153  -1.871 -10.006  1.00  0.00     0.000 C 
BRANCH   6   7
ATOM      7  C   UNL     1       5.991  -1.499  -8.771  1.00  0.00     0.000 C 
BRANCH   7   8
ATOM      8  C   UNL     1       6.642  -0.111  -8.898  1.00  0.00     0.000 C 
BRANCH   8   9
ATOM      9  C   UNL     1       6.383   0.781  -7.674  1.00  0.00     0.000 C 
BRANCH   9  10
ATOM     10  C   UNL     1       6.960   2.196  -7.838  1.00  0.00     0.000 C 
BRANCH  10  11
ATOM     11  C   UNL     1       6.474   2.840  -9.145  1.00  0.00     0.000 C 
BRANCH  11  12
ATOM     12  C   UNL     1       5.589   4.075  -8.907  1.00  0.00     0.006 C 
BRANCH  12  13
ATOM     13  C   UNL     1       6.288   5.388  -9.291  1.00  0.00     0.053 C 
BRANCH  13  14
ATOM     14  C   UNL     1       6.666   6.170  -8.072  1.00  0.00     0.041 C 
ATOM     15  O   UNL     1       5.812   6.404  -7.175  1.00  0.00    -0.550 OA
ATOM     16  O   UNL     1       7.957   6.670  -7.938  1.00  0.00    -0.550 OA
ENDBRANCH  13  14
ENDBRANCH  12  13
ENDBRANCH  11  12
ENDBRANCH  10  11
ENDBRANCH   9  10
ENDBRANCH   8   9
ENDBRANCH   7   8
ENDBRANCH   6   7
ENDBRANCH   5   6
ENDBRANCH   4   5
ENDBRANCH   3   4
ENDBRANCH   2   3
ENDBRANCH   1   2
BRANCH   1  17
ATOM     17  C   UNL     1       3.756  -5.969  -5.596  1.00  0.00     0.000 C 
BRANCH  17  18
ATOM     18  C   UNL     1       5.193  -6.309  -5.173  1.00  0.00     0.000 C 
BRANCH  18  19
ATOM     19  C   UNL     1       5.253  -7.404  -4.096  1.00  0.00     0.000 C 
BRANCH  19  20
ATOM     20  C   UNL     1       6.214  -8.546  -4.463  1.00  0.00     0.000 C 
BRANCH  20  21
ATOM     21  C   UNL     1       6.437  -8.604  -5.982  1.00  0.00     0.000 C 
BRANCH  21  22
ATOM     22  C   UNL     1       5.700  -9.780  -6.650  1.00  0.00    -0.000 C 
BRANCH  22  23
ATOM     23  C   UNL     1       4.166  -9.635  -6.721  1.00  0.00    -0.000 C 
BRANCH  23  24
ATOM     24  C   UNL     1       3.594  -9.404  -8.132  1.00  0.00    -0.000 C 
BRANCH  24  25
ATOM     25  C   UNL     1       3.541  -7.931  -8.580  1.00  0.00    -0.000 C 
BRANCH  25  26
ATOM     26  C   UNL     1       4.488  -7.596  -9.755  1.00  0.00    -0.000 C 
BRANCH  26  27
ATOM     27  C   UNL     1       5.007  -6.144  -9.775  1.00  0.00    -0.000 C 
BRANCH  27  28
ATOM     28  C   UNL     1       6.252  -5.873  -8.905  1.00  0.00    -0.000 C 
BRANCH  28  29
ATOM     29  C   UNL     1       7.322  -6.980  -8.976  1.00  0.00    -0.003 C 
ATOM     30  C   UNL     1       8.681  -6.508  -8.460  1.00  0.00     0.004 C 
ENDBRANCH  28  29
ENDBRANCH  27  28
ENDBRANCH  26  27
ENDBRANCH  25  26
ENDBRANCH  24  25
ENDBRANCH  23  24
ENDBRANCH  22  23
ENDBRANCH  21  22
ENDBRANCH  20  21
ENDBRANCH  19  20
ENDBRANCH  18  19
ENDBRANCH  17  18
ENDBRANCH   1  17
TORSDOF 26
ENDMDL
MODEL 5
REMARK VINA RESULT:    -4.383      4.812     11.561
REMARK INTER + INTRA:         -13.604
REMARK INTER:                 -10.892
REMARK INTRA:                  -2.712
REMARK UNBOUND:                -2.558
REMARK SMILES CCCCCCCCCCCCCCCCCCCCCCCCCCCC(=O)[O-]
REMARK SMILES IDX 15 1 16 2 17 3 18 4 19 5 20 6 21 7 22 8 23 9 24 10 25 11
REMARK SMILES IDX 26 12 27 13 28 14 29 15 30 16 14 17 13 18 12 19 11 20 10 21
REMARK SMILES IDX 9 22 8 23 7 24 6 25 5 26 4 27 3 28 2 29 1 30
REMARK H PARENT
REMARK Flexibility Score: inf
ROOT
ATOM      1  C   UNL     1       3.041  -3.597  -7.205  1.00  0.00     0.000 C 
ENDROOT
BRANCH   1   2
ATOM      2  C   UNL     1       3.604  -2.434  -8.039  1.00  0.00     0.000 C 
BRANCH   2   3
ATOM      3  C   UNL     1       4.869  -2.833  -8.818  1.00  0.00     0.000 C 
BRANCH   3   4
ATOM      4  C   UNL     1       5.646  -1.612  -9.342  1.00  0.00     0.000 C 
BRANCH   4   5
ATOM      5  C   UNL     1       5.934  -0.580  -8.242  1.00  0.00     0.000 C 
BRANCH   5   6
ATOM      6  C   UNL     1       7.438  -0.379  -7.988  1.00  0.00     0.000 C 
BRANCH   6   7
ATOM      7  C   UNL     1       7.819   1.104  -7.852  1.00  0.00     0.000 C 
BRANCH   7   8
ATOM      8  C   UNL     1       6.588   2.024  -7.789  1.00  0.00     0.000 C 
BRANCH   8   9
ATOM      9  C   UNL     1       6.582   3.085  -8.902  1.00  0.00     0.000 C 
BRANCH   9  10
ATOM     10  C   UNL     1       5.688   4.289  -8.568  1.00  0.00     0.000 C 
BRANCH  10  11
ATOM     11  C   UNL     1       6.522   5.571  -8.422  1.00  0.00     0.000 C 
BRANCH  11  12
ATOM     12  C   UNL     1       5.655   6.835  -8.309  1.00  0.00     0.006 C 
BRANCH  12  13
ATOM     13  C   UNL     1       6.456   8.064  -7.850  1.00  0.00     0.053 C 
BRANCH  13  14
ATOM     14  C   UNL     1       6.813   7.959  -6.400  1.00  0.00     0.041 C 
ATOM     15  O   UNL     1       6.025   7.403  -5.588  1.00  0.00    -0.550 OA
ATOM     16  O   UNL     1       8.005   8.504  -5.935  1.00  0.00    -0.550 OA
ENDBRANCH  13  14
ENDBRANCH  12  13
ENDBRANCH  11  12
ENDBRANCH  10  11
ENDBRANCH   9  10
ENDBRANCH   8   9
ENDBRANCH   7   8
ENDBRANCH   6   7
ENDBRANCH   5   6
ENDBRANCH   4   5
ENDBRANCH   3   4
ENDBRANCH   2   3
ENDBRANCH   1   2
BRANCH   1  17
ATOM     17  C   UNL     1       3.814  -4.895  -7.467  1.00  0.00     0.000 C 
BRANCH  17  18
ATOM     18  C   UNL     1       3.344  -6.008  -6.519  1.00  0.00     0.000 C 
BRANCH  18  19
ATOM     19  C   UNL     1       4.042  -5.960  -5.151  1.00  0.00     0.000 C 
BRANCH  19  20
ATOM     20  C   UNL     1       4.135  -7.340  -4.482  1.00  0.00     0.000 C 
BRANCH  20  21
ATOM     21  C   UNL     1       5.316  -8.143  -5.050  1.00  0.00     0.000 C 
BRANCH  21  22
ATOM     22  C   UNL     1       6.667  -7.426  -4.872  1.00  0.00    -0.000 C 
BRANCH  22  23
ATOM     23  C   UNL     1       7.449  -7.168  -6.177  1.00  0.00    -0.000 C 
BRANCH  23  24
ATOM     24  C   UNL     1       6.642  -7.360  -7.474  1.00  0.00    -0.000 C 
BRANCH  24  25
ATOM     25  C   UNL     1       7.014  -8.610  -8.294  1.00  0.00    -0.000 C 
BRANCH  25  26
ATOM     26  C   UNL     1       5.851  -9.175  -9.143  1.00  0.00    -0.000 C 
BRANCH  26  27
ATOM     27  C   UNL     1       4.444  -8.751  -8.677  1.00  0.00    -0.000 C 
BRANCH  27  28
ATOM     28  C   UNL     1       3.403  -8.558  -9.799  1.00  0.00    -0.000 C 
BRANCH  28  29
ATOM     29  C   UNL     1       2.041  -8.026  -9.309  1.00  0.00    -0.003 C 
ATOM     30  C   UNL     1       1.688  -6.675  -9.929  1.00  0.00     0.004 C 
ENDBRANCH  28  29
ENDBRANCH  27  28
ENDBRANCH  26  27
ENDBRANCH  25  26
ENDBRANCH  24  25
ENDBRANCH  23  24
ENDBRANCH  22  23
ENDBRANCH  21  22
ENDBRANCH  20  21
ENDBRANCH  19  20
ENDBRANCH  18  19
ENDBRANCH  17  18
ENDBRANCH   1  17
TORSDOF 26
ENDMDL
MODEL 6
REMARK VINA RESULT:    -4.120      1.619      2.167
REMARK INTER + INTRA:         -12.941
REMARK INTER:                 -10.746
REMARK INTRA:                  -2.195
REMARK UNBOUND:                -2.558
REMARK SMILES CCCCCCCCCCCCCCCCCCCCCCCCCCCC(=O)[O-]
REMARK SMILES IDX 15 1 16 2 17 3 18 4 19 5 20 6 21 7 22 8 23 9 24 10 25 11
REMARK SMILES IDX 26 12 27 13 28 14 29 15 30 16 14 17 13 18 12 19 11 20 10 21
REMARK SMILES IDX 9 22 8 23 7 24 6 25 5 26 4 27 3 28 2 29 1 30
REMARK H PARENT
REMARK Flexibility Score: inf
ROOT
ATOM      1  C   UNL     1       2.463  -2.267  -8.084  1.00  0.00     0.000 C 
ENDROOT
BRANCH   1   2
ATOM      2  C   UNL     1       1.653  -2.966  -9.188  1.00  0.00     0.000 C 
BRANCH   2   3
ATOM      3  C   UNL     1       1.488  -4.472  -8.927  1.00  0.00     0.000 C 
BRANCH   3   4
ATOM      4  C   UNL     1       1.974  -5.330 -10.110  1.00  0.00     0.000 C 
BRANCH   4   5
ATOM      5  C   UNL     1       3.033  -6.362  -9.694  1.00  0.00     0.000 C 
BRANCH   5   6
ATOM      6  C   UNL     1       2.427  -7.600  -9.011  1.00  0.00     0.000 C 
BRANCH   6   7
ATOM      7  C   UNL     1       3.211  -8.024  -7.758  1.00  0.00     0.000 C 
BRANCH   7   8
ATOM      8  C   UNL     1       4.086  -9.265  -8.004  1.00  0.00     0.000 C 
BRANCH   8   9
ATOM      9  C   UNL     1       5.430  -9.201  -7.260  1.00  0.00     0.000 C 
BRANCH   9  10
ATOM     10  C   UNL     1       6.398  -8.177  -7.872  1.00  0.00     0.000 C 
BRANCH  10  11
ATOM     11  C   UNL     1       6.459  -6.900  -7.020  1.00  0.00     0.000 C 
BRANCH  11  12
ATOM     12  C   UNL     1       6.885  -7.172  -5.569  1.00  0.00     0.006 C 
BRANCH  12  13
ATOM     13  C   UNL     1       6.059  -6.373  -4.549  1.00  0.00     0.053 C 
BRANCH  13  14
ATOM     14  C   UNL     1       4.801  -7.100  -4.189  1.00  0.00     0.041 C 
ATOM     15  O   UNL     1       4.851  -8.163  -3.514  1.00  0.00    -0.550 OA
ATOM     16  O   UNL     1       3.571  -6.621  -4.628  1.00  0.00    -0.550 OA
ENDBRANCH  13  14
ENDBRANCH  12  13
ENDBRANCH  11  12
ENDBRANCH  10  11
ENDBRANCH   9  10
ENDBRANCH   8   9
ENDBRANCH   7   8
ENDBRANCH   6   7
ENDBRANCH   5   6
ENDBRANCH   4   5
ENDBRANCH   3   4
ENDBRANCH   2   3
ENDBRANCH   1   2
BRANCH   1  17
ATOM     17  C   UNL     1       3.937  -2.689  -8.123  1.00  0.00     0.000 C 
BRANCH  17  18
ATOM     18  C   UNL     1       4.549  -2.395  -9.501  1.00  0.00     0.000 C 
BRANCH  18  19
ATOM     19  C   UNL     1       5.807  -1.517  -9.419  1.00  0.00     0.000 C 
BRANCH  19  20
ATOM     20  C   UNL     1       5.974  -0.843  -8.049  1.00  0.00     0.000 C 
BRANCH  20  21
ATOM     21  C   UNL     1       6.493   0.594  -8.207  1.00  0.00     0.000 C 
BRANCH  21  22
ATOM     22  C   UNL     1       6.554   1.049  -9.677  1.00  0.00    -0.000 C 
BRANCH  22  23
ATOM     23  C   UNL     1       7.286   2.385  -9.920  1.00  0.00    -0.000 C 
BRANCH  23  24
ATOM     24  C   UNL     1       6.396   3.640  -9.866  1.00  0.00    -0.000 C 
BRANCH  24  25
ATOM     25  C   UNL     1       6.126   4.187  -8.451  1.00  0.00    -0.000 C 
BRANCH  25  26
ATOM     26  C   UNL     1       6.962   5.437  -8.089  1.00  0.00    -0.000 C 
BRANCH  26  27
ATOM     27  C   UNL     1       6.136   6.671  -7.674  1.00  0.00    -0.000 C 
BRANCH  27  28
ATOM     28  C   UNL     1       6.867   7.685  -6.771  1.00  0.00    -0.000 C 
BRANCH  28  29
ATOM     29  C   UNL     1       5.968   8.338  -5.702  1.00  0.00    -0.003 C 
ATOM     30  C   UNL     1       6.015   7.593  -4.369  1.00  0.00     0.004 C 
ENDBRANCH  28  29
ENDBRANCH  27  28
ENDBRANCH  26  27
ENDBRANCH  25  26
ENDBRANCH  24  25
ENDBRANCH  23  24
ENDBRANCH  22  23
ENDBRANCH  21  22
ENDBRANCH  20  21
ENDBRANCH  19  20
ENDBRANCH  18  19
ENDBRANCH  17  18
ENDBRANCH   1  17
TORSDOF 26
ENDMDL
MODEL 7
REMARK VINA RESULT:    -3.986      1.726      2.967
REMARK INTER + INTRA:         -12.602
REMARK INTER:                  -9.917
REMARK INTRA:                  -2.685
REMARK UNBOUND:                -2.558
REMARK SMILES CCCCCCCCCCCCCCCCCCCCCCCCCCCC(=O)[O-]
REMARK SMILES IDX 15 1 16 2 17 3 18 4 19 5 20 6 21 7 22 8 23 9 24 10 25 11
REMARK SMILES IDX 26 12 27 13 28 14 29 15 30 16 14 17 13 18 12 19 11 20 10 21
REMARK SMILES IDX 9 22 8 23 7 24 6 25 5 26 4 27 3 28 2 29 1 30
REMARK H PARENT
REMARK Flexibility Score: inf
ROOT
ATOM      1  C   UNL     1       2.627  -5.447  -7.646  1.00  0.00     0.000 C 
ENDROOT
BRANCH   1   2
ATOM      2  C   UNL     1       1.880  -5.448  -8.990  1.00  0.00     0.000 C 
BRANCH   2   3
ATOM      3  C   UNL     1       2.305  -6.618  -9.893  1.00  0.00     0.000 C 
BRANCH   3   4
ATOM      4  C   UNL     1       1.322  -7.802  -9.822  1.00  0.00     0.000 C 
BRANCH   4   5
ATOM      5  C   UNL     1       2.029  -9.141  -9.564  1.00  0.00     0.000 C 
BRANCH   5   6
ATOM      6  C   UNL     1       3.372  -8.977  -8.830  1.00  0.00     0.000 C 
BRANCH   6   7
ATOM      7  C   UNL     1       4.489  -9.832  -9.449  1.00  0.00     0.000 C 
BRANCH   7   8
ATOM      8  C   UNL     1       5.827  -9.078  -9.540  1.00  0.00     0.000 C 
BRANCH   8   9
ATOM      9  C   UNL     1       5.658  -7.554  -9.425  1.00  0.00     0.000 C 
BRANCH   9  10
ATOM     10  C   UNL     1       6.399  -6.966  -8.214  1.00  0.00     0.000 C 
BRANCH  10  11
ATOM     11  C   UNL     1       5.863  -7.554  -6.901  1.00  0.00     0.000 C 
BRANCH  11  12
ATOM     12  C   UNL     1       6.736  -7.197  -5.687  1.00  0.00     0.006 C 
BRANCH  12  13
ATOM     13  C   UNL     1       5.947  -6.484  -4.579  1.00  0.00     0.053 C 
BRANCH  13  14
ATOM     14  C   UNL     1       4.640  -7.169  -4.324  1.00  0.00     0.041 C 
ATOM     15  O   UNL     1       3.554  -6.573  -4.552  1.00  0.00    -0.550 OA
ATOM     16  O   UNL     1       4.621  -8.458  -3.803  1.00  0.00    -0.550 OA
ENDBRANCH  13  14
ENDBRANCH  12  13
ENDBRANCH  11  12
ENDBRANCH  10  11
ENDBRANCH   9  10
ENDBRANCH   8   9
ENDBRANCH   7   8
ENDBRANCH   6   7
ENDBRANCH   5   6
ENDBRANCH   4   5
ENDBRANCH   3   4
ENDBRANCH   2   3
ENDBRANCH   1   2
BRANCH   1  17
ATOM     17  C   UNL     1       3.833  -4.500  -7.680  1.00  0.00     0.000 C 
BRANCH  17  18
ATOM     18  C   UNL     1       3.530  -3.267  -8.544  1.00  0.00     0.000 C 
BRANCH  18  19
ATOM     19  C   UNL     1       4.192  -3.333  -9.929  1.00  0.00     0.000 C 
BRANCH  19  20
ATOM     20  C   UNL     1       5.275  -2.260 -10.123  1.00  0.00     0.000 C 
BRANCH  20  21
ATOM     21  C   UNL     1       6.624  -2.741  -9.566  1.00  0.00     0.000 C 
BRANCH  21  22
ATOM     22  C   UNL     1       7.616  -1.588  -9.325  1.00  0.00    -0.000 C 
BRANCH  22  23
ATOM     23  C   UNL     1       6.973  -0.198  -9.138  1.00  0.00    -0.000 C 
BRANCH  23  24
ATOM     24  C   UNL     1       6.402   0.076  -7.735  1.00  0.00    -0.000 C 
BRANCH  24  25
ATOM     25  C   UNL     1       6.385   1.559  -7.317  1.00  0.00    -0.000 C 
BRANCH  25  26
ATOM     26  C   UNL     1       7.353   2.453  -8.127  1.00  0.00    -0.000 C 
BRANCH  26  27
ATOM     27  C   UNL     1       6.667   3.508  -9.018  1.00  0.00    -0.000 C 
BRANCH  27  28
ATOM     28  C   UNL     1       6.320   4.840  -8.322  1.00  0.00    -0.000 C 
BRANCH  28  29
ATOM     29  C   UNL     1       6.018   5.997  -9.294  1.00  0.00    -0.003 C 
ATOM     30  C   UNL     1       5.588   7.270  -8.566  1.00  0.00     0.004 C 
ENDBRANCH  28  29
ENDBRANCH  27  28
ENDBRANCH  26  27
ENDBRANCH  25  26
ENDBRANCH  24  25
ENDBRANCH  23  24
ENDBRANCH  22  23
ENDBRANCH  21  22
ENDBRANCH  20  21
ENDBRANCH  19  20
ENDBRANCH  18  19
ENDBRANCH  17  18
ENDBRANCH   1  17
TORSDOF 26
ENDMDL
MODEL 8
REMARK VINA RESULT:    -3.959      5.075     11.290
REMARK INTER + INTRA:         -12.536
REMARK INTER:                  -9.828
REMARK INTRA:                  -2.708
REMARK UNBOUND:                -2.558
REMARK SMILES CCCCCCCCCCCCCCCCCCCCCCCCCCCC(=O)[O-]
REMARK SMILES IDX 15 1 16 2 17 3 18 4 19 5 20 6 21 7 22 8 23 9 24 10 25 11
REMARK SMILES IDX 26 12 27 13 28 14 29 15 30 16 14 17 13 18 12 19 11 20 10 21
REMARK SMILES IDX 9 22 8 23 7 24 6 25 5 26 4 27 3 28 2 29 1 30
REMARK H PARENT
REMARK Flexibility Score: inf
ROOT
ATOM      1  C   UNL     1       3.163  -5.451  -6.262  1.00  0.00     0.000 C 
ENDROOT
BRANCH   1   2
ATOM      2  C   UNL     1       3.054  -4.377  -7.356  1.00  0.00     0.000 C 
BRANCH   2   3
ATOM      3  C   UNL     1       4.296  -4.336  -8.262  1.00  0.00     0.000 C 
BRANCH   3   4
ATOM      4  C   UNL     1       4.242  -3.185  -9.283  1.00  0.00     0.000 C 
BRANCH   4   5
ATOM      5  C   UNL     1       4.919  -1.907  -8.766  1.00  0.00     0.000 C 
BRANCH   5   6
ATOM      6  C   UNL     1       6.275  -1.633  -9.440  1.00  0.00     0.000 C 
BRANCH   6   7
ATOM      7  C   UNL     1       7.170  -0.704  -8.604  1.00  0.00     0.000 C 
BRANCH   7   8
ATOM      8  C   UNL     1       6.424   0.552  -8.120  1.00  0.00     0.000 C 
BRANCH   8   9
ATOM      9  C   UNL     1       6.665   1.771  -9.024  1.00  0.00     0.000 C 
BRANCH   9  10
ATOM     10  C   UNL     1       7.145   3.004  -8.241  1.00  0.00     0.000 C 
BRANCH  10  11
ATOM     11  C   UNL     1       7.138   4.257  -9.128  1.00  0.00     0.000 C 
BRANCH  11  12
ATOM     12  C   UNL     1       5.844   5.077  -8.991  1.00  0.00     0.006 C 
BRANCH  12  13
ATOM     13  C   UNL     1       5.953   6.183  -7.930  1.00  0.00     0.053 C 
BRANCH  13  14
ATOM     14  C   UNL     1       6.027   7.534  -8.570  1.00  0.00     0.041 C 
ATOM     15  O   UNL     1       6.094   8.573  -7.859  1.00  0.00    -0.550 OA
ATOM     16  O   UNL     1       5.990   7.651  -9.955  1.00  0.00    -0.550 OA
ENDBRANCH  13  14
ENDBRANCH  12  13
ENDBRANCH  11  12
ENDBRANCH  10  11
ENDBRANCH   9  10
ENDBRANCH   8   9
ENDBRANCH   7   8
ENDBRANCH   6   7
ENDBRANCH   5   6
ENDBRANCH   4   5
ENDBRANCH   3   4
ENDBRANCH   2   3
ENDBRANCH   1   2
BRANCH   1  17
ATOM     17  C   UNL     1       4.566  -6.070  -6.228  1.00  0.00     0.000 C 
BRANCH  17  18
ATOM     18  C   UNL     1       4.893  -6.598  -4.823  1.00  0.00     0.000 C 
BRANCH  18  19
ATOM     19  C   UNL     1       6.403  -6.658  -4.545  1.00  0.00     0.000 C 
BRANCH  19  20
ATOM     20  C   UNL     1       6.952  -8.093  -4.550  1.00  0.00     0.000 C 
BRANCH  20  21
ATOM     21  C   UNL     1       8.318  -8.153  -5.251  1.00  0.00     0.000 C 
BRANCH  21  22
ATOM     22  C   UNL     1       8.344  -7.369  -6.576  1.00  0.00    -0.000 C 
BRANCH  22  23
ATOM     23  C   UNL     1       8.740  -8.194  -7.818  1.00  0.00    -0.000 C 
BRANCH  23  24
ATOM     24  C   UNL     1       7.605  -8.450  -8.825  1.00  0.00    -0.000 C 
BRANCH  24  25
ATOM     25  C   UNL     1       6.279  -8.931  -8.205  1.00  0.00    -0.000 C 
BRANCH  25  26
ATOM     26  C   UNL     1       5.493  -9.923  -9.093  1.00  0.00    -0.000 C 
BRANCH  26  27
ATOM     27  C   UNL     1       4.232  -9.337  -9.759  1.00  0.00    -0.000 C 
BRANCH  27  28
ATOM     28  C   UNL     1       3.879  -7.890  -9.355  1.00  0.00    -0.000 C 
BRANCH  28  29
ATOM     29  C   UNL     1       2.393  -7.681  -9.000  1.00  0.00    -0.003 C 
ATOM     30  C   UNL     1       1.679  -6.775 -10.002  1.00  0.00     0.004 C 
ENDBRANCH  28  29
ENDBRANCH  27  28
ENDBRANCH  26  27
ENDBRANCH  25  26
ENDBRANCH  24  25
ENDBRANCH  23  24
ENDBRANCH  22  23
ENDBRANCH  21  22
ENDBRANCH  20  21
ENDBRANCH  19  20
ENDBRANCH  18  19
ENDBRANCH  17  18
ENDBRANCH   1  17
TORSDOF 26
ENDMDL
MODEL 9
REMARK VINA RESULT:    -3.786      5.264      7.732
REMARK INTER + INTRA:         -12.098
REMARK INTER:                 -10.741
REMARK INTRA:                  -1.357
REMARK UNBOUND:                -2.558
REMARK SMILES CCCCCCCCCCCCCCCCCCCCCCCCCCCC(=O)[O-]
REMARK SMILES IDX 15 1 16 2 17 3 18 4 19 5 20 6 21 7 22 8 23 9 24 10 25 11
REMARK SMILES IDX 26 12 27 13 28 14 29 15 30 16 14 17 13 18 12 19 11 20 10 21
REMARK SMILES IDX 9 22 8 23 7 24 6 25 5 26 4 27 3 28 2 29 1 30
REMARK H PARENT
REMARK Flexibility Score: inf
ROOT
ATOM      1  C   UNL     1       5.634   4.108  -8.604  1.00  0.00     0.000 C 
ENDROOT
BRANCH   1   2
ATOM      2  C   UNL     1       6.968   3.343  -8.612  1.00  0.00     0.000 C 
BRANCH   2   3
ATOM      3  C   UNL     1       6.894   2.033  -7.809  1.00  0.00     0.000 C 
BRANCH   3   4
ATOM      4  C   UNL     1       6.772   0.794  -8.715  1.00  0.00     0.000 C 
BRANCH   4   5
ATOM      5  C   UNL     1       6.049  -0.372  -8.025  1.00  0.00     0.000 C 
BRANCH   5   6
ATOM      6  C   UNL     1       5.642  -1.487  -9.004  1.00  0.00     0.000 C 
BRANCH   6   7
ATOM      7  C   UNL     1       4.337  -2.187  -8.589  1.00  0.00     0.000 C 
BRANCH   7   8
ATOM      8  C   UNL     1       3.993  -3.379  -9.499  1.00  0.00     0.000 C 
BRANCH   8   9
ATOM      9  C   UNL     1       3.460  -4.589  -8.715  1.00  0.00     0.000 C 
BRANCH   9  10
ATOM     10  C   UNL     1       3.110  -4.244  -7.259  1.00  0.00     0.000 C 
BRANCH  10  11
ATOM     11  C   UNL     1       3.263  -5.473  -6.350  1.00  0.00     0.000 C 
BRANCH  11  12
ATOM     12  C   UNL     1       4.656  -6.116  -6.448  1.00  0.00     0.006 C 
BRANCH  12  13
ATOM     13  C   UNL     1       5.308  -6.331  -5.073  1.00  0.00     0.053 C 
BRANCH  13  14
ATOM     14  C   UNL     1       4.957  -7.676  -4.518  1.00  0.00     0.041 C 
ATOM     15  O   UNL     1       5.132  -7.925  -3.295  1.00  0.00    -0.550 OA
ATOM     16  O   UNL     1       4.466  -8.669  -5.358  1.00  0.00    -0.550 OA
ENDBRANCH  13  14
ENDBRANCH  12  13
ENDBRANCH  11  12
ENDBRANCH  10  11
ENDBRANCH   9  10
ENDBRANCH   8   9
ENDBRANCH   7   8
ENDBRANCH   6   7
ENDBRANCH   5   6
ENDBRANCH   4   5
ENDBRANCH   3   4
ENDBRANCH   2   3
ENDBRANCH   1   2
BRANCH   1  17
ATOM     17  C   UNL     1       5.454   4.926  -9.888  1.00  0.00     0.000 C 
BRANCH  17  18
ATOM     18  C   UNL     1       4.133   5.708  -9.854  1.00  0.00     0.000 C 
BRANCH  18  19
ATOM     19  C   UNL     1       2.902   4.793  -9.754  1.00  0.00     0.000 C 
BRANCH  19  20
ATOM     20  C   UNL     1       1.628   5.552  -9.352  1.00  0.00     0.000 C 
BRANCH  20  21
ATOM     21  C   UNL     1       0.391   4.650  -9.485  1.00  0.00     0.000 C 
BRANCH  21  22
ATOM     22  C   UNL     1      -0.926   5.394  -9.197  1.00  0.00    -0.000 C 
BRANCH  22  23
ATOM     23  C   UNL     1      -0.970   6.859  -9.681  1.00  0.00    -0.000 C 
BRANCH  23  24
ATOM     24  C   UNL     1      -2.126   7.703  -9.113  1.00  0.00    -0.000 C 
BRANCH  24  25
ATOM     25  C   UNL     1      -2.922   7.036  -7.976  1.00  0.00    -0.000 C 
BRANCH  25  26
ATOM     26  C   UNL     1      -3.149   7.948  -6.748  1.00  0.00    -0.000 C 
BRANCH  26  27
ATOM     27  C   UNL     1      -3.715   9.345  -7.075  1.00  0.00    -0.000 C 
BRANCH  27  28
ATOM     28  C   UNL     1      -5.172   9.369  -7.581  1.00  0.00    -0.000 C 
BRANCH  28  29
ATOM     29  C   UNL     1      -6.141   8.505  -6.750  1.00  0.00    -0.003 C 
ATOM     30  C   UNL     1      -6.771   9.285  -5.597  1.00  0.00     0.004 C 
ENDBRANCH  28  29
ENDBRANCH  27  28
ENDBRANCH  26  27
ENDBRANCH  25  26
ENDBRANCH  24  25
ENDBRANCH  23  24
ENDBRANCH  22  23
ENDBRANCH  21  22
ENDBRANCH  20  21
ENDBRANCH  19  20
ENDBRANCH  18  19
ENDBRANCH  17  18
ENDBRANCH   1  17
TORSDOF 26
ENDMDL
