MODEL 1
REMARK VINA RESULT:    -3.244      0.000      0.000
REMARK INTER + INTRA:          -5.221
REMARK INTER:                  -4.761
REMARK INTRA:                  -0.460
REMARK UNBOUND:                -0.460
REMARK SMILES O=C([O-])CCCCCCCC(=O)[O-]
REMARK SMILES IDX 7 1 6 2 5 3 4 4 2 5 1 6 3 7 8 8 9 9 10 10 11 11 12 12 13 13
REMARK H PARENT
REMARK Flexibility Score: inf
ROOT
ATOM      1  C   UNL     1     -43.519 -46.498  71.426  1.00  0.00     0.000 C 
ENDROOT
BRANCH   1   2
ATOM      2  C   UNL     1     -42.285 -46.461  72.343  1.00  0.00     0.000 C 
BRANCH   2   3
ATOM      3  C   UNL     1     -42.581 -45.824  73.712  1.00  0.00     0.006 C 
BRANCH   3   4
ATOM      4  C   UNL     1     -43.970 -45.171  73.758  1.00  0.00     0.053 C 
BRANCH   4   5
ATOM      5  C   UNL     1     -44.054 -44.120  74.823  1.00  0.00     0.041 C 
ATOM      6  O   UNL     1     -44.054 -44.446  76.038  1.00  0.00    -0.550 OA
ATOM      7  O   UNL     1     -44.163 -42.781  74.469  1.00  0.00    -0.550 OA
ENDBRANCH   4   5
ENDBRANCH   3   4
ENDBRANCH   2   3
ENDBRANCH   1   2
BRANCH   1   8
ATOM      8  C   UNL     1     -43.707 -47.862  70.742  1.00  0.00     0.000 C 
BRANCH   8   9
ATOM      9  C   UNL     1     -45.179 -48.306  70.706  1.00  0.00     0.006 C 
BRANCH   9  10
ATOM     10  C   UNL     1     -46.144 -47.196  71.144  1.00  0.00     0.053 C 
BRANCH  10  11
ATOM     11  C   UNL     1     -47.515 -47.455  70.606  1.00  0.00     0.041 C 
ATOM     12  O   UNL     1     -48.492 -47.572  71.390  1.00  0.00    -0.550 OA
ATOM     13  O   UNL     1     -47.723 -47.517  69.233  1.00  0.00    -0.550 OA
ENDBRANCH  10  11
ENDBRANCH   9  10
ENDBRANCH   8   9
ENDBRANCH   1   8
TORSDOF 8
ENDMDL
MODEL 2
REMARK VINA RESULT:    -3.203      0.680      5.627
REMARK INTER + INTRA:          -5.161
REMARK INTER:                  -4.618
REMARK INTRA:                  -0.543
REMARK UNBOUND:                -0.460
REMARK SMILES O=C([O-])CCCCCCCC(=O)[O-]
REMARK SMILES IDX 7 1 6 2 5 3 4 4 2 5 1 6 3 7 8 8 9 9 10 10 11 11 12 12 13 13
REMARK H PARENT
REMARK Flexibility Score: inf
ROOT
ATOM      1  C   UNL     1     -42.866 -47.076  71.043  1.00  0.00     0.000 C 
ENDROOT
BRANCH   1   2
ATOM      2  C   UNL     1     -44.240 -46.659  70.490  1.00  0.00     0.000 C 
BRANCH   2   3
ATOM      3  C   UNL     1     -45.329 -47.714  70.749  1.00  0.00     0.006 C 
BRANCH   3   4
ATOM      4  C   UNL     1     -46.611 -47.094  71.322  1.00  0.00     0.053 C 
BRANCH   4   5
ATOM      5  C   UNL     1     -47.828 -47.539  70.570  1.00  0.00     0.041 C 
ATOM      6  O   UNL     1     -47.883 -47.412  69.319  1.00  0.00    -0.550 OA
ATOM      7  O   UNL     1     -48.913 -48.069  71.257  1.00  0.00    -0.550 OA
ENDBRANCH   4   5
ENDBRANCH   3   4
ENDBRANCH   2   3
ENDBRANCH   1   2
BRANCH   1   8
ATOM      8  C   UNL     1     -42.558 -46.433  72.405  1.00  0.00     0.000 C 
BRANCH   8   9
ATOM      9  C   UNL     1     -43.404 -45.177  72.670  1.00  0.00     0.006 C 
BRANCH   9  10
ATOM     10  C   UNL     1     -44.265 -45.298  73.935  1.00  0.00     0.053 C 
BRANCH  10  11
ATOM     11  C   UNL     1     -44.063 -44.110  74.820  1.00  0.00     0.041 C 
ATOM     12  O   UNL     1     -44.016 -44.250  76.069  1.00  0.00    -0.550 OA
ATOM     13  O   UNL     1     -43.876 -42.851  74.261  1.00  0.00    -0.550 OA
ENDBRANCH  10  11
ENDBRANCH   9  10
ENDBRANCH   8   9
ENDBRANCH   1   8
TORSDOF 8
ENDMDL
MODEL 3
REMARK VINA RESULT:    -3.191      2.749      4.020
REMARK INTER + INTRA:          -5.143
REMARK INTER:                  -4.573
REMARK INTRA:                  -0.570
REMARK UNBOUND:                -0.460
REMARK SMILES O=C([O-])CCCCCCCC(=O)[O-]
REMARK SMILES IDX 7 1 6 2 5 3 4 4 2 5 1 6 3 7 8 8 9 9 10 10 11 11 12 12 13 13
REMARK H PARENT
REMARK Flexibility Score: inf
ROOT
ATOM      1  C   UNL     1     -46.584 -47.223  71.181  1.00  0.00     0.000 C 
ENDROOT
BRANCH   1   2
ATOM      2  C   UNL     1     -45.646 -48.366  70.759  1.00  0.00     0.000 C 
BRANCH   2   3
ATOM      3  C   UNL     1     -44.183 -47.913  70.623  1.00  0.00     0.006 C 
BRANCH   3   4
ATOM      4  C   UNL     1     -43.904 -46.617  71.396  1.00  0.00     0.053 C 
BRANCH   4   5
ATOM      5  C   UNL     1     -43.343 -45.548  70.507  1.00  0.00     0.041 C 
ATOM      6  O   UNL     1     -43.062 -45.804  69.307  1.00  0.00    -0.550 OA
ATOM      7  O   UNL     1     -43.106 -44.277  71.014  1.00  0.00    -0.550 OA
ENDBRANCH   4   5
ENDBRANCH   3   4
ENDBRANCH   2   3
ENDBRANCH   1   2
BRANCH   1   8
ATOM      8  C   UNL     1     -48.070 -47.598  71.048  1.00  0.00     0.000 C 
BRANCH   8   9
ATOM      9  C   UNL     1     -48.275 -48.974  70.394  1.00  0.00     0.006 C 
BRANCH   9  10
ATOM     10  C   UNL     1     -49.120 -48.903  69.115  1.00  0.00     0.053 C 
BRANCH  10  11
ATOM     11  C   UNL     1     -48.441 -48.054  68.088  1.00  0.00     0.041 C 
ATOM     12  O   UNL     1     -47.339 -48.412  67.598  1.00  0.00    -0.550 OA
ATOM     13  O   UNL     1     -49.052 -46.891  67.634  1.00  0.00    -0.550 OA
ENDBRANCH  10  11
ENDBRANCH   9  10
ENDBRANCH   8   9
ENDBRANCH   1   8
TORSDOF 8
ENDMDL
MODEL 4
REMARK VINA RESULT:    -3.133      1.854      2.681
REMARK INTER + INTRA:          -5.059
REMARK INTER:                  -4.562
REMARK INTRA:                  -0.497
REMARK UNBOUND:                -0.460
REMARK SMILES O=C([O-])CCCCCCCC(=O)[O-]
REMARK SMILES IDX 7 1 6 2 5 3 4 4 2 5 1 6 3 7 8 8 9 9 10 10 11 11 12 12 13 13
REMARK H PARENT
REMARK Flexibility Score: inf
ROOT
ATOM      1  C   UNL     1     -45.152 -48.308  70.778  1.00  0.00     0.000 C 
ENDROOT
BRANCH   1   2
ATOM      2  C   UNL     1     -43.685 -47.873  70.616  1.00  0.00     0.000 C 
BRANCH   2   3
ATOM      3  C   UNL     1     -43.534 -46.354  70.433  1.00  0.00     0.006 C 
BRANCH   3   4
ATOM      4  C   UNL     1     -42.502 -45.754  71.398  1.00  0.00     0.053 C 
BRANCH   4   5
ATOM      5  C   UNL     1     -43.147 -44.874  72.425  1.00  0.00     0.041 C 
ATOM      6  O   UNL     1     -43.927 -45.365  73.282  1.00  0.00    -0.550 OA
ATOM      7  O   UNL     1     -42.907 -43.506  72.417  1.00  0.00    -0.550 OA
ENDBRANCH   4   5
ENDBRANCH   3   4
ENDBRANCH   2   3
ENDBRANCH   1   2
BRANCH   1   8
ATOM      8  C   UNL     1     -46.079 -47.136  71.141  1.00  0.00     0.000 C 
BRANCH   8   9
ATOM      9  C   UNL     1     -47.393 -47.155  70.344  1.00  0.00     0.006 C 
BRANCH   9  10
ATOM     10  C   UNL     1     -48.524 -47.883  71.083  1.00  0.00     0.053 C 
BRANCH  10  11
ATOM     11  C   UNL     1     -48.751 -49.236  70.487  1.00  0.00     0.041 C 
ATOM     12  O   UNL     1     -48.164 -50.243  70.961  1.00  0.00    -0.550 OA
ATOM     13  O   UNL     1     -49.649 -49.393  69.439  1.00  0.00    -0.550 OA
ENDBRANCH  10  11
ENDBRANCH   9  10
ENDBRANCH   8   9
ENDBRANCH   1   8
TORSDOF 8
ENDMDL
MODEL 5
REMARK VINA RESULT:    -3.114      1.559      2.276
REMARK INTER + INTRA:          -5.031
REMARK INTER:                  -4.773
REMARK INTRA:                  -0.257
REMARK UNBOUND:                -0.460
REMARK SMILES O=C([O-])CCCCCCCC(=O)[O-]
REMARK SMILES IDX 7 1 6 2 5 3 4 4 2 5 1 6 3 7 8 8 9 9 10 10 11 11 12 12 13 13
REMARK H PARENT
REMARK Flexibility Score: inf
ROOT
ATOM      1  C   UNL     1     -44.457 -48.080  70.728  1.00  0.00     0.000 C 
ENDROOT
BRANCH   1   2
ATOM      2  C   UNL     1     -43.389 -47.095  71.234  1.00  0.00     0.000 C 
BRANCH   2   3
ATOM      3  C   UNL     1     -43.996 -45.888  71.969  1.00  0.00     0.006 C 
BRANCH   3   4
ATOM      4  C   UNL     1     -43.048 -45.323  73.035  1.00  0.00     0.053 C 
BRANCH   4   5
ATOM      5  C   UNL     1     -43.796 -44.628  74.132  1.00  0.00     0.041 C 
ATOM      6  O   UNL     1     -43.826 -43.370  74.183  1.00  0.00    -0.550 OA
ATOM      7  O   UNL     1     -44.436 -45.372  75.116  1.00  0.00    -0.550 OA
ENDBRANCH   4   5
ENDBRANCH   3   4
ENDBRANCH   2   3
ENDBRANCH   1   2
BRANCH   1   8
ATOM      8  C   UNL     1     -45.885 -47.523  70.860  1.00  0.00     0.000 C 
BRANCH   8   9
ATOM      9  C   UNL     1     -46.960 -48.572  70.532  1.00  0.00     0.006 C 
BRANCH   9  10
ATOM     10  C   UNL     1     -48.373 -48.113  70.917  1.00  0.00     0.053 C 
BRANCH  10  11
ATOM     11  C   UNL     1     -49.324 -49.266  70.878  1.00  0.00     0.041 C 
ATOM     12  O   UNL     1     -50.546 -49.072  70.648  1.00  0.00    -0.550 OA
ATOM     13  O   UNL     1     -48.852 -50.562  71.047  1.00  0.00    -0.550 OA
ENDBRANCH  10  11
ENDBRANCH   9  10
ENDBRANCH   8   9
ENDBRANCH   1   8
TORSDOF 8
ENDMDL
MODEL 6
REMARK VINA RESULT:    -3.083      3.088      6.053
REMARK INTER + INTRA:          -4.984
REMARK INTER:                  -4.602
REMARK INTRA:                  -0.382
REMARK UNBOUND:                -0.460
REMARK SMILES O=C([O-])CCCCCCCC(=O)[O-]
REMARK SMILES IDX 7 1 6 2 5 3 4 4 2 5 1 6 3 7 8 8 9 9 10 10 11 11 12 12 13 13
REMARK H PARENT
REMARK Flexibility Score: inf
ROOT
ATOM      1  C   UNL     1     -43.081 -45.341  71.022  1.00  0.00     0.000 C 
ENDROOT
BRANCH   1   2
ATOM      2  C   UNL     1     -43.919 -46.515  71.555  1.00  0.00     0.000 C 
BRANCH   2   3
ATOM      3  C   UNL     1     -45.264 -46.664  70.824  1.00  0.00     0.006 C 
BRANCH   3   4
ATOM      4  C   UNL     1     -45.757 -48.117  70.807  1.00  0.00     0.053 C 
BRANCH   4   5
ATOM      5  C   UNL     1     -47.248 -48.201  70.934  1.00  0.00     0.041 C 
ATOM      6  O   UNL     1     -47.937 -47.152  71.022  1.00  0.00    -0.550 OA
ATOM      7  O   UNL     1     -47.872 -49.441  70.983  1.00  0.00    -0.550 OA
ENDBRANCH   4   5
ENDBRANCH   3   4
ENDBRANCH   2   3
ENDBRANCH   1   2
BRANCH   1   8
ATOM      8  C   UNL     1     -42.859 -45.416  69.502  1.00  0.00     0.000 C 
BRANCH   8   9
ATOM      9  C   UNL     1     -42.524 -44.047  68.887  1.00  0.00     0.006 C 
BRANCH   9  10
ATOM     10  C   UNL     1     -43.528 -42.957  69.283  1.00  0.00     0.053 C 
BRANCH  10  11
ATOM     11  C   UNL     1     -42.810 -41.728  69.744  1.00  0.00     0.041 C 
ATOM     12  O   UNL     1     -42.025 -41.124  68.967  1.00  0.00    -0.550 OA
ATOM     13  O   UNL     1     -43.047 -41.221  71.016  1.00  0.00    -0.550 OA
ENDBRANCH  10  11
ENDBRANCH   9  10
ENDBRANCH   8   9
ENDBRANCH   1   8
TORSDOF 8
ENDMDL
MODEL 7
REMARK VINA RESULT:    -3.075      1.874      6.008
REMARK INTER + INTRA:          -4.973
REMARK INTER:                  -4.470
REMARK INTRA:                  -0.503
REMARK UNBOUND:                -0.460
REMARK SMILES O=C([O-])CCCCCCCC(=O)[O-]
REMARK SMILES IDX 7 1 6 2 5 3 4 4 2 5 1 6 3 7 8 8 9 9 10 10 11 11 12 12 13 13
REMARK H PARENT
REMARK Flexibility Score: inf
ROOT
ATOM      1  C   UNL     1     -44.841 -47.963  70.739  1.00  0.00     0.000 C 
ENDROOT
BRANCH   1   2
ATOM      2  C   UNL     1     -46.026 -47.084  71.172  1.00  0.00     0.000 C 
BRANCH   2   3
ATOM      3  C   UNL     1     -47.264 -47.275  70.279  1.00  0.00     0.006 C 
BRANCH   3   4
ATOM      4  C   UNL     1     -48.455 -47.851  71.056  1.00  0.00     0.053 C 
BRANCH   4   5
ATOM      5  C   UNL     1     -48.754 -49.262  70.649  1.00  0.00     0.041 C 
ATOM      6  O   UNL     1     -47.942 -50.186  70.917  1.00  0.00    -0.550 OA
ATOM      7  O   UNL     1     -49.919 -49.551  69.948  1.00  0.00    -0.550 OA
ENDBRANCH   4   5
ENDBRANCH   3   4
ENDBRANCH   2   3
ENDBRANCH   1   2
BRANCH   1   8
ATOM      8  C   UNL     1     -43.791 -47.183  69.931  1.00  0.00     0.000 C 
BRANCH   8   9
ATOM      9  C   UNL     1     -43.688 -45.711  70.362  1.00  0.00     0.006 C 
BRANCH   9  10
ATOM     10  C   UNL     1     -42.611 -45.480  71.431  1.00  0.00     0.053 C 
BRANCH  10  11
ATOM     11  C   UNL     1     -43.185 -44.746  72.600  1.00  0.00     0.041 C 
ATOM     12  O   UNL     1     -43.946 -45.339  73.409  1.00  0.00    -0.550 OA
ATOM     13  O   UNL     1     -42.841 -43.419  72.825  1.00  0.00    -0.550 OA
ENDBRANCH  10  11
ENDBRANCH   9  10
ENDBRANCH   8   9
ENDBRANCH   1   8
TORSDOF 8
ENDMDL
MODEL 8
REMARK VINA RESULT:    -3.068      2.515      6.291
REMARK INTER + INTRA:          -4.963
REMARK INTER:                  -4.400
REMARK INTRA:                  -0.563
REMARK UNBOUND:                -0.460
REMARK SMILES O=C([O-])CCCCCCCC(=O)[O-]
REMARK SMILES IDX 7 1 6 2 5 3 4 4 2 5 1 6 3 7 8 8 9 9 10 10 11 11 12 12 13 13
REMARK H PARENT
REMARK Flexibility Score: inf
ROOT
ATOM      1  C   UNL     1     -46.448 -47.139  71.203  1.00  0.00     0.000 C 
ENDROOT
BRANCH   1   2
ATOM      2  C   UNL     1     -47.929 -47.517  71.038  1.00  0.00     0.000 C 
BRANCH   2   3
ATOM      3  C   UNL     1     -48.120 -48.945  70.499  1.00  0.00     0.006 C 
BRANCH   3   4
ATOM      4  C   UNL     1     -48.946 -48.970  69.205  1.00  0.00     0.053 C 
BRANCH   4   5
ATOM      5  C   UNL     1     -48.330 -48.120  68.135  1.00  0.00     0.041 C 
ATOM      6  O   UNL     1     -47.203 -48.416  67.659  1.00  0.00    -0.550 OA
ATOM      7  O   UNL     1     -48.989 -46.982  67.686  1.00  0.00    -0.550 OA
ENDBRANCH   4   5
ENDBRANCH   3   4
ENDBRANCH   2   3
ENDBRANCH   1   2
BRANCH   1   8
ATOM      8  C   UNL     1     -45.497 -48.262  70.755  1.00  0.00     0.000 C 
BRANCH   8   9
ATOM      9  C   UNL     1     -44.265 -47.728  70.006  1.00  0.00     0.006 C 
BRANCH   9  10
ATOM     10  C   UNL     1     -43.147 -47.273  70.953  1.00  0.00     0.053 C 
BRANCH  10  11
ATOM     11  C   UNL     1     -43.175 -45.787  71.117  1.00  0.00     0.041 C 
ATOM     12  O   UNL     1     -43.458 -45.277  72.232  1.00  0.00    -0.550 OA
ATOM     13  O   UNL     1     -42.838 -44.964  70.049  1.00  0.00    -0.550 OA
ENDBRANCH  10  11
ENDBRANCH   9  10
ENDBRANCH   8   9
ENDBRANCH   1   8
TORSDOF 8
ENDMDL
MODEL 9
REMARK VINA RESULT:    -3.044      4.736      5.878
REMARK INTER + INTRA:          -4.928
REMARK INTER:                  -3.978
REMARK INTRA:                  -0.950
REMARK UNBOUND:                -0.460
REMARK SMILES O=C([O-])CCCCCCCC(=O)[O-]
REMARK SMILES IDX 7 1 6 2 5 3 4 4 2 5 1 6 3 7 8 8 9 9 10 10 11 11 12 12 13 13
REMARK H PARENT
REMARK Flexibility Score: inf
ROOT
ATOM      1  C   UNL     1     -47.508 -47.384  71.044  1.00  0.00     0.000 C 
ENDROOT
BRANCH   1   2
ATOM      2  C   UNL     1     -46.000 -47.115  71.175  1.00  0.00     0.000 C 
BRANCH   2   3
ATOM      3  C   UNL     1     -45.160 -47.967  70.209  1.00  0.00     0.006 C 
BRANCH   3   4
ATOM      4  C   UNL     1     -45.171 -49.454  70.588  1.00  0.00     0.053 C 
BRANCH   4   5
ATOM      5  C   UNL     1     -45.353 -50.333  69.388  1.00  0.00     0.041 C 
ATOM      6  O   UNL     1     -45.711 -49.838  68.287  1.00  0.00    -0.550 OA
ATOM      7  O   UNL     1     -45.154 -51.704  69.495  1.00  0.00    -0.550 OA
ENDBRANCH   4   5
ENDBRANCH   3   4
ENDBRANCH   2   3
ENDBRANCH   1   2
BRANCH   1   8
ATOM      8  C   UNL     1     -47.990 -47.354  69.584  1.00  0.00     0.000 C 
BRANCH   8   9
ATOM      9  C   UNL     1     -48.878 -48.558  69.231  1.00  0.00     0.006 C 
BRANCH   9  10
ATOM     10  C   UNL     1     -49.219 -49.422  70.452  1.00  0.00     0.053 C 
BRANCH  10  11
ATOM     11  C   UNL     1     -48.766 -50.831  70.238  1.00  0.00     0.041 C 
ATOM     12  O   UNL     1     -48.243 -51.478  71.182  1.00  0.00    -0.550 OA
ATOM     13  O   UNL     1     -48.966 -51.446  69.008  1.00  0.00    -0.550 OA
ENDBRANCH  10  11
ENDBRANCH   9  10
ENDBRANCH   8   9
ENDBRANCH   1   8
TORSDOF 8
ENDMDL
