MODEL 1
REMARK VINA RESULT:    -5.371      0.000      0.000
REMARK INTER + INTRA:          -7.440
REMARK INTER:                  -6.940
REMARK INTRA:                  -0.499
REMARK UNBOUND:                -0.499
REMARK SMILES CO[C@@]1(CO)O[C@H](CO)[C@H](O)[C@@H]1O
REMARK SMILES IDX 3 1 12 2 10 3 7 4 6 5 2 6 1 7 4 8 5 9 13 11 11 13 8 15 9 16
REMARK H PARENT 5 10 13 12 11 14 9 17
REMARK Flexibility Score: inf
ROOT
ATOM      1  C   UNL     1      31.992   3.000  41.705  1.00  0.00     0.221 C 
ATOM      2  C   UNL     1      32.330   2.220  42.998  1.00  0.00     0.207 C 
ATOM      3  C   UNL     1      33.495   2.991  43.569  1.00  0.00     0.180 C 
ATOM      4  C   UNL     1      33.211   4.401  43.056  1.00  0.00     0.179 C 
ATOM      5  O   UNL     1      32.525   4.314  41.824  1.00  0.00    -0.337 OA
ENDROOT
BRANCH   1   6
ATOM      6  O   UNL     1      30.582   3.015  41.488  1.00  0.00    -0.349 OA
ATOM      7  C   UNL     1      29.846   2.517  42.589  1.00  0.00     0.198 C 
ENDBRANCH   1   6
BRANCH   1   8
ATOM      8  C   UNL     1      32.646   2.374  40.451  1.00  0.00     0.224 C 
BRANCH   8   9
ATOM      9  O   UNL     1      32.002   1.184  40.075  1.00  0.00    -0.391 OA
ATOM     10  H   UNL     1      32.656   0.448  40.208  1.00  0.00     0.210 HD
ENDBRANCH   8   9
ENDBRANCH   1   8
BRANCH   2  11
ATOM     11  O   UNL     1      32.647   0.870  42.764  1.00  0.00    -0.385 OA
ATOM     12  H   UNL     1      31.982   0.533  42.107  1.00  0.00     0.211 HD
ENDBRANCH   2  11
BRANCH   3  13
ATOM     13  O   UNL     1      34.714   2.505  43.063  1.00  0.00    -0.387 OA
ATOM     14  H   UNL     1      35.410   3.174  43.301  1.00  0.00     0.211 HD
ENDBRANCH   3  13
BRANCH   4  15
ATOM     15  C   UNL     1      34.472   5.262  42.897  1.00  0.00     0.191 C 
BRANCH  15  16
ATOM     16  O   UNL     1      34.842   5.342  41.547  1.00  0.00    -0.394 OA
ATOM     17  H   UNL     1      35.813   5.547  41.530  1.00  0.00     0.210 HD
ENDBRANCH  15  16
ENDBRANCH   4  15
TORSDOF 7
ENDMDL
MODEL 2
REMARK VINA RESULT:    -5.108      5.541      7.419
REMARK INTER + INTRA:          -7.101
REMARK INTER:                  -6.419
REMARK INTRA:                  -0.682
REMARK UNBOUND:                -0.499
REMARK SMILES CO[C@@]1(CO)O[C@H](CO)[C@H](O)[C@@H]1O
REMARK SMILES IDX 3 1 12 2 10 3 7 4 6 5 2 6 1 7 4 8 5 9 13 11 11 13 8 15 9 16
REMARK H PARENT 5 10 13 12 11 14 9 17
REMARK Flexibility Score: inf
ROOT
ATOM      1  C   UNL     1      38.010   7.136  43.563  1.00  0.00     0.221 C 
ATOM      2  C   UNL     1      36.819   6.154  43.459  1.00  0.00     0.207 C 
ATOM      3  C   UNL     1      35.807   6.739  44.414  1.00  0.00     0.180 C 
ATOM      4  C   UNL     1      36.147   8.226  44.348  1.00  0.00     0.179 C 
ATOM      5  O   UNL     1      37.526   8.372  44.076  1.00  0.00    -0.337 OA
ENDROOT
BRANCH   1   6
ATOM      6  O   UNL     1      38.636   7.295  42.291  1.00  0.00    -0.349 OA
ATOM      7  C   UNL     1      39.953   6.783  42.252  1.00  0.00     0.198 C 
ENDBRANCH   1   6
BRANCH   1   8
ATOM      8  C   UNL     1      39.093   6.646  44.552  1.00  0.00     0.224 C 
BRANCH   8   9
ATOM      9  O   UNL     1      39.339   7.595  45.559  1.00  0.00    -0.391 OA
ATOM     10  H   UNL     1      39.805   8.358  45.128  1.00  0.00     0.210 HD
ENDBRANCH   8   9
ENDBRANCH   1   8
BRANCH   2  11
ATOM     11  O   UNL     1      37.161   4.830  43.789  1.00  0.00    -0.385 OA
ATOM     12  H   UNL     1      37.624   4.869  44.667  1.00  0.00     0.211 HD
ENDBRANCH   2  11
BRANCH   3  13
ATOM     13  O   UNL     1      35.994   6.234  45.714  1.00  0.00    -0.387 OA
ATOM     14  H   UNL     1      36.320   5.301  45.615  1.00  0.00     0.211 HD
ENDBRANCH   3  13
BRANCH   4  15
ATOM     15  C   UNL     1      35.778   8.997  45.624  1.00  0.00     0.191 C 
BRANCH  15  16
ATOM     16  O   UNL     1      36.903   9.144  46.448  1.00  0.00    -0.394 OA
ATOM     17  H   UNL     1      37.154  10.104  46.418  1.00  0.00     0.210 HD
ENDBRANCH  15  16
ENDBRANCH   4  15
TORSDOF 7
ENDMDL
MODEL 3
REMARK VINA RESULT:    -5.032      1.568      2.294
REMARK INTER + INTRA:          -7.002
REMARK INTER:                  -6.806
REMARK INTRA:                  -0.196
REMARK UNBOUND:                -0.499
REMARK SMILES CO[C@@]1(CO)O[C@H](CO)[C@H](O)[C@@H]1O
REMARK SMILES IDX 3 1 12 2 10 3 7 4 6 5 2 6 1 7 4 8 5 9 13 11 11 13 8 15 9 16
REMARK H PARENT 5 10 13 12 11 14 9 17
REMARK Flexibility Score: inf
ROOT
ATOM      1  C   UNL     1      32.118   2.777  41.733  1.00  0.00     0.221 C 
ATOM      2  C   UNL     1      31.090   2.604  42.877  1.00  0.00     0.207 C 
ATOM      3  C   UNL     1      31.944   2.162  44.041  1.00  0.00     0.180 C 
ATOM      4  C   UNL     1      33.278   2.831  43.715  1.00  0.00     0.179 C 
ATOM      5  O   UNL     1      33.407   2.940  42.312  1.00  0.00    -0.337 OA
ENDROOT
BRANCH   1   6
ATOM      6  O   UNL     1      31.761   3.884  40.908  1.00  0.00    -0.349 OA
ATOM      7  C   UNL     1      31.067   4.898  41.609  1.00  0.00     0.198 C 
ENDBRANCH   1   6
BRANCH   1   8
ATOM      8  C   UNL     1      32.202   1.530  40.822  1.00  0.00     0.224 C 
BRANCH   8   9
ATOM      9  O   UNL     1      32.957   1.787  39.666  1.00  0.00    -0.391 OA
ATOM     10  H   UNL     1      33.690   2.401  39.931  1.00  0.00     0.210 HD
ENDBRANCH   8   9
ENDBRANCH   1   8
BRANCH   2  11
ATOM     11  O   UNL     1      30.076   1.677  42.576  1.00  0.00    -0.385 OA
ATOM     12  H   UNL     1      30.105   0.987  43.290  1.00  0.00     0.211 HD
ENDBRANCH   2  11
BRANCH   3  13
ATOM     13  O   UNL     1      32.072   0.761  44.065  1.00  0.00    -0.387 OA
ATOM     14  H   UNL     1      32.956   0.548  43.664  1.00  0.00     0.211 HD
ENDBRANCH   3  13
BRANCH   4  15
ATOM     15  C   UNL     1      34.492   2.095  44.301  1.00  0.00     0.191 C 
BRANCH  15  16
ATOM     16  O   UNL     1      35.578   2.166  43.418  1.00  0.00    -0.394 OA
ATOM     17  H   UNL     1      36.078   2.993  43.647  1.00  0.00     0.210 HD
ENDBRANCH  15  16
ENDBRANCH   4  15
TORSDOF 7
ENDMDL
MODEL 4
REMARK VINA RESULT:    -4.841      9.251     11.030
REMARK INTER + INTRA:          -6.755
REMARK INTER:                  -5.926
REMARK INTRA:                  -0.829
REMARK UNBOUND:                -0.499
REMARK SMILES CO[C@@]1(CO)O[C@H](CO)[C@H](O)[C@@H]1O
REMARK SMILES IDX 3 1 12 2 10 3 7 4 6 5 2 6 1 7 4 8 5 9 13 11 11 13 8 15 9 16
REMARK H PARENT 5 10 13 12 11 14 9 17
REMARK Flexibility Score: inf
ROOT
ATOM      1  C   UNL     1      24.108   4.161  37.952  1.00  0.00     0.221 C 
ATOM      2  C   UNL     1      23.429   3.540  39.197  1.00  0.00     0.207 C 
ATOM      3  C   UNL     1      21.995   3.991  39.067  1.00  0.00     0.180 C 
ATOM      4  C   UNL     1      21.846   4.109  37.551  1.00  0.00     0.179 C 
ATOM      5  O   UNL     1      23.099   4.448  36.991  1.00  0.00    -0.337 OA
ENDROOT
BRANCH   1   6
ATOM      6  O   UNL     1      25.099   3.276  37.435  1.00  0.00    -0.349 OA
ATOM      7  C   UNL     1      25.453   3.560  36.095  1.00  0.00     0.198 C 
ENDBRANCH   1   6
BRANCH   1   8
ATOM      8  C   UNL     1      24.806   5.503  38.269  1.00  0.00     0.224 C 
BRANCH   8   9
ATOM      9  O   UNL     1      23.960   6.596  38.017  1.00  0.00    -0.391 OA
ATOM     10  H   UNL     1      24.310   7.360  38.545  1.00  0.00     0.210 HD
ENDBRANCH   8   9
ENDBRANCH   1   8
BRANCH   2  11
ATOM     11  O   UNL     1      24.010   3.954  40.410  1.00  0.00    -0.385 OA
ATOM     12  H   UNL     1      24.852   3.435  40.511  1.00  0.00     0.211 HD
ENDBRANCH   2  11
BRANCH   3  13
ATOM     13  O   UNL     1      21.802   5.236  39.693  1.00  0.00    -0.387 OA
ATOM     14  H   UNL     1      22.178   5.925  39.083  1.00  0.00     0.211 HD
ENDBRANCH   3  13
BRANCH   4  15
ATOM     15  C   UNL     1      20.782   5.127  37.116  1.00  0.00     0.191 C 
BRANCH  15  16
ATOM     16  O   UNL     1      21.335   6.414  37.051  1.00  0.00    -0.394 OA
ATOM     17  H   UNL     1      20.573   7.047  36.985  1.00  0.00     0.210 HD
ENDBRANCH  15  16
ENDBRANCH   4  15
TORSDOF 7
ENDMDL
MODEL 5
REMARK VINA RESULT:    -4.813      8.880     10.795
REMARK INTER + INTRA:          -6.719
REMARK INTER:                  -5.927
REMARK INTRA:                  -0.792
REMARK UNBOUND:                -0.499
REMARK SMILES CO[C@@]1(CO)O[C@H](CO)[C@H](O)[C@@H]1O
REMARK SMILES IDX 3 1 12 2 10 3 7 4 6 5 2 6 1 7 4 8 5 9 13 11 11 13 8 15 9 16
REMARK H PARENT 5 10 13 12 11 14 9 17
REMARK Flexibility Score: inf
ROOT
ATOM      1  C   UNL     1      23.941   4.010  38.362  1.00  0.00     0.221 C 
ATOM      2  C   UNL     1      22.914   4.985  38.987  1.00  0.00     0.207 C 
ATOM      3  C   UNL     1      22.351   5.705  37.786  1.00  0.00     0.180 C 
ATOM      4  C   UNL     1      22.491   4.644  36.697  1.00  0.00     0.179 C 
ATOM      5  O   UNL     1      23.606   3.827  36.992  1.00  0.00    -0.337 OA
ENDROOT
BRANCH   1   6
ATOM      6  O   UNL     1      23.953   2.777  39.078  1.00  0.00    -0.349 OA
ATOM      7  C   UNL     1      22.701   2.456  39.652  1.00  0.00     0.198 C 
ENDBRANCH   1   6
BRANCH   1   8
ATOM      8  C   UNL     1      25.381   4.574  38.389  1.00  0.00     0.224 C 
BRANCH   8   9
ATOM      9  O   UNL     1      25.541   5.622  37.468  1.00  0.00    -0.391 OA
ATOM     10  H   UNL     1      25.391   6.468  37.964  1.00  0.00     0.210 HD
ENDBRANCH   8   9
ENDBRANCH   1   8
BRANCH   2  11
ATOM     11  O   UNL     1      23.485   5.869  39.920  1.00  0.00    -0.385 OA
ATOM     12  H   UNL     1      23.486   6.767  39.494  1.00  0.00     0.211 HD
ENDBRANCH   2  11
BRANCH   3  13
ATOM     13  O   UNL     1      23.115   6.847  37.482  1.00  0.00    -0.387 OA
ATOM     14  H   UNL     1      22.491   7.512  37.087  1.00  0.00     0.211 HD
ENDBRANCH   3  13
BRANCH   4  15
ATOM     15  C   UNL     1      22.626   5.229  35.284  1.00  0.00     0.191 C 
BRANCH  15  16
ATOM     16  O   UNL     1      23.971   5.246  34.888  1.00  0.00    -0.394 OA
ATOM     17  H   UNL     1      24.042   4.649  34.098  1.00  0.00     0.210 HD
ENDBRANCH  15  16
ENDBRANCH   4  15
TORSDOF 7
ENDMDL
MODEL 6
REMARK VINA RESULT:    -4.808      9.580     11.391
REMARK INTER + INTRA:          -6.713
REMARK INTER:                  -5.953
REMARK INTRA:                  -0.760
REMARK UNBOUND:                -0.499
REMARK SMILES CO[C@@]1(CO)O[C@H](CO)[C@H](O)[C@@H]1O
REMARK SMILES IDX 3 1 12 2 10 3 7 4 6 5 2 6 1 7 4 8 5 9 13 11 11 13 8 15 9 16
REMARK H PARENT 5 10 13 12 11 14 9 17
REMARK Flexibility Score: inf
ROOT
ATOM      1  C   UNL     1      23.200   5.077  37.706  1.00  0.00     0.221 C 
ATOM      2  C   UNL     1      23.457   3.556  37.830  1.00  0.00     0.207 C 
ATOM      3  C   UNL     1      22.300   3.079  38.674  1.00  0.00     0.180 C 
ATOM      4  C   UNL     1      21.214   4.088  38.304  1.00  0.00     0.179 C 
ATOM      5  O   UNL     1      21.823   5.319  37.973  1.00  0.00    -0.337 OA
ENDROOT
BRANCH   1   6
ATOM      6  O   UNL     1      23.581   5.541  36.413  1.00  0.00    -0.349 OA
ATOM      7  C   UNL     1      23.465   4.551  35.410  1.00  0.00     0.198 C 
ENDBRANCH   1   6
BRANCH   1   8
ATOM      8  C   UNL     1      23.998   5.896  38.746  1.00  0.00     0.224 C 
BRANCH   8   9
ATOM      9  O   UNL     1      23.378   5.873  40.006  1.00  0.00    -0.391 OA
ATOM     10  H   UNL     1      22.532   6.384  39.921  1.00  0.00     0.210 HD
ENDBRANCH   8   9
ENDBRANCH   1   8
BRANCH   2  11
ATOM     11  O   UNL     1      24.702   3.249  38.409  1.00  0.00    -0.385 OA
ATOM     12  H   UNL     1      25.290   4.033  38.244  1.00  0.00     0.211 HD
ENDBRANCH   2  11
BRANCH   3  13
ATOM     13  O   UNL     1      22.614   3.153  40.043  1.00  0.00    -0.387 OA
ATOM     14  H   UNL     1      21.854   2.743  40.534  1.00  0.00     0.211 HD
ENDBRANCH   3  13
BRANCH   4  15
ATOM     15  C   UNL     1      20.169   4.297  39.409  1.00  0.00     0.191 C 
BRANCH  15  16
ATOM     16  O   UNL     1      20.416   5.494  40.095  1.00  0.00    -0.394 OA
ATOM     17  H   UNL     1      19.529   5.884  40.314  1.00  0.00     0.210 HD
ENDBRANCH  15  16
ENDBRANCH   4  15
TORSDOF 7
ENDMDL
MODEL 7
REMARK VINA RESULT:    -4.755     10.728     13.011
REMARK INTER + INTRA:          -6.644
REMARK INTER:                  -5.860
REMARK INTRA:                  -0.785
REMARK UNBOUND:                -0.499
REMARK SMILES CO[C@@]1(CO)O[C@H](CO)[C@H](O)[C@@H]1O
REMARK SMILES IDX 3 1 12 2 10 3 7 4 6 5 2 6 1 7 4 8 5 9 13 11 11 13 8 15 9 16
REMARK H PARENT 5 10 13 12 11 14 9 17
REMARK Flexibility Score: inf
ROOT
ATOM      1  C   UNL     1      22.455   5.050  36.781  1.00  0.00     0.221 C 
ATOM      2  C   UNL     1      20.967   4.979  37.202  1.00  0.00     0.207 C 
ATOM      3  C   UNL     1      20.263   5.736  36.102  1.00  0.00     0.180 C 
ATOM      4  C   UNL     1      21.188   5.482  34.914  1.00  0.00     0.179 C 
ATOM      5  O   UNL     1      22.511   5.324  35.386  1.00  0.00    -0.337 OA
ENDROOT
BRANCH   1   6
ATOM      6  O   UNL     1      23.122   3.834  37.112  1.00  0.00    -0.349 OA
ATOM      7  C   UNL     1      23.979   3.958  38.231  1.00  0.00     0.198 C 
ENDBRANCH   1   6
BRANCH   1   8
ATOM      8  C   UNL     1      23.213   6.200  37.484  1.00  0.00     0.224 C 
BRANCH   8   9
ATOM      9  O   UNL     1      22.802   7.455  37.006  1.00  0.00    -0.391 OA
ATOM     10  H   UNL     1      21.920   7.647  37.420  1.00  0.00     0.210 HD
ENDBRANCH   8   9
ENDBRANCH   1   8
BRANCH   2  11
ATOM     11  O   UNL     1      20.724   5.535  38.472  1.00  0.00    -0.385 OA
ATOM     12  H   UNL     1      20.573   6.506  38.331  1.00  0.00     0.211 HD
ENDBRANCH   2  11
BRANCH   3  13
ATOM     13  O   UNL     1      20.191   7.108  36.404  1.00  0.00    -0.387 OA
ATOM     14  H   UNL     1      19.590   7.198  37.190  1.00  0.00     0.211 HD
ENDBRANCH   3  13
BRANCH   4  15
ATOM     15  C   UNL     1      21.138   6.588  33.850  1.00  0.00     0.191 C 
BRANCH  15  16
ATOM     16  O   UNL     1      22.197   7.488  34.030  1.00  0.00    -0.394 OA
ATOM     17  H   UNL     1      22.857   7.298  33.312  1.00  0.00     0.210 HD
ENDBRANCH  15  16
ENDBRANCH   4  15
TORSDOF 7
ENDMDL
MODEL 8
REMARK VINA RESULT:    -4.691      4.933      6.774
REMARK INTER + INTRA:          -6.562
REMARK INTER:                  -5.791
REMARK INTRA:                  -0.771
REMARK UNBOUND:                -0.499
REMARK SMILES CO[C@@]1(CO)O[C@H](CO)[C@H](O)[C@@H]1O
REMARK SMILES IDX 3 1 12 2 10 3 7 4 6 5 2 6 1 7 4 8 5 9 13 11 11 13 8 15 9 16
REMARK H PARENT 5 10 13 12 11 14 9 17
REMARK Flexibility Score: inf
ROOT
ATOM      1  C   UNL     1      37.486   4.968  43.994  1.00  0.00     0.221 C 
ATOM      2  C   UNL     1      37.847   5.486  42.580  1.00  0.00     0.207 C 
ATOM      3  C   UNL     1      38.885   6.546  42.859  1.00  0.00     0.180 C 
ATOM      4  C   UNL     1      39.521   6.024  44.145  1.00  0.00     0.179 C 
ATOM      5  O   UNL     1      38.552   5.299  44.876  1.00  0.00    -0.337 OA
ENDROOT
BRANCH   1   6
ATOM      6  O   UNL     1      37.239   3.564  43.959  1.00  0.00    -0.349 OA
ATOM      7  C   UNL     1      36.285   3.145  44.915  1.00  0.00     0.198 C 
ENDBRANCH   1   6
BRANCH   1   8
ATOM      8  C   UNL     1      36.219   5.647  44.564  1.00  0.00     0.224 C 
BRANCH   8   9
ATOM      9  O   UNL     1      36.534   6.833  45.248  1.00  0.00    -0.391 OA
ATOM     10  H   UNL     1      36.350   7.583  44.624  1.00  0.00     0.210 HD
ENDBRANCH   8   9
ENDBRANCH   1   8
BRANCH   2  11
ATOM     11  O   UNL     1      36.741   5.995  41.877  1.00  0.00    -0.385 OA
ATOM     12  H   UNL     1      36.969   6.930  41.630  1.00  0.00     0.211 HD
ENDBRANCH   2  11
BRANCH   3  13
ATOM     13  O   UNL     1      38.280   7.799  43.066  1.00  0.00    -0.387 OA
ATOM     14  H   UNL     1      38.226   7.932  44.049  1.00  0.00     0.211 HD
ENDBRANCH   3  13
BRANCH   4  15
ATOM     15  C   UNL     1      40.125   7.129  45.024  1.00  0.00     0.191 C 
BRANCH  15  16
ATOM     16  O   UNL     1      39.110   7.864  45.651  1.00  0.00    -0.394 OA
ATOM     17  H   UNL     1      38.275   7.335  45.556  1.00  0.00     0.210 HD
ENDBRANCH  15  16
ENDBRANCH   4  15
TORSDOF 7
ENDMDL
MODEL 9
REMARK VINA RESULT:    -4.689      8.190     10.337
REMARK INTER + INTRA:          -6.560
REMARK INTER:                  -5.959
REMARK INTRA:                  -0.600
REMARK UNBOUND:                -0.499
REMARK SMILES CO[C@@]1(CO)O[C@H](CO)[C@H](O)[C@@H]1O
REMARK SMILES IDX 3 1 12 2 10 3 7 4 6 5 2 6 1 7 4 8 5 9 13 11 11 13 8 15 9 16
REMARK H PARENT 5 10 13 12 11 14 9 17
REMARK Flexibility Score: inf
ROOT
ATOM      1  C   UNL     1      22.922   3.547  38.301  1.00  0.00     0.221 C 
ATOM      2  C   UNL     1      22.582   5.049  38.460  1.00  0.00     0.207 C 
ATOM      3  C   UNL     1      23.910   5.727  38.230  1.00  0.00     0.180 C 
ATOM      4  C   UNL     1      24.597   4.744  37.284  1.00  0.00     0.179 C 
ATOM      5  O   UNL     1      24.129   3.440  37.557  1.00  0.00    -0.337 OA
ENDROOT
BRANCH   1   6
ATOM      6  O   UNL     1      21.844   2.859  37.671  1.00  0.00    -0.349 OA
ATOM      7  C   UNL     1      21.072   3.689  36.825  1.00  0.00     0.198 C 
ENDBRANCH   1   6
BRANCH   1   8
ATOM      8  C   UNL     1      23.181   2.855  39.659  1.00  0.00     0.224 C 
BRANCH   8   9
ATOM      9  O   UNL     1      21.982   2.601  40.345  1.00  0.00    -0.391 OA
ATOM     10  H   UNL     1      22.227   2.380  41.281  1.00  0.00     0.210 HD
ENDBRANCH   8   9
ENDBRANCH   1   8
BRANCH   2  11
ATOM     11  O   UNL     1      22.033   5.363  39.716  1.00  0.00    -0.385 OA
ATOM     12  H   UNL     1      22.666   5.014  40.396  1.00  0.00     0.211 HD
ENDBRANCH   2  11
BRANCH   3  13
ATOM     13  O   UNL     1      24.625   5.853  39.435  1.00  0.00    -0.387 OA
ATOM     14  H   UNL     1      25.548   5.532  39.256  1.00  0.00     0.211 HD
ENDBRANCH   3  13
BRANCH   4  15
ATOM     15  C   UNL     1      26.130   4.782  37.368  1.00  0.00     0.191 C 
BRANCH  15  16
ATOM     16  O   UNL     1      26.605   3.699  38.121  1.00  0.00    -0.394 OA
ATOM     17  H   UNL     1      27.308   4.058  38.723  1.00  0.00     0.210 HD
ENDBRANCH  15  16
ENDBRANCH   4  15
TORSDOF 7
ENDMDL
