MODEL 1
REMARK VINA RESULT:    14.133      0.000      0.000
REMARK INTER + INTRA:          22.900
REMARK INTER:                  21.569
REMARK INTRA:                   1.331
REMARK UNBOUND:                 1.331
REMARK SMILES CC1=CCC[C@@H](C)C(=O)C[C@@H](C(C)C)C(=O)C1
REMARK SMILES IDX 8 1 9 2 6 3 7 4 5 5 4 6 3 7 2 8 1 9 10 11 11 12 15 13 16 14
REMARK SMILES IDX 17 15 12 17 13 18 14 19
REMARK H PARENT
REMARK Flexibility Score: 70.00
ROOT
ATOM      1  C   UNL     1      17.392  16.435 -12.894  1.00  0.00     0.136 C 
ATOM      2  O   UNL     1      16.787  16.565 -11.838  1.00  0.00    -0.299 OA
ENDROOT
BRANCH   1   3
ATOM      3  C   UNL     1      17.293  15.100 -13.617  1.00  0.00     0.053 C 
ATOM      4  C   UNL     1      16.302  14.195 -12.877  1.00  0.00     0.016 C 
BRANCH   3   5
ATOM      5  C   UNL     1      18.672  14.413 -13.717  1.00  0.00     0.015 C 
BRANCH   5   6
ATOM      6  C   UNL     1      19.432  14.360 -12.382  1.00  0.00     0.028 C 
BRANCH   6   7
ATOM      7  C   UNL     1      20.655  15.247 -12.384  1.00  0.00    -0.028 C 
ATOM      8  C   UNL     1      20.909  16.273 -11.538  1.00  0.00    -0.070 CG0
ATOM      9  C   UNL     1      22.220  17.001 -11.697  1.00  0.00     0.039 C 
ATOM     10  G   UNL     1      19.946  16.754 -10.465  1.00  0.00     0.000 G0
ENDBRANCH   6   7
ENDBRANCH   5   6
ENDBRANCH   3   5
ENDBRANCH   1   3
BRANCH   1  11
ATOM     11  C   UNL     1      18.166  17.641 -13.397  1.00  0.00     0.087 C 
BRANCH  11  12
ATOM     12  C   UNL     1      19.018  18.421 -12.356  1.00  0.00     0.066 C 
BRANCH  12  13
ATOM     13  C   UNL     1      19.018  17.844 -10.942  1.00  0.00     0.140 C 
ATOM     14  O   UNL     1      18.180  18.272 -10.160  1.00  0.00    -0.299 OA
BRANCH  13  15
ATOM     15  C   UNL     1      19.947  16.750 -10.455  1.00  0.00     0.106 CG0
ATOM     16  G   UNL     1      20.891  16.301 -11.559  1.00  0.00     0.000 G0
ENDBRANCH  13  15
ENDBRANCH  12  13
BRANCH  12  17
ATOM     17  C   UNL     1      18.650  19.938 -12.291  1.00  0.00    -0.006 C 
ATOM     18  C   UNL     1      19.883  20.853 -12.385  1.00  0.00     0.008 C 
ATOM     19  C   UNL     1      17.598  20.349 -13.335  1.00  0.00     0.008 C 
ENDBRANCH  12  17
ENDBRANCH  11  12
ENDBRANCH   1  11
TORSDOF 1
ENDMDL
MODEL 2
REMARK VINA RESULT:    15.280      2.081      5.068
REMARK INTER + INTRA:          24.650
REMARK INTER:                  23.440
REMARK INTRA:                   1.210
REMARK UNBOUND:                 1.331
REMARK SMILES CC1=CCC[C@@H](C)C(=O)C[C@@H](C(C)C)C(=O)C1
REMARK SMILES IDX 8 1 9 2 6 3 7 4 5 5 4 6 3 7 2 8 1 9 10 11 11 12 15 13 16 14
REMARK SMILES IDX 17 15 12 17 13 18 14 19
REMARK H PARENT
REMARK Flexibility Score: 70.00
ROOT
ATOM      1  C   UNL     1      21.435  18.078 -12.128  1.00  0.00     0.136 C 
ATOM      2  O   UNL     1      22.531  17.866 -11.629  1.00  0.00    -0.299 OA
ENDROOT
BRANCH   1   3
ATOM      3  C   UNL     1      21.197  19.428 -12.788  1.00  0.00     0.053 C 
ATOM      4  C   UNL     1      22.228  19.638 -13.902  1.00  0.00     0.016 C 
BRANCH   3   5
ATOM      5  C   UNL     1      21.280  20.576 -11.760  1.00  0.00     0.015 C 
BRANCH   5   6
ATOM      6  C   UNL     1      20.048  21.495 -11.760  1.00  0.00     0.028 C 
BRANCH   6   7
ATOM      7  C   UNL     1      18.985  21.027 -12.726  1.00  0.00    -0.028 C 
ATOM      8  C   UNL     1      17.997  20.137 -12.469  1.00  0.00    -0.070 CG0
ATOM      9  C   UNL     1      17.015  19.845 -13.576  1.00  0.00     0.039 C 
ATOM     10  G   UNL     1      17.836  19.395 -11.152  1.00  0.00     0.000 G0
ENDBRANCH   6   7
ENDBRANCH   5   6
ENDBRANCH   3   5
ENDBRANCH   1   3
BRANCH   1  11
ATOM     11  C   UNL     1      20.420  16.950 -12.064  1.00  0.00     0.087 C 
BRANCH  11  12
ATOM     12  C   UNL     1      18.952  17.294 -12.445  1.00  0.00     0.066 C 
BRANCH  12  13
ATOM     13  C   UNL     1      18.105  17.893 -11.323  1.00  0.00     0.140 C 
ATOM     14  O   UNL     1      17.647  17.121 -10.492  1.00  0.00    -0.299 OA
BRANCH  13  15
ATOM     15  C   UNL     1      17.834  19.373 -11.141  1.00  0.00     0.106 CG0
ATOM     16  G   UNL     1      17.986  20.124 -12.454  1.00  0.00     0.000 G0
ENDBRANCH  13  15
ENDBRANCH  12  13
BRANCH  12  17
ATOM     17  C   UNL     1      18.191  16.081 -13.071  1.00  0.00    -0.006 C 
ATOM     18  C   UNL     1      18.951  14.755 -12.908  1.00  0.00     0.008 C 
ATOM     19  C   UNL     1      16.751  15.940 -12.552  1.00  0.00     0.008 C 
ENDBRANCH  12  17
ENDBRANCH  11  12
ENDBRANCH   1  11
TORSDOF 1
ENDMDL
MODEL 3
REMARK VINA RESULT:    15.374      1.389      4.178
REMARK INTER + INTRA:          24.794
REMARK INTER:                  22.748
REMARK INTRA:                   2.046
REMARK UNBOUND:                 1.331
REMARK SMILES CC1=CCC[C@@H](C)C(=O)C[C@@H](C(C)C)C(=O)C1
REMARK SMILES IDX 8 1 9 2 6 3 7 4 5 5 4 6 3 7 2 8 1 9 10 11 11 12 15 13 16 14
REMARK SMILES IDX 17 15 12 17 13 18 14 19
REMARK H PARENT
REMARK Flexibility Score: 70.00
ROOT
ATOM      1  C   UNL     1      18.353  19.009 -11.894  1.00  0.00     0.136 C 
ATOM      2  O   UNL     1      18.056  18.756 -10.735  1.00  0.00    -0.299 OA
ENDROOT
BRANCH   1   3
ATOM      3  C   UNL     1      18.768  20.433 -12.233  1.00  0.00     0.053 C 
ATOM      4  C   UNL     1      17.999  20.905 -13.471  1.00  0.00     0.016 C 
BRANCH   3   5
ATOM      5  C   UNL     1      20.288  20.530 -12.480  1.00  0.00     0.015 C 
BRANCH   5   6
ATOM      6  C   UNL     1      21.137  19.933 -11.347  1.00  0.00     0.028 C 
BRANCH   6   7
ATOM      7  C   UNL     1      22.128  18.911 -11.852  1.00  0.00    -0.028 C 
ATOM      8  C   UNL     1      22.022  17.565 -11.749  1.00  0.00    -0.070 CG0
ATOM      9  C   UNL     1      23.115  16.729 -12.367  1.00  0.00     0.039 C 
ATOM     10  G   UNL     1      20.892  16.849 -11.027  1.00  0.00     0.000 G0
ENDBRANCH   6   7
ENDBRANCH   5   6
ENDBRANCH   3   5
ENDBRANCH   1   3
BRANCH   1  11
ATOM     11  C   UNL     1      18.304  17.860 -12.885  1.00  0.00     0.087 C 
BRANCH  11  12
ATOM     12  C   UNL     1      18.547  16.430 -12.325  1.00  0.00     0.066 C 
BRANCH  12  13
ATOM     13  C   UNL     1      20.004  16.080 -12.025  1.00  0.00     0.140 C 
ATOM     14  O   UNL     1      20.501  15.155 -12.653  1.00  0.00    -0.299 OA
BRANCH  13  15
ATOM     15  C   UNL     1      20.887  16.826 -11.045  1.00  0.00     0.106 CG0
ATOM     16  G   UNL     1      22.029  17.528 -11.761  1.00  0.00     0.000 G0
ENDBRANCH  13  15
ENDBRANCH  12  13
BRANCH  12  17
ATOM     17  C   UNL     1      17.927  15.315 -13.228  1.00  0.00    -0.006 C 
ATOM     18  C   UNL     1      18.764  14.025 -13.237  1.00  0.00     0.008 C 
ATOM     19  C   UNL     1      16.463  15.001 -12.881  1.00  0.00     0.008 C 
ENDBRANCH  12  17
ENDBRANCH  11  12
ENDBRANCH   1  11
TORSDOF 1
ENDMDL
MODEL 4
REMARK VINA RESULT:    15.684      1.797      3.414
REMARK INTER + INTRA:          25.266
REMARK INTER:                  23.651
REMARK INTRA:                   1.615
REMARK UNBOUND:                 1.331
REMARK SMILES CC1=CCC[C@@H](C)C(=O)C[C@@H](C(C)C)C(=O)C1
REMARK SMILES IDX 8 1 9 2 6 3 7 4 5 5 4 6 3 7 2 8 1 9 10 11 11 12 15 13 16 14
REMARK SMILES IDX 17 15 12 17 13 18 14 19
REMARK H PARENT
REMARK Flexibility Score: 70.00
ROOT
ATOM      1  C   UNL     1      21.331  17.396 -11.693  1.00  0.00     0.136 C 
ATOM      2  O   UNL     1      22.548  17.341 -11.807  1.00  0.00    -0.299 OA
ENDROOT
BRANCH   1   3
ATOM      3  C   UNL     1      20.609  16.180 -11.130  1.00  0.00     0.053 C 
ATOM      4  C   UNL     1      21.054  15.952  -9.681  1.00  0.00     0.016 C 
BRANCH   3   5
ATOM      5  C   UNL     1      20.887  14.921 -11.978  1.00  0.00     0.015 C 
BRANCH   5   6
ATOM      6  C   UNL     1      20.049  14.846 -13.264  1.00  0.00     0.028 C 
BRANCH   6   7
ATOM      7  C   UNL     1      18.575  14.681 -12.977  1.00  0.00    -0.028 C 
ATOM      8  C   UNL     1      17.648  15.666 -12.924  1.00  0.00    -0.070 CG0
ATOM      9  C   UNL     1      16.218  15.266 -12.661  1.00  0.00     0.039 C 
ATOM     10  G   UNL     1      17.963  17.145 -13.080  1.00  0.00     0.000 G0
ENDBRANCH   6   7
ENDBRANCH   5   6
ENDBRANCH   3   5
ENDBRANCH   1   3
BRANCH   1  11
ATOM     11  C   UNL     1      20.658  18.694 -12.102  1.00  0.00     0.087 C 
BRANCH  11  12
ATOM     12  C   UNL     1      19.226  18.954 -11.555  1.00  0.00     0.066 C 
BRANCH  12  13
ATOM     13  C   UNL     1      18.223  17.823 -11.774  1.00  0.00     0.140 C 
ATOM     14  O   UNL     1      17.560  17.464 -10.810  1.00  0.00    -0.299 OA
BRANCH  13  15
ATOM     15  C   UNL     1      17.958  17.149 -13.105  1.00  0.00     0.106 CG0
ATOM     16  G   UNL     1      17.643  15.673 -12.919  1.00  0.00     0.000 G0
ENDBRANCH  13  15
ENDBRANCH  12  13
BRANCH  12  17
ATOM     17  C   UNL     1      18.613  20.292 -12.081  1.00  0.00    -0.006 C 
ATOM     18  C   UNL     1      19.685  21.334 -12.444  1.00  0.00     0.008 C 
ATOM     19  C   UNL     1      17.643  20.090 -13.257  1.00  0.00     0.008 C 
ENDBRANCH  12  17
ENDBRANCH  11  12
ENDBRANCH   1  11
TORSDOF 1
ENDMDL
MODEL 5
REMARK VINA RESULT:    16.223      1.904      4.945
REMARK INTER + INTRA:          26.090
REMARK INTER:                  25.070
REMARK INTRA:                   1.019
REMARK UNBOUND:                 1.331
REMARK SMILES CC1=CCC[C@@H](C)C(=O)C[C@@H](C(C)C)C(=O)C1
REMARK SMILES IDX 8 1 9 2 6 3 7 4 5 5 4 6 3 7 2 8 1 9 10 11 11 12 15 13 16 14
REMARK SMILES IDX 17 15 12 17 13 18 14 19
REMARK H PARENT
REMARK Flexibility Score: 70.00
ROOT
ATOM      1  C   UNL     1      20.854  16.420 -11.141  1.00  0.00     0.136 C 
ATOM      2  O   UNL     1      21.047  16.228  -9.949  1.00  0.00    -0.299 OA
ENDROOT
BRANCH   1   3
ATOM      3  C   UNL     1      21.638  17.530 -11.825  1.00  0.00     0.053 C 
ATOM      4  C   UNL     1      23.124  17.394 -11.472  1.00  0.00     0.016 C 
BRANCH   3   5
ATOM      5  C   UNL     1      21.117  18.923 -11.409  1.00  0.00     0.015 C 
BRANCH   5   6
ATOM      6  C   UNL     1      20.877  19.871 -12.595  1.00  0.00     0.028 C 
BRANCH   6   7
ATOM      7  C   UNL     1      19.497  20.484 -12.567  1.00  0.00    -0.028 C 
ATOM      8  C   UNL     1      18.356  19.925 -13.036  1.00  0.00    -0.070 CG0
ATOM      9  C   UNL     1      17.075  20.702 -12.864  1.00  0.00     0.039 C 
ATOM     10  G   UNL     1      18.292  18.584 -13.749  1.00  0.00     0.000 G0
ENDBRANCH   6   7
ENDBRANCH   5   6
ENDBRANCH   3   5
ENDBRANCH   1   3
BRANCH   1  11
ATOM     11  C   UNL     1      19.861  15.504 -11.834  1.00  0.00     0.087 C 
BRANCH  11  12
ATOM     12  C   UNL     1      19.046  16.105 -13.015  1.00  0.00     0.066 C 
BRANCH  12  13
ATOM     13  C   UNL     1      18.370  17.445 -12.732  1.00  0.00     0.140 C 
ATOM     14  O   UNL     1      17.912  17.619 -11.610  1.00  0.00    -0.299 OA
BRANCH  13  15
ATOM     15  C   UNL     1      18.269  18.588 -13.722  1.00  0.00     0.106 CG0
ATOM     16  G   UNL     1      18.335  19.933 -13.015  1.00  0.00     0.000 G0
ENDBRANCH  13  15
ENDBRANCH  12  13
BRANCH  12  17
ATOM     17  C   UNL     1      17.988  15.107 -13.586  1.00  0.00    -0.006 C 
ATOM     18  C   UNL     1      18.377  13.636 -13.363  1.00  0.00     0.008 C 
ATOM     19  C   UNL     1      16.566  15.369 -13.062  1.00  0.00     0.008 C 
ENDBRANCH  12  17
ENDBRANCH  11  12
ENDBRANCH   1  11
TORSDOF 1
ENDMDL
MODEL 6
REMARK VINA RESULT:    16.629      1.969      3.403
REMARK INTER + INTRA:          26.709
REMARK INTER:                  25.232
REMARK INTRA:                   1.477
REMARK UNBOUND:                 1.331
REMARK SMILES CC1=CCC[C@@H](C)C(=O)C[C@@H](C(C)C)C(=O)C1
REMARK SMILES IDX 8 1 9 2 6 3 7 4 5 5 4 6 3 7 2 8 1 9 10 11 11 12 15 13 16 14
REMARK SMILES IDX 17 15 12 17 13 18 14 19
REMARK H PARENT
REMARK Flexibility Score: 70.00
ROOT
ATOM      1  C   UNL     1      20.093  15.801 -12.165  1.00  0.00     0.136 C 
ATOM      2  O   UNL     1      21.006  15.531 -11.396  1.00  0.00    -0.299 OA
ENDROOT
BRANCH   1   3
ATOM      3  C   UNL     1      19.241  14.658 -12.695  1.00  0.00     0.053 C 
ATOM      4  C   UNL     1      20.120  13.418 -12.892  1.00  0.00     0.016 C 
BRANCH   3   5
ATOM      5  C   UNL     1      18.554  15.040 -14.024  1.00  0.00     0.015 C 
BRANCH   5   6
ATOM      6  C   UNL     1      17.194  14.353 -14.235  1.00  0.00     0.028 C 
BRANCH   6   7
ATOM      7  C   UNL     1      16.349  14.363 -12.983  1.00  0.00    -0.028 C 
ATOM      8  C   UNL     1      16.048  15.441 -12.222  1.00  0.00    -0.070 CG0
ATOM      9  C   UNL     1      15.146  15.226 -11.032  1.00  0.00     0.039 C 
ATOM     10  G   UNL     1      16.584  16.842 -12.472  1.00  0.00     0.000 G0
ENDBRANCH   6   7
ENDBRANCH   5   6
ENDBRANCH   3   5
ENDBRANCH   1   3
BRANCH   1  11
ATOM     11  C   UNL     1      19.881  17.268 -12.495  1.00  0.00     0.087 C 
BRANCH  11  12
ATOM     12  C   UNL     1      18.862  18.052 -11.622  1.00  0.00     0.066 C 
BRANCH  12  13
ATOM     13  C   UNL     1      17.528  17.348 -11.377  1.00  0.00     0.140 C 
ATOM     14  O   UNL     1      17.183  17.187 -10.214  1.00  0.00    -0.299 OA
BRANCH  13  15
ATOM     15  C   UNL     1      16.585  16.881 -12.466  1.00  0.00     0.106 CG0
ATOM     16  G   UNL     1      16.085  15.472 -12.191  1.00  0.00     0.000 G0
ENDBRANCH  13  15
ENDBRANCH  12  13
BRANCH  12  17
ATOM     17  C   UNL     1      18.590  19.494 -12.160  1.00  0.00    -0.006 C 
ATOM     18  C   UNL     1      19.841  20.387 -12.126  1.00  0.00     0.008 C 
ATOM     19  C   UNL     1      17.963  19.506 -13.564  1.00  0.00     0.008 C 
ENDBRANCH  12  17
ENDBRANCH  11  12
ENDBRANCH   1  11
TORSDOF 1
ENDMDL
MODEL 7
REMARK VINA RESULT:    16.828      2.124      3.169
REMARK INTER + INTRA:          27.013
REMARK INTER:                  25.938
REMARK INTRA:                   1.075
REMARK UNBOUND:                 1.331
REMARK SMILES CC1=CCC[C@@H](C)C(=O)C[C@@H](C(C)C)C(=O)C1
REMARK SMILES IDX 8 1 9 2 6 3 7 4 5 5 4 6 3 7 2 8 1 9 10 11 11 12 15 13 16 14
REMARK SMILES IDX 17 15 12 17 13 18 14 19
REMARK H PARENT
REMARK Flexibility Score: 70.00
ROOT
ATOM      1  C   UNL     1      18.692  15.871 -12.872  1.00  0.00     0.136 C 
ATOM      2  O   UNL     1      19.759  15.705 -12.296  1.00  0.00    -0.299 OA
ENDROOT
BRANCH   1   3
ATOM      3  C   UNL     1      17.959  14.643 -13.391  1.00  0.00     0.053 C 
ATOM      4  C   UNL     1      17.895  14.700 -14.921  1.00  0.00     0.016 C 
BRANCH   3   5
ATOM      5  C   UNL     1      16.536  14.549 -12.801  1.00  0.00     0.015 C 
BRANCH   5   6
ATOM      6  C   UNL     1      15.964  15.903 -12.350  1.00  0.00     0.028 C 
BRANCH   6   7
ATOM      7  C   UNL     1      15.481  15.872 -10.919  1.00  0.00    -0.028 C 
ATOM      8  C   UNL     1      16.177  16.259  -9.825  1.00  0.00    -0.070 CG0
ATOM      9  C   UNL     1      15.480  16.181  -8.489  1.00  0.00     0.039 C 
ATOM     10  G   UNL     1      17.621  16.734  -9.854  1.00  0.00     0.000 G0
ENDBRANCH   6   7
ENDBRANCH   5   6
ENDBRANCH   3   5
ENDBRANCH   1   3
BRANCH   1  11
ATOM     11  C   UNL     1      18.187  17.299 -12.988  1.00  0.00     0.087 C 
BRANCH  11  12
ATOM     12  C   UNL     1      18.579  18.284 -11.851  1.00  0.00     0.066 C 
BRANCH  12  13
ATOM     13  C   UNL     1      17.852  18.078 -10.523  1.00  0.00     0.140 C 
ATOM     14  O   UNL     1      17.353  19.063  -9.996  1.00  0.00    -0.299 OA
BRANCH  13  15
ATOM     15  C   UNL     1      17.665  16.738  -9.840  1.00  0.00     0.106 CG0
ATOM     16  G   UNL     1      16.201  16.328  -9.828  1.00  0.00     0.000 G0
ENDBRANCH  13  15
ENDBRANCH  12  13
BRANCH  12  17
ATOM     17  C   UNL     1      18.449  19.782 -12.279  1.00  0.00    -0.006 C 
ATOM     18  C   UNL     1      19.798  20.520 -12.273  1.00  0.00     0.008 C 
ATOM     19  C   UNL     1      17.747  19.963 -13.635  1.00  0.00     0.008 C 
ENDBRANCH  12  17
ENDBRANCH  11  12
ENDBRANCH   1  11
TORSDOF 1
ENDMDL
