MODEL 1
REMARK VINA RESULT:    -6.559      0.000      0.000
REMARK INTER + INTRA:          -8.372
REMARK INTER:                  -7.710
REMARK INTRA:                  -0.663
REMARK UNBOUND:                -0.663
REMARK SMILES C=C(C)[C@H]1CC[C@]2(CO)CC[C@@]3(C)[C@H](CC[C@H]4[C@@]5(C)CC[C@@H](O)C(C)(C)[C@H]5CC[C@@]43C)[C@H]12
REMARK SMILES IDX 4 1 5 2 6 3 7 4 32 5 14 6 15 7 16 8 17 9 18 10 20 11 21 12
REMARK SMILES IDX 22 13 24 14 27 15 28 16 29 17 30 18 12 19 11 20 10 21 13 22
REMARK SMILES IDX 31 23 25 24 26 25 19 26 2 27 3 28 1 29 8 30 9 31 23 33
REMARK H PARENT 9 32 23 34
REMARK Flexibility Score: inf
ROOT
ATOM      1  C   UNL     1      55.699  -5.622  -0.161  1.00  0.00     0.018 C 
ATOM      2  C   UNL     1      57.146  -6.011   0.139  1.00  0.00     0.009 C 
ATOM      3  C   UNL     1      57.465  -7.100  -0.869  1.00  0.00     0.010 C 
ATOM      4  C   UNL     1      56.167  -7.928  -1.029  1.00  0.00    -0.003 C 
ATOM      5  C   UNL     1      55.020  -6.910  -0.708  1.00  0.00     0.008 C 
ATOM      6  C   UNL     1      54.023  -6.655  -1.895  1.00  0.00    -0.000 C 
ATOM      7  C   UNL     1      54.633  -5.741  -3.016  1.00  0.00     0.005 C 
ATOM      8  C   UNL     1      54.054  -5.994  -4.416  1.00  0.00     0.005 C 
ATOM      9  C   UNL     1      52.547  -6.277  -4.291  1.00  0.00     0.002 C 
ATOM     10  C   UNL     1      51.635  -5.829  -5.511  1.00  0.00    -0.026 C 
ATOM     11  C   UNL     1      52.237  -6.274  -6.873  1.00  0.00     0.010 C 
ATOM     12  C   UNL     1      51.407  -5.852  -8.104  1.00  0.00     0.033 C 
ATOM     13  C   UNL     1      49.872  -5.789  -7.870  1.00  0.00     0.120 C 
ATOM     14  C   UNL     1      49.377  -6.727  -6.725  1.00  0.00    -0.006 C 
ATOM     15  C   UNL     1      50.120  -6.330  -5.360  1.00  0.00     0.003 C 
ATOM     16  C   UNL     1      49.776  -7.299  -4.169  1.00  0.00     0.005 C 
ATOM     17  C   UNL     1      50.851  -7.587  -3.103  1.00  0.00     0.008 C 
ATOM     18  C   UNL     1      52.313  -7.692  -3.651  1.00  0.00    -0.024 C 
ATOM     19  C   UNL     1      53.424  -7.998  -2.468  1.00  0.00    -0.024 C 
ATOM     20  C   UNL     1      54.644  -8.914  -2.930  1.00  0.00     0.008 C 
ATOM     21  C   UNL     1      56.067  -8.511  -2.467  1.00  0.00     0.010 C 
ATOM     22  C   UNL     1      52.720  -8.772  -1.308  1.00  0.00     0.012 C 
ATOM     23  C   UNL     1      52.330  -8.844  -4.700  1.00  0.00     0.012 C 
ATOM     24  C   UNL     1      49.551  -8.211  -7.178  1.00  0.00     0.014 C 
ATOM     25  C   UNL     1      47.852  -6.499  -6.540  1.00  0.00     0.014 C 
ATOM     26  C   UNL     1      51.650  -4.253  -5.507  1.00  0.00     0.012 C 
ENDROOT
BRANCH   1  27
ATOM     27  C   UNL     1      54.932  -5.007   1.008  1.00  0.00    -0.077 C 
ATOM     28  C   UNL     1      53.845  -5.764   1.734  1.00  0.00     0.039 C 
ATOM     29  C   UNL     1      55.244  -3.764   1.408  1.00  0.00     0.008 C 
ENDBRANCH   1  27
BRANCH   4  30
ATOM     30  C   UNL     1      56.218  -9.125  -0.024  1.00  0.00     0.163 C 
BRANCH  30  31
ATOM     31  O   UNL     1      55.317  -8.956   1.041  1.00  0.00    -0.396 OA
ATOM     32  H   UNL     1      54.920  -8.051   0.957  1.00  0.00     0.210 HD
ENDBRANCH  30  31
ENDBRANCH   4  30
BRANCH  13  33
ATOM     33  O   UNL     1      49.164  -5.990  -9.074  1.00  0.00    -0.393 OA
ATOM     34  H   UNL     1      49.790  -5.899  -9.838  1.00  0.00     0.210 HD
ENDBRANCH  13  33
TORSDOF 4
ENDMDL
MODEL 2
REMARK VINA RESULT:    -6.179      6.397      8.746
REMARK INTER + INTRA:          -7.926
REMARK INTER:                  -7.305
REMARK INTRA:                  -0.620
REMARK UNBOUND:                -0.663
REMARK SMILES C=C(C)[C@H]1CC[C@]2(CO)CC[C@@]3(C)[C@H](CC[C@H]4[C@@]5(C)CC[C@@H](O)C(C)(C)[C@H]5CC[C@@]43C)[C@H]12
REMARK SMILES IDX 4 1 5 2 6 3 7 4 32 5 14 6 15 7 16 8 17 9 18 10 20 11 21 12
REMARK SMILES IDX 22 13 24 14 27 15 28 16 29 17 30 18 12 19 11 20 10 21 13 22
REMARK SMILES IDX 31 23 25 24 26 25 19 26 2 27 3 28 1 29 8 30 9 31 23 33
REMARK H PARENT 9 32 23 34
REMARK Flexibility Score: inf
ROOT
ATOM      1  C   UNL     1      59.333  -0.053  -1.662  1.00  0.00     0.018 C 
ATOM      2  C   UNL     1      59.260   0.184  -0.154  1.00  0.00     0.009 C 
ATOM      3  C   UNL     1      59.083  -1.201   0.441  1.00  0.00     0.010 C 
ATOM      4  C   UNL     1      58.175  -1.976  -0.545  1.00  0.00    -0.003 C 
ATOM      5  C   UNL     1      58.461  -1.312  -1.934  1.00  0.00     0.008 C 
ATOM      6  C   UNL     1      59.061  -2.286  -3.011  1.00  0.00    -0.000 C 
ATOM      7  C   UNL     1      60.576  -2.611  -2.761  1.00  0.00     0.005 C 
ATOM      8  C   UNL     1      61.021  -3.981  -3.294  1.00  0.00     0.005 C 
ATOM      9  C   UNL     1      60.314  -4.251  -4.633  1.00  0.00     0.002 C 
ATOM     10  C   UNL     1      61.105  -5.132  -5.691  1.00  0.00    -0.026 C 
ATOM     11  C   UNL     1      61.704  -6.410  -5.040  1.00  0.00     0.010 C 
ATOM     12  C   UNL     1      62.505  -7.304  -6.011  1.00  0.00     0.033 C 
ATOM     13  C   UNL     1      61.996  -7.296  -7.480  1.00  0.00     0.120 C 
ATOM     14  C   UNL     1      60.481  -6.948  -7.613  1.00  0.00    -0.006 C 
ATOM     15  C   UNL     1      60.213  -5.502  -6.970  1.00  0.00     0.003 C 
ATOM     16  C   UNL     1      58.689  -5.112  -6.948  1.00  0.00     0.005 C 
ATOM     17  C   UNL     1      58.155  -4.245  -5.791  1.00  0.00     0.008 C 
ATOM     18  C   UNL     1      58.790  -4.544  -4.393  1.00  0.00    -0.024 C 
ATOM     19  C   UNL     1      58.185  -3.586  -3.192  1.00  0.00    -0.024 C 
ATOM     20  C   UNL     1      58.077  -4.298  -1.771  1.00  0.00     0.008 C 
ATOM     21  C   UNL     1      58.518  -3.493  -0.522  1.00  0.00     0.010 C 
ATOM     22  C   UNL     1      56.729  -3.164  -3.573  1.00  0.00     0.012 C 
ATOM     23  C   UNL     1      58.503  -6.040  -4.068  1.00  0.00     0.012 C 
ATOM     24  C   UNL     1      59.639  -8.118  -7.010  1.00  0.00     0.014 C 
ATOM     25  C   UNL     1      60.130  -6.886  -9.125  1.00  0.00     0.014 C 
ATOM     26  C   UNL     1      62.326  -4.253  -6.162  1.00  0.00     0.012 C 
ENDROOT
BRANCH   1  27
ATOM     27  C   UNL     1      58.929   1.138  -2.530  1.00  0.00    -0.077 C 
ATOM     28  C   UNL     1      57.803   2.064  -2.136  1.00  0.00     0.039 C 
ATOM     29  C   UNL     1      59.604   1.372  -3.667  1.00  0.00     0.008 C 
ENDBRANCH   1  27
BRANCH   4  30
ATOM     30  C   UNL     1      56.690  -1.809  -0.084  1.00  0.00     0.163 C 
BRANCH  30  31
ATOM     31  O   UNL     1      55.995  -0.878  -0.876  1.00  0.00    -0.396 OA
ATOM     32  H   UNL     1      55.135  -1.293  -1.140  1.00  0.00     0.210 HD
ENDBRANCH  30  31
ENDBRANCH   4  30
BRANCH  13  33
ATOM     33  O   UNL     1      62.332  -8.496  -8.143  1.00  0.00    -0.393 OA
ATOM     34  H   UNL     1      61.744  -8.603  -8.935  1.00  0.00     0.210 HD
ENDBRANCH  13  33
TORSDOF 4
ENDMDL
MODEL 3
REMARK VINA RESULT:    -6.008      3.562      4.461
REMARK INTER + INTRA:          -7.725
REMARK INTER:                  -7.203
REMARK INTRA:                  -0.521
REMARK UNBOUND:                -0.663
REMARK SMILES C=C(C)[C@H]1CC[C@]2(CO)CC[C@@]3(C)[C@H](CC[C@H]4[C@@]5(C)CC[C@@H](O)C(C)(C)[C@H]5CC[C@@]43C)[C@H]12
REMARK SMILES IDX 4 1 5 2 6 3 7 4 32 5 14 6 15 7 16 8 17 9 18 10 20 11 21 12
REMARK SMILES IDX 22 13 24 14 27 15 28 16 29 17 30 18 12 19 11 20 10 21 13 22
REMARK SMILES IDX 31 23 25 24 26 25 19 26 2 27 3 28 1 29 8 30 9 31 23 33
REMARK H PARENT 9 32 23 34
REMARK Flexibility Score: inf
ROOT
ATOM      1  C   UNL     1      57.794  -1.909  -2.248  1.00  0.00     0.018 C 
ATOM      2  C   UNL     1      59.097  -1.181  -2.578  1.00  0.00     0.009 C 
ATOM      3  C   UNL     1      59.563  -1.808  -3.880  1.00  0.00     0.010 C 
ATOM      4  C   UNL     1      59.192  -3.307  -3.789  1.00  0.00    -0.003 C 
ATOM      5  C   UNL     1      57.948  -3.339  -2.839  1.00  0.00     0.008 C 
ATOM      6  C   UNL     1      56.638  -3.904  -3.498  1.00  0.00    -0.000 C 
ATOM      7  C   UNL     1      55.964  -2.884  -4.483  1.00  0.00     0.005 C 
ATOM      8  C   UNL     1      55.155  -3.542  -5.611  1.00  0.00     0.005 C 
ATOM      9  C   UNL     1      54.425  -4.774  -5.050  1.00  0.00     0.002 C 
ATOM     10  C   UNL     1      53.033  -5.143  -5.718  1.00  0.00    -0.026 C 
ATOM     11  C   UNL     1      53.118  -5.128  -7.270  1.00  0.00     0.010 C 
ATOM     12  C   UNL     1      51.790  -5.459  -7.984  1.00  0.00     0.033 C 
ATOM     13  C   UNL     1      50.868  -6.454  -7.225  1.00  0.00     0.120 C 
ATOM     14  C   UNL     1      51.640  -7.411  -6.264  1.00  0.00    -0.006 C 
ATOM     15  C   UNL     1      52.448  -6.538  -5.187  1.00  0.00     0.003 C 
ATOM     16  C   UNL     1      53.356  -7.411  -4.245  1.00  0.00     0.005 C 
ATOM     17  C   UNL     1      54.685  -6.823  -3.731  1.00  0.00     0.008 C 
ATOM     18  C   UNL     1      55.452  -5.927  -4.759  1.00  0.00    -0.024 C 
ATOM     19  C   UNL     1      56.866  -5.320  -4.156  1.00  0.00    -0.024 C 
ATOM     20  C   UNL     1      58.032  -5.173  -5.231  1.00  0.00     0.008 C 
ATOM     21  C   UNL     1      58.883  -3.878  -5.203  1.00  0.00     0.010 C 
ATOM     22  C   UNL     1      57.407  -6.301  -3.067  1.00  0.00     0.012 C 
ATOM     23  C   UNL     1      55.748  -6.808  -6.008  1.00  0.00     0.012 C 
ATOM     24  C   UNL     1      52.504  -8.393  -7.117  1.00  0.00     0.014 C 
ATOM     25  C   UNL     1      50.599  -8.282  -5.510  1.00  0.00     0.014 C 
ATOM     26  C   UNL     1      52.038  -3.990  -5.312  1.00  0.00     0.012 C 
ENDROOT
BRANCH   1  27
ATOM     27  C   UNL     1      57.413  -1.925  -0.768  1.00  0.00    -0.077 C 
ATOM     28  C   UNL     1      56.502  -0.879  -0.170  1.00  0.00     0.039 C 
ATOM     29  C   UNL     1      57.892  -2.905   0.016  1.00  0.00     0.008 C 
ENDBRANCH   1  27
BRANCH   4  30
ATOM     30  C   UNL     1      60.420  -4.085  -3.211  1.00  0.00     0.163 C 
BRANCH  30  31
ATOM     31  O   UNL     1      61.638  -3.471  -3.550  1.00  0.00    -0.396 OA
ATOM     32  H   UNL     1      61.620  -2.549  -3.186  1.00  0.00     0.210 HD
ENDBRANCH  30  31
ENDBRANCH   4  30
BRANCH  13  33
ATOM     33  O   UNL     1      50.027  -7.153  -8.118  1.00  0.00    -0.393 OA
ATOM     34  H   UNL     1      49.451  -7.773  -7.601  1.00  0.00     0.210 HD
ENDBRANCH  13  33
TORSDOF 4
ENDMDL
MODEL 4
REMARK VINA RESULT:    -5.963      3.143      3.917
REMARK INTER + INTRA:          -7.671
REMARK INTER:                  -7.023
REMARK INTRA:                  -0.649
REMARK UNBOUND:                -0.663
REMARK SMILES C=C(C)[C@H]1CC[C@]2(CO)CC[C@@]3(C)[C@H](CC[C@H]4[C@@]5(C)CC[C@@H](O)C(C)(C)[C@H]5CC[C@@]43C)[C@H]12
REMARK SMILES IDX 4 1 5 2 6 3 7 4 32 5 14 6 15 7 16 8 17 9 18 10 20 11 21 12
REMARK SMILES IDX 22 13 24 14 27 15 28 16 29 17 30 18 12 19 11 20 10 21 13 22
REMARK SMILES IDX 31 23 25 24 26 25 19 26 2 27 3 28 1 29 8 30 9 31 23 33
REMARK H PARENT 9 32 23 34
REMARK Flexibility Score: inf
ROOT
ATOM      1  C   UNL     1      57.838  -2.045  -2.693  1.00  0.00     0.018 C 
ATOM      2  C   UNL     1      59.245  -1.653  -3.143  1.00  0.00     0.009 C 
ATOM      3  C   UNL     1      59.584  -2.645  -4.241  1.00  0.00     0.010 C 
ATOM      4  C   UNL     1      58.958  -3.992  -3.807  1.00  0.00    -0.003 C 
ATOM      5  C   UNL     1      57.735  -3.580  -2.921  1.00  0.00     0.008 C 
ATOM      6  C   UNL     1      56.341  -4.053  -3.471  1.00  0.00    -0.000 C 
ATOM      7  C   UNL     1      55.848  -3.201  -4.693  1.00  0.00     0.005 C 
ATOM      8  C   UNL     1      54.927  -3.962  -5.658  1.00  0.00     0.005 C 
ATOM      9  C   UNL     1      53.997  -4.879  -4.845  1.00  0.00     0.002 C 
ATOM     10  C   UNL     1      52.557  -5.153  -5.454  1.00  0.00    -0.026 C 
ATOM     11  C   UNL     1      52.631  -5.527  -6.960  1.00  0.00     0.010 C 
ATOM     12  C   UNL     1      51.260  -5.788  -7.620  1.00  0.00     0.033 C 
ATOM     13  C   UNL     1      50.184  -6.398  -6.678  1.00  0.00     0.120 C 
ATOM     14  C   UNL     1      50.785  -7.212  -5.490  1.00  0.00    -0.006 C 
ATOM     15  C   UNL     1      51.742  -6.257  -4.626  1.00  0.00     0.003 C 
ATOM     16  C   UNL     1      52.491  -7.020  -3.472  1.00  0.00     0.005 C 
ATOM     17  C   UNL     1      53.906  -6.563  -3.067  1.00  0.00     0.008 C 
ATOM     18  C   UNL     1      54.810  -6.086  -4.252  1.00  0.00    -0.024 C 
ATOM     19  C   UNL     1      56.312  -5.604  -3.763  1.00  0.00    -0.024 C 
ATOM     20  C   UNL     1      57.477  -5.922  -4.802  1.00  0.00     0.008 C 
ATOM     21  C   UNL     1      58.543  -4.825  -5.053  1.00  0.00     0.010 C 
ATOM     22  C   UNL     1      56.682  -6.371  -2.453  1.00  0.00     0.012 C 
ATOM     23  C   UNL     1      54.937  -7.279  -5.244  1.00  0.00     0.012 C 
ATOM     24  C   UNL     1      51.457  -8.504  -6.054  1.00  0.00     0.014 C 
ATOM     25  C   UNL     1      49.613  -7.683  -4.586  1.00  0.00     0.014 C 
ATOM     26  C   UNL     1      51.783  -3.783  -5.369  1.00  0.00     0.012 C 
ENDROOT
BRANCH   1  27
ATOM     27  C   UNL     1      57.472  -1.638  -1.267  1.00  0.00    -0.077 C 
ATOM     28  C   UNL     1      57.160  -2.663  -0.202  1.00  0.00     0.039 C 
ATOM     29  C   UNL     1      57.441  -0.333  -0.951  1.00  0.00     0.008 C 
ENDBRANCH   1  27
BRANCH   4  30
ATOM     30  C   UNL     1      60.035  -4.806  -3.019  1.00  0.00     0.163 C 
BRANCH  30  31
ATOM     31  O   UNL     1      59.764  -4.840  -1.640  1.00  0.00    -0.396 OA
ATOM     32  H   UNL     1      59.739  -5.791  -1.362  1.00  0.00     0.210 HD
ENDBRANCH  30  31
ENDBRANCH   4  30
BRANCH  13  33
ATOM     33  O   UNL     1      49.227  -7.135  -7.406  1.00  0.00    -0.393 OA
ATOM     34  H   UNL     1      49.311  -8.095  -7.172  1.00  0.00     0.210 HD
ENDBRANCH  13  33
TORSDOF 4
ENDMDL
MODEL 5
REMARK VINA RESULT:    -5.821      3.733      4.850
REMARK INTER + INTRA:          -7.504
REMARK INTER:                  -7.005
REMARK INTRA:                  -0.498
REMARK UNBOUND:                -0.663
REMARK SMILES C=C(C)[C@H]1CC[C@]2(CO)CC[C@@]3(C)[C@H](CC[C@H]4[C@@]5(C)CC[C@@H](O)C(C)(C)[C@H]5CC[C@@]43C)[C@H]12
REMARK SMILES IDX 4 1 5 2 6 3 7 4 32 5 14 6 15 7 16 8 17 9 18 10 20 11 21 12
REMARK SMILES IDX 22 13 24 14 27 15 28 16 29 17 30 18 12 19 11 20 10 21 13 22
REMARK SMILES IDX 31 23 25 24 26 25 19 26 2 27 3 28 1 29 8 30 9 31 23 33
REMARK H PARENT 9 32 23 34
REMARK Flexibility Score: inf
ROOT
ATOM      1  C   UNL     1      57.943  -1.508  -1.921  1.00  0.00     0.018 C 
ATOM      2  C   UNL     1      59.178  -0.673  -2.256  1.00  0.00     0.009 C 
ATOM      3  C   UNL     1      59.738  -1.308  -3.516  1.00  0.00     0.010 C 
ATOM      4  C   UNL     1      59.510  -2.831  -3.363  1.00  0.00    -0.003 C 
ATOM      5  C   UNL     1      58.249  -2.941  -2.441  1.00  0.00     0.008 C 
ATOM      6  C   UNL     1      57.018  -3.659  -3.102  1.00  0.00    -0.000 C 
ATOM      7  C   UNL     1      56.276  -2.754  -4.149  1.00  0.00     0.005 C 
ATOM      8  C   UNL     1      55.564  -3.537  -5.262  1.00  0.00     0.005 C 
ATOM      9  C   UNL     1      54.941  -4.808  -4.661  1.00  0.00     0.002 C 
ATOM     10  C   UNL     1      53.609  -5.339  -5.342  1.00  0.00    -0.026 C 
ATOM     11  C   UNL     1      53.734  -5.386  -6.891  1.00  0.00     0.010 C 
ATOM     12  C   UNL     1      52.464  -5.876  -7.618  1.00  0.00     0.033 C 
ATOM     13  C   UNL     1      51.622  -6.921  -6.834  1.00  0.00     0.120 C 
ATOM     14  C   UNL     1      52.456  -7.754  -5.812  1.00  0.00    -0.006 C 
ATOM     15  C   UNL     1      53.147  -6.760  -4.760  1.00  0.00     0.003 C 
ATOM     16  C   UNL     1      54.109  -7.497  -3.757  1.00  0.00     0.005 C 
ATOM     17  C   UNL     1      55.361  -6.761  -3.241  1.00  0.00     0.008 C 
ATOM     18  C   UNL     1      56.066  -5.841  -4.292  1.00  0.00    -0.024 C 
ATOM     19  C   UNL     1      57.398  -5.075  -3.687  1.00  0.00    -0.024 C 
ATOM     20  C   UNL     1      58.573  -4.863  -4.741  1.00  0.00     0.008 C 
ATOM     21  C   UNL     1      59.296  -3.492  -4.754  1.00  0.00     0.010 C 
ATOM     22  C   UNL     1      58.001  -5.949  -2.540  1.00  0.00     0.012 C 
ATOM     23  C   UNL     1      56.479  -6.745  -5.492  1.00  0.00     0.012 C 
ATOM     24  C   UNL     1      53.433  -8.685  -6.598  1.00  0.00     0.014 C 
ATOM     25  C   UNL     1      51.483  -8.687  -5.041  1.00  0.00     0.014 C 
ATOM     26  C   UNL     1      52.498  -4.271  -5.013  1.00  0.00     0.012 C 
ENDROOT
BRANCH   1  27
ATOM     27  C   UNL     1      57.525  -1.494  -0.451  1.00  0.00    -0.077 C 
ATOM     28  C   UNL     1      58.400  -2.082   0.631  1.00  0.00     0.039 C 
ATOM     29  C   UNL     1      56.353  -0.931  -0.114  1.00  0.00     0.008 C 
ENDBRANCH   1  27
BRANCH   4  30
ATOM     30  C   UNL     1      60.790  -3.459  -2.721  1.00  0.00     0.163 C 
BRANCH  30  31
ATOM     31  O   UNL     1      61.875  -3.471  -3.615  1.00  0.00    -0.396 OA
ATOM     32  H   UNL     1      61.720  -2.755  -4.283  1.00  0.00     0.210 HD
ENDBRANCH  30  31
ENDBRANCH   4  30
BRANCH  13  33
ATOM     33  O   UNL     1      50.876  -7.737  -7.712  1.00  0.00    -0.393 OA
ATOM     34  H   UNL     1      51.468  -8.051  -8.443  1.00  0.00     0.210 HD
ENDBRANCH  13  33
TORSDOF 4
ENDMDL
MODEL 6
REMARK VINA RESULT:    -5.688      2.880      7.949
REMARK INTER + INTRA:          -7.348
REMARK INTER:                  -6.699
REMARK INTRA:                  -0.650
REMARK UNBOUND:                -0.663
REMARK SMILES C=C(C)[C@H]1CC[C@]2(CO)CC[C@@]3(C)[C@H](CC[C@H]4[C@@]5(C)CC[C@@H](O)C(C)(C)[C@H]5CC[C@@]43C)[C@H]12
REMARK SMILES IDX 4 1 5 2 6 3 7 4 32 5 14 6 15 7 16 8 17 9 18 10 20 11 21 12
REMARK SMILES IDX 22 13 24 14 27 15 28 16 29 17 30 18 12 19 11 20 10 21 13 22
REMARK SMILES IDX 31 23 25 24 26 25 19 26 2 27 3 28 1 29 8 30 9 31 23 33
REMARK H PARENT 9 32 23 34
REMARK Flexibility Score: inf
ROOT
ATOM      1  C   UNL     1      50.552  -7.399  -5.076  1.00  0.00     0.018 C 
ATOM      2  C   UNL     1      49.939  -8.500  -5.941  1.00  0.00     0.009 C 
ATOM      3  C   UNL     1      51.014  -8.827  -6.961  1.00  0.00     0.010 C 
ATOM      4  C   UNL     1      51.700  -7.483  -7.304  1.00  0.00    -0.003 C 
ATOM      5  C   UNL     1      51.518  -6.617  -6.011  1.00  0.00     0.008 C 
ATOM      6  C   UNL     1      52.862  -6.181  -5.324  1.00  0.00    -0.000 C 
ATOM      7  C   UNL     1      53.554  -7.353  -4.542  1.00  0.00     0.005 C 
ATOM      8  C   UNL     1      55.082  -7.228  -4.445  1.00  0.00     0.005 C 
ATOM      9  C   UNL     1      55.450  -5.748  -4.238  1.00  0.00     0.002 C 
ATOM     10  C   UNL     1      56.761  -5.452  -3.393  1.00  0.00    -0.026 C 
ATOM     11  C   UNL     1      57.957  -6.327  -3.862  1.00  0.00     0.010 C 
ATOM     12  C   UNL     1      59.261  -6.103  -3.067  1.00  0.00     0.033 C 
ATOM     13  C   UNL     1      59.465  -4.656  -2.538  1.00  0.00     0.120 C 
ATOM     14  C   UNL     1      58.723  -3.572  -3.381  1.00  0.00    -0.006 C 
ATOM     15  C   UNL     1      57.152  -3.898  -3.392  1.00  0.00     0.003 C 
ATOM     16  C   UNL     1      56.330  -2.927  -4.319  1.00  0.00     0.005 C 
ATOM     17  C   UNL     1      55.085  -3.465  -5.049  1.00  0.00     0.008 C 
ATOM     18  C   UNL     1      55.204  -4.938  -5.562  1.00  0.00    -0.024 C 
ATOM     19  C   UNL     1      53.842  -5.465  -6.333  1.00  0.00    -0.024 C 
ATOM     20  C   UNL     1      54.114  -6.471  -7.539  1.00  0.00     0.008 C 
ATOM     21  C   UNL     1      53.195  -7.712  -7.668  1.00  0.00     0.010 C 
ATOM     22  C   UNL     1      53.112  -4.233  -6.957  1.00  0.00     0.012 C 
ATOM     23  C   UNL     1      56.416  -4.989  -6.539  1.00  0.00     0.012 C 
ATOM     24  C   UNL     1      59.399  -3.476  -4.786  1.00  0.00     0.014 C 
ATOM     25  C   UNL     1      58.936  -2.196  -2.695  1.00  0.00     0.014 C 
ATOM     26  C   UNL     1      56.434  -5.893  -1.916  1.00  0.00     0.012 C 
ENDROOT
BRANCH   1  27
ATOM     27  C   UNL     1      49.549  -6.485  -4.374  1.00  0.00    -0.077 C 
ATOM     28  C   UNL     1      48.899  -6.871  -3.067  1.00  0.00     0.039 C 
ATOM     29  C   UNL     1      49.249  -5.300  -4.931  1.00  0.00     0.008 C 
ENDBRANCH   1  27
BRANCH   4  30
ATOM     30  C   UNL     1      50.987  -6.870  -8.553  1.00  0.00     0.163 C 
BRANCH  30  31
ATOM     31  O   UNL     1      50.215  -5.743  -8.218  1.00  0.00    -0.396 OA
ATOM     32  H   UNL     1      50.840  -4.990  -8.056  1.00  0.00     0.210 HD
ENDBRANCH  30  31
ENDBRANCH   4  30
BRANCH  13  33
ATOM     33  O   UNL     1      60.835  -4.361  -2.371  1.00  0.00    -0.393 OA
ATOM     34  H   UNL     1      60.944  -3.383  -2.248  1.00  0.00     0.210 HD
ENDBRANCH  13  33
TORSDOF 4
ENDMDL
MODEL 7
REMARK VINA RESULT:    -5.478      4.581      6.451
REMARK INTER + INTRA:          -7.102
REMARK INTER:                  -6.611
REMARK INTRA:                  -0.491
REMARK UNBOUND:                -0.663
REMARK SMILES C=C(C)[C@H]1CC[C@]2(CO)CC[C@@]3(C)[C@H](CC[C@H]4[C@@]5(C)CC[C@@H](O)C(C)(C)[C@H]5CC[C@@]43C)[C@H]12
REMARK SMILES IDX 4 1 5 2 6 3 7 4 32 5 14 6 15 7 16 8 17 9 18 10 20 11 21 12
REMARK SMILES IDX 22 13 24 14 27 15 28 16 29 17 30 18 12 19 11 20 10 21 13 22
REMARK SMILES IDX 31 23 25 24 26 25 19 26 2 27 3 28 1 29 8 30 9 31 23 33
REMARK H PARENT 9 32 23 34
REMARK Flexibility Score: inf
ROOT
ATOM      1  C   UNL     1      58.387  -2.147   0.246  1.00  0.00     0.018 C 
ATOM      2  C   UNL     1      59.049  -0.834   0.659  1.00  0.00     0.009 C 
ATOM      3  C   UNL     1      59.629  -0.278  -0.629  1.00  0.00     0.010 C 
ATOM      4  C   UNL     1      60.133  -1.500  -1.433  1.00  0.00    -0.003 C 
ATOM      5  C   UNL     1      59.215  -2.677  -0.958  1.00  0.00     0.008 C 
ATOM      6  C   UNL     1      58.348  -3.328  -2.096  1.00  0.00    -0.000 C 
ATOM      7  C   UNL     1      57.127  -2.435  -2.516  1.00  0.00     0.005 C 
ATOM      8  C   UNL     1      56.676  -2.632  -3.971  1.00  0.00     0.005 C 
ATOM      9  C   UNL     1      56.788  -4.124  -4.331  1.00  0.00     0.002 C 
ATOM     10  C   UNL     1      55.746  -4.680  -5.391  1.00  0.00    -0.026 C 
ATOM     11  C   UNL     1      55.635  -3.751  -6.632  1.00  0.00     0.010 C 
ATOM     12  C   UNL     1      54.621  -4.226  -7.695  1.00  0.00     0.033 C 
ATOM     13  C   UNL     1      54.469  -5.768  -7.813  1.00  0.00     0.120 C 
ATOM     14  C   UNL     1      55.735  -6.557  -7.356  1.00  0.00    -0.006 C 
ATOM     15  C   UNL     1      56.064  -6.190  -5.829  1.00  0.00     0.003 C 
ATOM     16  C   UNL     1      57.398  -6.845  -5.313  1.00  0.00     0.005 C 
ATOM     17  C   UNL     1      58.252  -6.088  -4.278  1.00  0.00     0.008 C 
ATOM     18  C   UNL     1      58.298  -4.536  -4.467  1.00  0.00    -0.024 C 
ATOM     19  C   UNL     1      59.224  -3.775  -3.330  1.00  0.00    -0.024 C 
ATOM     20  C   UNL     1      60.000  -2.490  -3.864  1.00  0.00     0.008 C 
ATOM     21  C   UNL     1      60.022  -1.231  -2.960  1.00  0.00     0.010 C 
ATOM     22  C   UNL     1      60.324  -4.767  -2.835  1.00  0.00     0.012 C 
ATOM     23  C   UNL     1      58.878  -4.262  -5.887  1.00  0.00     0.012 C 
ATOM     24  C   UNL     1      56.889  -6.292  -8.375  1.00  0.00     0.014 C 
ATOM     25  C   UNL     1      55.415  -8.075  -7.439  1.00  0.00     0.014 C 
ATOM     26  C   UNL     1      54.341  -4.646  -4.678  1.00  0.00     0.012 C 
ENDROOT
BRANCH   1  27
ATOM     27  C   UNL     1      58.242  -3.183   1.359  1.00  0.00    -0.077 C 
ATOM     28  C   UNL     1      57.155  -4.232   1.335  1.00  0.00     0.039 C 
ATOM     29  C   UNL     1      59.115  -3.168   2.380  1.00  0.00     0.008 C 
ENDBRANCH   1  27
BRANCH   4  30
ATOM     30  C   UNL     1      61.642  -1.728  -1.090  1.00  0.00     0.163 C 
BRANCH  30  31
ATOM     31  O   UNL     1      62.313  -0.518  -0.843  1.00  0.00    -0.396 OA
ATOM     32  H   UNL     1      61.878   0.183  -1.391  1.00  0.00     0.210 HD
ENDBRANCH  30  31
ENDBRANCH   4  30
BRANCH  13  33
ATOM     33  O   UNL     1      54.039  -6.142  -9.104  1.00  0.00    -0.393 OA
ATOM     34  H   UNL     1      54.447  -5.530  -9.770  1.00  0.00     0.210 HD
ENDBRANCH  13  33
TORSDOF 4
ENDMDL
MODEL 8
REMARK VINA RESULT:    -5.337      6.053      8.135
REMARK INTER + INTRA:          -6.935
REMARK INTER:                  -6.421
REMARK INTRA:                  -0.515
REMARK UNBOUND:                -0.663
REMARK SMILES C=C(C)[C@H]1CC[C@]2(CO)CC[C@@]3(C)[C@H](CC[C@H]4[C@@]5(C)CC[C@@H](O)C(C)(C)[C@H]5CC[C@@]43C)[C@H]12
REMARK SMILES IDX 4 1 5 2 6 3 7 4 32 5 14 6 15 7 16 8 17 9 18 10 20 11 21 12
REMARK SMILES IDX 22 13 24 14 27 15 28 16 29 17 30 18 12 19 11 20 10 21 13 22
REMARK SMILES IDX 31 23 25 24 26 25 19 26 2 27 3 28 1 29 8 30 9 31 23 33
REMARK H PARENT 9 32 23 34
REMARK Flexibility Score: inf
ROOT
ATOM      1  C   UNL     1      56.481  -3.066   0.744  1.00  0.00     0.018 C 
ATOM      2  C   UNL     1      56.360  -1.766   1.537  1.00  0.00     0.009 C 
ATOM      3  C   UNL     1      57.496  -0.900   1.023  1.00  0.00     0.010 C 
ATOM      4  C   UNL     1      58.679  -1.861   0.757  1.00  0.00    -0.003 C 
ATOM      5  C   UNL     1      57.995  -3.232   0.432  1.00  0.00     0.008 C 
ATOM      6  C   UNL     1      58.296  -3.786  -1.007  1.00  0.00    -0.000 C 
ATOM      7  C   UNL     1      57.502  -3.030  -2.130  1.00  0.00     0.005 C 
ATOM      8  C   UNL     1      58.200  -3.022  -3.497  1.00  0.00     0.005 C 
ATOM      9  C   UNL     1      58.876  -4.386  -3.722  1.00  0.00     0.002 C 
ATOM     10  C   UNL     1      58.979  -4.891  -5.223  1.00  0.00    -0.026 C 
ATOM     11  C   UNL     1      59.507  -3.777  -6.170  1.00  0.00     0.010 C 
ATOM     12  C   UNL     1      59.613  -4.197  -7.651  1.00  0.00     0.033 C 
ATOM     13  C   UNL     1      59.951  -5.696  -7.885  1.00  0.00     0.120 C 
ATOM     14  C   UNL     1      60.729  -6.352  -6.702  1.00  0.00    -0.006 C 
ATOM     15  C   UNL     1      59.855  -6.226  -5.362  1.00  0.00     0.003 C 
ATOM     16  C   UNL     1      60.609  -6.753  -4.085  1.00  0.00     0.005 C 
ATOM     17  C   UNL     1      60.342  -6.079  -2.726  1.00  0.00     0.008 C 
ATOM     18  C   UNL     1      60.131  -4.530  -2.787  1.00  0.00    -0.024 C 
ATOM     19  C   UNL     1      59.845  -3.859  -1.305  1.00  0.00    -0.024 C 
ATOM     20  C   UNL     1      60.442  -2.394  -1.118  1.00  0.00     0.008 C 
ATOM     21  C   UNL     1      59.555  -1.335  -0.415  1.00  0.00     0.010 C 
ATOM     22  C   UNL     1      60.528  -4.744  -0.214  1.00  0.00     0.012 C 
ATOM     23  C   UNL     1      61.421  -3.913  -3.404  1.00  0.00     0.012 C 
ATOM     24  C   UNL     1      62.160  -5.729  -6.632  1.00  0.00     0.014 C 
ATOM     25  C   UNL     1      60.920  -7.859  -7.025  1.00  0.00     0.014 C 
ATOM     26  C   UNL     1      57.503  -5.205  -5.678  1.00  0.00     0.012 C 
ENDROOT
BRANCH   1  27
ATOM     27  C   UNL     1      55.883  -4.300   1.418  1.00  0.00    -0.077 C 
ATOM     28  C   UNL     1      56.751  -5.418   1.946  1.00  0.00     0.039 C 
ATOM     29  C   UNL     1      54.550  -4.384   1.556  1.00  0.00     0.008 C 
ENDBRANCH   1  27
BRANCH   4  30
ATOM     30  C   UNL     1      59.571  -1.914   2.041  1.00  0.00     0.163 C 
BRANCH  30  31
ATOM     31  O   UNL     1      60.439  -0.812   2.124  1.00  0.00    -0.396 OA
ATOM     32  H   UNL     1      60.965  -0.908   2.959  1.00  0.00     0.210 HD
ENDBRANCH  30  31
ENDBRANCH   4  30
BRANCH  13  33
ATOM     33  O   UNL     1      60.598  -5.886  -9.125  1.00  0.00    -0.393 OA
ATOM     34  H   UNL     1      61.413  -6.434  -8.984  1.00  0.00     0.210 HD
ENDBRANCH  13  33
TORSDOF 4
ENDMDL
MODEL 9
REMARK VINA RESULT:    -5.280      7.354      9.310
REMARK INTER + INTRA:          -6.869
REMARK INTER:                  -6.271
REMARK INTRA:                  -0.597
REMARK UNBOUND:                -0.663
REMARK SMILES C=C(C)[C@H]1CC[C@]2(CO)CC[C@@]3(C)[C@H](CC[C@H]4[C@@]5(C)CC[C@@H](O)C(C)(C)[C@H]5CC[C@@]43C)[C@H]12
REMARK SMILES IDX 4 1 5 2 6 3 7 4 32 5 14 6 15 7 16 8 17 9 18 10 20 11 21 12
REMARK SMILES IDX 22 13 24 14 27 15 28 16 29 17 30 18 12 19 11 20 10 21 13 22
REMARK SMILES IDX 31 23 25 24 26 25 19 26 2 27 3 28 1 29 8 30 9 31 23 33
REMARK H PARENT 9 32 23 34
REMARK Flexibility Score: inf
ROOT
ATOM      1  C   UNL     1      61.576  -7.098   4.286  1.00  0.00     0.018 C 
ATOM      2  C   UNL     1      61.846  -8.602   4.274  1.00  0.00     0.009 C 
ATOM      3  C   UNL     1      61.193  -9.096   2.995  1.00  0.00     0.010 C 
ATOM      4  C   UNL     1      59.902  -8.260   2.825  1.00  0.00    -0.003 C 
ATOM      5  C   UNL     1      60.223  -6.906   3.544  1.00  0.00     0.008 C 
ATOM      6  C   UNL     1      60.178  -5.644   2.609  1.00  0.00    -0.000 C 
ATOM      7  C   UNL     1      61.431  -5.538   1.670  1.00  0.00     0.005 C 
ATOM      8  C   UNL     1      61.164  -4.804   0.347  1.00  0.00     0.005 C 
ATOM      9  C   UNL     1      60.211  -3.626   0.612  1.00  0.00     0.002 C 
ATOM     10  C   UNL     1      60.379  -2.351  -0.320  1.00  0.00    -0.026 C 
ATOM     11  C   UNL     1      60.473  -2.744  -1.820  1.00  0.00     0.010 C 
ATOM     12  C   UNL     1      60.658  -1.550  -2.781  1.00  0.00     0.033 C 
ATOM     13  C   UNL     1      59.978  -0.229  -2.323  1.00  0.00     0.120 C 
ATOM     14  C   UNL     1      58.753  -0.451  -1.383  1.00  0.00    -0.006 C 
ATOM     15  C   UNL     1      59.227  -1.262  -0.081  1.00  0.00     0.003 C 
ATOM     16  C   UNL     1      58.036  -1.641   0.874  1.00  0.00     0.005 C 
ATOM     17  C   UNL     1      58.106  -2.957   1.673  1.00  0.00     0.008 C 
ATOM     18  C   UNL     1      58.764  -4.156   0.914  1.00  0.00    -0.024 C 
ATOM     19  C   UNL     1      58.817  -5.539   1.817  1.00  0.00    -0.024 C 
ATOM     20  C   UNL     1      58.640  -6.882   0.978  1.00  0.00     0.008 C 
ATOM     21  C   UNL     1      59.569  -8.075   1.317  1.00  0.00     0.010 C 
ATOM     22  C   UNL     1      57.637  -5.514   2.841  1.00  0.00     0.012 C 
ATOM     23  C   UNL     1      57.925  -4.401  -0.375  1.00  0.00     0.012 C 
ATOM     24  C   UNL     1      57.601  -1.113  -2.204  1.00  0.00     0.014 C 
ATOM     25  C   UNL     1      58.231   0.940  -0.932  1.00  0.00     0.014 C 
ATOM     26  C   UNL     1      61.767  -1.712   0.066  1.00  0.00     0.012 C 
ENDROOT
BRANCH   1  27
ATOM     27  C   UNL     1      61.585  -6.444   5.667  1.00  0.00    -0.077 C 
ATOM     28  C   UNL     1      61.647  -4.945   5.837  1.00  0.00     0.039 C 
ATOM     29  C   UNL     1      61.522  -7.227   6.757  1.00  0.00     0.008 C 
ENDBRANCH   1  27
BRANCH   4  30
ATOM     30  C   UNL     1      58.719  -9.038   3.490  1.00  0.00     0.163 C 
BRANCH  30  31
ATOM     31  O   UNL     1      58.326  -8.456   4.708  1.00  0.00    -0.396 OA
ATOM     32  H   UNL     1      58.923  -7.683   4.876  1.00  0.00     0.210 HD
ENDBRANCH  30  31
ENDBRANCH   4  30
BRANCH  13  33
ATOM     33  O   UNL     1      59.667   0.594  -3.427  1.00  0.00    -0.393 OA
ATOM     34  H   UNL     1      59.138   1.371  -3.111  1.00  0.00     0.210 HD
ENDBRANCH  13  33
TORSDOF 4
ENDMDL
