MODEL 1
REMARK VINA RESULT:    -4.030      0.000      0.000
REMARK INTER + INTRA:          -5.674
REMARK INTER:                  -5.090
REMARK INTRA:                  -0.584
REMARK UNBOUND:                -0.584
REMARK SMILES Oc1ccc(CCc2cc(O)cc(O)c2)cc1
REMARK SMILES IDX 6 1 5 2 4 3 3 4 2 5 16 6 17 7 1 8 7 10 8 11 15 12 9 13 13 14
REMARK SMILES IDX 10 15 12 16 14 17 11 19
REMARK H PARENT 1 9 14 18 11 20
REMARK Flexibility Score: inf
ROOT
ATOM      1  C   UNL     1      78.888   4.235  63.008  1.00  0.00     0.040 C 
ENDROOT
BRANCH   1   2
ATOM      2  C   UNL     1      78.027   5.463  62.884  1.00  0.00    -0.047 A 
ATOM      3  C   UNL     1      77.902   6.352  63.964  1.00  0.00     0.007 A 
ATOM      4  C   UNL     1      77.127   7.509  63.838  1.00  0.00     0.046 A 
ATOM      5  C   UNL     1      76.480   7.795  62.628  1.00  0.00     0.115 A 
ATOM      6  C   UNL     1      77.386   5.760  61.670  1.00  0.00     0.007 A 
ATOM      7  C   UNL     1      76.613   6.918  61.547  1.00  0.00     0.046 A 
BRANCH   5   8
ATOM      8  O   UNL     1      75.706   8.944  62.491  1.00  0.00    -0.508 OA
ATOM      9  H   UNL     1      74.840   9.064  63.005  1.00  0.00     0.293 HD
ENDBRANCH   5   8
ENDBRANCH   1   2
BRANCH   1  10
ATOM     10  C   UNL     1      78.152   3.137  63.783  1.00  0.00     0.040 C 
BRANCH  10  11
ATOM     11  C   UNL     1      78.744   2.971  65.156  1.00  0.00    -0.040 A 
ATOM     12  C   UNL     1      80.126   3.123  65.354  1.00  0.00     0.050 A 
ATOM     13  C   UNL     1      77.913   2.722  66.260  1.00  0.00     0.050 A 
ATOM     14  C   UNL     1      80.674   3.002  66.638  1.00  0.00     0.119 A 
ATOM     15  C   UNL     1      78.457   2.601  67.543  1.00  0.00     0.119 A 
ATOM     16  C   UNL     1      79.840   2.738  67.729  1.00  0.00     0.092 A 
BRANCH  14  17
ATOM     17  O   UNL     1      82.045   3.143  66.841  1.00  0.00    -0.508 OA
ATOM     18  H   UNL     1      82.415   3.562  67.687  1.00  0.00     0.293 HD
ENDBRANCH  14  17
BRANCH  15  19
ATOM     19  O   UNL     1      77.618   2.345  68.625  1.00  0.00    -0.508 OA
ATOM     20  H   UNL     1      77.144   1.456  68.729  1.00  0.00     0.293 HD
ENDBRANCH  15  19
ENDBRANCH  10  11
ENDBRANCH   1  10
TORSDOF 6
ENDMDL
MODEL 2
REMARK VINA RESULT:    -3.965      0.749      2.488
REMARK INTER + INTRA:          -5.592
REMARK INTER:                  -4.964
REMARK INTRA:                  -0.628
REMARK UNBOUND:                -0.584
REMARK SMILES Oc1ccc(CCc2cc(O)cc(O)c2)cc1
REMARK SMILES IDX 6 1 5 2 4 3 3 4 2 5 16 6 17 7 1 8 7 10 8 11 15 12 9 13 13 14
REMARK SMILES IDX 10 15 12 16 14 17 11 19
REMARK H PARENT 1 9 14 18 11 20
REMARK Flexibility Score: inf
ROOT
ATOM      1  C   UNL     1      76.795   3.499  63.521  1.00  0.00     0.040 C 
ENDROOT
BRANCH   1   2
ATOM      2  C   UNL     1      76.950   4.961  63.203  1.00  0.00    -0.047 A 
ATOM      3  C   UNL     1      76.981   5.395  61.867  1.00  0.00     0.007 A 
ATOM      4  C   UNL     1      77.093   6.758  61.572  1.00  0.00     0.046 A 
ATOM      5  C   UNL     1      77.164   7.699  62.607  1.00  0.00     0.115 A 
ATOM      6  C   UNL     1      77.009   5.910  64.236  1.00  0.00     0.007 A 
ATOM      7  C   UNL     1      77.121   7.271  63.938  1.00  0.00     0.046 A 
BRANCH   5   8
ATOM      8  O   UNL     1      77.276   9.058  62.326  1.00  0.00    -0.508 OA
ATOM      9  H   UNL     1      76.458   9.653  62.252  1.00  0.00     0.293 HD
ENDBRANCH   5   8
ENDBRANCH   1   2
BRANCH   1  10
ATOM     10  C   UNL     1      78.163   2.813  63.582  1.00  0.00     0.040 C 
BRANCH  10  11
ATOM     11  C   UNL     1      78.709   2.843  64.984  1.00  0.00    -0.040 A 
ATOM     12  C   UNL     1      77.855   2.643  66.080  1.00  0.00     0.050 A 
ATOM     13  C   UNL     1      80.086   3.013  65.204  1.00  0.00     0.050 A 
ATOM     14  C   UNL     1      78.368   2.637  67.384  1.00  0.00     0.119 A 
ATOM     15  C   UNL     1      80.600   3.008  66.505  1.00  0.00     0.119 A 
ATOM     16  C   UNL     1      79.738   2.823  67.594  1.00  0.00     0.092 A 
BRANCH  14  17
ATOM     17  O   UNL     1      77.526   2.447  68.477  1.00  0.00    -0.508 OA
ATOM     18  H   UNL     1      77.599   3.022  69.308  1.00  0.00     0.293 HD
ENDBRANCH  14  17
BRANCH  15  19
ATOM     19  O   UNL     1      81.967   3.186  66.704  1.00  0.00    -0.508 OA
ATOM     20  H   UNL     1      82.590   3.407  65.936  1.00  0.00     0.293 HD
ENDBRANCH  15  19
ENDBRANCH  10  11
ENDBRANCH   1  10
TORSDOF 6
ENDMDL
MODEL 3
REMARK VINA RESULT:    -3.931      3.682      4.435
REMARK INTER + INTRA:          -5.549
REMARK INTER:                  -5.013
REMARK INTRA:                  -0.536
REMARK UNBOUND:                -0.584
REMARK SMILES Oc1ccc(CCc2cc(O)cc(O)c2)cc1
REMARK SMILES IDX 6 1 5 2 4 3 3 4 2 5 16 6 17 7 1 8 7 10 8 11 15 12 9 13 13 14
REMARK SMILES IDX 10 15 12 16 14 17 11 19
REMARK H PARENT 1 9 14 18 11 20
REMARK Flexibility Score: inf
ROOT
ATOM      1  C   UNL     1      79.958   4.074  60.813  1.00  0.00     0.040 C 
ENDROOT
BRANCH   1   2
ATOM      2  C   UNL     1      80.801   5.174  60.225  1.00  0.00    -0.047 A 
ATOM      3  C   UNL     1      80.275   6.012  59.227  1.00  0.00     0.007 A 
ATOM      4  C   UNL     1      81.047   7.053  58.703  1.00  0.00     0.046 A 
ATOM      5  C   UNL     1      82.347   7.275  59.179  1.00  0.00     0.115 A 
ATOM      6  C   UNL     1      82.098   5.408  60.707  1.00  0.00     0.007 A 
ATOM      7  C   UNL     1      82.868   6.450  60.182  1.00  0.00     0.046 A 
BRANCH   5   8
ATOM      8  O   UNL     1      83.125   8.309  58.665  1.00  0.00    -0.508 OA
ATOM      9  H   UNL     1      83.210   8.461  57.667  1.00  0.00     0.293 HD
ENDBRANCH   5   8
ENDBRANCH   1   2
BRANCH   1  10
ATOM     10  C   UNL     1      78.722   4.655  61.506  1.00  0.00     0.040 C 
BRANCH  10  11
ATOM     11  C   UNL     1      78.679   4.237  62.951  1.00  0.00    -0.040 A 
ATOM     12  C   UNL     1      79.858   3.855  63.612  1.00  0.00     0.050 A 
ATOM     13  C   UNL     1      77.471   4.281  63.665  1.00  0.00     0.050 A 
ATOM     14  C   UNL     1      79.824   3.498  64.967  1.00  0.00     0.119 A 
ATOM     15  C   UNL     1      77.435   3.924  65.017  1.00  0.00     0.119 A 
ATOM     16  C   UNL     1      78.613   3.529  65.665  1.00  0.00     0.092 A 
BRANCH  14  17
ATOM     17  O   UNL     1      80.988   3.110  65.628  1.00  0.00    -0.508 OA
ATOM     18  H   UNL     1      81.532   3.769  66.172  1.00  0.00     0.293 HD
ENDBRANCH  14  17
BRANCH  15  19
ATOM     19  O   UNL     1      76.225   3.967  65.707  1.00  0.00    -0.508 OA
ATOM     20  H   UNL     1      75.972   3.249  66.375  1.00  0.00     0.293 HD
ENDBRANCH  15  19
ENDBRANCH  10  11
ENDBRANCH   1  10
TORSDOF 6
ENDMDL
MODEL 4
REMARK VINA RESULT:    -3.915      9.847     12.287
REMARK INTER + INTRA:          -5.529
REMARK INTER:                  -4.899
REMARK INTRA:                  -0.630
REMARK UNBOUND:                -0.584
REMARK SMILES Oc1ccc(CCc2cc(O)cc(O)c2)cc1
REMARK SMILES IDX 6 1 5 2 4 3 3 4 2 5 16 6 17 7 1 8 7 10 8 11 15 12 9 13 13 14
REMARK SMILES IDX 10 15 12 16 14 17 11 19
REMARK H PARENT 1 9 14 18 11 20
REMARK Flexibility Score: inf
ROOT
ATOM      1  C   UNL     1      80.480   3.390  55.582  1.00  0.00     0.040 C 
ENDROOT
BRANCH   1   2
ATOM      2  C   UNL     1      81.095   4.749  55.778  1.00  0.00    -0.047 A 
ATOM      3  C   UNL     1      80.455   5.894  55.274  1.00  0.00     0.007 A 
ATOM      4  C   UNL     1      81.011   7.160  55.483  1.00  0.00     0.046 A 
ATOM      5  C   UNL     1      82.204   7.295  56.207  1.00  0.00     0.115 A 
ATOM      6  C   UNL     1      82.283   4.891  56.512  1.00  0.00     0.007 A 
ATOM      7  C   UNL     1      82.836   6.158  56.720  1.00  0.00     0.046 A 
BRANCH   5   8
ATOM      8  O   UNL     1      82.767   8.551  56.421  1.00  0.00    -0.508 OA
ATOM      9  H   UNL     1      83.091   9.124  55.651  1.00  0.00     0.293 HD
ENDBRANCH   5   8
ENDBRANCH   1   2
BRANCH   1  10
ATOM     10  C   UNL     1      79.394   3.440  54.503  1.00  0.00     0.040 C 
BRANCH  10  11
ATOM     11  C   UNL     1      79.945   2.997  53.175  1.00  0.00    -0.040 A 
ATOM     12  C   UNL     1      79.544   3.641  51.993  1.00  0.00     0.050 A 
ATOM     13  C   UNL     1      80.908   1.976  53.113  1.00  0.00     0.050 A 
ATOM     14  C   UNL     1      80.083   3.252  50.759  1.00  0.00     0.119 A 
ATOM     15  C   UNL     1      81.446   1.586  51.882  1.00  0.00     0.119 A 
ATOM     16  C   UNL     1      81.029   2.223  50.705  1.00  0.00     0.092 A 
BRANCH  14  17
ATOM     17  O   UNL     1      79.685   3.880  49.581  1.00  0.00    -0.508 OA
ATOM     18  H   UNL     1      78.738   3.797  49.231  1.00  0.00     0.293 HD
ENDBRANCH  14  17
BRANCH  15  19
ATOM     19  O   UNL     1      82.394   0.567  51.839  1.00  0.00    -0.508 OA
ATOM     20  H   UNL     1      82.460  -0.062  51.047  1.00  0.00     0.293 HD
ENDBRANCH  15  19
ENDBRANCH  10  11
ENDBRANCH   1  10
TORSDOF 6
ENDMDL
MODEL 5
REMARK VINA RESULT:    -3.870      9.874     12.292
REMARK INTER + INTRA:          -5.472
REMARK INTER:                  -4.837
REMARK INTRA:                  -0.635
REMARK UNBOUND:                -0.584
REMARK SMILES Oc1ccc(CCc2cc(O)cc(O)c2)cc1
REMARK SMILES IDX 6 1 5 2 4 3 3 4 2 5 16 6 17 7 1 8 7 10 8 11 15 12 9 13 13 14
REMARK SMILES IDX 10 15 12 16 14 17 11 19
REMARK H PARENT 1 9 14 18 11 20
REMARK Flexibility Score: inf
ROOT
ATOM      1  C   UNL     1      80.297   3.417  55.517  1.00  0.00     0.040 C 
ENDROOT
BRANCH   1   2
ATOM      2  C   UNL     1      80.955   4.752  55.736  1.00  0.00    -0.047 A 
ATOM      3  C   UNL     1      80.340   5.928  55.274  1.00  0.00     0.007 A 
ATOM      4  C   UNL     1      80.937   7.172  55.505  1.00  0.00     0.046 A 
ATOM      5  C   UNL     1      82.146   7.253  56.210  1.00  0.00     0.115 A 
ATOM      6  C   UNL     1      82.159   4.840  56.452  1.00  0.00     0.007 A 
ATOM      7  C   UNL     1      82.752   6.084  56.682  1.00  0.00     0.046 A 
BRANCH   5   8
ATOM      8  O   UNL     1      82.749   8.486  56.447  1.00  0.00    -0.508 OA
ATOM      9  H   UNL     1      83.753   8.571  56.559  1.00  0.00     0.293 HD
ENDBRANCH   5   8
ENDBRANCH   1   2
BRANCH   1  10
ATOM     10  C   UNL     1      79.293   3.494  54.363  1.00  0.00     0.040 C 
BRANCH  10  11
ATOM     11  C   UNL     1      79.936   3.067  53.071  1.00  0.00    -0.040 A 
ATOM     12  C   UNL     1      80.863   2.012  53.058  1.00  0.00     0.050 A 
ATOM     13  C   UNL     1      79.572   3.681  51.862  1.00  0.00     0.050 A 
ATOM     14  C   UNL     1      81.437   1.591  51.851  1.00  0.00     0.119 A 
ATOM     15  C   UNL     1      80.144   3.262  50.656  1.00  0.00     0.119 A 
ATOM     16  C   UNL     1      81.080   2.219  50.653  1.00  0.00     0.092 A 
BRANCH  14  17
ATOM     17  O   UNL     1      82.363   0.550  51.830  1.00  0.00    -0.508 OA
ATOM     18  H   UNL     1      82.190  -0.302  51.310  1.00  0.00     0.293 HD
ENDBRANCH  14  17
BRANCH  15  19
ATOM     19  O   UNL     1      79.776   3.888  49.467  1.00  0.00    -0.508 OA
ATOM     20  H   UNL     1      79.826   3.406  48.577  1.00  0.00     0.293 HD
ENDBRANCH  15  19
ENDBRANCH  10  11
ENDBRANCH   1  10
TORSDOF 6
ENDMDL
MODEL 6
REMARK VINA RESULT:    -3.853      3.082      4.206
REMARK INTER + INTRA:          -5.450
REMARK INTER:                  -4.905
REMARK INTRA:                  -0.546
REMARK UNBOUND:                -0.584
REMARK SMILES Oc1ccc(CCc2cc(O)cc(O)c2)cc1
REMARK SMILES IDX 6 1 5 2 4 3 3 4 2 5 16 6 17 7 1 8 7 10 8 11 15 12 9 13 13 14
REMARK SMILES IDX 10 15 12 16 14 17 11 19
REMARK H PARENT 1 9 14 18 11 20
REMARK Flexibility Score: inf
ROOT
ATOM      1  C   UNL     1      79.234   2.384  62.191  1.00  0.00     0.040 C 
ENDROOT
BRANCH   1   2
ATOM      2  C   UNL     1      80.273   3.040  61.322  1.00  0.00    -0.047 A 
ATOM      3  C   UNL     1      81.026   2.273  60.417  1.00  0.00     0.007 A 
ATOM      4  C   UNL     1      81.970   2.888  59.588  1.00  0.00     0.046 A 
ATOM      5  C   UNL     1      82.161   4.275  59.646  1.00  0.00     0.115 A 
ATOM      6  C   UNL     1      80.460   4.431  61.367  1.00  0.00     0.007 A 
ATOM      7  C   UNL     1      81.403   5.042  60.537  1.00  0.00     0.046 A 
BRANCH   5   8
ATOM      8  O   UNL     1      83.098   4.898  58.825  1.00  0.00    -0.508 OA
ATOM      9  H   UNL     1      83.155   5.908  58.759  1.00  0.00     0.293 HD
ENDBRANCH   5   8
ENDBRANCH   1   2
BRANCH   1  10
ATOM     10  C   UNL     1      78.537   3.423  63.074  1.00  0.00     0.040 C 
BRANCH  10  11
ATOM     11  C   UNL     1      78.863   3.190  64.524  1.00  0.00    -0.040 A 
ATOM     12  C   UNL     1      80.199   3.200  64.959  1.00  0.00     0.050 A 
ATOM     13  C   UNL     1      77.834   3.018  65.464  1.00  0.00     0.050 A 
ATOM     14  C   UNL     1      80.503   3.016  66.315  1.00  0.00     0.119 A 
ATOM     15  C   UNL     1      78.134   2.835  66.817  1.00  0.00     0.119 A 
ATOM     16  C   UNL     1      79.470   2.831  67.241  1.00  0.00     0.092 A 
BRANCH  14  17
ATOM     17  O   UNL     1      81.825   3.017  66.753  1.00  0.00    -0.508 OA
ATOM     18  H   UNL     1      82.593   2.838  66.117  1.00  0.00     0.293 HD
ENDBRANCH  14  17
BRANCH  15  19
ATOM     19  O   UNL     1      77.100   2.659  67.733  1.00  0.00    -0.508 OA
ATOM     20  H   UNL     1      76.530   3.437  68.046  1.00  0.00     0.293 HD
ENDBRANCH  15  19
ENDBRANCH  10  11
ENDBRANCH   1  10
TORSDOF 6
ENDMDL
MODEL 7
REMARK VINA RESULT:    -3.797      2.237      6.810
REMARK INTER + INTRA:          -5.380
REMARK INTER:                  -4.828
REMARK INTRA:                  -0.552
REMARK UNBOUND:                -0.584
REMARK SMILES Oc1ccc(CCc2cc(O)cc(O)c2)cc1
REMARK SMILES IDX 6 1 5 2 4 3 3 4 2 5 16 6 17 7 1 8 7 10 8 11 15 12 9 13 13 14
REMARK SMILES IDX 10 15 12 16 14 17 11 19
REMARK H PARENT 1 9 14 18 11 20
REMARK Flexibility Score: inf
ROOT
ATOM      1  C   UNL     1      79.436   2.395  64.435  1.00  0.00     0.040 C 
ENDROOT
BRANCH   1   2
ATOM      2  C   UNL     1      80.087   1.865  65.684  1.00  0.00    -0.047 A 
ATOM      3  C   UNL     1      80.203   0.479  65.887  1.00  0.00     0.007 A 
ATOM      4  C   UNL     1      80.836  -0.013  67.033  1.00  0.00     0.046 A 
ATOM      5  C   UNL     1      81.369   0.873  67.980  1.00  0.00     0.115 A 
ATOM      6  C   UNL     1      80.633   2.747  66.629  1.00  0.00     0.007 A 
ATOM      7  C   UNL     1      81.265   2.253  67.773  1.00  0.00     0.046 A 
BRANCH   5   8
ATOM      8  O   UNL     1      82.001   0.395  69.124  1.00  0.00    -0.508 OA
ATOM      9  H   UNL     1      81.552   0.432  70.032  1.00  0.00     0.293 HD
ENDBRANCH   5   8
ENDBRANCH   1   2
BRANCH   1  10
ATOM     10  C   UNL     1      79.762   3.880  64.247  1.00  0.00     0.040 C 
BRANCH  10  11
ATOM     11  C   UNL     1      78.500   4.699  64.216  1.00  0.00    -0.040 A 
ATOM     12  C   UNL     1      77.277   4.129  64.605  1.00  0.00     0.050 A 
ATOM     13  C   UNL     1      78.545   6.055  63.855  1.00  0.00     0.050 A 
ATOM     14  C   UNL     1      76.107   4.900  64.609  1.00  0.00     0.119 A 
ATOM     15  C   UNL     1      77.379   6.827  63.859  1.00  0.00     0.119 A 
ATOM     16  C   UNL     1      76.159   6.247  64.233  1.00  0.00     0.092 A 
BRANCH  14  17
ATOM     17  O   UNL     1      74.888   4.340  64.985  1.00  0.00    -0.508 OA
ATOM     18  H   UNL     1      74.009   4.802  64.785  1.00  0.00     0.293 HD
ENDBRANCH  14  17
BRANCH  15  19
ATOM     19  O   UNL     1      77.441   8.169  63.490  1.00  0.00    -0.508 OA
ATOM     20  H   UNL     1      78.327   8.650  63.387  1.00  0.00     0.293 HD
ENDBRANCH  15  19
ENDBRANCH  10  11
ENDBRANCH   1  10
TORSDOF 6
ENDMDL
MODEL 8
REMARK VINA RESULT:    -3.731      3.006      4.566
REMARK INTER + INTRA:          -5.297
REMARK INTER:                  -4.721
REMARK INTRA:                  -0.576
REMARK UNBOUND:                -0.584
REMARK SMILES Oc1ccc(CCc2cc(O)cc(O)c2)cc1
REMARK SMILES IDX 6 1 5 2 4 3 3 4 2 5 16 6 17 7 1 8 7 10 8 11 15 12 9 13 13 14
REMARK SMILES IDX 10 15 12 16 14 17 11 19
REMARK H PARENT 1 9 14 18 11 20
REMARK Flexibility Score: inf
ROOT
ATOM      1  C   UNL     1      78.882   2.708  62.206  1.00  0.00     0.040 C 
ENDROOT
BRANCH   1   2
ATOM      2  C   UNL     1      79.982   3.195  61.301  1.00  0.00    -0.047 A 
ATOM      3  C   UNL     1      80.296   4.563  61.243  1.00  0.00     0.007 A 
ATOM      4  C   UNL     1      81.339   5.012  60.426  1.00  0.00     0.046 A 
ATOM      5  C   UNL     1      82.084   4.097  59.669  1.00  0.00     0.115 A 
ATOM      6  C   UNL     1      80.739   2.282  60.550  1.00  0.00     0.007 A 
ATOM      7  C   UNL     1      81.781   2.733  59.735  1.00  0.00     0.046 A 
BRANCH   5   8
ATOM      8  O   UNL     1      83.125   4.532  58.852  1.00  0.00    -0.508 OA
ATOM      9  H   UNL     1      83.217   4.209  57.896  1.00  0.00     0.293 HD
ENDBRANCH   5   8
ENDBRANCH   1   2
BRANCH   1  10
ATOM     10  C   UNL     1      78.439   3.820  63.162  1.00  0.00     0.040 C 
BRANCH  10  11
ATOM     11  C   UNL     1      78.790   3.467  64.583  1.00  0.00    -0.040 A 
ATOM     12  C   UNL     1      77.784   3.087  65.486  1.00  0.00     0.050 A 
ATOM     13  C   UNL     1      80.131   3.459  65.000  1.00  0.00     0.050 A 
ATOM     14  C   UNL     1      78.113   2.726  66.800  1.00  0.00     0.119 A 
ATOM     15  C   UNL     1      80.462   3.100  66.310  1.00  0.00     0.119 A 
ATOM     16  C   UNL     1      79.450   2.736  67.210  1.00  0.00     0.092 A 
BRANCH  14  17
ATOM     17  O   UNL     1      77.121   2.355  67.704  1.00  0.00    -0.508 OA
ATOM     18  H   UNL     1      77.275   1.625  68.389  1.00  0.00     0.293 HD
ENDBRANCH  14  17
BRANCH  15  19
ATOM     19  O   UNL     1      81.797   3.105  66.709  1.00  0.00    -0.508 OA
ATOM     20  H   UNL     1      82.196   3.888  67.212  1.00  0.00     0.293 HD
ENDBRANCH  15  19
ENDBRANCH  10  11
ENDBRANCH   1  10
TORSDOF 6
ENDMDL
MODEL 9
REMARK VINA RESULT:    -3.712      1.734      6.641
REMARK INTER + INTRA:          -5.272
REMARK INTER:                  -4.732
REMARK INTRA:                  -0.541
REMARK UNBOUND:                -0.584
REMARK SMILES Oc1ccc(CCc2cc(O)cc(O)c2)cc1
REMARK SMILES IDX 6 1 5 2 4 3 3 4 2 5 16 6 17 7 1 8 7 10 8 11 15 12 9 13 13 14
REMARK SMILES IDX 10 15 12 16 14 17 11 19
REMARK H PARENT 1 9 14 18 11 20
REMARK Flexibility Score: inf
ROOT
ATOM      1  C   UNL     1      76.428   4.077  63.852  1.00  0.00     0.040 C 
ENDROOT
BRANCH   1   2
ATOM      2  C   UNL     1      77.702   3.681  64.547  1.00  0.00    -0.047 A 
ATOM      3  C   UNL     1      78.938   3.828  63.897  1.00  0.00     0.007 A 
ATOM      4  C   UNL     1      80.125   3.489  64.556  1.00  0.00     0.046 A 
ATOM      5  C   UNL     1      80.088   3.012  65.873  1.00  0.00     0.115 A 
ATOM      6  C   UNL     1      77.672   3.215  65.871  1.00  0.00     0.007 A 
ATOM      7  C   UNL     1      78.859   2.878  66.527  1.00  0.00     0.046 A 
BRANCH   5   8
ATOM      8  O   UNL     1      81.262   2.672  66.539  1.00  0.00    -0.508 OA
ATOM      9  H   UNL     1      81.771   3.350  67.096  1.00  0.00     0.293 HD
ENDBRANCH   5   8
ENDBRANCH   1   2
BRANCH   1  10
ATOM     10  C   UNL     1      75.650   5.096  64.690  1.00  0.00     0.040 C 
BRANCH  10  11
ATOM     11  C   UNL     1      75.436   6.368  63.915  1.00  0.00    -0.040 A 
ATOM     12  C   UNL     1      76.537   7.128  63.488  1.00  0.00     0.050 A 
ATOM     13  C   UNL     1      74.139   6.773  63.563  1.00  0.00     0.050 A 
ATOM     14  C   UNL     1      76.341   8.296  62.737  1.00  0.00     0.119 A 
ATOM     15  C   UNL     1      73.941   7.937  62.813  1.00  0.00     0.119 A 
ATOM     16  C   UNL     1      75.044   8.699  62.405  1.00  0.00     0.092 A 
BRANCH  14  17
ATOM     17  O   UNL     1      77.427   9.060  62.317  1.00  0.00    -0.508 OA
ATOM     18  H   UNL     1      77.883   8.888  61.429  1.00  0.00     0.293 HD
ENDBRANCH  14  17
BRANCH  15  19
ATOM     19  O   UNL     1      72.646   8.328  62.480  1.00  0.00    -0.508 OA
ATOM     20  H   UNL     1      72.158   7.923  61.690  1.00  0.00     0.293 HD
ENDBRANCH  15  19
ENDBRANCH  10  11
ENDBRANCH   1  10
TORSDOF 6
ENDMDL
