MODEL 1
REMARK VINA RESULT:    -6.474      0.000      0.000
REMARK INTER + INTRA:          -7.830
REMARK INTER:                  -7.609
REMARK INTRA:                  -0.221
REMARK UNBOUND:                -0.221
REMARK SMILES O=c1c(O)c(-c2ccc(O)cc2)oc2cc(O)cc(O)c12
REMARK SMILES IDX 5 1 3 2 2 3 1 4 21 5 19 6 18 7 16 8 15 9 14 10 13 11 6 12
REMARK SMILES IDX 7 13 8 14 9 15 12 16 11 17 10 18 4 20 20 22 17 24
REMARK H PARENT 10 19 4 21 20 23 17 25
REMARK Flexibility Score: inf
ROOT
ATOM      1  C   UNL     1     150.463 146.415 151.342  1.00  0.00     0.180 A 
ATOM      2  C   UNL     1     150.215 146.421 152.728  1.00  0.00     0.208 A 
ATOM      3  C   UNL     1     151.282 146.659 153.608  1.00  0.00     0.238 A 
ATOM      4  O   UNL     1     151.070 146.678 154.850  1.00  0.00    -0.285 OA
ATOM      5  C   UNL     1     152.578 146.865 153.091  1.00  0.00     0.111 A 
ATOM      6  C   UNL     1     153.709 147.107 153.910  1.00  0.00     0.134 A 
ATOM      7  C   UNL     1     154.967 147.293 153.319  1.00  0.00     0.093 A 
ATOM      8  C   UNL     1     155.118 147.242 151.931  1.00  0.00     0.123 A 
ATOM      9  C   UNL     1     154.005 147.004 151.119  1.00  0.00     0.094 A 
ATOM     10  C   UNL     1     152.742 146.818 151.687  1.00  0.00     0.146 A 
ATOM     11  O   UNL     1     151.702 146.599 150.892  1.00  0.00    -0.452 OA
ENDROOT
BRANCH   1  12
ATOM     12  C   UNL     1     149.387 146.191 150.350  1.00  0.00     0.021 A 
ATOM     13  C   UNL     1     148.868 147.284 149.635  1.00  0.00     0.016 A 
ATOM     14  C   UNL     1     147.837 147.099 148.709  1.00  0.00     0.047 A 
ATOM     15  C   UNL     1     147.301 145.825 148.498  1.00  0.00     0.115 A 
ATOM     16  C   UNL     1     148.829 144.915 150.148  1.00  0.00     0.016 A 
ATOM     17  C   UNL     1     147.797 144.734 149.223  1.00  0.00     0.047 A 
BRANCH  15  18
ATOM     18  O   UNL     1     146.273 145.656 147.573  1.00  0.00    -0.508 OA
ATOM     19  H   UNL     1     145.682 144.833 147.584  1.00  0.00     0.293 HD
ENDBRANCH  15  18
ENDBRANCH   1  12
BRANCH   2  20
ATOM     20  O   UNL     1     148.931 146.166 153.216  1.00  0.00    -0.502 OA
ATOM     21  H   UNL     1     148.144 145.985 152.604  1.00  0.00     0.293 HD
ENDBRANCH   2  20
BRANCH   6  22
ATOM     22  O   UNL     1     153.591 147.163 155.298  1.00  0.00    -0.507 OA
ATOM     23  H   UNL     1     154.089 146.519 155.903  1.00  0.00     0.293 HD
ENDBRANCH   6  22
BRANCH   8  24
ATOM     24  O   UNL     1     156.379 147.430 151.371  1.00  0.00    -0.508 OA
ATOM     25  H   UNL     1     157.128 147.879 151.887  1.00  0.00     0.293 HD
ENDBRANCH   8  24
TORSDOF 5
ENDMDL
MODEL 2
REMARK VINA RESULT:    -6.195      2.253      6.671
REMARK INTER + INTRA:          -7.503
REMARK INTER:                  -7.329
REMARK INTRA:                  -0.173
REMARK UNBOUND:                -0.221
REMARK SMILES O=c1c(O)c(-c2ccc(O)cc2)oc2cc(O)cc(O)c12
REMARK SMILES IDX 5 1 3 2 2 3 1 4 21 5 19 6 18 7 16 8 15 9 14 10 13 11 6 12
REMARK SMILES IDX 7 13 8 14 9 15 12 16 11 17 10 18 4 20 20 22 17 24
REMARK H PARENT 10 19 4 21 20 23 17 25
REMARK Flexibility Score: inf
ROOT
ATOM      1  C   UNL     1     154.714 147.662 151.526  1.00  0.00     0.180 A 
ATOM      2  C   UNL     1     154.689 147.568 152.930  1.00  0.00     0.208 A 
ATOM      3  C   UNL     1     153.515 147.130 153.561  1.00  0.00     0.238 A 
ATOM      4  O   UNL     1     153.484 147.031 154.817  1.00  0.00    -0.285 OA
ATOM      5  C   UNL     1     152.382 146.815 152.782  1.00  0.00     0.111 A 
ATOM      6  C   UNL     1     151.158 146.370 153.340  1.00  0.00     0.134 A 
ATOM      7  C   UNL     1     150.074 146.085 152.498  1.00  0.00     0.093 A 
ATOM      8  C   UNL     1     150.187 146.236 151.113  1.00  0.00     0.123 A 
ATOM      9  C   UNL     1     151.393 146.674 150.558  1.00  0.00     0.094 A 
ATOM     10  C   UNL     1     152.486 146.961 151.379  1.00  0.00     0.146 A 
ATOM     11  O   UNL     1     153.621 147.371 150.825  1.00  0.00    -0.452 OA
ENDROOT
BRANCH   1  12
ATOM     12  C   UNL     1     155.921 148.098 150.786  1.00  0.00     0.021 A 
ATOM     13  C   UNL     1     155.878 149.279 150.026  1.00  0.00     0.016 A 
ATOM     14  C   UNL     1     156.999 149.698 149.304  1.00  0.00     0.047 A 
ATOM     15  C   UNL     1     158.169 148.935 149.317  1.00  0.00     0.115 A 
ATOM     16  C   UNL     1     157.096 147.324 150.780  1.00  0.00     0.016 A 
ATOM     17  C   UNL     1     158.214 147.744 150.055  1.00  0.00     0.047 A 
BRANCH  15  18
ATOM     18  O   UNL     1     159.279 149.364 148.591  1.00  0.00    -0.508 OA
ATOM     19  H   UNL     1     159.183 149.758 147.663  1.00  0.00     0.293 HD
ENDBRANCH  15  18
ENDBRANCH   1  12
BRANCH   2  20
ATOM     20  O   UNL     1     155.809 147.933 153.681  1.00  0.00    -0.502 OA
ATOM     21  H   UNL     1     155.837 147.849 154.691  1.00  0.00     0.293 HD
ENDBRANCH   2  20
BRANCH   6  22
ATOM     22  O   UNL     1     151.013 146.210 154.718  1.00  0.00    -0.507 OA
ATOM     23  H   UNL     1     151.524 146.786 155.378  1.00  0.00     0.293 HD
ENDBRANCH   6  22
BRANCH   8  24
ATOM     24  O   UNL     1     149.094 145.947 150.300  1.00  0.00    -0.508 OA
ATOM     25  H   UNL     1     148.434 146.665 150.022  1.00  0.00     0.293 HD
ENDBRANCH   8  24
TORSDOF 5
ENDMDL
MODEL 3
REMARK VINA RESULT:    -6.175      1.287      3.104
REMARK INTER + INTRA:          -7.479
REMARK INTER:                  -7.317
REMARK INTRA:                  -0.162
REMARK UNBOUND:                -0.221
REMARK SMILES O=c1c(O)c(-c2ccc(O)cc2)oc2cc(O)cc(O)c12
REMARK SMILES IDX 5 1 3 2 2 3 1 4 21 5 19 6 18 7 16 8 15 9 14 10 13 11 6 12
REMARK SMILES IDX 7 13 8 14 9 15 12 16 11 17 10 18 4 20 20 22 17 24
REMARK H PARENT 10 19 4 21 20 23 17 25
REMARK Flexibility Score: inf
ROOT
ATOM      1  C   UNL     1     150.397 146.457 150.630  1.00  0.00     0.180 A 
ATOM      2  C   UNL     1     151.560 147.011 150.062  1.00  0.00     0.208 A 
ATOM      3  C   UNL     1     152.660 147.279 150.892  1.00  0.00     0.238 A 
ATOM      4  O   UNL     1     153.710 147.765 150.392  1.00  0.00    -0.285 OA
ATOM      5  C   UNL     1     152.571 147.011 152.273  1.00  0.00     0.111 A 
ATOM      6  C   UNL     1     153.632 147.256 153.179  1.00  0.00     0.134 A 
ATOM      7  C   UNL     1     153.463 146.969 154.541  1.00  0.00     0.093 A 
ATOM      8  C   UNL     1     152.258 146.445 155.016  1.00  0.00     0.123 A 
ATOM      9  C   UNL     1     151.207 146.201 154.126  1.00  0.00     0.094 A 
ATOM     10  C   UNL     1     151.356 146.477 152.764  1.00  0.00     0.146 A 
ATOM     11  O   UNL     1     150.345 146.231 151.940  1.00  0.00    -0.452 OA
ENDROOT
BRANCH   1  12
ATOM     12  C   UNL     1     149.203 146.128 149.817  1.00  0.00     0.021 A 
ATOM     13  C   UNL     1     148.865 144.782 149.600  1.00  0.00     0.016 A 
ATOM     14  C   UNL     1     147.755 144.448 148.818  1.00  0.00     0.047 A 
ATOM     15  C   UNL     1     146.979 145.453 148.232  1.00  0.00     0.115 A 
ATOM     16  C   UNL     1     148.431 147.134 149.208  1.00  0.00     0.016 A 
ATOM     17  C   UNL     1     147.322 146.797 148.426  1.00  0.00     0.047 A 
BRANCH  15  18
ATOM     18  O   UNL     1     145.876 145.105 147.455  1.00  0.00    -0.508 OA
ATOM     19  H   UNL     1     145.510 145.730 146.747  1.00  0.00     0.293 HD
ENDBRANCH  15  18
ENDBRANCH   1  12
BRANCH   2  20
ATOM     20  O   UNL     1     151.604 147.313 148.698  1.00  0.00    -0.502 OA
ATOM     21  H   UNL     1     150.851 147.800 148.226  1.00  0.00     0.293 HD
ENDBRANCH   2  20
BRANCH   6  22
ATOM     22  O   UNL     1     154.847 147.779 152.737  1.00  0.00    -0.507 OA
ATOM     23  H   UNL     1     155.721 147.279 152.862  1.00  0.00     0.293 HD
ENDBRANCH   6  22
BRANCH   8  24
ATOM     24  O   UNL     1     152.116 146.171 156.374  1.00  0.00    -0.508 OA
ATOM     25  H   UNL     1     152.844 146.401 157.041  1.00  0.00     0.293 HD
ENDBRANCH   8  24
TORSDOF 5
ENDMDL
MODEL 4
REMARK VINA RESULT:    -6.074      4.900      7.651
REMARK INTER + INTRA:          -7.360
REMARK INTER:                  -7.063
REMARK INTRA:                  -0.297
REMARK UNBOUND:                -0.221
REMARK SMILES O=c1c(O)c(-c2ccc(O)cc2)oc2cc(O)cc(O)c12
REMARK SMILES IDX 5 1 3 2 2 3 1 4 21 5 19 6 18 7 16 8 15 9 14 10 13 11 6 12
REMARK SMILES IDX 7 13 8 14 9 15 12 16 11 17 10 18 4 20 20 22 17 24
REMARK H PARENT 10 19 4 21 20 23 17 25
REMARK Flexibility Score: inf
ROOT
ATOM      1  C   UNL     1     156.687 148.977 150.680  1.00  0.00     0.180 A 
ATOM      2  C   UNL     1     155.293 148.778 150.671  1.00  0.00     0.208 A 
ATOM      3  C   UNL     1     154.691 148.141 151.767  1.00  0.00     0.238 A 
ATOM      4  O   UNL     1     153.442 147.968 151.775  1.00  0.00    -0.285 OA
ATOM      5  C   UNL     1     155.491 147.695 152.839  1.00  0.00     0.111 A 
ATOM      6  C   UNL     1     154.963 147.040 153.979  1.00  0.00     0.134 A 
ATOM      7  C   UNL     1     155.826 146.619 155.000  1.00  0.00     0.093 A 
ATOM      8  C   UNL     1     157.203 146.837 154.906  1.00  0.00     0.123 A 
ATOM      9  C   UNL     1     157.729 147.484 153.783  1.00  0.00     0.094 A 
ATOM     10  C   UNL     1     156.886 147.913 152.755  1.00  0.00     0.146 A 
ATOM     11  O   UNL     1     157.411 148.529 151.702  1.00  0.00    -0.452 OA
ENDROOT
BRANCH   1  12
ATOM     12  C   UNL     1     157.393 149.658 149.571  1.00  0.00     0.021 A 
ATOM     13  C   UNL     1     157.922 148.895 148.516  1.00  0.00     0.016 A 
ATOM     14  C   UNL     1     158.610 149.515 147.469  1.00  0.00     0.047 A 
ATOM     15  C   UNL     1     158.793 150.901 147.471  1.00  0.00     0.115 A 
ATOM     16  C   UNL     1     157.597 151.050 149.577  1.00  0.00     0.016 A 
ATOM     17  C   UNL     1     158.288 151.667 148.530  1.00  0.00     0.047 A 
BRANCH  15  18
ATOM     18  O   UNL     1     159.482 151.505 146.421  1.00  0.00    -0.508 OA
ATOM     19  H   UNL     1     159.791 150.973 145.616  1.00  0.00     0.293 HD
ENDBRANCH  15  18
ENDBRANCH   1  12
BRANCH   2  20
ATOM     20  O   UNL     1     154.529 149.186 149.574  1.00  0.00    -0.502 OA
ATOM     21  H   UNL     1     154.407 150.162 149.331  1.00  0.00     0.293 HD
ENDBRANCH   2  20
BRANCH   6  22
ATOM     22  O   UNL     1     153.593 146.807 154.103  1.00  0.00    -0.507 OA
ATOM     23  H   UNL     1     153.103 146.958 154.977  1.00  0.00     0.293 HD
ENDBRANCH   6  22
BRANCH   8  24
ATOM     24  O   UNL     1     158.038 146.408 155.934  1.00  0.00    -0.508 OA
ATOM     25  H   UNL     1     158.532 147.066 156.527  1.00  0.00     0.293 HD
ENDBRANCH   8  24
TORSDOF 5
ENDMDL
MODEL 5
REMARK VINA RESULT:    -5.992      2.004      3.656
REMARK INTER + INTRA:          -7.264
REMARK INTER:                  -7.374
REMARK INTRA:                   0.111
REMARK UNBOUND:                -0.221
REMARK SMILES O=c1c(O)c(-c2ccc(O)cc2)oc2cc(O)cc(O)c12
REMARK SMILES IDX 5 1 3 2 2 3 1 4 21 5 19 6 18 7 16 8 15 9 14 10 13 11 6 12
REMARK SMILES IDX 7 13 8 14 9 15 12 16 11 17 10 18 4 20 20 22 17 24
REMARK H PARENT 10 19 4 21 20 23 17 25
REMARK Flexibility Score: inf
ROOT
ATOM      1  C   UNL     1     151.637 146.720 152.702  1.00  0.00     0.180 A 
ATOM      2  C   UNL     1     153.020 146.643 152.451  1.00  0.00     0.208 A 
ATOM      3  C   UNL     1     153.915 147.101 153.430  1.00  0.00     0.238 A 
ATOM      4  O   UNL     1     155.155 147.026 153.222  1.00  0.00    -0.285 OA
ATOM      5  C   UNL     1     153.414 147.648 154.630  1.00  0.00     0.111 A 
ATOM      6  C   UNL     1     154.247 148.136 155.666  1.00  0.00     0.134 A 
ATOM      7  C   UNL     1     153.671 148.674 156.826  1.00  0.00     0.093 A 
ATOM      8  C   UNL     1     152.283 148.733 156.972  1.00  0.00     0.123 A 
ATOM      9  C   UNL     1     151.456 148.252 155.952  1.00  0.00     0.094 A 
ATOM     10  C   UNL     1     152.009 147.711 154.789  1.00  0.00     0.146 A 
ATOM     11  O   UNL     1     151.201 147.256 153.839  1.00  0.00    -0.452 OA
ENDROOT
BRANCH   1  12
ATOM     12  C   UNL     1     150.631 146.239 151.727  1.00  0.00     0.021 A 
ATOM     13  C   UNL     1     150.740 146.618 150.378  1.00  0.00     0.016 A 
ATOM     14  C   UNL     1     149.790 146.193 149.444  1.00  0.00     0.047 A 
ATOM     15  C   UNL     1     148.713 145.399 149.848  1.00  0.00     0.115 A 
ATOM     16  C   UNL     1     149.534 145.457 152.131  1.00  0.00     0.016 A 
ATOM     17  C   UNL     1     148.585 145.035 151.195  1.00  0.00     0.047 A 
BRANCH  15  18
ATOM     18  O   UNL     1     147.774 144.984 148.906  1.00  0.00    -0.508 OA
ATOM     19  H   UNL     1     146.792 144.898 149.141  1.00  0.00     0.293 HD
ENDBRANCH  15  18
ENDBRANCH   1  12
BRANCH   2  20
ATOM     20  O   UNL     1     153.489 146.142 151.234  1.00  0.00    -0.502 OA
ATOM     21  H   UNL     1     154.370 146.437 150.829  1.00  0.00     0.293 HD
ENDBRANCH   2  20
BRANCH   6  22
ATOM     22  O   UNL     1     155.636 148.092 155.550  1.00  0.00    -0.507 OA
ATOM     23  H   UNL     1     156.123 148.541 154.782  1.00  0.00     0.293 HD
ENDBRANCH   6  22
BRANCH   8  24
ATOM     24  O   UNL     1     151.737 149.272 158.134  1.00  0.00    -0.508 OA
ATOM     25  H   UNL     1     152.267 149.320 158.997  1.00  0.00     0.293 HD
ENDBRANCH   8  24
TORSDOF 5
ENDMDL
MODEL 6
REMARK VINA RESULT:    -5.879      1.668      2.068
REMARK INTER + INTRA:          -7.132
REMARK INTER:                  -7.065
REMARK INTRA:                  -0.066
REMARK UNBOUND:                -0.221
REMARK SMILES O=c1c(O)c(-c2ccc(O)cc2)oc2cc(O)cc(O)c12
REMARK SMILES IDX 5 1 3 2 2 3 1 4 21 5 19 6 18 7 16 8 15 9 14 10 13 11 6 12
REMARK SMILES IDX 7 13 8 14 9 15 12 16 11 17 10 18 4 20 20 22 17 24
REMARK H PARENT 10 19 4 21 20 23 17 25
REMARK Flexibility Score: inf
ROOT
ATOM      1  C   UNL     1     150.801 146.665 152.869  1.00  0.00     0.180 A 
ATOM      2  C   UNL     1     150.226 147.348 153.957  1.00  0.00     0.208 A 
ATOM      3  C   UNL     1     151.070 147.937 154.912  1.00  0.00     0.238 A 
ATOM      4  O   UNL     1     150.567 148.560 155.885  1.00  0.00    -0.285 OA
ATOM      5  C   UNL     1     152.468 147.814 154.775  1.00  0.00     0.111 A 
ATOM      6  C   UNL     1     153.388 148.374 155.695  1.00  0.00     0.134 A 
ATOM      7  C   UNL     1     154.765 148.201 155.494  1.00  0.00     0.093 A 
ATOM      8  C   UNL     1     155.240 147.481 154.395  1.00  0.00     0.123 A 
ATOM      9  C   UNL     1     154.336 146.927 153.483  1.00  0.00     0.094 A 
ATOM     10  C   UNL     1     152.960 147.089 153.665  1.00  0.00     0.146 A 
ATOM     11  O   UNL     1     152.124 146.557 152.781  1.00  0.00    -0.452 OA
ENDROOT
BRANCH   1  12
ATOM     12  C   UNL     1     149.978 146.035 151.811  1.00  0.00     0.021 A 
ATOM     13  C   UNL     1     150.105 146.474 150.483  1.00  0.00     0.016 A 
ATOM     14  C   UNL     1     149.323 145.909 149.471  1.00  0.00     0.047 A 
ATOM     15  C   UNL     1     148.394 144.910 149.776  1.00  0.00     0.115 A 
ATOM     16  C   UNL     1     149.027 145.043 152.114  1.00  0.00     0.016 A 
ATOM     17  C   UNL     1     148.245 144.481 151.101  1.00  0.00     0.047 A 
BRANCH  15  18
ATOM     18  O   UNL     1     147.621 144.356 148.757  1.00  0.00    -0.508 OA
ATOM     19  H   UNL     1     146.730 144.759 148.491  1.00  0.00     0.293 HD
ENDBRANCH  15  18
ENDBRANCH   1  12
BRANCH   2  20
ATOM     20  O   UNL     1     148.837 147.413 154.096  1.00  0.00    -0.502 OA
ATOM     21  H   UNL     1     148.274 146.597 154.305  1.00  0.00     0.293 HD
ENDBRANCH   2  20
BRANCH   6  22
ATOM     22  O   UNL     1     152.945 149.098 156.802  1.00  0.00    -0.507 OA
ATOM     23  H   UNL     1     152.375 149.930 156.703  1.00  0.00     0.293 HD
ENDBRANCH   6  22
BRANCH   8  24
ATOM     24  O   UNL     1     156.612 147.323 154.219  1.00  0.00    -0.508 OA
ATOM     25  H   UNL     1     157.043 147.405 153.305  1.00  0.00     0.293 HD
ENDBRANCH   8  24
TORSDOF 5
ENDMDL
MODEL 7
REMARK VINA RESULT:    -5.691      2.264      4.602
REMARK INTER + INTRA:          -6.911
REMARK INTER:                  -7.218
REMARK INTRA:                   0.308
REMARK UNBOUND:                -0.221
REMARK SMILES O=c1c(O)c(-c2ccc(O)cc2)oc2cc(O)cc(O)c12
REMARK SMILES IDX 5 1 3 2 2 3 1 4 21 5 19 6 18 7 16 8 15 9 14 10 13 11 6 12
REMARK SMILES IDX 7 13 8 14 9 15 12 16 11 17 10 18 4 20 20 22 17 24
REMARK H PARENT 10 19 4 21 20 23 17 25
REMARK Flexibility Score: inf
ROOT
ATOM      1  C   UNL     1     153.882 147.378 152.073  1.00  0.00     0.180 A 
ATOM      2  C   UNL     1     154.636 148.243 151.257  1.00  0.00     0.208 A 
ATOM      3  C   UNL     1     155.949 148.561 151.636  1.00  0.00     0.238 A 
ATOM      4  O   UNL     1     156.638 149.325 150.908  1.00  0.00    -0.285 OA
ATOM      5  C   UNL     1     156.477 148.030 152.832  1.00  0.00     0.111 A 
ATOM      6  C   UNL     1     157.789 148.304 153.288  1.00  0.00     0.134 A 
ATOM      7  C   UNL     1     158.238 147.744 154.492  1.00  0.00     0.093 A 
ATOM      8  C   UNL     1     157.403 146.917 155.249  1.00  0.00     0.123 A 
ATOM      9  C   UNL     1     156.107 146.642 154.802  1.00  0.00     0.094 A 
ATOM     10  C   UNL     1     155.641 147.189 153.604  1.00  0.00     0.146 A 
ATOM     11  O   UNL     1     154.408 146.908 153.201  1.00  0.00    -0.452 OA
ENDROOT
BRANCH   1  12
ATOM     12  C   UNL     1     152.498 146.979 151.730  1.00  0.00     0.021 A 
ATOM     13  C   UNL     1     151.625 146.564 152.750  1.00  0.00     0.016 A 
ATOM     14  C   UNL     1     150.320 146.163 152.446  1.00  0.00     0.047 A 
ATOM     15  C   UNL     1     149.877 146.156 151.121  1.00  0.00     0.115 A 
ATOM     16  C   UNL     1     152.052 146.951 150.396  1.00  0.00     0.016 A 
ATOM     17  C   UNL     1     150.747 146.548 150.095  1.00  0.00     0.047 A 
BRANCH  15  18
ATOM     18  O   UNL     1     148.574 145.753 150.833  1.00  0.00    -0.508 OA
ATOM     19  H   UNL     1     147.874 145.669 151.561  1.00  0.00     0.293 HD
ENDBRANCH  15  18
ENDBRANCH   1  12
BRANCH   2  20
ATOM     20  O   UNL     1     154.073 148.795 150.103  1.00  0.00    -0.502 OA
ATOM     21  H   UNL     1     153.207 149.321 150.121  1.00  0.00     0.293 HD
ENDBRANCH   2  20
BRANCH   6  22
ATOM     22  O   UNL     1     158.646 149.126 152.556  1.00  0.00    -0.507 OA
ATOM     23  H   UNL     1     158.851 150.076 152.846  1.00  0.00     0.293 HD
ENDBRANCH   6  22
BRANCH   8  24
ATOM     24  O   UNL     1     157.873 146.374 156.442  1.00  0.00    -0.508 OA
ATOM     25  H   UNL     1     157.634 145.431 156.727  1.00  0.00     0.293 HD
ENDBRANCH   8  24
TORSDOF 5
ENDMDL
MODEL 8
REMARK VINA RESULT:    -5.685      2.235      7.336
REMARK INTER + INTRA:          -6.903
REMARK INTER:                  -6.880
REMARK INTRA:                  -0.023
REMARK UNBOUND:                -0.221
REMARK SMILES O=c1c(O)c(-c2ccc(O)cc2)oc2cc(O)cc(O)c12
REMARK SMILES IDX 5 1 3 2 2 3 1 4 21 5 19 6 18 7 16 8 15 9 14 10 13 11 6 12
REMARK SMILES IDX 7 13 8 14 9 15 12 16 11 17 10 18 4 20 20 22 17 24
REMARK H PARENT 10 19 4 21 20 23 17 25
REMARK Flexibility Score: inf
ROOT
ATOM      1  C   UNL     1     154.763 147.323 153.588  1.00  0.00     0.180 A 
ATOM      2  C   UNL     1     153.908 146.986 154.655  1.00  0.00     0.208 A 
ATOM      3  C   UNL     1     152.581 146.624 154.373  1.00  0.00     0.238 A 
ATOM      4  O   UNL     1     151.810 146.311 155.319  1.00  0.00    -0.285 OA
ATOM      5  C   UNL     1     152.127 146.626 153.038  1.00  0.00     0.111 A 
ATOM      6  C   UNL     1     150.805 146.278 152.670  1.00  0.00     0.134 A 
ATOM      7  C   UNL     1     150.427 146.313 151.320  1.00  0.00     0.093 A 
ATOM      8  C   UNL     1     151.342 146.687 150.333  1.00  0.00     0.123 A 
ATOM      9  C   UNL     1     152.650 147.031 150.691  1.00  0.00     0.094 A 
ATOM     10  C   UNL     1     153.046 147.001 152.031  1.00  0.00     0.146 A 
ATOM     11  O   UNL     1     154.295 147.327 152.342  1.00  0.00    -0.452 OA
ENDROOT
BRANCH   1  12
ATOM     12  C   UNL     1     156.180 147.696 153.802  1.00  0.00     0.021 A 
ATOM     13  C   UNL     1     156.684 148.865 153.207  1.00  0.00     0.016 A 
ATOM     14  C   UNL     1     158.024 149.226 153.379  1.00  0.00     0.047 A 
ATOM     15  C   UNL     1     158.880 148.416 154.131  1.00  0.00     0.115 A 
ATOM     16  C   UNL     1     157.051 146.875 154.541  1.00  0.00     0.016 A 
ATOM     17  C   UNL     1     158.391 147.237 154.709  1.00  0.00     0.047 A 
BRANCH  15  18
ATOM     18  O   UNL     1     160.213 148.787 154.292  1.00  0.00    -0.508 OA
ATOM     19  H   UNL     1     160.970 148.153 154.064  1.00  0.00     0.293 HD
ENDBRANCH  15  18
ENDBRANCH   1  12
BRANCH   2  20
ATOM     20  O   UNL     1     154.369 147.040 155.973  1.00  0.00    -0.502 OA
ATOM     21  H   UNL     1     155.353 146.975 156.206  1.00  0.00     0.293 HD
ENDBRANCH   2  20
BRANCH   6  22
ATOM     22  O   UNL     1     149.867 145.900 153.632  1.00  0.00    -0.507 OA
ATOM     23  H   UNL     1     150.146 145.490 154.516  1.00  0.00     0.293 HD
ENDBRANCH   6  22
BRANCH   8  24
ATOM     24  O   UNL     1     150.941 146.714 148.999  1.00  0.00    -0.508 OA
ATOM     25  H   UNL     1     149.972 146.580 148.734  1.00  0.00     0.293 HD
ENDBRANCH   8  24
TORSDOF 5
ENDMDL
MODEL 9
REMARK VINA RESULT:    -5.678      3.823      7.881
REMARK INTER + INTRA:          -6.895
REMARK INTER:                  -6.605
REMARK INTRA:                  -0.290
REMARK UNBOUND:                -0.221
REMARK SMILES O=c1c(O)c(-c2ccc(O)cc2)oc2cc(O)cc(O)c12
REMARK SMILES IDX 5 1 3 2 2 3 1 4 21 5 19 6 18 7 16 8 15 9 14 10 13 11 6 12
REMARK SMILES IDX 7 13 8 14 9 15 12 16 11 17 10 18 4 20 20 22 17 24
REMARK H PARENT 10 19 4 21 20 23 17 25
REMARK Flexibility Score: inf
ROOT
ATOM      1  C   UNL     1     156.737 149.063 150.392  1.00  0.00     0.180 A 
ATOM      2  C   UNL     1     157.321 148.880 151.660  1.00  0.00     0.208 A 
ATOM      3  C   UNL     1     156.575 148.246 152.666  1.00  0.00     0.238 A 
ATOM      4  O   UNL     1     157.092 148.067 153.802  1.00  0.00    -0.285 OA
ATOM      5  C   UNL     1     155.256 147.828 152.396  1.00  0.00     0.111 A 
ATOM      6  C   UNL     1     154.435 147.187 153.356  1.00  0.00     0.134 A 
ATOM      7  C   UNL     1     153.130 146.809 153.013  1.00  0.00     0.093 A 
ATOM      8  C   UNL     1     152.628 147.059 151.733  1.00  0.00     0.123 A 
ATOM      9  C   UNL     1     153.434 147.692 150.781  1.00  0.00     0.094 A 
ATOM     10  C   UNL     1     154.739 148.074 151.103  1.00  0.00     0.146 A 
ATOM     11  O   UNL     1     155.484 148.669 150.179  1.00  0.00    -0.452 OA
ENDROOT
BRANCH   1  12
ATOM     12  C   UNL     1     157.466 149.704 149.274  1.00  0.00     0.021 A 
ATOM     13  C   UNL     1     158.233 148.911 148.404  1.00  0.00     0.016 A 
ATOM     14  C   UNL     1     158.947 149.497 147.354  1.00  0.00     0.047 A 
ATOM     15  C   UNL     1     158.917 150.882 147.172  1.00  0.00     0.115 A 
ATOM     16  C   UNL     1     157.457 151.100 149.097  1.00  0.00     0.016 A 
ATOM     17  C   UNL     1     158.173 151.684 148.048  1.00  0.00     0.047 A 
BRANCH  15  18
ATOM     18  O   UNL     1     159.635 151.453 146.122  1.00  0.00    -0.508 OA
ATOM     19  H   UNL     1     160.636 151.324 146.033  1.00  0.00     0.293 HD
ENDBRANCH  15  18
ENDBRANCH   1  12
BRANCH   2  20
ATOM     20  O   UNL     1     158.613 149.347 151.916  1.00  0.00    -0.502 OA
ATOM     21  H   UNL     1     158.801 150.310 152.168  1.00  0.00     0.293 HD
ENDBRANCH   2  20
BRANCH   6  22
ATOM     22  O   UNL     1     154.906 146.924 154.642  1.00  0.00    -0.507 OA
ATOM     23  H   UNL     1     155.850 146.591 154.808  1.00  0.00     0.293 HD
ENDBRANCH   6  22
BRANCH   8  24
ATOM     24  O   UNL     1     151.327 146.674 151.418  1.00  0.00    -0.508 OA
ATOM     25  H   UNL     1     151.139 145.947 150.737  1.00  0.00     0.293 HD
ENDBRANCH   8  24
TORSDOF 5
ENDMDL
