MODEL 1
REMARK VINA RESULT:    -4.905      0.000      0.000
REMARK INTER + INTRA:          -5.049
REMARK INTER:                  -5.049
REMARK INTRA:                   0.000
REMARK UNBOUND:                 0.000
REMARK SMILES CC1(C)[C@@H]2CC[C@@](C)(C2)[C@H]1O
REMARK SMILES IDX 1 1 2 2 4 3 5 4 6 5 7 6 9 7 10 8 8 9 3 10 11 11
REMARK H PARENT 11 12
REMARK Flexibility Score: inf
ROOT
ATOM      1  C   UNL     1     181.230 189.188 201.833  1.00  0.00     0.014 C 
ATOM      2  C   UNL     1     180.449 190.371 201.202  1.00  0.00    -0.006 C 
ATOM      3  C   UNL     1     179.190 190.700 202.075  1.00  0.00    -0.002 C 
ATOM      4  C   UNL     1     178.234 191.664 201.342  1.00  0.00     0.005 C 
ATOM      5  C   UNL     1     179.038 192.973 201.300  1.00  0.00     0.010 C 
ATOM      6  C   UNL     1     180.305 192.622 202.115  1.00  0.00    -0.006 C 
ATOM      7  C   UNL     1     179.757 191.639 203.125  1.00  0.00     0.013 C 
ATOM      8  C   UNL     1     181.232 191.727 201.245  1.00  0.00     0.126 C 
ATOM      9  C   UNL     1     180.981 193.852 202.738  1.00  0.00     0.014 C 
ATOM     10  C   UNL     1     180.104 189.968 199.747  1.00  0.00     0.014 C 
ENDROOT
BRANCH   8  11
ATOM     11  O   UNL     1     182.497 191.576 201.843  1.00  0.00    -0.392 OA
ATOM     12  H   UNL     1     182.351 191.532 202.825  1.00  0.00     0.211 HD
ENDBRANCH   8  11
TORSDOF 1
ENDMDL
MODEL 2
REMARK VINA RESULT:    -4.608      1.865      3.638
REMARK INTER + INTRA:          -4.742
REMARK INTER:                  -4.742
REMARK INTRA:                   0.000
REMARK UNBOUND:                 0.000
REMARK SMILES CC1(C)[C@@H]2CC[C@@](C)(C2)[C@H]1O
REMARK SMILES IDX 1 1 2 2 4 3 5 4 6 5 7 6 9 7 10 8 8 9 3 10 11 11
REMARK H PARENT 11 12
REMARK Flexibility Score: inf
ROOT
ATOM      1  C   UNL     1     178.584 193.739 203.125  1.00  0.00     0.014 C 
ATOM      2  C   UNL     1     179.588 192.860 202.333  1.00  0.00    -0.006 C 
ATOM      3  C   UNL     1     179.613 191.414 202.934  1.00  0.00    -0.002 C 
ATOM      4  C   UNL     1     180.795 190.594 202.375  1.00  0.00     0.005 C 
ATOM      5  C   UNL     1     180.407 190.401 200.901  1.00  0.00     0.010 C 
ATOM      6  C   UNL     1     178.999 191.038 200.832  1.00  0.00    -0.006 C 
ATOM      7  C   UNL     1     178.460 190.740 202.213  1.00  0.00     0.013 C 
ATOM      8  C   UNL     1     179.144 192.585 200.855  1.00  0.00     0.126 C 
ATOM      9  C   UNL     1     178.140 190.479 199.689  1.00  0.00     0.014 C 
ATOM     10  C   UNL     1     180.961 193.575 202.382  1.00  0.00     0.014 C 
ENDROOT
BRANCH   8  11
ATOM     11  O   UNL     1     177.920 193.213 200.557  1.00  0.00    -0.392 OA
ATOM     12  H   UNL     1     178.013 193.618 199.655  1.00  0.00     0.211 HD
ENDBRANCH   8  11
TORSDOF 1
ENDMDL
MODEL 3
REMARK VINA RESULT:    -4.497     13.184     14.838
REMARK INTER + INTRA:          -4.629
REMARK INTER:                  -4.629
REMARK INTRA:                   0.000
REMARK UNBOUND:                 0.000
REMARK SMILES CC1(C)[C@@H]2CC[C@@](C)(C2)[C@H]1O
REMARK SMILES IDX 1 1 2 2 4 3 5 4 6 5 7 6 9 7 10 8 8 9 3 10 11 11
REMARK H PARENT 11 12
REMARK Flexibility Score: inf
ROOT
ATOM      1  C   UNL     1     186.272 190.002 185.864  1.00  0.00     0.014 C 
ATOM      2  C   UNL     1     186.474 190.711 187.230  1.00  0.00    -0.006 C 
ATOM      3  C   UNL     1     185.509 191.941 187.334  1.00  0.00    -0.002 C 
ATOM      4  C   UNL     1     185.873 192.839 188.536  1.00  0.00     0.005 C 
ATOM      5  C   UNL     1     185.517 191.955 189.741  1.00  0.00     0.010 C 
ATOM      6  C   UNL     1     184.888 190.708 189.076  1.00  0.00    -0.006 C 
ATOM      7  C   UNL     1     184.230 191.310 187.854  1.00  0.00     0.013 C 
ATOM      8  C   UNL     1     186.021 189.843 188.454  1.00  0.00     0.126 C 
ATOM      9  C   UNL     1     183.923 189.952 190.001  1.00  0.00     0.014 C 
ATOM     10  C   UNL     1     187.972 191.089 187.333  1.00  0.00     0.014 C 
ENDROOT
BRANCH   8  11
ATOM     11  O   UNL     1     185.534 188.587 188.047  1.00  0.00    -0.392 OA
ATOM     12  H   UNL     1     186.038 188.330 187.231  1.00  0.00     0.211 HD
ENDBRANCH   8  11
TORSDOF 1
ENDMDL
MODEL 4
REMARK VINA RESULT:    -4.462     12.470     14.262
REMARK INTER + INTRA:          -4.592
REMARK INTER:                  -4.592
REMARK INTRA:                   0.000
REMARK UNBOUND:                 0.000
REMARK SMILES CC1(C)[C@@H]2CC[C@@](C)(C2)[C@H]1O
REMARK SMILES IDX 1 1 2 2 4 3 5 4 6 5 7 6 9 7 10 8 8 9 3 10 11 11
REMARK H PARENT 11 12
REMARK Flexibility Score: inf
ROOT
ATOM      1  C   UNL     1     185.452 191.645 191.310  1.00  0.00     0.014 C 
ATOM      2  C   UNL     1     185.586 191.960 189.796  1.00  0.00    -0.006 C 
ATOM      3  C   UNL     1     186.807 191.180 189.201  1.00  0.00    -0.002 C 
ATOM      4  C   UNL     1     187.155 191.679 187.782  1.00  0.00     0.005 C 
ATOM      5  C   UNL     1     185.948 191.214 186.953  1.00  0.00     0.010 C 
ATOM      6  C   UNL     1     185.118 190.409 187.980  1.00  0.00    -0.006 C 
ATOM      7  C   UNL     1     186.200 189.829 188.863  1.00  0.00     0.013 C 
ATOM      8  C   UNL     1     184.400 191.402 188.937  1.00  0.00     0.126 C 
ATOM      9  C   UNL     1     184.209 189.356 187.329  1.00  0.00     0.014 C 
ATOM     10  C   UNL     1     185.705 193.497 189.655  1.00  0.00     0.014 C 
ENDROOT
BRANCH   8  11
ATOM     11  O   UNL     1     183.450 190.738 189.736  1.00  0.00    -0.392 OA
ATOM     12  H   UNL     1     182.852 191.434 190.116  1.00  0.00     0.211 HD
ENDBRANCH   8  11
TORSDOF 1
ENDMDL
MODEL 5
REMARK VINA RESULT:    -4.379     11.768     13.034
REMARK INTER + INTRA:          -4.507
REMARK INTER:                  -4.507
REMARK INTRA:                   0.000
REMARK UNBOUND:                 0.000
REMARK SMILES CC1(C)[C@@H]2CC[C@@](C)(C2)[C@H]1O
REMARK SMILES IDX 1 1 2 2 4 3 5 4 6 5 7 6 9 7 10 8 8 9 3 10 11 11
REMARK H PARENT 11 12
REMARK Flexibility Score: inf
ROOT
ATOM      1  C   UNL     1     184.149 190.843 189.477  1.00  0.00     0.014 C 
ATOM      2  C   UNL     1     184.802 189.505 189.914  1.00  0.00    -0.006 C 
ATOM      3  C   UNL     1     184.302 189.117 191.348  1.00  0.00    -0.002 C 
ATOM      4  C   UNL     1     185.135 187.960 191.938  1.00  0.00     0.005 C 
ATOM      5  C   UNL     1     184.742 186.770 191.049  1.00  0.00     0.010 C 
ATOM      6  C   UNL     1     183.650 187.372 190.135  1.00  0.00    -0.006 C 
ATOM      7  C   UNL     1     183.004 188.385 191.055  1.00  0.00     0.013 C 
ATOM      8  C   UNL     1     184.328 188.275 189.066  1.00  0.00     0.126 C 
ATOM      9  C   UNL     1     182.679 186.320 189.580  1.00  0.00     0.014 C 
ATOM     10  C   UNL     1     186.336 189.691 189.823  1.00  0.00     0.014 C 
ENDROOT
BRANCH   8  11
ATOM     11  O   UNL     1     183.410 188.656 188.069  1.00  0.00    -0.392 OA
ATOM     12  H   UNL     1     183.564 188.061 187.289  1.00  0.00     0.211 HD
ENDBRANCH   8  11
TORSDOF 1
ENDMDL
MODEL 6
REMARK VINA RESULT:    -4.342     11.640     13.401
REMARK INTER + INTRA:          -4.469
REMARK INTER:                  -4.469
REMARK INTRA:                   0.000
REMARK UNBOUND:                 0.000
REMARK SMILES CC1(C)[C@@H]2CC[C@@](C)(C2)[C@H]1O
REMARK SMILES IDX 1 1 2 2 4 3 5 4 6 5 7 6 9 7 10 8 8 9 3 10 11 11
REMARK H PARENT 11 12
REMARK Flexibility Score: inf
ROOT
ATOM      1  C   UNL     1     182.764 187.774 191.113  1.00  0.00     0.014 C 
ATOM      2  C   UNL     1     184.209 188.119 190.661  1.00  0.00    -0.006 C 
ATOM      3  C   UNL     1     184.540 187.361 189.330  1.00  0.00    -0.002 C 
ATOM      4  C   UNL     1     186.046 187.440 188.999  1.00  0.00     0.005 C 
ATOM      5  C   UNL     1     186.243 188.927 188.666  1.00  0.00     0.010 C 
ATOM      6  C   UNL     1     184.803 189.487 188.738  1.00  0.00    -0.006 C 
ATOM      7  C   UNL     1     183.989 188.300 188.272  1.00  0.00     0.013 C 
ATOM      8  C   UNL     1     184.386 189.615 190.230  1.00  0.00     0.126 C 
ATOM      9  C   UNL     1     184.606 190.754 187.893  1.00  0.00     0.014 C 
ATOM     10  C   UNL     1     185.155 187.756 191.831  1.00  0.00     0.014 C 
ENDROOT
BRANCH   8  11
ATOM     11  O   UNL     1     183.185 190.337 190.360  1.00  0.00    -0.392 OA
ATOM     12  H   UNL     1     182.599 190.065 189.606  1.00  0.00     0.211 HD
ENDBRANCH   8  11
TORSDOF 1
ENDMDL
MODEL 7
REMARK VINA RESULT:    -4.231     11.139     12.823
REMARK INTER + INTRA:          -4.355
REMARK INTER:                  -4.355
REMARK INTRA:                   0.000
REMARK UNBOUND:                 0.000
REMARK SMILES CC1(C)[C@@H]2CC[C@@](C)(C2)[C@H]1O
REMARK SMILES IDX 1 1 2 2 4 3 5 4 6 5 7 6 9 7 10 8 8 9 3 10 11 11
REMARK H PARENT 11 12
REMARK Flexibility Score: inf
ROOT
ATOM      1  C   UNL     1     183.515 188.038 188.099  1.00  0.00     0.014 C 
ATOM      2  C   UNL     1     183.688 187.397 189.502  1.00  0.00    -0.006 C 
ATOM      3  C   UNL     1     185.174 186.938 189.694  1.00  0.00    -0.002 C 
ATOM      4  C   UNL     1     185.328 186.043 190.941  1.00  0.00     0.005 C 
ATOM      5  C   UNL     1     185.065 187.022 192.096  1.00  0.00     0.010 C 
ATOM      6  C   UNL     1     184.906 188.376 191.367  1.00  0.00    -0.006 C 
ATOM      7  C   UNL     1     185.845 188.205 190.194  1.00  0.00     0.013 C 
ATOM      8  C   UNL     1     183.513 188.417 190.678  1.00  0.00     0.126 C 
ATOM      9  C   UNL     1     185.229 189.583 192.259  1.00  0.00     0.014 C 
ATOM     10  C   UNL     1     182.665 186.239 189.606  1.00  0.00     0.014 C 
ENDROOT
BRANCH   8  11
ATOM     11  O   UNL     1     183.220 189.709 190.204  1.00  0.00    -0.392 OA
ATOM     12  H   UNL     1     182.243 189.740 190.029  1.00  0.00     0.211 HD
ENDBRANCH   8  11
TORSDOF 1
ENDMDL
MODEL 8
REMARK VINA RESULT:    -4.176     12.892     14.522
REMARK INTER + INTRA:          -4.298
REMARK INTER:                  -4.298
REMARK INTRA:                   0.000
REMARK UNBOUND:                 0.000
REMARK SMILES CC1(C)[C@@H]2CC[C@@](C)(C2)[C@H]1O
REMARK SMILES IDX 1 1 2 2 4 3 5 4 6 5 7 6 9 7 10 8 8 9 3 10 11 11
REMARK H PARENT 11 12
REMARK Flexibility Score: inf
ROOT
ATOM      1  C   UNL     1     185.980 188.844 190.179  1.00  0.00     0.014 C 
ATOM      2  C   UNL     1     185.320 190.046 189.453  1.00  0.00    -0.006 C 
ATOM      3  C   UNL     1     186.175 191.338 189.687  1.00  0.00    -0.002 C 
ATOM      4  C   UNL     1     185.415 192.603 189.234  1.00  0.00     0.005 C 
ATOM      5  C   UNL     1     185.359 192.438 187.708  1.00  0.00     0.010 C 
ATOM      6  C   UNL     1     186.192 191.157 187.471  1.00  0.00    -0.006 C 
ATOM      7  C   UNL     1     187.214 191.246 188.583  1.00  0.00     0.013 C 
ATOM      8  C   UNL     1     185.347 189.921 187.891  1.00  0.00     0.126 C 
ATOM      9  C   UNL     1     186.801 191.084 186.064  1.00  0.00     0.014 C 
ATOM     10  C   UNL     1     183.869 190.161 189.981  1.00  0.00     0.014 C 
ENDROOT
BRANCH   8  11
ATOM     11  O   UNL     1     185.961 188.724 187.478  1.00  0.00    -0.392 OA
ATOM     12  H   UNL     1     185.761 188.040 188.170  1.00  0.00     0.211 HD
ENDBRANCH   8  11
TORSDOF 1
ENDMDL
MODEL 9
REMARK VINA RESULT:    -4.171     11.719     13.330
REMARK INTER + INTRA:          -4.293
REMARK INTER:                  -4.293
REMARK INTRA:                   0.000
REMARK UNBOUND:                 0.000
REMARK SMILES CC1(C)[C@@H]2CC[C@@](C)(C2)[C@H]1O
REMARK SMILES IDX 1 1 2 2 4 3 5 4 6 5 7 6 9 7 10 8 8 9 3 10 11 11
REMARK H PARENT 11 12
REMARK Flexibility Score: inf
ROOT
ATOM      1  C   UNL     1     183.631 189.168 190.796  1.00  0.00     0.014 C 
ATOM      2  C   UNL     1     184.855 189.552 189.922  1.00  0.00    -0.006 C 
ATOM      3  C   UNL     1     184.368 190.050 188.519  1.00  0.00    -0.002 C 
ATOM      4  C   UNL     1     185.543 190.165 187.525  1.00  0.00     0.005 C 
ATOM      5  C   UNL     1     186.358 191.335 188.097  1.00  0.00     0.010 C 
ATOM      6  C   UNL     1     185.486 191.813 189.281  1.00  0.00    -0.006 C 
ATOM      7  C   UNL     1     184.091 191.521 188.772  1.00  0.00     0.013 C 
ATOM      8  C   UNL     1     185.632 190.804 190.455  1.00  0.00     0.126 C 
ATOM      9  C   UNL     1     185.724 193.284 189.650  1.00  0.00     0.014 C 
ATOM     10  C   UNL     1     185.776 188.309 189.851  1.00  0.00     0.014 C 
ENDROOT
BRANCH   8  11
ATOM     11  O   UNL     1     185.053 191.311 191.633  1.00  0.00    -0.392 OA
ATOM     12  H   UNL     1     185.662 192.015 191.978  1.00  0.00     0.211 HD
ENDBRANCH   8  11
TORSDOF 1
ENDMDL
