MODEL 1
REMARK VINA RESULT:    -4.888      0.000      0.000
REMARK INTER + INTRA:          -5.667
REMARK INTER:                  -5.460
REMARK INTRA:                  -0.208
REMARK UNBOUND:                -0.208
REMARK SMILES CC(C)c1ccc(C(=O)[O-])cc1
REMARK SMILES IDX 7 1 6 2 11 3 5 4 12 5 4 6 8 7 9 8 10 9 2 10 1 11 3 12
REMARK H PARENT
REMARK Flexibility Score: inf
ROOT
ATOM      1  C   UNL     1       4.773 -36.426  20.007  1.00  0.00    -0.003 A 
ATOM      2  C   UNL     1       4.018 -37.521  19.555  1.00  0.00     0.010 A 
ATOM      3  C   UNL     1       4.943 -35.320  19.157  1.00  0.00     0.010 A 
ATOM      4  C   UNL     1       3.446 -37.510  18.280  1.00  0.00     0.004 A 
ATOM      5  C   UNL     1       4.370 -35.309  17.882  1.00  0.00     0.004 A 
ATOM      6  C   UNL     1       3.615 -36.405  17.429  1.00  0.00    -0.045 A 
ENDROOT
BRANCH   1   7
ATOM      7  C   UNL     1       5.377 -36.441  21.358  1.00  0.00     0.071 C 
ATOM      8  O   UNL     1       5.751 -37.523  21.881  1.00  0.00    -0.545 OA
ATOM      9  O   UNL     1       5.541 -35.257  22.068  1.00  0.00    -0.545 OA
ENDBRANCH   1   7
BRANCH   6  10
ATOM     10  C   UNL     1       2.987 -36.408  16.047  1.00  0.00     0.013 C 
ATOM     11  C   UNL     1       3.516 -37.573  15.203  1.00  0.00     0.012 C 
ATOM     12  C   UNL     1       1.456 -36.441  16.135  1.00  0.00     0.012 C 
ENDBRANCH   6  10
TORSDOF 2
ENDMDL
MODEL 2
REMARK VINA RESULT:    -4.879      0.062      1.398
REMARK INTER + INTRA:          -5.657
REMARK INTER:                  -5.452
REMARK INTRA:                  -0.205
REMARK UNBOUND:                -0.208
REMARK SMILES CC(C)c1ccc(C(=O)[O-])cc1
REMARK SMILES IDX 7 1 6 2 11 3 5 4 12 5 4 6 8 7 9 8 10 9 2 10 1 11 3 12
REMARK H PARENT
REMARK Flexibility Score: inf
ROOT
ATOM      1  C   UNL     1       4.773 -36.437  20.030  1.00  0.00    -0.003 A 
ATOM      2  C   UNL     1       4.982 -35.361  19.151  1.00  0.00     0.010 A 
ATOM      3  C   UNL     1       3.968 -37.511  19.613  1.00  0.00     0.010 A 
ATOM      4  C   UNL     1       4.398 -35.359  17.881  1.00  0.00     0.004 A 
ATOM      5  C   UNL     1       3.384 -37.509  18.343  1.00  0.00     0.004 A 
ATOM      6  C   UNL     1       3.593 -36.432  17.462  1.00  0.00    -0.045 A 
ENDROOT
BRANCH   1   7
ATOM      7  C   UNL     1       5.393 -36.436  21.374  1.00  0.00     0.071 C 
ATOM      8  O   UNL     1       5.737 -37.516  21.922  1.00  0.00    -0.545 OA
ATOM      9  O   UNL     1       5.605 -35.240  22.050  1.00  0.00    -0.545 OA
ENDBRANCH   1   7
BRANCH   6  10
ATOM     10  C   UNL     1       2.966 -36.416  16.081  1.00  0.00     0.013 C 
ATOM     11  C   UNL     1       3.443 -37.608  15.244  1.00  0.00     0.012 C 
ATOM     12  C   UNL     1       1.435 -36.381  16.169  1.00  0.00     0.012 C 
ENDBRANCH   6  10
TORSDOF 2
ENDMDL
MODEL 3
REMARK VINA RESULT:    -4.478      3.188      5.202
REMARK INTER + INTRA:          -5.210
REMARK INTER:                  -5.007
REMARK INTRA:                  -0.203
REMARK UNBOUND:                -0.208
REMARK SMILES CC(C)c1ccc(C(=O)[O-])cc1
REMARK SMILES IDX 7 1 6 2 11 3 5 4 12 5 4 6 8 7 9 8 10 9 2 10 1 11 3 12
REMARK H PARENT
REMARK Flexibility Score: inf
ROOT
ATOM      1  C   UNL     1       3.221 -36.760  17.234  1.00  0.00    -0.003 A 
ATOM      2  C   UNL     1       4.102 -35.698  17.497  1.00  0.00     0.010 A 
ATOM      3  C   UNL     1       2.808 -37.581  18.298  1.00  0.00     0.010 A 
ATOM      4  C   UNL     1       4.559 -35.461  18.796  1.00  0.00     0.004 A 
ATOM      5  C   UNL     1       3.266 -37.344  19.597  1.00  0.00     0.004 A 
ATOM      6  C   UNL     1       4.148 -36.280  19.860  1.00  0.00    -0.045 A 
ENDROOT
BRANCH   1   7
ATOM      7  C   UNL     1       2.738 -37.008  15.857  1.00  0.00     0.071 C 
ATOM      8  O   UNL     1       1.607 -36.594  15.490  1.00  0.00    -0.545 OA
ATOM      9  O   UNL     1       3.529 -37.704  14.949  1.00  0.00    -0.545 OA
ENDBRANCH   1   7
BRANCH   6  10
ATOM     10  C   UNL     1       4.653 -36.010  21.265  1.00  0.00     0.013 C 
ATOM     11  C   UNL     1       6.125 -35.582  21.250  1.00  0.00     0.012 C 
ATOM     12  C   UNL     1       3.782 -34.966  21.976  1.00  0.00     0.012 C 
ENDBRANCH   6  10
TORSDOF 2
ENDMDL
MODEL 4
REMARK VINA RESULT:    -4.322      2.774      5.576
REMARK INTER + INTRA:          -5.035
REMARK INTER:                  -4.832
REMARK INTRA:                  -0.204
REMARK UNBOUND:                -0.208
REMARK SMILES CC(C)c1ccc(C(=O)[O-])cc1
REMARK SMILES IDX 7 1 6 2 11 3 5 4 12 5 4 6 8 7 9 8 10 9 2 10 1 11 3 12
REMARK H PARENT
REMARK Flexibility Score: inf
ROOT
ATOM      1  C   UNL     1       3.946 -36.763  19.785  1.00  0.00    -0.003 A 
ATOM      2  C   UNL     1       5.003 -37.564  20.247  1.00  0.00     0.010 A 
ATOM      3  C   UNL     1       3.601 -35.608  20.507  1.00  0.00     0.010 A 
ATOM      4  C   UNL     1       5.701 -37.217  21.407  1.00  0.00     0.004 A 
ATOM      5  C   UNL     1       4.299 -35.261  21.667  1.00  0.00     0.004 A 
ATOM      6  C   UNL     1       5.358 -36.063  22.130  1.00  0.00    -0.045 A 
ENDROOT
BRANCH   1   7
ATOM      7  C   UNL     1       3.208 -37.134  18.556  1.00  0.00     0.071 C 
ATOM      8  O   UNL     1       3.564 -36.684  17.435  1.00  0.00    -0.545 OA
ATOM      9  O   UNL     1       2.111 -37.985  18.623  1.00  0.00    -0.545 OA
ENDBRANCH   1   7
BRANCH   6  10
ATOM     10  C   UNL     1       6.125 -35.699  23.388  1.00  0.00     0.013 C 
ATOM     11  C   UNL     1       5.962 -34.211  23.723  1.00  0.00     0.012 C 
ATOM     12  C   UNL     1       5.700 -36.580  24.569  1.00  0.00     0.012 C 
ENDBRANCH   6  10
TORSDOF 2
ENDMDL
MODEL 5
REMARK VINA RESULT:    -4.307      3.032      5.099
REMARK INTER + INTRA:          -5.018
REMARK INTER:                  -4.815
REMARK INTRA:                  -0.203
REMARK UNBOUND:                -0.208
REMARK SMILES CC(C)c1ccc(C(=O)[O-])cc1
REMARK SMILES IDX 7 1 6 2 11 3 5 4 12 5 4 6 8 7 9 8 10 9 2 10 1 11 3 12
REMARK H PARENT
REMARK Flexibility Score: inf
ROOT
ATOM      1  C   UNL     1       3.432 -36.570  17.448  1.00  0.00    -0.003 A 
ATOM      2  C   UNL     1       3.279 -37.514  18.477  1.00  0.00     0.010 A 
ATOM      3  C   UNL     1       4.240 -35.442  17.674  1.00  0.00     0.010 A 
ATOM      4  C   UNL     1       3.919 -37.334  19.706  1.00  0.00     0.004 A 
ATOM      5  C   UNL     1       4.881 -35.263  18.903  1.00  0.00     0.004 A 
ATOM      6  C   UNL     1       4.727 -36.208  19.933  1.00  0.00    -0.045 A 
ENDROOT
BRANCH   1   7
ATOM      7  C   UNL     1       2.752 -36.764  16.147  1.00  0.00     0.071 C 
ATOM      8  O   UNL     1       1.608 -36.279  15.944  1.00  0.00    -0.545 OA
ATOM      9  O   UNL     1       3.370 -37.484  15.131  1.00  0.00    -0.545 OA
ENDBRANCH   1   7
BRANCH   6  10
ATOM     10  C   UNL     1       5.416 -36.026  21.273  1.00  0.00     0.013 C 
ATOM     11  C   UNL     1       4.563 -35.177  22.223  1.00  0.00     0.012 C 
ATOM     12  C   UNL     1       5.764 -37.380  21.904  1.00  0.00     0.012 C 
ENDBRANCH   6  10
TORSDOF 2
ENDMDL
MODEL 6
REMARK VINA RESULT:    -4.281      1.730      3.010
REMARK INTER + INTRA:          -4.990
REMARK INTER:                  -4.785
REMARK INTRA:                  -0.205
REMARK UNBOUND:                -0.208
REMARK SMILES CC(C)c1ccc(C(=O)[O-])cc1
REMARK SMILES IDX 7 1 6 2 11 3 5 4 12 5 4 6 8 7 9 8 10 9 2 10 1 11 3 12
REMARK H PARENT
REMARK Flexibility Score: inf
ROOT
ATOM      1  C   UNL     1       5.165 -35.836  22.269  1.00  0.00    -0.003 A 
ATOM      2  C   UNL     1       4.012 -35.265  21.707  1.00  0.00     0.010 A 
ATOM      3  C   UNL     1       5.770 -36.926  21.620  1.00  0.00     0.010 A 
ATOM      4  C   UNL     1       3.475 -35.771  20.521  1.00  0.00     0.004 A 
ATOM      5  C   UNL     1       5.233 -37.433  20.434  1.00  0.00     0.004 A 
ATOM      6  C   UNL     1       4.078 -36.860  19.870  1.00  0.00    -0.045 A 
ENDROOT
BRANCH   1   7
ATOM      7  C   UNL     1       5.732 -35.297  23.526  1.00  0.00     0.071 C 
ATOM      8  O   UNL     1       5.955 -34.064  23.651  1.00  0.00    -0.545 OA
ATOM      9  O   UNL     1       6.024 -36.146  24.588  1.00  0.00    -0.545 OA
ENDBRANCH   1   7
BRANCH   6  10
ATOM     10  C   UNL     1       3.484 -37.400  18.583  1.00  0.00     0.013 C 
ATOM     11  C   UNL     1       2.019 -37.807  18.779  1.00  0.00     0.012 C 
ATOM     12  C   UNL     1       3.627 -36.387  17.440  1.00  0.00     0.012 C 
ENDBRANCH   6  10
TORSDOF 2
ENDMDL
MODEL 7
REMARK VINA RESULT:    -2.141      2.302      3.612
REMARK INTER + INTRA:          -2.599
REMARK INTER:                  -2.383
REMARK INTRA:                  -0.216
REMARK UNBOUND:                -0.208
REMARK SMILES CC(C)c1ccc(C(=O)[O-])cc1
REMARK SMILES IDX 7 1 6 2 11 3 5 4 12 5 4 6 8 7 9 8 10 9 2 10 1 11 3 12
REMARK H PARENT
REMARK Flexibility Score: inf
ROOT
ATOM      1  C   UNL     1       5.640 -36.303  23.342  1.00  0.00    -0.003 A 
ATOM      2  C   UNL     1       5.629 -37.501  22.610  1.00  0.00     0.010 A 
ATOM      3  C   UNL     1       5.453 -35.088  22.661  1.00  0.00     0.010 A 
ATOM      4  C   UNL     1       5.434 -37.486  21.226  1.00  0.00     0.004 A 
ATOM      5  C   UNL     1       5.258 -35.072  21.277  1.00  0.00     0.004 A 
ATOM      6  C   UNL     1       5.246 -36.272  20.544  1.00  0.00    -0.045 A 
ENDROOT
BRANCH   1   7
ATOM      7  C   UNL     1       5.847 -36.323  24.808  1.00  0.00     0.071 C 
ATOM      8  O   UNL     1       5.777 -37.404  25.450  1.00  0.00    -0.545 OA
ATOM      9  O   UNL     1       6.122 -35.147  25.496  1.00  0.00    -0.545 OA
ENDBRANCH   1   7
BRANCH   6  10
ATOM     10  C   UNL     1       5.036 -36.271  19.041  1.00  0.00     0.013 C 
ATOM     11  C   UNL     1       3.792 -37.080  18.657  1.00  0.00     0.012 C 
ATOM     12  C   UNL     1       4.953 -34.839  18.496  1.00  0.00     0.012 C 
ENDBRANCH   6  10
TORSDOF 2
ENDMDL
