MODEL 1
REMARK VINA RESULT:    -3.988      0.000      0.000
REMARK INTER + INTRA:          -5.095
REMARK INTER:                  -5.038
REMARK INTRA:                  -0.058
REMARK UNBOUND:                -0.058
REMARK SMILES CCCCCCO
REMARK SMILES IDX 4 1 3 2 2 3 1 4 5 5 6 6 7 7
REMARK H PARENT 7 8
REMARK Flexibility Score: inf
ROOT
ATOM      1  C   UNL     1     -32.378  52.271 -50.630  1.00  0.00     0.002 C 
ENDROOT
BRANCH   1   2
ATOM      2  C   UNL     1     -33.068  50.950 -51.013  1.00  0.00    -0.000 C 
BRANCH   2   3
ATOM      3  C   UNL     1     -34.163  51.133 -52.075  1.00  0.00    -0.003 C 
ATOM      4  C   UNL     1     -34.814  49.799 -52.429  1.00  0.00     0.004 C 
ENDBRANCH   2   3
ENDBRANCH   1   2
BRANCH   1   5
ATOM      5  C   UNL     1     -31.710  53.017 -51.800  1.00  0.00     0.028 C 
BRANCH   5   6
ATOM      6  C   UNL     1     -31.037  54.326 -51.371  1.00  0.00     0.156 C 
BRANCH   6   7
ATOM      7  O   UNL     1     -31.893  55.056 -50.534  1.00  0.00    -0.396 OA
ATOM      8  H   UNL     1     -31.735  56.017 -50.734  1.00  0.00     0.210 HD
ENDBRANCH   6   7
ENDBRANCH   5   6
ENDBRANCH   1   5
TORSDOF 5
ENDMDL
MODEL 2
REMARK VINA RESULT:    -3.877      1.485      2.061
REMARK INTER + INTRA:          -4.955
REMARK INTER:                  -4.845
REMARK INTRA:                  -0.110
REMARK UNBOUND:                -0.058
REMARK SMILES CCCCCCO
REMARK SMILES IDX 4 1 3 2 2 3 1 4 5 5 6 6 7 7
REMARK H PARENT 7 8
REMARK Flexibility Score: inf
ROOT
ATOM      1  C   UNL     1     -31.616  52.358 -52.472  1.00  0.00     0.002 C 
ENDROOT
BRANCH   1   2
ATOM      2  C   UNL     1     -32.772  52.003 -51.520  1.00  0.00    -0.000 C 
BRANCH   2   3
ATOM      3  C   UNL     1     -32.480  50.764 -50.661  1.00  0.00    -0.003 C 
ATOM      4  C   UNL     1     -32.514  51.105 -49.173  1.00  0.00     0.004 C 
ENDBRANCH   2   3
ENDBRANCH   1   2
BRANCH   1   5
ATOM      5  C   UNL     1     -30.917  53.697 -52.172  1.00  0.00     0.028 C 
BRANCH   5   6
ATOM      6  C   UNL     1     -31.086  54.148 -50.716  1.00  0.00     0.156 C 
BRANCH   6   7
ATOM      7  O   UNL     1     -31.979  55.226 -50.646  1.00  0.00    -0.396 OA
ATOM      8  H   UNL     1     -31.975  55.658 -51.541  1.00  0.00     0.210 HD
ENDBRANCH   6   7
ENDBRANCH   5   6
ENDBRANCH   1   5
TORSDOF 5
ENDMDL
MODEL 3
REMARK VINA RESULT:    -3.857      1.264      2.331
REMARK INTER + INTRA:          -4.929
REMARK INTER:                  -4.891
REMARK INTRA:                  -0.038
REMARK UNBOUND:                -0.058
REMARK SMILES CCCCCCO
REMARK SMILES IDX 4 1 3 2 2 3 1 4 5 5 6 6 7 7
REMARK H PARENT 7 8
REMARK Flexibility Score: inf
ROOT
ATOM      1  C   UNL     1     -34.234  51.168 -52.126  1.00  0.00     0.002 C 
ENDROOT
BRANCH   1   2
ATOM      2  C   UNL     1     -34.564  49.707 -52.484  1.00  0.00    -0.000 C 
BRANCH   2   3
ATOM      3  C   UNL     1     -36.073  49.436 -52.564  1.00  0.00    -0.003 C 
ATOM      4  C   UNL     1     -36.389  47.978 -52.241  1.00  0.00     0.004 C 
ENDBRANCH   2   3
ENDBRANCH   1   2
BRANCH   1   5
ATOM      5  C   UNL     1     -33.116  51.343 -51.082  1.00  0.00     0.028 C 
BRANCH   5   6
ATOM      6  C   UNL     1     -32.245  52.578 -51.338  1.00  0.00     0.156 C 
BRANCH   6   7
ATOM      7  O   UNL     1     -32.371  53.485 -50.276  1.00  0.00    -0.396 OA
ATOM      8  H   UNL     1     -33.247  53.940 -50.392  1.00  0.00     0.210 HD
ENDBRANCH   6   7
ENDBRANCH   5   6
ENDBRANCH   1   5
TORSDOF 5
ENDMDL
MODEL 4
REMARK VINA RESULT:    -3.840      2.456      3.155
REMARK INTER + INTRA:          -4.907
REMARK INTER:                  -4.847
REMARK INTRA:                  -0.060
REMARK UNBOUND:                -0.058
REMARK SMILES CCCCCCO
REMARK SMILES IDX 4 1 3 2 2 3 1 4 5 5 6 6 7 7
REMARK H PARENT 7 8
REMARK Flexibility Score: inf
ROOT
ATOM      1  C   UNL     1     -34.453  51.120 -52.109  1.00  0.00     0.002 C 
ENDROOT
BRANCH   1   2
ATOM      2  C   UNL     1     -34.660  49.651 -52.519  1.00  0.00    -0.000 C 
BRANCH   2   3
ATOM      3  C   UNL     1     -36.141  49.247 -52.569  1.00  0.00    -0.003 C 
ATOM      4  C   UNL     1     -36.320  47.771 -52.224  1.00  0.00     0.004 C 
ENDBRANCH   2   3
ENDBRANCH   1   2
BRANCH   1   5
ATOM      5  C   UNL     1     -32.991  51.514 -51.824  1.00  0.00     0.028 C 
BRANCH   5   6
ATOM      6  C   UNL     1     -32.555  51.199 -50.388  1.00  0.00     0.156 C 
BRANCH   6   7
ATOM      7  O   UNL     1     -31.642  50.135 -50.384  1.00  0.00    -0.396 OA
ATOM      8  H   UNL     1     -31.222  50.116 -51.284  1.00  0.00     0.210 HD
ENDBRANCH   6   7
ENDBRANCH   5   6
ENDBRANCH   1   5
TORSDOF 5
ENDMDL
MODEL 5
REMARK VINA RESULT:    -3.802     13.750     15.510
REMARK INTER + INTRA:          -4.860
REMARK INTER:                  -4.776
REMARK INTRA:                  -0.084
REMARK UNBOUND:                -0.058
REMARK SMILES CCCCCCO
REMARK SMILES IDX 4 1 3 2 2 3 1 4 5 5 6 6 7 7
REMARK H PARENT 7 8
REMARK Flexibility Score: inf
ROOT
ATOM      1  C   UNL     1     -40.676  39.294 -50.107  1.00  0.00     0.002 C 
ENDROOT
BRANCH   1   2
ATOM      2  C   UNL     1     -41.276  38.792 -51.432  1.00  0.00    -0.000 C 
BRANCH   2   3
ATOM      3  C   UNL     1     -41.817  37.358 -51.339  1.00  0.00    -0.003 C 
ATOM      4  C   UNL     1     -42.612  37.153 -50.052  1.00  0.00     0.004 C 
ENDBRANCH   2   3
ENDBRANCH   1   2
BRANCH   1   5
ATOM      5  C   UNL     1     -41.316  40.579 -49.551  1.00  0.00     0.028 C 
BRANCH   5   6
ATOM      6  C   UNL     1     -41.333  41.728 -50.566  1.00  0.00     0.156 C 
BRANCH   6   7
ATOM      7  O   UNL     1     -41.463  42.956 -49.903  1.00  0.00    -0.396 OA
ATOM      8  H   UNL     1     -41.357  42.769 -48.933  1.00  0.00     0.210 HD
ENDBRANCH   6   7
ENDBRANCH   5   6
ENDBRANCH   1   5
TORSDOF 5
ENDMDL
MODEL 6
REMARK VINA RESULT:    -3.558     15.572     17.121
REMARK INTER + INTRA:          -4.552
REMARK INTER:                  -4.405
REMARK INTRA:                  -0.147
REMARK UNBOUND:                -0.058
REMARK SMILES CCCCCCO
REMARK SMILES IDX 4 1 3 2 2 3 1 4 5 5 6 6 7 7
REMARK H PARENT 7 8
REMARK Flexibility Score: inf
ROOT
ATOM      1  C   UNL     1     -41.163  37.999 -50.930  1.00  0.00     0.002 C 
ENDROOT
BRANCH   1   2
ATOM      2  C   UNL     1     -40.670  39.424 -50.619  1.00  0.00    -0.000 C 
BRANCH   2   3
ATOM      3  C   UNL     1     -41.547  40.148 -49.587  1.00  0.00    -0.003 C 
ATOM      4  C   UNL     1     -40.754  40.476 -48.325  1.00  0.00     0.004 C 
ENDBRANCH   2   3
ENDBRANCH   1   2
BRANCH   1   5
ATOM      5  C   UNL     1     -42.392  37.547 -50.120  1.00  0.00     0.028 C 
BRANCH   5   6
ATOM      6  C   UNL     1     -43.563  37.105 -51.005  1.00  0.00     0.156 C 
BRANCH   6   7
ATOM      7  O   UNL     1     -44.584  38.066 -50.968  1.00  0.00    -0.396 OA
ATOM      8  H   UNL     1     -44.616  38.482 -51.870  1.00  0.00     0.210 HD
ENDBRANCH   6   7
ENDBRANCH   5   6
ENDBRANCH   1   5
TORSDOF 5
ENDMDL
MODEL 7
REMARK VINA RESULT:    -3.549      3.961      5.893
REMARK INTER + INTRA:          -4.540
REMARK INTER:                  -4.510
REMARK INTRA:                  -0.030
REMARK UNBOUND:                -0.058
REMARK SMILES CCCCCCO
REMARK SMILES IDX 4 1 3 2 2 3 1 4 5 5 6 6 7 7
REMARK H PARENT 7 8
REMARK Flexibility Score: inf
ROOT
ATOM      1  C   UNL     1     -34.787  49.590 -52.576  1.00  0.00     0.002 C 
ENDROOT
BRANCH   1   2
ATOM      2  C   UNL     1     -34.503  51.031 -52.114  1.00  0.00    -0.000 C 
BRANCH   2   3
ATOM      3  C   UNL     1     -33.221  51.148 -51.277  1.00  0.00    -0.003 C 
ATOM      4  C   UNL     1     -32.299  52.230 -51.832  1.00  0.00     0.004 C 
ENDBRANCH   2   3
ENDBRANCH   1   2
BRANCH   1   5
ATOM      5  C   UNL     1     -36.263  49.159 -52.486  1.00  0.00     0.028 C 
BRANCH   5   6
ATOM      6  C   UNL     1     -36.434  47.670 -52.165  1.00  0.00     0.156 C 
BRANCH   6   7
ATOM      7  O   UNL     1     -37.735  47.255 -52.482  1.00  0.00    -0.396 OA
ATOM      8  H   UNL     1     -38.158  48.001 -52.983  1.00  0.00     0.210 HD
ENDBRANCH   6   7
ENDBRANCH   5   6
ENDBRANCH   1   5
TORSDOF 5
ENDMDL
MODEL 8
REMARK VINA RESULT:    -3.505     14.963     16.314
REMARK INTER + INTRA:          -4.485
REMARK INTER:                  -4.302
REMARK INTRA:                  -0.182
REMARK UNBOUND:                -0.058
REMARK SMILES CCCCCCO
REMARK SMILES IDX 4 1 3 2 2 3 1 4 5 5 6 6 7 7
REMARK H PARENT 7 8
REMARK Flexibility Score: inf
ROOT
ATOM      1  C   UNL     1     -41.222  38.768 -51.352  1.00  0.00     0.002 C 
ENDROOT
BRANCH   1   2
ATOM      2  C   UNL     1     -41.702  37.519 -50.592  1.00  0.00    -0.000 C 
BRANCH   2   3
ATOM      3  C   UNL     1     -43.233  37.413 -50.521  1.00  0.00    -0.003 C 
ATOM      4  C   UNL     1     -43.899  38.582 -51.241  1.00  0.00     0.004 C 
ENDBRANCH   2   3
ENDBRANCH   1   2
BRANCH   1   5
ATOM      5  C   UNL     1     -40.386  39.754 -50.515  1.00  0.00     0.028 C 
BRANCH   5   6
ATOM      6  C   UNL     1     -41.131  40.274 -49.280  1.00  0.00     0.156 C 
BRANCH   6   7
ATOM      7  O   UNL     1     -40.433  39.927 -48.114  1.00  0.00    -0.396 OA
ATOM      8  H   UNL     1     -40.944  40.307 -47.352  1.00  0.00     0.210 HD
ENDBRANCH   6   7
ENDBRANCH   5   6
ENDBRANCH   1   5
TORSDOF 5
ENDMDL
MODEL 9
REMARK VINA RESULT:    -3.431      3.384      4.068
REMARK INTER + INTRA:          -4.391
REMARK INTER:                  -4.278
REMARK INTRA:                  -0.112
REMARK UNBOUND:                -0.058
REMARK SMILES CCCCCCO
REMARK SMILES IDX 4 1 3 2 2 3 1 4 5 5 6 6 7 7
REMARK H PARENT 7 8
REMARK Flexibility Score: inf
ROOT
ATOM      1  C   UNL     1     -33.260  50.433 -53.228  1.00  0.00     0.002 C 
ENDROOT
BRANCH   1   2
ATOM      2  C   UNL     1     -33.928  51.233 -52.094  1.00  0.00    -0.000 C 
BRANCH   2   3
ATOM      3  C   UNL     1     -32.915  51.963 -51.201  1.00  0.00    -0.003 C 
ATOM      4  C   UNL     1     -32.542  51.117 -49.986  1.00  0.00     0.004 C 
ENDBRANCH   2   3
ENDBRANCH   1   2
BRANCH   1   5
ATOM      5  C   UNL     1     -32.023  51.103 -53.852  1.00  0.00     0.028 C 
BRANCH   5   6
ATOM      6  C   UNL     1     -31.072  50.103 -54.520  1.00  0.00     0.156 C 
BRANCH   6   7
ATOM      7  O   UNL     1     -31.289  48.816 -54.007  1.00  0.00    -0.396 OA
ATOM      8  H   UNL     1     -31.727  48.931 -53.123  1.00  0.00     0.210 HD
ENDBRANCH   6   7
ENDBRANCH   5   6
ENDBRANCH   1   5
TORSDOF 5
ENDMDL
