MODEL 1
REMARK VINA RESULT:    -3.481      0.000      0.000
REMARK INTER + INTRA:          -4.452
REMARK INTER:                  -4.396
REMARK INTRA:                  -0.056
REMARK UNBOUND:                -0.056
REMARK SMILES CCCCCCO
REMARK SMILES IDX 4 1 3 2 2 3 1 4 5 5 6 6 7 7
REMARK H PARENT 7 8
REMARK Flexibility Score: inf
ROOT
ATOM      1  C   UNL     1     181.674 191.353 201.607  1.00  0.00     0.002 C 
ENDROOT
BRANCH   1   2
ATOM      2  C   UNL     1     180.654 191.850 202.642  1.00  0.00    -0.000 C 
BRANCH   2   3
ATOM      3  C   UNL     1     180.223 193.304 202.395  1.00  0.00    -0.003 C 
ATOM      4  C   UNL     1     181.392 194.287 202.466  1.00  0.00     0.004 C 
ENDBRANCH   2   3
ENDBRANCH   1   2
BRANCH   1   5
ATOM      5  C   UNL     1     181.509 189.850 201.352  1.00  0.00     0.028 C 
BRANCH   5   6
ATOM      6  C   UNL     1     182.242 189.025 202.413  1.00  0.00     0.156 C 
BRANCH   6   7
ATOM      7  O   UNL     1     183.615 188.988 202.134  1.00  0.00    -0.396 OA
ATOM      8  H   UNL     1     183.788 189.694 201.458  1.00  0.00     0.210 HD
ENDBRANCH   6   7
ENDBRANCH   5   6
ENDBRANCH   1   5
TORSDOF 5
ENDMDL
MODEL 2
REMARK VINA RESULT:    -3.473      1.545      2.250
REMARK INTER + INTRA:          -4.443
REMARK INTER:                  -4.284
REMARK INTRA:                  -0.159
REMARK UNBOUND:                -0.056
REMARK SMILES CCCCCCO
REMARK SMILES IDX 4 1 3 2 2 3 1 4 5 5 6 6 7 7
REMARK H PARENT 7 8
REMARK Flexibility Score: inf
ROOT
ATOM      1  C   UNL     1     181.137 191.720 201.776  1.00  0.00     0.002 C 
ENDROOT
BRANCH   1   2
ATOM      2  C   UNL     1     180.117 190.971 202.647  1.00  0.00    -0.000 C 
BRANCH   2   3
ATOM      3  C   UNL     1     178.727 190.898 201.997  1.00  0.00    -0.003 C 
ATOM      4  C   UNL     1     178.791 190.768 200.475  1.00  0.00     0.004 C 
ENDBRANCH   2   3
ENDBRANCH   1   2
BRANCH   1   5
ATOM      5  C   UNL     1     182.464 190.956 201.706  1.00  0.00     0.028 C 
BRANCH   5   6
ATOM      6  C   UNL     1     182.270 189.479 202.060  1.00  0.00     0.156 C 
BRANCH   6   7
ATOM      7  O   UNL     1     183.508 188.822 202.092  1.00  0.00    -0.396 OA
ATOM      8  H   UNL     1     183.354 187.909 201.735  1.00  0.00     0.210 HD
ENDBRANCH   6   7
ENDBRANCH   5   6
ENDBRANCH   1   5
TORSDOF 5
ENDMDL
MODEL 3
REMARK VINA RESULT:    -3.470      2.141      2.636
REMARK INTER + INTRA:          -4.439
REMARK INTER:                  -4.327
REMARK INTRA:                  -0.112
REMARK UNBOUND:                -0.056
REMARK SMILES CCCCCCO
REMARK SMILES IDX 4 1 3 2 2 3 1 4 5 5 6 6 7 7
REMARK H PARENT 7 8
REMARK Flexibility Score: inf
ROOT
ATOM      1  C   UNL     1     181.266 190.044 200.986  1.00  0.00     0.002 C 
ENDROOT
BRANCH   1   2
ATOM      2  C   UNL     1     181.872 191.302 201.628  1.00  0.00    -0.000 C 
BRANCH   2   3
ATOM      3  C   UNL     1     180.834 192.128 202.402  1.00  0.00    -0.003 C 
ATOM      4  C   UNL     1     181.164 193.621 202.427  1.00  0.00     0.004 C 
ENDBRANCH   2   3
ENDBRANCH   1   2
BRANCH   1   5
ATOM      5  C   UNL     1     180.020 190.394 200.164  1.00  0.00     0.028 C 
BRANCH   5   6
ATOM      6  C   UNL     1     180.195 189.991 198.697  1.00  0.00     0.156 C 
BRANCH   6   7
ATOM      7  O   UNL     1     181.210 189.032 198.576  1.00  0.00    -0.396 OA
ATOM      8  H   UNL     1     181.645 189.187 197.698  1.00  0.00     0.210 HD
ENDBRANCH   6   7
ENDBRANCH   5   6
ENDBRANCH   1   5
TORSDOF 5
ENDMDL
MODEL 4
REMARK VINA RESULT:    -3.339     12.797     13.412
REMARK INTER + INTRA:          -4.273
REMARK INTER:                  -4.156
REMARK INTRA:                  -0.117
REMARK UNBOUND:                -0.056
REMARK SMILES CCCCCCO
REMARK SMILES IDX 4 1 3 2 2 3 1 4 5 5 6 6 7 7
REMARK H PARENT 7 8
REMARK Flexibility Score: inf
ROOT
ATOM      1  C   UNL     1     184.382 191.296 188.136  1.00  0.00     0.002 C 
ENDROOT
BRANCH   1   2
ATOM      2  C   UNL     1     185.433 192.383 187.870  1.00  0.00    -0.000 C 
BRANCH   2   3
ATOM      3  C   UNL     1     186.155 192.833 189.149  1.00  0.00    -0.003 C 
ATOM      4  C   UNL     1     186.154 194.352 189.326  1.00  0.00     0.004 C 
ENDBRANCH   2   3
ENDBRANCH   1   2
BRANCH   1   5
ATOM      5  C   UNL     1     184.100 191.161 189.637  1.00  0.00     0.028 C 
BRANCH   5   6
ATOM      6  C   UNL     1     183.917 189.694 190.036  1.00  0.00     0.156 C 
BRANCH   6   7
ATOM      7  O   UNL     1     183.103 189.599 191.173  1.00  0.00    -0.396 OA
ATOM      8  H   UNL     1     182.672 188.705 191.139  1.00  0.00     0.210 HD
ENDBRANCH   6   7
ENDBRANCH   5   6
ENDBRANCH   1   5
TORSDOF 5
ENDMDL
MODEL 5
REMARK VINA RESULT:    -3.297      2.552      3.526
REMARK INTER + INTRA:          -4.220
REMARK INTER:                  -4.019
REMARK INTRA:                  -0.201
REMARK UNBOUND:                -0.056
REMARK SMILES CCCCCCO
REMARK SMILES IDX 4 1 3 2 2 3 1 4 5 5 6 6 7 7
REMARK H PARENT 7 8
REMARK Flexibility Score: inf
ROOT
ATOM      1  C   UNL     1     179.407 191.393 200.555  1.00  0.00     0.002 C 
ENDROOT
BRANCH   1   2
ATOM      2  C   UNL     1     180.189 191.157 201.856  1.00  0.00    -0.000 C 
BRANCH   2   3
ATOM      3  C   UNL     1     181.699 191.001 201.617  1.00  0.00    -0.003 C 
ATOM      4  C   UNL     1     182.213 189.605 201.970  1.00  0.00     0.004 C 
ENDBRANCH   2   3
ENDBRANCH   1   2
BRANCH   1   5
ATOM      5  C   UNL     1     179.235 190.084 199.774  1.00  0.00     0.028 C 
BRANCH   5   6
ATOM      6  C   UNL     1     180.044 190.107 198.475  1.00  0.00     0.156 C 
BRANCH   6   7
ATOM      7  O   UNL     1     181.093 189.180 198.541  1.00  0.00    -0.396 OA
ATOM      8  H   UNL     1     181.441 189.209 199.470  1.00  0.00     0.210 HD
ENDBRANCH   6   7
ENDBRANCH   5   6
ENDBRANCH   1   5
TORSDOF 5
ENDMDL
MODEL 6
REMARK VINA RESULT:    -3.205     13.635     14.518
REMARK INTER + INTRA:          -4.104
REMARK INTER:                  -4.052
REMARK INTRA:                  -0.052
REMARK UNBOUND:                -0.056
REMARK SMILES CCCCCCO
REMARK SMILES IDX 4 1 3 2 2 3 1 4 5 5 6 6 7 7
REMARK H PARENT 7 8
REMARK Flexibility Score: inf
ROOT
ATOM      1  C   UNL     1     186.216 197.140 191.081  1.00  0.00     0.002 C 
ENDROOT
BRANCH   1   2
ATOM      2  C   UNL     1     186.602 195.659 190.954  1.00  0.00    -0.000 C 
BRANCH   2   3
ATOM      3  C   UNL     1     186.728 195.205 189.492  1.00  0.00    -0.003 C 
ATOM      4  C   UNL     1     186.037 193.867 189.225  1.00  0.00     0.004 C 
ENDBRANCH   2   3
ENDBRANCH   1   2
BRANCH   1   5
ATOM      5  C   UNL     1     187.334 198.045 190.552  1.00  0.00     0.028 C 
BRANCH   5   6
ATOM      6  C   UNL     1     187.450 199.324 191.386  1.00  0.00     0.156 C 
BRANCH   6   7
ATOM      7  O   UNL     1     186.214 199.982 191.439  1.00  0.00    -0.396 OA
ATOM      8  H   UNL     1     186.400 200.948 191.308  1.00  0.00     0.210 HD
ENDBRANCH   6   7
ENDBRANCH   5   6
ENDBRANCH   1   5
TORSDOF 5
ENDMDL
MODEL 7
REMARK VINA RESULT:    -3.187      2.689      3.509
REMARK INTER + INTRA:          -4.082
REMARK INTER:                  -4.043
REMARK INTRA:                  -0.039
REMARK UNBOUND:                -0.056
REMARK SMILES CCCCCCO
REMARK SMILES IDX 4 1 3 2 2 3 1 4 5 5 6 6 7 7
REMARK H PARENT 7 8
REMARK Flexibility Score: inf
ROOT
ATOM      1  C   UNL     1     180.896 189.919 200.138  1.00  0.00     0.002 C 
ENDROOT
BRANCH   1   2
ATOM      2  C   UNL     1     179.467 190.099 199.605  1.00  0.00    -0.000 C 
BRANCH   2   3
ATOM      3  C   UNL     1     179.430 190.365 198.092  1.00  0.00    -0.003 C 
ATOM      4  C   UNL     1     178.487 191.508 197.714  1.00  0.00     0.004 C 
ENDBRANCH   2   3
ENDBRANCH   1   2
BRANCH   1   5
ATOM      5  C   UNL     1     180.950 190.158 201.651  1.00  0.00     0.028 C 
BRANCH   5   6
ATOM      6  C   UNL     1     181.692 189.024 202.364  1.00  0.00     0.156 C 
BRANCH   6   7
ATOM      7  O   UNL     1     183.038 189.005 201.975  1.00  0.00    -0.396 OA
ATOM      8  H   UNL     1     183.127 188.288 201.293  1.00  0.00     0.210 HD
ENDBRANCH   6   7
ENDBRANCH   5   6
ENDBRANCH   1   5
TORSDOF 5
ENDMDL
MODEL 8
REMARK VINA RESULT:    -3.174      2.534      4.178
REMARK INTER + INTRA:          -4.065
REMARK INTER:                  -3.985
REMARK INTRA:                  -0.080
REMARK UNBOUND:                -0.056
REMARK SMILES CCCCCCO
REMARK SMILES IDX 4 1 3 2 2 3 1 4 5 5 6 6 7 7
REMARK H PARENT 7 8
REMARK Flexibility Score: inf
ROOT
ATOM      1  C   UNL     1     181.212 191.967 201.829  1.00  0.00     0.002 C 
ENDROOT
BRANCH   1   2
ATOM      2  C   UNL     1     181.177 190.450 202.066  1.00  0.00    -0.000 C 
BRANCH   2   3
ATOM      3  C   UNL     1     181.085 189.651 200.757  1.00  0.00    -0.003 C 
ATOM      4  C   UNL     1     180.140 190.288 199.738  1.00  0.00     0.004 C 
ENDBRANCH   2   3
ENDBRANCH   1   2
BRANCH   1   5
ATOM      5  C   UNL     1     180.666 192.724 203.045  1.00  0.00     0.028 C 
BRANCH   5   6
ATOM      6  C   UNL     1     181.047 194.206 202.990  1.00  0.00     0.156 C 
BRANCH   6   7
ATOM      7  O   UNL     1     181.332 194.585 201.671  1.00  0.00    -0.396 OA
ATOM      8  H   UNL     1     181.914 195.388 201.725  1.00  0.00     0.210 HD
ENDBRANCH   6   7
ENDBRANCH   5   6
ENDBRANCH   1   5
TORSDOF 5
ENDMDL
MODEL 9
REMARK VINA RESULT:    -3.143      1.821      2.132
REMARK INTER + INTRA:          -4.026
REMARK INTER:                  -3.892
REMARK INTRA:                  -0.134
REMARK UNBOUND:                -0.056
REMARK SMILES CCCCCCO
REMARK SMILES IDX 4 1 3 2 2 3 1 4 5 5 6 6 7 7
REMARK H PARENT 7 8
REMARK Flexibility Score: inf
ROOT
ATOM      1  C   UNL     1     181.300 191.749 201.863  1.00  0.00     0.002 C 
ENDROOT
BRANCH   1   2
ATOM      2  C   UNL     1     180.132 191.809 202.860  1.00  0.00    -0.000 C 
BRANCH   2   3
ATOM      3  C   UNL     1     179.159 192.959 202.561  1.00  0.00    -0.003 C 
ATOM      4  C   UNL     1     178.704 192.986 201.101  1.00  0.00     0.004 C 
ENDBRANCH   2   3
ENDBRANCH   1   2
BRANCH   1   5
ATOM      5  C   UNL     1     181.611 190.300 201.469  1.00  0.00     0.028 C 
BRANCH   5   6
ATOM      6  C   UNL     1     180.782 189.868 200.256  1.00  0.00     0.156 C 
BRANCH   6   7
ATOM      7  O   UNL     1     181.246 188.640 199.766  1.00  0.00    -0.396 OA
ATOM      8  H   UNL     1     181.942 188.848 199.089  1.00  0.00     0.210 HD
ENDBRANCH   6   7
ENDBRANCH   5   6
ENDBRANCH   1   5
TORSDOF 5
ENDMDL
