MODEL 1
REMARK VINA RESULT:    -4.483      0.000      0.000
REMARK INTER + INTRA:          -5.184
REMARK INTER:                  -5.139
REMARK INTRA:                  -0.046
REMARK UNBOUND:                -0.046
REMARK SMILES O=C([O-])c1cc(O)c(O)c(O)c1
REMARK SMILES IDX 4 1 5 2 12 3 6 4 10 5 8 6 2 7 1 8 3 9 7 10 11 12 9 14
REMARK H PARENT 7 11 11 13 9 15
REMARK Flexibility Score: inf
ROOT
ATOM      1  C   UNL     1      31.692  10.468  29.364  1.00  0.00     0.005 A 
ATOM      2  C   UNL     1      31.947  11.843  29.217  1.00  0.00     0.060 A 
ATOM      3  C   UNL     1      31.709   9.646  28.226  1.00  0.00     0.060 A 
ATOM      4  C   UNL     1      32.214  12.388  27.956  1.00  0.00     0.162 A 
ATOM      5  C   UNL     1      31.975  10.184  26.960  1.00  0.00     0.162 A 
ATOM      6  C   UNL     1      32.229  11.559  26.822  1.00  0.00     0.200 A 
ENDROOT
BRANCH   1   7
ATOM      7  C   UNL     1      31.409   9.893  30.699  1.00  0.00     0.072 C 
ATOM      8  O   UNL     1      30.276   9.408  30.960  1.00  0.00    -0.545 OA
ATOM      9  O   UNL     1      32.391   9.880  31.682  1.00  0.00    -0.545 OA
ENDBRANCH   1   7
BRANCH   4  10
ATOM     10  O   UNL     1      32.462  13.756  27.852  1.00  0.00    -0.504 OA
ATOM     11  H   UNL     1      32.158  14.300  27.053  1.00  0.00     0.293 HD
ENDBRANCH   4  10
BRANCH   5  12
ATOM     12  O   UNL     1      31.989   9.356  25.838  1.00  0.00    -0.504 OA
ATOM     13  H   UNL     1      31.422   9.558  25.021  1.00  0.00     0.293 HD
ENDBRANCH   5  12
BRANCH   6  14
ATOM     14  O   UNL     1      32.496  12.111  25.569  1.00  0.00    -0.502 OA
ATOM     15  H   UNL     1      32.906  13.032  25.459  1.00  0.00     0.293 HD
ENDBRANCH   6  14
TORSDOF 4
ENDMDL
MODEL 2
REMARK VINA RESULT:    -4.474      0.061      2.602
REMARK INTER + INTRA:          -5.174
REMARK INTER:                  -5.128
REMARK INTRA:                  -0.046
REMARK UNBOUND:                -0.046
REMARK SMILES O=C([O-])c1cc(O)c(O)c(O)c1
REMARK SMILES IDX 4 1 5 2 12 3 6 4 10 5 8 6 2 7 1 8 3 9 7 10 11 12 9 14
REMARK H PARENT 7 11 11 13 9 15
REMARK Flexibility Score: inf
ROOT
ATOM      1  C   UNL     1      31.718  10.459  29.397  1.00  0.00     0.005 A 
ATOM      2  C   UNL     1      31.722   9.647  28.250  1.00  0.00     0.060 A 
ATOM      3  C   UNL     1      31.974  11.833  29.261  1.00  0.00     0.060 A 
ATOM      4  C   UNL     1      31.977  10.196  26.988  1.00  0.00     0.162 A 
ATOM      5  C   UNL     1      32.230  12.391  28.001  1.00  0.00     0.162 A 
ATOM      6  C   UNL     1      32.232  11.571  26.859  1.00  0.00     0.200 A 
ENDROOT
BRANCH   1   7
ATOM      7  C   UNL     1      31.449   9.877  30.732  1.00  0.00     0.072 C 
ATOM      8  O   UNL     1      32.326   9.912  31.635  1.00  0.00    -0.545 OA
ATOM      9  O   UNL     1      30.223   9.283  31.006  1.00  0.00    -0.545 OA
ENDBRANCH   1   7
BRANCH   4  10
ATOM     10  O   UNL     1      31.972   9.357  25.874  1.00  0.00    -0.504 OA
ATOM     11  H   UNL     1      32.765   8.777  25.631  1.00  0.00     0.293 HD
ENDBRANCH   4  10
BRANCH   5  12
ATOM     12  O   UNL     1      32.482  13.757  27.880  1.00  0.00    -0.504 OA
ATOM     13  H   UNL     1      31.822  14.451  28.214  1.00  0.00     0.293 HD
ENDBRANCH   5  12
BRANCH   6  14
ATOM     14  O   UNL     1      32.485  12.110  25.597  1.00  0.00    -0.502 OA
ATOM     15  H   UNL     1      32.771  11.537  24.812  1.00  0.00     0.293 HD
ENDBRANCH   6  14
TORSDOF 4
ENDMDL
MODEL 3
REMARK VINA RESULT:    -4.467      2.168      3.915
REMARK INTER + INTRA:          -5.166
REMARK INTER:                  -5.118
REMARK INTRA:                  -0.048
REMARK UNBOUND:                -0.046
REMARK SMILES O=C([O-])c1cc(O)c(O)c(O)c1
REMARK SMILES IDX 4 1 5 2 12 3 6 4 10 5 8 6 2 7 1 8 3 9 7 10 11 12 9 14
REMARK H PARENT 7 11 11 13 9 15
REMARK Flexibility Score: inf
ROOT
ATOM      1  C   UNL     1      31.307   9.627  30.804  1.00  0.00     0.005 A 
ATOM      2  C   UNL     1      31.680  10.217  29.584  1.00  0.00     0.060 A 
ATOM      3  C   UNL     1      31.549  10.322  32.000  1.00  0.00     0.060 A 
ATOM      4  C   UNL     1      32.283  11.478  29.557  1.00  0.00     0.162 A 
ATOM      5  C   UNL     1      32.153  11.587  31.981  1.00  0.00     0.162 A 
ATOM      6  C   UNL     1      32.522  12.169  30.757  1.00  0.00     0.200 A 
ENDROOT
BRANCH   1   7
ATOM      7  C   UNL     1      30.669   8.291  30.832  1.00  0.00     0.072 C 
ATOM      8  O   UNL     1      31.121   7.380  31.576  1.00  0.00    -0.545 OA
ATOM      9  O   UNL     1      29.561   8.024  30.037  1.00  0.00    -0.545 OA
ENDBRANCH   1   7
BRANCH   4  10
ATOM     10  O   UNL     1      32.638  12.030  28.326  1.00  0.00    -0.504 OA
ATOM     11  H   UNL     1      32.104  11.858  27.483  1.00  0.00     0.293 HD
ENDBRANCH   4  10
BRANCH   5  12
ATOM     12  O   UNL     1      32.387  12.267  33.176  1.00  0.00    -0.504 OA
ATOM     13  H   UNL     1      33.170  12.902  33.281  1.00  0.00     0.293 HD
ENDBRANCH   5  12
BRANCH   6  14
ATOM     14  O   UNL     1      33.124  13.427  30.720  1.00  0.00    -0.502 OA
ATOM     15  H   UNL     1      32.692  14.246  31.133  1.00  0.00     0.293 HD
ENDBRANCH   6  14
TORSDOF 4
ENDMDL
MODEL 4
REMARK VINA RESULT:    -4.451      2.248      3.590
REMARK INTER + INTRA:          -5.147
REMARK INTER:                  -5.096
REMARK INTRA:                  -0.051
REMARK UNBOUND:                -0.046
REMARK SMILES O=C([O-])c1cc(O)c(O)c(O)c1
REMARK SMILES IDX 4 1 5 2 12 3 6 4 10 5 8 6 2 7 1 8 3 9 7 10 11 12 9 14
REMARK H PARENT 7 11 11 13 9 15
REMARK Flexibility Score: inf
ROOT
ATOM      1  C   UNL     1      31.475   9.507  30.931  1.00  0.00     0.005 A 
ATOM      2  C   UNL     1      31.671  10.256  32.103  1.00  0.00     0.060 A 
ATOM      3  C   UNL     1      31.838  10.067  29.695  1.00  0.00     0.060 A 
ATOM      4  C   UNL     1      32.219  11.543  32.046  1.00  0.00     0.162 A 
ATOM      5  C   UNL     1      32.387  11.355  29.628  1.00  0.00     0.162 A 
ATOM      6  C   UNL     1      32.579  12.097  30.806  1.00  0.00     0.200 A 
ENDROOT
BRANCH   1   7
ATOM      7  C   UNL     1      30.896   8.146  30.993  1.00  0.00     0.072 C 
ATOM      8  O   UNL     1      30.993   7.457  32.043  1.00  0.00    -0.545 OA
ATOM      9  O   UNL     1      30.235   7.611  29.894  1.00  0.00    -0.545 OA
ENDBRANCH   1   7
BRANCH   4  10
ATOM     10  O   UNL     1      32.397  12.254  33.231  1.00  0.00    -0.504 OA
ATOM     11  H   UNL     1      32.179  13.240  33.307  1.00  0.00     0.293 HD
ENDBRANCH   4  10
BRANCH   5  12
ATOM     12  O   UNL     1      32.743  11.900  28.395  1.00  0.00    -0.504 OA
ATOM     13  H   UNL     1      33.290  11.376  27.720  1.00  0.00     0.293 HD
ENDBRANCH   5  12
BRANCH   6  14
ATOM     14  O   UNL     1      33.125  13.380  30.757  1.00  0.00    -0.502 OA
ATOM     15  H   UNL     1      34.125  13.543  30.748  1.00  0.00     0.293 HD
ENDBRANCH   6  14
TORSDOF 4
ENDMDL
MODEL 5
REMARK VINA RESULT:    -4.446      1.418      2.429
REMARK INTER + INTRA:          -5.141
REMARK INTER:                  -5.090
REMARK INTRA:                  -0.052
REMARK UNBOUND:                -0.046
REMARK SMILES O=C([O-])c1cc(O)c(O)c(O)c1
REMARK SMILES IDX 4 1 5 2 12 3 6 4 10 5 8 6 2 7 1 8 3 9 7 10 11 12 9 14
REMARK H PARENT 7 11 11 13 9 15
REMARK Flexibility Score: inf
ROOT
ATOM      1  C   UNL     1      31.584   9.670  28.382  1.00  0.00     0.005 A 
ATOM      2  C   UNL     1      31.546  10.551  29.477  1.00  0.00     0.060 A 
ATOM      3  C   UNL     1      31.915  10.173  27.114  1.00  0.00     0.060 A 
ATOM      4  C   UNL     1      31.833  11.910  29.309  1.00  0.00     0.162 A 
ATOM      5  C   UNL     1      32.204  11.533  26.937  1.00  0.00     0.162 A 
ATOM      6  C   UNL     1      32.164  12.406  28.037  1.00  0.00     0.200 A 
ENDROOT
BRANCH   1   7
ATOM      7  C   UNL     1      31.279   8.232  28.561  1.00  0.00     0.072 C 
ATOM      8  O   UNL     1      31.710   7.380  27.739  1.00  0.00    -0.545 OA
ATOM      9  O   UNL     1      30.514   7.803  29.638  1.00  0.00    -0.545 OA
ENDBRANCH   1   7
BRANCH   4  10
ATOM     10  O   UNL     1      31.785  12.752  30.420  1.00  0.00    -0.504 OA
ATOM     11  H   UNL     1      32.614  13.191  30.800  1.00  0.00     0.293 HD
ENDBRANCH   4  10
BRANCH   5  12
ATOM     12  O   UNL     1      32.531  12.019  25.672  1.00  0.00    -0.504 OA
ATOM     13  H   UNL     1      33.387  11.745  25.202  1.00  0.00     0.293 HD
ENDBRANCH   5  12
BRANCH   6  14
ATOM     14  O   UNL     1      32.449  13.763  27.879  1.00  0.00    -0.502 OA
ATOM     15  H   UNL     1      31.724  14.452  27.712  1.00  0.00     0.293 HD
ENDBRANCH   6  14
TORSDOF 4
ENDMDL
MODEL 6
REMARK VINA RESULT:    -4.444      1.417      3.002
REMARK INTER + INTRA:          -5.139
REMARK INTER:                  -5.087
REMARK INTRA:                  -0.051
REMARK UNBOUND:                -0.046
REMARK SMILES O=C([O-])c1cc(O)c(O)c(O)c1
REMARK SMILES IDX 4 1 5 2 12 3 6 4 10 5 8 6 2 7 1 8 3 9 7 10 11 12 9 14
REMARK H PARENT 7 11 11 13 9 15
REMARK Flexibility Score: inf
ROOT
ATOM      1  C   UNL     1      31.573   9.659  28.384  1.00  0.00     0.005 A 
ATOM      2  C   UNL     1      31.911  10.167  27.118  1.00  0.00     0.060 A 
ATOM      3  C   UNL     1      31.523  10.536  29.479  1.00  0.00     0.060 A 
ATOM      4  C   UNL     1      32.194  11.526  26.947  1.00  0.00     0.162 A 
ATOM      5  C   UNL     1      31.806  11.899  29.317  1.00  0.00     0.162 A 
ATOM      6  C   UNL     1      32.142  12.398  28.047  1.00  0.00     0.200 A 
ENDROOT
BRANCH   1   7
ATOM      7  C   UNL     1      31.273   8.220  28.563  1.00  0.00     0.072 C 
ATOM      8  O   UNL     1      31.710   7.368  27.745  1.00  0.00    -0.545 OA
ATOM      9  O   UNL     1      30.506   7.790  29.639  1.00  0.00    -0.545 OA
ENDBRANCH   1   7
BRANCH   4  10
ATOM     10  O   UNL     1      32.526  11.992  25.674  1.00  0.00    -0.504 OA
ATOM     11  H   UNL     1      33.195  12.738  25.530  1.00  0.00     0.293 HD
ENDBRANCH   4  10
BRANCH   5  12
ATOM     12  O   UNL     1      31.753  12.759  30.413  1.00  0.00    -0.504 OA
ATOM     13  H   UNL     1      31.706  13.766  30.297  1.00  0.00     0.293 HD
ENDBRANCH   5  12
BRANCH   6  14
ATOM     14  O   UNL     1      32.427  13.753  27.868  1.00  0.00    -0.502 OA
ATOM     15  H   UNL     1      32.904  14.303  28.572  1.00  0.00     0.293 HD
ENDBRANCH   6  14
TORSDOF 4
ENDMDL
MODEL 7
REMARK VINA RESULT:    -4.320      1.612      2.421
REMARK INTER + INTRA:          -4.997
REMARK INTER:                  -4.948
REMARK INTRA:                  -0.049
REMARK UNBOUND:                -0.046
REMARK SMILES O=C([O-])c1cc(O)c(O)c(O)c1
REMARK SMILES IDX 4 1 5 2 12 3 6 4 10 5 8 6 2 7 1 8 3 9 7 10 11 12 9 14
REMARK H PARENT 7 11 11 13 9 15
REMARK Flexibility Score: inf
ROOT
ATOM      1  C   UNL     1      31.645   9.993  30.845  1.00  0.00     0.005 A 
ATOM      2  C   UNL     1      32.266  11.142  31.364  1.00  0.00     0.060 A 
ATOM      3  C   UNL     1      31.266   9.974  29.493  1.00  0.00     0.060 A 
ATOM      4  C   UNL     1      32.506  12.254  30.548  1.00  0.00     0.162 A 
ATOM      5  C   UNL     1      31.503  11.084  28.669  1.00  0.00     0.162 A 
ATOM      6  C   UNL     1      32.125  12.228  29.196  1.00  0.00     0.200 A 
ENDROOT
BRANCH   1   7
ATOM      7  C   UNL     1      31.391   8.818  31.709  1.00  0.00     0.072 C 
ATOM      8  O   UNL     1      32.255   8.439  32.543  1.00  0.00    -0.545 OA
ATOM      9  O   UNL     1      30.195   8.117  31.611  1.00  0.00    -0.545 OA
ENDBRANCH   1   7
BRANCH   4  10
ATOM     10  O   UNL     1      33.125  13.375  31.100  1.00  0.00    -0.504 OA
ATOM     11  H   UNL     1      33.674  14.018  30.543  1.00  0.00     0.293 HD
ENDBRANCH   4  10
BRANCH   5  12
ATOM     12  O   UNL     1      31.123  11.052  27.328  1.00  0.00    -0.504 OA
ATOM     13  H   UNL     1      31.506  10.370  26.683  1.00  0.00     0.293 HD
ENDBRANCH   5  12
BRANCH   6  14
ATOM     14  O   UNL     1      32.368  13.341  28.390  1.00  0.00    -0.502 OA
ATOM     15  H   UNL     1      33.164  13.392  27.765  1.00  0.00     0.293 HD
ENDBRANCH   6  14
TORSDOF 4
ENDMDL
MODEL 8
REMARK VINA RESULT:    -4.290      2.142      4.301
REMARK INTER + INTRA:          -4.963
REMARK INTER:                  -4.918
REMARK INTRA:                  -0.045
REMARK UNBOUND:                -0.046
REMARK SMILES O=C([O-])c1cc(O)c(O)c(O)c1
REMARK SMILES IDX 4 1 5 2 12 3 6 4 10 5 8 6 2 7 1 8 3 9 7 10 11 12 9 14
REMARK H PARENT 7 11 11 13 9 15
REMARK Flexibility Score: inf
ROOT
ATOM      1  C   UNL     1      31.593  10.213  29.624  1.00  0.00     0.005 A 
ATOM      2  C   UNL     1      32.154  11.500  29.573  1.00  0.00     0.060 A 
ATOM      3  C   UNL     1      31.446   9.581  30.869  1.00  0.00     0.060 A 
ATOM      4  C   UNL     1      32.563  12.146  30.745  1.00  0.00     0.162 A 
ATOM      5  C   UNL     1      31.853  10.221  32.047  1.00  0.00     0.162 A 
ATOM      6  C   UNL     1      32.413  11.508  31.988  1.00  0.00     0.200 A 
ENDROOT
BRANCH   1   7
ATOM      7  C   UNL     1      31.160   9.530  28.383  1.00  0.00     0.072 C 
ATOM      8  O   UNL     1      30.031   9.770  27.880  1.00  0.00    -0.545 OA
ATOM      9  O   UNL     1      31.997   8.614  27.756  1.00  0.00    -0.545 OA
ENDBRANCH   1   7
BRANCH   4  10
ATOM     10  O   UNL     1      33.116  13.423  30.654  1.00  0.00    -0.504 OA
ATOM     11  H   UNL     1      33.841  13.744  31.284  1.00  0.00     0.293 HD
ENDBRANCH   4  10
BRANCH   5  12
ATOM     12  O   UNL     1      31.702   9.582  33.278  1.00  0.00    -0.504 OA
ATOM     13  H   UNL     1      32.013  10.012  34.142  1.00  0.00     0.293 HD
ENDBRANCH   5  12
BRANCH   6  14
ATOM     14  O   UNL     1      32.824  12.160  33.151  1.00  0.00    -0.502 OA
ATOM     15  H   UNL     1      32.358  12.023  34.041  1.00  0.00     0.293 HD
ENDBRANCH   6  14
TORSDOF 4
ENDMDL
MODEL 9
REMARK VINA RESULT:    -3.834      1.964      4.735
REMARK INTER + INTRA:          -4.440
REMARK INTER:                  -4.394
REMARK INTRA:                  -0.046
REMARK UNBOUND:                -0.046
REMARK SMILES O=C([O-])c1cc(O)c(O)c(O)c1
REMARK SMILES IDX 4 1 5 2 12 3 6 4 10 5 8 6 2 7 1 8 3 9 7 10 11 12 9 14
REMARK H PARENT 7 11 11 13 9 15
REMARK Flexibility Score: inf
ROOT
ATOM      1  C   UNL     1      31.629  10.203  29.544  1.00  0.00     0.005 A 
ATOM      2  C   UNL     1      31.444   9.534  30.766  1.00  0.00     0.060 A 
ATOM      3  C   UNL     1      32.192  11.489  29.549  1.00  0.00     0.060 A 
ATOM      4  C   UNL     1      31.814  10.137  31.972  1.00  0.00     0.162 A 
ATOM      5  C   UNL     1      32.566  12.100  30.753  1.00  0.00     0.162 A 
ATOM      6  C   UNL     1      32.378  11.424  31.970  1.00  0.00     0.200 A 
ENDROOT
BRANCH   1   7
ATOM      7  C   UNL     1      31.236   9.563  28.267  1.00  0.00     0.072 C 
ATOM      8  O   UNL     1      32.102   9.294  27.393  1.00  0.00    -0.545 OA
ATOM      9  O   UNL     1      29.905   9.251  28.016  1.00  0.00    -0.545 OA
ENDBRANCH   1   7
BRANCH   4  10
ATOM     10  O   UNL     1      31.615   9.440  33.164  1.00  0.00    -0.504 OA
ATOM     11  H   UNL     1      32.309   8.807  33.542  1.00  0.00     0.293 HD
ENDBRANCH   4  10
BRANCH   5  12
ATOM     12  O   UNL     1      33.125  13.378  30.745  1.00  0.00    -0.504 OA
ATOM     13  H   UNL     1      32.594  14.192  31.034  1.00  0.00     0.293 HD
ENDBRANCH   5  12
BRANCH   6  14
ATOM     14  O   UNL     1      32.744  12.018  33.179  1.00  0.00    -0.502 OA
ATOM     15  H   UNL     1      33.547  12.632  33.258  1.00  0.00     0.293 HD
ENDBRANCH   6  14
TORSDOF 4
ENDMDL
