MODEL 1
REMARK VINA RESULT:    -6.634      0.000      0.000
REMARK INTER + INTRA:          -7.955
REMARK INTER:                  -7.797
REMARK INTRA:                  -0.158
REMARK UNBOUND:                -0.158
REMARK SMILES O=c1c(O)c(-c2ccc(O)cc2)oc2cc(O)cc(O)c12
REMARK SMILES IDX 5 1 3 2 2 3 1 4 21 5 19 6 18 7 16 8 15 9 14 10 13 11 6 12
REMARK SMILES IDX 7 13 8 14 9 15 12 16 11 17 10 18 4 20 20 22 17 24
REMARK H PARENT 10 19 4 21 20 23 17 25
REMARK Flexibility Score: inf
ROOT
ATOM      1  C   UNL     1      30.955 -91.971  37.486  1.00  0.00     0.180 A 
ATOM      2  C   UNL     1      29.734 -92.582  37.150  1.00  0.00     0.208 A 
ATOM      3  C   UNL     1      29.597 -93.969  37.321  1.00  0.00     0.238 A 
ATOM      4  O   UNL     1      28.522 -94.519  36.968  1.00  0.00    -0.285 OA
ATOM      5  C   UNL     1      30.677 -94.725  37.840  1.00  0.00     0.111 A 
ATOM      6  C   UNL     1      30.636 -96.129  38.092  1.00  0.00     0.134 A 
ATOM      7  C   UNL     1      31.804 -96.795  38.483  1.00  0.00     0.093 A 
ATOM      8  C   UNL     1      32.995 -96.096  38.694  1.00  0.00     0.123 A 
ATOM      9  C   UNL     1      33.030 -94.716  38.508  1.00  0.00     0.094 A 
ATOM     10  C   UNL     1      31.890 -94.029  38.084  1.00  0.00     0.146 A 
ATOM     11  O   UNL     1      31.969 -92.716  37.908  1.00  0.00    -0.452 OA
ENDROOT
BRANCH   1  12
ATOM     12  C   UNL     1      31.166 -90.511  37.356  1.00  0.00     0.021 A 
ATOM     13  C   UNL     1      32.158 -90.030  36.486  1.00  0.00     0.016 A 
ATOM     14  C   UNL     1      32.390 -88.657  36.365  1.00  0.00     0.047 A 
ATOM     15  C   UNL     1      31.646 -87.748  37.124  1.00  0.00     0.115 A 
ATOM     16  C   UNL     1      30.434 -89.593  38.132  1.00  0.00     0.016 A 
ATOM     17  C   UNL     1      30.669 -88.220  38.010  1.00  0.00     0.047 A 
BRANCH  15  18
ATOM     18  O   UNL     1      31.887 -86.382  36.993  1.00  0.00    -0.508 OA
ATOM     19  H   UNL     1      31.165 -85.745  36.678  1.00  0.00     0.293 HD
ENDBRANCH  15  18
ENDBRANCH   1  12
BRANCH   2  20
ATOM     20  O   UNL     1      28.689 -91.821  36.619  1.00  0.00    -0.502 OA
ATOM     21  H   UNL     1      28.175 -92.103  35.793  1.00  0.00     0.293 HD
ENDBRANCH   2  20
BRANCH   6  22
ATOM     22  O   UNL     1      29.476 -96.904  38.002  1.00  0.00    -0.507 OA
ATOM     23  H   UNL     1      28.539 -96.534  37.948  1.00  0.00     0.293 HD
ENDBRANCH   6  22
BRANCH   8  24
ATOM     24  O   UNL     1      34.149 -96.764  39.098  1.00  0.00    -0.508 OA
ATOM     25  H   UNL     1      34.111 -97.543  39.746  1.00  0.00     0.293 HD
ENDBRANCH   8  24
TORSDOF 5
ENDMDL
MODEL 2
REMARK VINA RESULT:    -5.743      9.492     10.859
REMARK INTER + INTRA:          -6.908
REMARK INTER:                  -6.682
REMARK INTRA:                  -0.226
REMARK UNBOUND:                -0.158
REMARK SMILES O=c1c(O)c(-c2ccc(O)cc2)oc2cc(O)cc(O)c12
REMARK SMILES IDX 5 1 3 2 2 3 1 4 21 5 19 6 18 7 16 8 15 9 14 10 13 11 6 12
REMARK SMILES IDX 7 13 8 14 9 15 12 16 11 17 10 18 4 20 20 22 17 24
REMARK H PARENT 10 19 4 21 20 23 17 25
REMARK Flexibility Score: inf
ROOT
ATOM      1  C   UNL     1      36.348 -95.282  29.867  1.00  0.00     0.180 A 
ATOM      2  C   UNL     1      37.409 -95.625  29.009  1.00  0.00     0.208 A 
ATOM      3  C   UNL     1      38.716 -95.657  29.521  1.00  0.00     0.238 A 
ATOM      4  O   UNL     1      39.667 -95.911  28.738  1.00  0.00    -0.285 OA
ATOM      5  C   UNL     1      38.944 -95.362  30.888  1.00  0.00     0.111 A 
ATOM      6  C   UNL     1      40.222 -95.403  31.523  1.00  0.00     0.134 A 
ATOM      7  C   UNL     1      40.349 -94.965  32.847  1.00  0.00     0.093 A 
ATOM      8  C   UNL     1      39.234 -94.550  33.578  1.00  0.00     0.123 A 
ATOM      9  C   UNL     1      37.974 -94.562  32.986  1.00  0.00     0.094 A 
ATOM     10  C   UNL     1      37.820 -94.960  31.655  1.00  0.00     0.146 A 
ATOM     11  O   UNL     1      36.603 -94.946  31.125  1.00  0.00    -0.452 OA
ENDROOT
BRANCH   1  12
ATOM     12  C   UNL     1      34.942 -95.250  29.405  1.00  0.00     0.021 A 
ATOM     13  C   UNL     1      34.082 -96.311  29.734  1.00  0.00     0.016 A 
ATOM     14  C   UNL     1      32.757 -96.313  29.289  1.00  0.00     0.047 A 
ATOM     15  C   UNL     1      32.279 -95.265  28.498  1.00  0.00     0.115 A 
ATOM     16  C   UNL     1      34.461 -94.208  28.592  1.00  0.00     0.016 A 
ATOM     17  C   UNL     1      33.135 -94.212  28.148  1.00  0.00     0.047 A 
BRANCH  15  18
ATOM     18  O   UNL     1      30.955 -95.279  28.062  1.00  0.00    -0.508 OA
ATOM     19  H   UNL     1      30.344 -94.482  28.199  1.00  0.00     0.293 HD
ENDBRANCH  15  18
ENDBRANCH   1  12
BRANCH   2  20
ATOM     20  O   UNL     1      37.164 -95.891  27.659  1.00  0.00    -0.502 OA
ATOM     21  H   UNL     1      36.944 -95.163  26.992  1.00  0.00     0.293 HD
ENDBRANCH   2  20
BRANCH   6  22
ATOM     22  O   UNL     1      41.381 -95.888  30.912  1.00  0.00    -0.507 OA
ATOM     23  H   UNL     1      41.709 -96.840  30.971  1.00  0.00     0.293 HD
ENDBRANCH   6  22
BRANCH   8  24
ATOM     24  O   UNL     1      39.367 -94.130  34.901  1.00  0.00    -0.508 OA
ATOM     25  H   UNL     1      40.197 -93.645  35.222  1.00  0.00     0.293 HD
ENDBRANCH   8  24
TORSDOF 5
ENDMDL
MODEL 3
REMARK VINA RESULT:    -5.514      9.507     11.041
REMARK INTER + INTRA:          -6.639
REMARK INTER:                  -6.502
REMARK INTRA:                  -0.137
REMARK UNBOUND:                -0.158
REMARK SMILES O=c1c(O)c(-c2ccc(O)cc2)oc2cc(O)cc(O)c12
REMARK SMILES IDX 5 1 3 2 2 3 1 4 21 5 19 6 18 7 16 8 15 9 14 10 13 11 6 12
REMARK SMILES IDX 7 13 8 14 9 15 12 16 11 17 10 18 4 20 20 22 17 24
REMARK H PARENT 10 19 4 21 20 23 17 25
REMARK Flexibility Score: inf
ROOT
ATOM      1  C   UNL     1      37.535 -95.359  30.902  1.00  0.00     0.180 A 
ATOM      2  C   UNL     1      38.118 -96.145  29.892  1.00  0.00     0.208 A 
ATOM      3  C   UNL     1      37.421 -96.335  28.688  1.00  0.00     0.238 A 
ATOM      4  O   UNL     1      37.923 -97.084  27.810  1.00  0.00    -0.285 OA
ATOM      5  C   UNL     1      36.157 -95.724  28.502  1.00  0.00     0.111 A 
ATOM      6  C   UNL     1      35.380 -95.815  27.308  1.00  0.00     0.134 A 
ATOM      7  C   UNL     1      34.087 -95.278  27.283  1.00  0.00     0.093 A 
ATOM      8  C   UNL     1      33.568 -94.598  28.387  1.00  0.00     0.123 A 
ATOM      9  C   UNL     1      34.341 -94.452  29.536  1.00  0.00     0.094 A 
ATOM     10  C   UNL     1      35.621 -95.007  29.604  1.00  0.00     0.146 A 
ATOM     11  O   UNL     1      36.320 -94.854  30.722  1.00  0.00    -0.452 OA
ENDROOT
BRANCH   1  12
ATOM     12  C   UNL     1      38.220 -95.094  32.187  1.00  0.00     0.021 A 
ATOM     13  C   UNL     1      37.609 -95.486  33.390  1.00  0.00     0.016 A 
ATOM     14  C   UNL     1      38.226 -95.225  34.617  1.00  0.00     0.047 A 
ATOM     15  C   UNL     1      39.453 -94.556  34.658  1.00  0.00     0.115 A 
ATOM     16  C   UNL     1      39.444 -94.404  32.236  1.00  0.00     0.016 A 
ATOM     17  C   UNL     1      40.060 -94.143  33.465  1.00  0.00     0.047 A 
BRANCH  15  18
ATOM     18  O   UNL     1      40.058 -94.303  35.887  1.00  0.00    -0.508 OA
ATOM     19  H   UNL     1      39.526 -94.309  36.750  1.00  0.00     0.293 HD
ENDBRANCH  15  18
ENDBRANCH   1  12
BRANCH   2  20
ATOM     20  O   UNL     1      39.356 -96.758  30.104  1.00  0.00    -0.502 OA
ATOM     21  H   UNL     1      40.031 -96.405  30.771  1.00  0.00     0.293 HD
ENDBRANCH   2  20
BRANCH   6  22
ATOM     22  O   UNL     1      35.840 -96.392  26.121  1.00  0.00    -0.507 OA
ATOM     23  H   UNL     1      35.880 -97.384  25.941  1.00  0.00     0.293 HD
ENDBRANCH   6  22
BRANCH   8  24
ATOM     24  O   UNL     1      32.286 -94.054  28.348  1.00  0.00    -0.508 OA
ATOM     25  H   UNL     1      31.475 -94.585  28.644  1.00  0.00     0.293 HD
ENDBRANCH   8  24
TORSDOF 5
ENDMDL
MODEL 4
REMARK VINA RESULT:    -5.359      7.686     10.269
REMARK INTER + INTRA:          -6.456
REMARK INTER:                  -6.222
REMARK INTRA:                  -0.234
REMARK UNBOUND:                -0.158
REMARK SMILES O=c1c(O)c(-c2ccc(O)cc2)oc2cc(O)cc(O)c12
REMARK SMILES IDX 5 1 3 2 2 3 1 4 21 5 19 6 18 7 16 8 15 9 14 10 13 11 6 12
REMARK SMILES IDX 7 13 8 14 9 15 12 16 11 17 10 18 4 20 20 22 17 24
REMARK H PARENT 10 19 4 21 20 23 17 25
REMARK Flexibility Score: inf
ROOT
ATOM      1  C   UNL     1      39.864 -95.374  35.257  1.00  0.00     0.180 A 
ATOM      2  C   UNL     1      40.864 -94.981  36.164  1.00  0.00     0.208 A 
ATOM      3  C   UNL     1      40.619 -95.102  37.541  1.00  0.00     0.238 A 
ATOM      4  O   UNL     1      41.496 -94.699  38.350  1.00  0.00    -0.285 OA
ATOM      5  C   UNL     1      39.385 -95.629  37.994  1.00  0.00     0.111 A 
ATOM      6  C   UNL     1      39.046 -95.835  39.366  1.00  0.00     0.134 A 
ATOM      7  C   UNL     1      37.748 -96.240  39.702  1.00  0.00     0.093 A 
ATOM      8  C   UNL     1      36.798 -96.509  38.714  1.00  0.00     0.123 A 
ATOM      9  C   UNL     1      37.138 -96.369  37.371  1.00  0.00     0.094 A 
ATOM     10  C   UNL     1      38.414 -95.932  37.005  1.00  0.00     0.146 A 
ATOM     11  O   UNL     1      38.693 -95.802  35.714  1.00  0.00    -0.452 OA
ENDROOT
BRANCH   1  12
ATOM     12  C   UNL     1      40.057 -95.298  33.791  1.00  0.00     0.021 A 
ATOM     13  C   UNL     1      39.346 -94.342  33.048  1.00  0.00     0.016 A 
ATOM     14  C   UNL     1      39.496 -94.268  31.660  1.00  0.00     0.047 A 
ATOM     15  C   UNL     1      40.345 -95.157  30.996  1.00  0.00     0.115 A 
ATOM     16  C   UNL     1      40.896 -96.203  33.115  1.00  0.00     0.016 A 
ATOM     17  C   UNL     1      41.043 -96.127  31.726  1.00  0.00     0.047 A 
BRANCH  15  18
ATOM     18  O   UNL     1      40.486 -95.072  29.612  1.00  0.00    -0.508 OA
ATOM     19  H   UNL     1      40.593 -94.178  29.145  1.00  0.00     0.293 HD
ENDBRANCH  15  18
ENDBRANCH   1  12
BRANCH   2  20
ATOM     20  O   UNL     1      42.066 -94.442  35.697  1.00  0.00    -0.502 OA
ATOM     21  H   UNL     1      42.285 -94.373  34.712  1.00  0.00     0.293 HD
ENDBRANCH   2  20
BRANCH   6  22
ATOM     22  O   UNL     1      39.947 -95.683  40.423  1.00  0.00    -0.507 OA
ATOM     23  H   UNL     1      40.708 -96.313  40.625  1.00  0.00     0.293 HD
ENDBRANCH   6  22
BRANCH   8  24
ATOM     24  O   UNL     1      35.514 -96.927  39.058  1.00  0.00    -0.508 OA
ATOM     25  H   UNL     1      35.346 -97.835  39.474  1.00  0.00     0.293 HD
ENDBRANCH   8  24
TORSDOF 5
ENDMDL
MODEL 5
REMARK VINA RESULT:    -5.090     15.136     16.735
REMARK INTER + INTRA:          -6.140
REMARK INTER:                  -6.002
REMARK INTRA:                  -0.139
REMARK UNBOUND:                -0.158
REMARK SMILES O=c1c(O)c(-c2ccc(O)cc2)oc2cc(O)cc(O)c12
REMARK SMILES IDX 5 1 3 2 2 3 1 4 21 5 19 6 18 7 16 8 15 9 14 10 13 11 6 12
REMARK SMILES IDX 7 13 8 14 9 15 12 16 11 17 10 18 4 20 20 22 17 24
REMARK H PARENT 10 19 4 21 20 23 17 25
REMARK Flexibility Score: inf
ROOT
ATOM      1  C   UNL     1      37.316 -77.871  37.738  1.00  0.00     0.180 A 
ATOM      2  C   UNL     1      37.876 -77.727  36.456  1.00  0.00     0.208 A 
ATOM      3  C   UNL     1      37.021 -77.616  35.348  1.00  0.00     0.238 A 
ATOM      4  O   UNL     1      37.527 -77.542  34.198  1.00  0.00    -0.285 OA
ATOM      5  C   UNL     1      35.617 -77.635  35.537  1.00  0.00     0.111 A 
ATOM      6  C   UNL     1      34.657 -77.490  34.491  1.00  0.00     0.134 A 
ATOM      7  C   UNL     1      33.295 -77.654  34.775  1.00  0.00     0.093 A 
ATOM      8  C   UNL     1      32.857 -77.894  36.080  1.00  0.00     0.123 A 
ATOM      9  C   UNL     1      33.782 -77.978  37.117  1.00  0.00     0.094 A 
ATOM     10  C   UNL     1      35.149 -77.854  36.858  1.00  0.00     0.146 A 
ATOM     11  O   UNL     1      35.998 -77.951  37.874  1.00  0.00    -0.452 OA
ENDROOT
BRANCH   1  12
ATOM     12  C   UNL     1      38.153 -77.969  38.956  1.00  0.00     0.021 A 
ATOM     13  C   UNL     1      38.945 -76.875  39.341  1.00  0.00     0.016 A 
ATOM     14  C   UNL     1      39.760 -76.954  40.473  1.00  0.00     0.047 A 
ATOM     15  C   UNL     1      39.806 -78.131  41.226  1.00  0.00     0.115 A 
ATOM     16  C   UNL     1      38.218 -79.158  39.706  1.00  0.00     0.016 A 
ATOM     17  C   UNL     1      39.035 -79.234  40.838  1.00  0.00     0.047 A 
BRANCH  15  18
ATOM     18  O   UNL     1      40.623 -78.196  42.353  1.00  0.00    -0.508 OA
ATOM     19  H   UNL     1      40.663 -77.435  43.023  1.00  0.00     0.293 HD
ENDBRANCH  15  18
ENDBRANCH   1  12
BRANCH   2  20
ATOM     20  O   UNL     1      39.264 -77.733  36.289  1.00  0.00    -0.502 OA
ATOM     21  H   UNL     1      39.860 -78.432  36.714  1.00  0.00     0.293 HD
ENDBRANCH   2  20
BRANCH   6  22
ATOM     22  O   UNL     1      34.983 -77.159  33.173  1.00  0.00    -0.507 OA
ATOM     23  H   UNL     1      35.439 -76.304  32.890  1.00  0.00     0.293 HD
ENDBRANCH   6  22
BRANCH   8  24
ATOM     24  O   UNL     1      31.499 -78.041  36.357  1.00  0.00    -0.508 OA
ATOM     25  H   UNL     1      31.119 -77.836  37.274  1.00  0.00     0.293 HD
ENDBRANCH   8  24
TORSDOF 5
ENDMDL
MODEL 6
REMARK VINA RESULT:    -4.991     10.735     11.933
REMARK INTER + INTRA:          -6.024
REMARK INTER:                  -5.744
REMARK INTRA:                  -0.280
REMARK UNBOUND:                -0.158
REMARK SMILES O=c1c(O)c(-c2ccc(O)cc2)oc2cc(O)cc(O)c12
REMARK SMILES IDX 5 1 3 2 2 3 1 4 21 5 19 6 18 7 16 8 15 9 14 10 13 11 6 12
REMARK SMILES IDX 7 13 8 14 9 15 12 16 11 17 10 18 4 20 20 22 17 24
REMARK H PARENT 10 19 4 21 20 23 17 25
REMARK Flexibility Score: inf
ROOT
ATOM      1  C   UNL     1      36.580 -95.432  29.167  1.00  0.00     0.180 A 
ATOM      2  C   UNL     1      36.849 -95.502  30.545  1.00  0.00     0.208 A 
ATOM      3  C   UNL     1      38.184 -95.565  30.977  1.00  0.00     0.238 A 
ATOM      4  O   UNL     1      38.417 -95.683  32.208  1.00  0.00    -0.285 OA
ATOM      5  C   UNL     1      39.234 -95.542  30.026  1.00  0.00     0.111 A 
ATOM      6  C   UNL     1      40.623 -95.560  30.352  1.00  0.00     0.134 A 
ATOM      7  C   UNL     1      41.571 -95.666  29.327  1.00  0.00     0.093 A 
ATOM      8  C   UNL     1      41.182 -95.688  27.986  1.00  0.00     0.123 A 
ATOM      9  C   UNL     1      39.832 -95.610  27.655  1.00  0.00     0.094 A 
ATOM     10  C   UNL     1      38.860 -95.540  28.657  1.00  0.00     0.146 A 
ATOM     11  O   UNL     1      37.584 -95.478  28.298  1.00  0.00    -0.452 OA
ENDROOT
BRANCH   1  12
ATOM     12  C   UNL     1      35.201 -95.338  28.638  1.00  0.00     0.021 A 
ATOM     13  C   UNL     1      34.587 -96.481  28.100  1.00  0.00     0.016 A 
ATOM     14  C   UNL     1      33.294 -96.410  27.573  1.00  0.00     0.047 A 
ATOM     15  C   UNL     1      32.604 -95.194  27.563  1.00  0.00     0.115 A 
ATOM     16  C   UNL     1      34.510 -94.113  28.607  1.00  0.00     0.016 A 
ATOM     17  C   UNL     1      33.216 -94.044  28.079  1.00  0.00     0.047 A 
BRANCH  15  18
ATOM     18  O   UNL     1      31.316 -95.138  27.036  1.00  0.00    -0.508 OA
ATOM     19  H   UNL     1      31.077 -95.608  26.170  1.00  0.00     0.293 HD
ENDBRANCH  15  18
ENDBRANCH   1  12
BRANCH   2  20
ATOM     20  O   UNL     1      35.798 -95.546  31.466  1.00  0.00    -0.502 OA
ATOM     21  H   UNL     1      35.859 -95.122  32.383  1.00  0.00     0.293 HD
ENDBRANCH   2  20
BRANCH   6  22
ATOM     22  O   UNL     1      41.120 -95.450  31.654  1.00  0.00    -0.507 OA
ATOM     23  H   UNL     1      40.613 -95.708  32.487  1.00  0.00     0.293 HD
ENDBRANCH   6  22
BRANCH   8  24
ATOM     24  O   UNL     1      42.134 -95.777  26.972  1.00  0.00    -0.508 OA
ATOM     25  H   UNL     1      41.984 -95.351  26.065  1.00  0.00     0.293 HD
ENDBRANCH   8  24
TORSDOF 5
ENDMDL
MODEL 7
REMARK VINA RESULT:    -4.910      8.242     10.166
REMARK INTER + INTRA:          -5.929
REMARK INTER:                  -5.724
REMARK INTRA:                  -0.205
REMARK UNBOUND:                -0.158
REMARK SMILES O=c1c(O)c(-c2ccc(O)cc2)oc2cc(O)cc(O)c12
REMARK SMILES IDX 5 1 3 2 2 3 1 4 21 5 19 6 18 7 16 8 15 9 14 10 13 11 6 12
REMARK SMILES IDX 7 13 8 14 9 15 12 16 11 17 10 18 4 20 20 22 17 24
REMARK H PARENT 10 19 4 21 20 23 17 25
REMARK Flexibility Score: inf
ROOT
ATOM      1  C   UNL     1      39.562 -95.575  34.989  1.00  0.00     0.180 A 
ATOM      2  C   UNL     1      38.280 -95.969  35.412  1.00  0.00     0.208 A 
ATOM      3  C   UNL     1      37.999 -96.010  36.787  1.00  0.00     0.238 A 
ATOM      4  O   UNL     1      36.868 -96.415  37.162  1.00  0.00    -0.285 OA
ATOM      5  C   UNL     1      38.997 -95.640  37.721  1.00  0.00     0.111 A 
ATOM      6  C   UNL     1      38.810 -95.605  39.136  1.00  0.00     0.134 A 
ATOM      7  C   UNL     1      39.905 -95.351  39.971  1.00  0.00     0.093 A 
ATOM      8  C   UNL     1      41.165 -95.067  39.439  1.00  0.00     0.123 A 
ATOM      9  C   UNL     1      41.344 -95.040  38.059  1.00  0.00     0.094 A 
ATOM     10  C   UNL     1      40.279 -95.325  37.201  1.00  0.00     0.146 A 
ATOM     11  O   UNL     1      40.496 -95.299  35.891  1.00  0.00    -0.452 OA
ENDROOT
BRANCH   1  12
ATOM     12  C   UNL     1      39.925 -95.485  33.556  1.00  0.00     0.021 A 
ATOM     13  C   UNL     1      39.386 -94.453  32.770  1.00  0.00     0.016 A 
ATOM     14  C   UNL     1      39.697 -94.363  31.410  1.00  0.00     0.047 A 
ATOM     15  C   UNL     1      40.536 -95.309  30.816  1.00  0.00     0.115 A 
ATOM     16  C   UNL     1      40.753 -96.446  32.948  1.00  0.00     0.016 A 
ATOM     17  C   UNL     1      41.062 -96.353  31.587  1.00  0.00     0.047 A 
BRANCH  15  18
ATOM     18  O   UNL     1      40.838 -95.207  29.459  1.00  0.00    -0.508 OA
ATOM     19  H   UNL     1      40.169 -95.475  28.746  1.00  0.00     0.293 HD
ENDBRANCH  15  18
ENDBRANCH   1  12
BRANCH   2  20
ATOM     20  O   UNL     1      37.316 -96.351  34.474  1.00  0.00    -0.502 OA
ATOM     21  H   UNL     1      37.211 -97.307  34.160  1.00  0.00     0.293 HD
ENDBRANCH   2  20
BRANCH   6  22
ATOM     22  O   UNL     1      37.574 -95.784  39.763  1.00  0.00    -0.507 OA
ATOM     23  H   UNL     1      37.391 -95.597  40.737  1.00  0.00     0.293 HD
ENDBRANCH   6  22
BRANCH   8  24
ATOM     24  O   UNL     1      42.246 -94.800  40.278  1.00  0.00    -0.508 OA
ATOM     25  H   UNL     1      43.076 -95.382  40.274  1.00  0.00     0.293 HD
ENDBRANCH   8  24
TORSDOF 5
ENDMDL
MODEL 8
REMARK VINA RESULT:    -4.882     15.539     16.884
REMARK INTER + INTRA:          -5.895
REMARK INTER:                  -5.693
REMARK INTRA:                  -0.203
REMARK UNBOUND:                -0.158
REMARK SMILES O=c1c(O)c(-c2ccc(O)cc2)oc2cc(O)cc(O)c12
REMARK SMILES IDX 5 1 3 2 2 3 1 4 21 5 19 6 18 7 16 8 15 9 14 10 13 11 6 12
REMARK SMILES IDX 7 13 8 14 9 15 12 16 11 17 10 18 4 20 20 22 17 24
REMARK H PARENT 10 19 4 21 20 23 17 25
REMARK Flexibility Score: inf
ROOT
ATOM      1  C   UNL     1      37.328 -77.834  37.695  1.00  0.00     0.180 A 
ATOM      2  C   UNL     1      35.924 -77.872  37.766  1.00  0.00     0.208 A 
ATOM      3  C   UNL     1      35.179 -77.751  36.582  1.00  0.00     0.238 A 
ATOM      4  O   UNL     1      33.923 -77.732  36.657  1.00  0.00    -0.285 OA
ATOM      5  C   UNL     1      35.847 -77.610  35.341  1.00  0.00     0.111 A 
ATOM      6  C   UNL     1      35.193 -77.520  34.075  1.00  0.00     0.134 A 
ATOM      7  C   UNL     1      35.948 -77.251  32.926  1.00  0.00     0.093 A 
ATOM      8  C   UNL     1      37.338 -77.134  32.989  1.00  0.00     0.123 A 
ATOM      9  C   UNL     1      37.991 -77.279  34.211  1.00  0.00     0.094 A 
ATOM     10  C   UNL     1      37.262 -77.512  35.380  1.00  0.00     0.146 A 
ATOM     11  O   UNL     1      37.922 -77.634  36.525  1.00  0.00    -0.452 OA
ENDROOT
BRANCH   1  12
ATOM     12  C   UNL     1      38.181 -77.979  38.897  1.00  0.00     0.021 A 
ATOM     13  C   UNL     1      38.275 -79.228  39.532  1.00  0.00     0.016 A 
ATOM     14  C   UNL     1      39.056 -79.382  40.682  1.00  0.00     0.047 A 
ATOM     15  C   UNL     1      39.739 -78.288  41.219  1.00  0.00     0.115 A 
ATOM     16  C   UNL     1      38.855 -76.876  39.454  1.00  0.00     0.016 A 
ATOM     17  C   UNL     1      39.635 -77.033  40.605  1.00  0.00     0.047 A 
BRANCH  15  18
ATOM     18  O   UNL     1      40.514 -78.456  42.365  1.00  0.00    -0.508 OA
ATOM     19  H   UNL     1      41.509 -78.257  42.365  1.00  0.00     0.293 HD
ENDBRANCH  15  18
ENDBRANCH   1  12
BRANCH   2  20
ATOM     20  O   UNL     1      35.285 -77.990  39.004  1.00  0.00    -0.502 OA
ATOM     21  H   UNL     1      35.140 -78.882  39.458  1.00  0.00     0.293 HD
ENDBRANCH   2  20
BRANCH   6  22
ATOM     22  O   UNL     1      33.822 -77.713  33.890  1.00  0.00    -0.507 OA
ATOM     23  H   UNL     1      33.098 -77.181  34.349  1.00  0.00     0.293 HD
ENDBRANCH   6  22
BRANCH   8  24
ATOM     24  O   UNL     1      38.083 -76.881  31.839  1.00  0.00    -0.508 OA
ATOM     25  H   UNL     1      38.966 -76.387  31.877  1.00  0.00     0.293 HD
ENDBRANCH   8  24
TORSDOF 5
ENDMDL
MODEL 9
REMARK VINA RESULT:    -4.812      8.923     11.127
REMARK INTER + INTRA:          -5.814
REMARK INTER:                  -5.541
REMARK INTRA:                  -0.272
REMARK UNBOUND:                -0.158
REMARK SMILES O=c1c(O)c(-c2ccc(O)cc2)oc2cc(O)cc(O)c12
REMARK SMILES IDX 5 1 3 2 2 3 1 4 21 5 19 6 18 7 16 8 15 9 14 10 13 11 6 12
REMARK SMILES IDX 7 13 8 14 9 15 12 16 11 17 10 18 4 20 20 22 17 24
REMARK H PARENT 10 19 4 21 20 23 17 25
REMARK Flexibility Score: inf
ROOT
ATOM      1  C   UNL     1      40.126 -95.551  35.572  1.00  0.00     0.180 A 
ATOM      2  C   UNL     1      41.300 -95.569  34.798  1.00  0.00     0.208 A 
ATOM      3  C   UNL     1      41.198 -95.442  33.403  1.00  0.00     0.238 A 
ATOM      4  O   UNL     1      42.247 -95.513  32.711  1.00  0.00    -0.285 OA
ATOM      5  C   UNL     1      39.925 -95.283  32.801  1.00  0.00     0.111 A 
ATOM      6  C   UNL     1      39.708 -95.105  31.402  1.00  0.00     0.134 A 
ATOM      7  C   UNL     1      38.399 -95.089  30.903  1.00  0.00     0.093 A 
ATOM      8  C   UNL     1      37.301 -95.178  31.762  1.00  0.00     0.123 A 
ATOM      9  C   UNL     1      37.502 -95.292  33.134  1.00  0.00     0.094 A 
ATOM     10  C   UNL     1      38.797 -95.347  33.658  1.00  0.00     0.146 A 
ATOM     11  O   UNL     1      38.944 -95.467  34.972  1.00  0.00    -0.452 OA
ENDROOT
BRANCH   1  12
ATOM     12  C   UNL     1      40.155 -95.656  37.049  1.00  0.00     0.021 A 
ATOM     13  C   UNL     1      40.216 -96.923  37.651  1.00  0.00     0.016 A 
ATOM     14  C   UNL     1      40.221 -97.045  39.044  1.00  0.00     0.047 A 
ATOM     15  C   UNL     1      40.150 -95.906  39.851  1.00  0.00     0.115 A 
ATOM     16  C   UNL     1      40.063 -94.514  37.865  1.00  0.00     0.016 A 
ATOM     17  C   UNL     1      40.068 -94.639  39.258  1.00  0.00     0.047 A 
BRANCH  15  18
ATOM     18  O   UNL     1      40.156 -96.043  41.237  1.00  0.00    -0.508 OA
ATOM     19  H   UNL     1      40.824 -95.546  41.815  1.00  0.00     0.293 HD
ENDBRANCH  15  18
ENDBRANCH   1  12
BRANCH   2  20
ATOM     20  O   UNL     1      42.544 -95.749  35.409  1.00  0.00    -0.502 OA
ATOM     21  H   UNL     1      42.650 -95.834  36.412  1.00  0.00     0.293 HD
ENDBRANCH   2  20
BRANCH   6  22
ATOM     22  O   UNL     1      40.733 -94.914  30.471  1.00  0.00    -0.507 OA
ATOM     23  H   UNL     1      41.193 -95.652  29.962  1.00  0.00     0.293 HD
ENDBRANCH   6  22
BRANCH   8  24
ATOM     24  O   UNL     1      36.001 -95.146  31.258  1.00  0.00    -0.508 OA
ATOM     25  H   UNL     1      35.764 -94.597  30.440  1.00  0.00     0.293 HD
ENDBRANCH   8  24
TORSDOF 5
ENDMDL
