MODEL 1
REMARK VINA RESULT:    -4.524      0.000      0.000
REMARK INTER + INTRA:         -10.231
REMARK INTER:                  -8.226
REMARK INTRA:                  -2.005
REMARK UNBOUND:                -2.005
REMARK SMILES CCCCCCCCCCCCCC[C@@H](C)C(=O)[O-]
REMARK SMILES IDX 9 1 10 2 11 3 12 4 13 5 14 6 15 7 16 8 17 9 18 10 19 11 8 12
REMARK SMILES IDX 7 13 6 14 5 15 4 16 3 17 2 18 1 19
REMARK H PARENT
REMARK Flexibility Score: inf
ROOT
ATOM      1  C   UNL     1      18.002  -4.256 -18.248  1.00  0.00     0.000 C 
ENDROOT
BRANCH   1   2
ATOM      2  C   UNL     1      18.401  -2.784 -18.037  1.00  0.00     0.000 C 
BRANCH   2   3
ATOM      3  C   UNL     1      17.479  -1.748 -18.712  1.00  0.00     0.000 C 
BRANCH   3   4
ATOM      4  C   UNL     1      16.050  -1.654 -18.136  1.00  0.00     0.000 C 
BRANCH   4   5
ATOM      5  C   UNL     1      14.941  -2.180 -19.068  1.00  0.00     0.001 C 
BRANCH   5   6
ATOM      6  C   UNL     1      15.439  -2.515 -20.494  1.00  0.00     0.009 C 
BRANCH   6   7
ATOM      7  C   UNL     1      15.046  -3.934 -20.965  1.00  0.00     0.032 C 
ATOM      8  C   UNL     1      14.646  -4.846 -19.799  1.00  0.00     0.014 C 
BRANCH   7   9
ATOM      9  C   UNL     1      13.917  -3.852 -21.958  1.00  0.00     0.044 C 
ATOM     10  O   UNL     1      14.100  -4.172 -23.163  1.00  0.00    -0.550 OA
ATOM     11  O   UNL     1      12.662  -3.422 -21.547  1.00  0.00    -0.550 OA
ENDBRANCH   7   9
ENDBRANCH   6   7
ENDBRANCH   5   6
ENDBRANCH   4   5
ENDBRANCH   3   4
ENDBRANCH   2   3
ENDBRANCH   1   2
BRANCH   1  12
ATOM     12  C   UNL     1      19.209  -5.210 -18.215  1.00  0.00     0.000 C 
BRANCH  12  13
ATOM     13  C   UNL     1      20.242  -4.892 -19.308  1.00  0.00    -0.000 C 
BRANCH  13  14
ATOM     14  C   UNL     1      20.925  -6.151 -19.863  1.00  0.00    -0.000 C 
BRANCH  14  15
ATOM     15  C   UNL     1      20.899  -6.159 -21.397  1.00  0.00    -0.000 C 
BRANCH  15  16
ATOM     16  C   UNL     1      19.976  -7.265 -21.927  1.00  0.00    -0.000 C 
BRANCH  16  17
ATOM     17  C   UNL     1      19.125  -7.917 -20.820  1.00  0.00    -0.000 C 
BRANCH  17  18
ATOM     18  C   UNL     1      17.625  -7.576 -20.873  1.00  0.00    -0.003 C 
ATOM     19  C   UNL     1      17.268  -6.622 -22.012  1.00  0.00     0.004 C 
ENDBRANCH  17  18
ENDBRANCH  16  17
ENDBRANCH  15  16
ENDBRANCH  14  15
ENDBRANCH  13  14
ENDBRANCH  12  13
ENDBRANCH   1  12
TORSDOF 14
ENDMDL
MODEL 2
REMARK VINA RESULT:    -4.356     16.124     18.949
REMARK INTER + INTRA:          -9.926
REMARK INTER:                  -7.688
REMARK INTRA:                  -2.238
REMARK UNBOUND:                -2.005
REMARK SMILES CCCCCCCCCCCCCC[C@@H](C)C(=O)[O-]
REMARK SMILES IDX 9 1 10 2 11 3 12 4 13 5 14 6 15 7 16 8 17 9 18 10 19 11 8 12
REMARK SMILES IDX 7 13 6 14 5 15 4 16 3 17 2 18 1 19
REMARK H PARENT
REMARK Flexibility Score: inf
ROOT
ATOM      1  C   UNL     1       7.504  -3.483 -33.141  1.00  0.00     0.000 C 
ENDROOT
BRANCH   1   2
ATOM      2  C   UNL     1       6.798  -2.697 -34.261  1.00  0.00     0.000 C 
BRANCH   2   3
ATOM      3  C   UNL     1       5.464  -3.298 -34.748  1.00  0.00     0.000 C 
BRANCH   3   4
ATOM      4  C   UNL     1       5.123  -3.046 -36.233  1.00  0.00     0.000 C 
BRANCH   4   5
ATOM      5  C   UNL     1       5.328  -4.261 -37.158  1.00  0.00     0.001 C 
BRANCH   5   6
ATOM      6  C   UNL     1       5.494  -5.598 -36.396  1.00  0.00     0.009 C 
BRANCH   6   7
ATOM      7  C   UNL     1       6.234  -6.682 -37.212  1.00  0.00     0.032 C 
ATOM      8  C   UNL     1       7.354  -7.354 -36.408  1.00  0.00     0.014 C 
BRANCH   7   9
ATOM      9  C   UNL     1       5.256  -7.722 -37.690  1.00  0.00     0.044 C 
ATOM     10  O   UNL     1       5.658  -8.865 -38.040  1.00  0.00    -0.550 OA
ATOM     11  O   UNL     1       3.901  -7.426 -37.749  1.00  0.00    -0.550 OA
ENDBRANCH   7   9
ENDBRANCH   6   7
ENDBRANCH   5   6
ENDBRANCH   4   5
ENDBRANCH   3   4
ENDBRANCH   2   3
ENDBRANCH   1   2
BRANCH   1  12
ATOM     12  C   UNL     1       8.423  -4.593 -33.681  1.00  0.00     0.000 C 
BRANCH  12  13
ATOM     13  C   UNL     1       8.021  -5.988 -33.175  1.00  0.00    -0.000 C 
BRANCH  13  14
ATOM     14  C   UNL     1       7.531  -5.973 -31.719  1.00  0.00    -0.000 C 
BRANCH  14  15
ATOM     15  C   UNL     1       6.179  -6.686 -31.587  1.00  0.00    -0.000 C 
BRANCH  15  16
ATOM     16  C   UNL     1       5.453  -6.743 -32.939  1.00  0.00    -0.000 C 
BRANCH  16  17
ATOM     17  C   UNL     1       4.902  -8.144 -33.264  1.00  0.00    -0.000 C 
BRANCH  17  18
ATOM     18  C   UNL     1       3.750  -8.165 -34.284  1.00  0.00    -0.003 C 
ATOM     19  C   UNL     1       2.375  -8.313 -33.632  1.00  0.00     0.004 C 
ENDBRANCH  17  18
ENDBRANCH  16  17
ENDBRANCH  15  16
ENDBRANCH  14  15
ENDBRANCH  13  14
ENDBRANCH  12  13
ENDBRANCH   1  12
TORSDOF 14
ENDMDL
MODEL 3
REMARK VINA RESULT:    -4.355     15.906     19.462
REMARK INTER + INTRA:          -9.924
REMARK INTER:                  -7.764
REMARK INTRA:                  -2.159
REMARK UNBOUND:                -2.005
REMARK SMILES CCCCCCCCCCCCCC[C@@H](C)C(=O)[O-]
REMARK SMILES IDX 9 1 10 2 11 3 12 4 13 5 14 6 15 7 16 8 17 9 18 10 19 11 8 12
REMARK SMILES IDX 7 13 6 14 5 15 4 16 3 17 2 18 1 19
REMARK H PARENT
REMARK Flexibility Score: inf
ROOT
ATOM      1  C   UNL     1       5.201  -8.108 -33.835  1.00  0.00     0.000 C 
ENDROOT
BRANCH   1   2
ATOM      2  C   UNL     1       5.158  -6.918 -32.860  1.00  0.00     0.000 C 
BRANCH   2   3
ATOM      3  C   UNL     1       6.157  -6.990 -31.687  1.00  0.00     0.000 C 
BRANCH   3   4
ATOM      4  C   UNL     1       7.239  -5.889 -31.666  1.00  0.00     0.000 C 
BRANCH   4   5
ATOM      5  C   UNL     1       8.041  -5.746 -32.975  1.00  0.00     0.001 C 
BRANCH   5   6
ATOM      6  C   UNL     1       7.914  -4.350 -33.629  1.00  0.00     0.009 C 
BRANCH   6   7
ATOM      7  C   UNL     1       6.800  -4.271 -34.697  1.00  0.00     0.032 C 
ATOM      8  C   UNL     1       5.806  -3.135 -34.421  1.00  0.00     0.014 C 
BRANCH   7   9
ATOM      9  C   UNL     1       7.408  -4.094 -36.063  1.00  0.00     0.044 C 
ATOM     10  O   UNL     1       7.963  -3.008 -36.380  1.00  0.00    -0.550 OA
ATOM     11  O   UNL     1       7.359  -5.132 -36.984  1.00  0.00    -0.550 OA
ENDBRANCH   7   9
ENDBRANCH   6   7
ENDBRANCH   5   6
ENDBRANCH   4   5
ENDBRANCH   3   4
ENDBRANCH   2   3
ENDBRANCH   1   2
BRANCH   1  12
ATOM     12  C   UNL     1       5.907  -7.768 -35.160  1.00  0.00     0.000 C 
BRANCH  12  13
ATOM     13  C   UNL     1       4.934  -7.709 -36.348  1.00  0.00    -0.000 C 
BRANCH  13  14
ATOM     14  C   UNL     1       3.945  -6.538 -36.248  1.00  0.00    -0.000 C 
BRANCH  14  15
ATOM     15  C   UNL     1       2.605  -6.893 -36.905  1.00  0.00    -0.000 C 
BRANCH  15  16
ATOM     16  C   UNL     1       1.899  -8.021 -36.139  1.00  0.00    -0.000 C 
BRANCH  16  17
ATOM     17  C   UNL     1       1.464  -7.602 -34.722  1.00  0.00    -0.000 C 
BRANCH  17  18
ATOM     18  C   UNL     1       0.883  -8.739 -33.862  1.00  0.00    -0.003 C 
ATOM     19  C   UNL     1       1.922  -9.796 -33.486  1.00  0.00     0.004 C 
ENDBRANCH  17  18
ENDBRANCH  16  17
ENDBRANCH  15  16
ENDBRANCH  14  15
ENDBRANCH  13  14
ENDBRANCH  12  13
ENDBRANCH   1  12
TORSDOF 14
ENDMDL
MODEL 4
REMARK VINA RESULT:    -4.352     15.873     19.265
REMARK INTER + INTRA:          -9.920
REMARK INTER:                  -7.699
REMARK INTRA:                  -2.221
REMARK UNBOUND:                -2.005
REMARK SMILES CCCCCCCCCCCCCC[C@@H](C)C(=O)[O-]
REMARK SMILES IDX 9 1 10 2 11 3 12 4 13 5 14 6 15 7 16 8 17 9 18 10 19 11 8 12
REMARK SMILES IDX 7 13 6 14 5 15 4 16 3 17 2 18 1 19
REMARK H PARENT
REMARK Flexibility Score: inf
ROOT
ATOM      1  C   UNL     1       7.536  -7.229 -35.999  1.00  0.00     0.000 C 
ENDROOT
BRANCH   1   2
ATOM      2  C   UNL     1       6.323  -7.727 -36.804  1.00  0.00     0.000 C 
BRANCH   2   3
ATOM      3  C   UNL     1       5.097  -8.138 -35.963  1.00  0.00     0.000 C 
BRANCH   3   4
ATOM      4  C   UNL     1       5.412  -8.746 -34.580  1.00  0.00     0.000 C 
BRANCH   4   5
ATOM      5  C   UNL     1       4.904  -7.923 -33.380  1.00  0.00     0.001 C 
BRANCH   5   6
ATOM      6  C   UNL     1       5.422  -6.465 -33.365  1.00  0.00     0.009 C 
BRANCH   6   7
ATOM      7  C   UNL     1       6.203  -6.103 -32.082  1.00  0.00     0.032 C 
ATOM      8  C   UNL     1       6.550  -7.339 -31.242  1.00  0.00     0.014 C 
BRANCH   7   9
ATOM      9  C   UNL     1       7.462  -5.359 -32.437  1.00  0.00     0.044 C 
ATOM     10  O   UNL     1       7.459  -4.102 -32.524  1.00  0.00    -0.550 OA
ATOM     11  O   UNL     1       8.638  -6.058 -32.673  1.00  0.00    -0.550 OA
ENDBRANCH   7   9
ENDBRANCH   6   7
ENDBRANCH   5   6
ENDBRANCH   4   5
ENDBRANCH   3   4
ENDBRANCH   2   3
ENDBRANCH   1   2
BRANCH   1  12
ATOM     12  C   UNL     1       7.782  -5.719 -36.164  1.00  0.00     0.000 C 
BRANCH  12  13
ATOM     13  C   UNL     1       7.111  -5.147 -37.423  1.00  0.00    -0.000 C 
BRANCH  13  14
ATOM     14  C   UNL     1       6.856  -3.635 -37.325  1.00  0.00    -0.000 C 
BRANCH  14  15
ATOM     15  C   UNL     1       6.606  -3.213 -35.871  1.00  0.00    -0.000 C 
BRANCH  15  16
ATOM     16  C   UNL     1       5.142  -3.451 -35.474  1.00  0.00    -0.000 C 
BRANCH  16  17
ATOM     17  C   UNL     1       4.150  -2.642 -36.331  1.00  0.00    -0.000 C 
BRANCH  17  18
ATOM     18  C   UNL     1       3.274  -3.486 -37.274  1.00  0.00    -0.003 C 
ATOM     19  C   UNL     1       3.331  -4.982 -36.966  1.00  0.00     0.004 C 
ENDBRANCH  17  18
ENDBRANCH  16  17
ENDBRANCH  15  16
ENDBRANCH  14  15
ENDBRANCH  13  14
ENDBRANCH  12  13
ENDBRANCH   1  12
TORSDOF 14
ENDMDL
MODEL 5
REMARK VINA RESULT:    -4.351      2.624      4.486
REMARK INTER + INTRA:          -9.917
REMARK INTER:                  -8.961
REMARK INTRA:                  -0.956
REMARK UNBOUND:                -2.005
REMARK SMILES CCCCCCCCCCCCCC[C@@H](C)C(=O)[O-]
REMARK SMILES IDX 9 1 10 2 11 3 12 4 13 5 14 6 15 7 16 8 17 9 18 10 19 11 8 12
REMARK SMILES IDX 7 13 6 14 5 15 4 16 3 17 2 18 1 19
REMARK H PARENT
REMARK Flexibility Score: inf
ROOT
ATOM      1  C   UNL     1      14.541  -5.391 -23.308  1.00  0.00     0.000 C 
ENDROOT
BRANCH   1   2
ATOM      2  C   UNL     1      13.809  -4.423 -22.361  1.00  0.00     0.000 C 
BRANCH   2   3
ATOM      3  C   UNL     1      14.473  -3.042 -22.187  1.00  0.00     0.000 C 
BRANCH   3   4
ATOM      4  C   UNL     1      14.553  -2.520 -20.737  1.00  0.00     0.000 C 
BRANCH   4   5
ATOM      5  C   UNL     1      13.200  -2.437 -20.003  1.00  0.00     0.001 C 
BRANCH   5   6
ATOM      6  C   UNL     1      12.079  -1.784 -20.846  1.00  0.00     0.009 C 
BRANCH   6   7
ATOM      7  C   UNL     1      10.662  -2.031 -20.280  1.00  0.00     0.032 C 
ATOM      8  C   UNL     1      10.507  -1.508 -18.847  1.00  0.00     0.014 C 
BRANCH   7   9
ATOM      9  C   UNL     1       9.633  -1.387 -21.171  1.00  0.00     0.044 C 
ATOM     10  O   UNL     1       9.893  -0.312 -21.775  1.00  0.00    -0.550 OA
ATOM     11  O   UNL     1       8.387  -1.978 -21.331  1.00  0.00    -0.550 OA
ENDBRANCH   7   9
ENDBRANCH   6   7
ENDBRANCH   5   6
ENDBRANCH   4   5
ENDBRANCH   3   4
ENDBRANCH   2   3
ENDBRANCH   1   2
BRANCH   1  12
ATOM     12  C   UNL     1      15.935  -5.788 -22.791  1.00  0.00     0.000 C 
BRANCH  12  13
ATOM     13  C   UNL     1      15.927  -6.159 -21.299  1.00  0.00    -0.000 C 
BRANCH  13  14
ATOM     14  C   UNL     1      17.278  -6.710 -20.818  1.00  0.00    -0.000 C 
BRANCH  14  15
ATOM     15  C   UNL     1      18.226  -6.950 -22.000  1.00  0.00    -0.000 C 
BRANCH  15  16
ATOM     16  C   UNL     1      19.568  -7.522 -21.522  1.00  0.00    -0.000 C 
BRANCH  16  17
ATOM     17  C   UNL     1      20.737  -6.535 -21.697  1.00  0.00    -0.000 C 
BRANCH  17  18
ATOM     18  C   UNL     1      21.113  -5.746 -20.430  1.00  0.00    -0.003 C 
ATOM     19  C   UNL     1      20.677  -6.442 -19.141  1.00  0.00     0.004 C 
ENDBRANCH  17  18
ENDBRANCH  16  17
ENDBRANCH  15  16
ENDBRANCH  14  15
ENDBRANCH  13  14
ENDBRANCH  12  13
ENDBRANCH   1  12
TORSDOF 14
ENDMDL
MODEL 6
REMARK VINA RESULT:    -4.312     16.390     19.877
REMARK INTER + INTRA:          -9.847
REMARK INTER:                  -8.099
REMARK INTRA:                  -1.748
REMARK UNBOUND:                -2.005
REMARK SMILES CCCCCCCCCCCCCC[C@@H](C)C(=O)[O-]
REMARK SMILES IDX 9 1 10 2 11 3 12 4 13 5 14 6 15 7 16 8 17 9 18 10 19 11 8 12
REMARK SMILES IDX 7 13 6 14 5 15 4 16 3 17 2 18 1 19
REMARK H PARENT
REMARK Flexibility Score: inf
ROOT
ATOM      1  C   UNL     1       4.385  -2.986 -35.916  1.00  0.00     0.000 C 
ENDROOT
BRANCH   1   2
ATOM      2  C   UNL     1       5.808  -2.686 -36.419  1.00  0.00     0.000 C 
BRANCH   2   3
ATOM      3  C   UNL     1       6.919  -2.780 -35.352  1.00  0.00     0.000 C 
BRANCH   3   4
ATOM      4  C   UNL     1       6.433  -3.002 -33.904  1.00  0.00     0.000 C 
BRANCH   4   5
ATOM      5  C   UNL     1       7.422  -3.764 -33.000  1.00  0.00     0.001 C 
BRANCH   5   6
ATOM      6  C   UNL     1       7.447  -5.290 -33.258  1.00  0.00     0.009 C 
BRANCH   6   7
ATOM      7  C   UNL     1       6.040  -5.909 -33.423  1.00  0.00     0.032 C 
ATOM      8  C   UNL     1       5.838  -6.539 -34.806  1.00  0.00     0.014 C 
BRANCH   7   9
ATOM      9  C   UNL     1       5.804  -6.941 -32.353  1.00  0.00     0.044 C 
ATOM     10  O   UNL     1       6.111  -6.703 -31.154  1.00  0.00    -0.550 OA
ATOM     11  O   UNL     1       5.244  -8.168 -32.685  1.00  0.00    -0.550 OA
ENDBRANCH   7   9
ENDBRANCH   6   7
ENDBRANCH   5   6
ENDBRANCH   4   5
ENDBRANCH   3   4
ENDBRANCH   2   3
ENDBRANCH   1   2
BRANCH   1  12
ATOM     12  C   UNL     1       3.530  -3.730 -36.956  1.00  0.00     0.000 C 
BRANCH  12  13
ATOM     13  C   UNL     1       4.262  -4.936 -37.567  1.00  0.00    -0.000 C 
BRANCH  13  14
ATOM     14  C   UNL     1       3.368  -6.181 -37.673  1.00  0.00    -0.000 C 
BRANCH  14  15
ATOM     15  C   UNL     1       2.329  -6.209 -36.545  1.00  0.00    -0.000 C 
BRANCH  15  16
ATOM     16  C   UNL     1       2.157  -7.630 -35.989  1.00  0.00    -0.000 C 
BRANCH  16  17
ATOM     17  C   UNL     1       1.083  -7.717 -34.888  1.00  0.00    -0.000 C 
BRANCH  17  18
ATOM     18  C   UNL     1       1.603  -8.172 -33.513  1.00  0.00    -0.003 C 
ATOM     19  C   UNL     1       1.632  -9.692 -33.356  1.00  0.00     0.004 C 
ENDBRANCH  17  18
ENDBRANCH  16  17
ENDBRANCH  15  16
ENDBRANCH  14  15
ENDBRANCH  13  14
ENDBRANCH  12  13
ENDBRANCH   1  12
TORSDOF 14
ENDMDL
MODEL 7
REMARK VINA RESULT:    -4.250     16.255     19.731
REMARK INTER + INTRA:          -9.734
REMARK INTER:                  -7.701
REMARK INTRA:                  -2.033
REMARK UNBOUND:                -2.005
REMARK SMILES CCCCCCCCCCCCCC[C@@H](C)C(=O)[O-]
REMARK SMILES IDX 9 1 10 2 11 3 12 4 13 5 14 6 15 7 16 8 17 9 18 10 19 11 8 12
REMARK SMILES IDX 7 13 6 14 5 15 4 16 3 17 2 18 1 19
REMARK H PARENT
REMARK Flexibility Score: inf
ROOT
ATOM      1  C   UNL     1       5.185  -8.536 -34.762  1.00  0.00     0.000 C 
ENDROOT
BRANCH   1   2
ATOM      2  C   UNL     1       5.657  -7.265 -35.489  1.00  0.00     0.000 C 
BRANCH   2   3
ATOM      3  C   UNL     1       4.623  -6.627 -36.440  1.00  0.00     0.000 C 
BRANCH   3   4
ATOM      4  C   UNL     1       3.759  -7.620 -37.246  1.00  0.00     0.000 C 
BRANCH   4   5
ATOM      5  C   UNL     1       2.239  -7.460 -37.051  1.00  0.00     0.001 C 
BRANCH   5   6
ATOM      6  C   UNL     1       1.817  -7.319 -35.569  1.00  0.00     0.009 C 
BRANCH   6   7
ATOM      7  C   UNL     1       1.064  -8.553 -35.023  1.00  0.00     0.032 C 
ATOM      8  C   UNL     1       1.530  -9.858 -35.680  1.00  0.00     0.014 C 
BRANCH   7   9
ATOM      9  C   UNL     1       1.237  -8.644 -33.531  1.00  0.00     0.044 C 
ATOM     10  O   UNL     1       0.875  -7.695 -32.786  1.00  0.00    -0.550 OA
ATOM     11  O   UNL     1       1.802  -9.780 -32.966  1.00  0.00    -0.550 OA
ENDBRANCH   7   9
ENDBRANCH   6   7
ENDBRANCH   5   6
ENDBRANCH   4   5
ENDBRANCH   3   4
ENDBRANCH   2   3
ENDBRANCH   1   2
BRANCH   1  12
ATOM     12  C   UNL     1       4.963  -8.313 -33.255  1.00  0.00     0.000 C 
BRANCH  12  13
ATOM     13  C   UNL     1       5.350  -6.895 -32.806  1.00  0.00    -0.000 C 
BRANCH  13  14
ATOM     14  C   UNL     1       6.272  -6.893 -31.577  1.00  0.00    -0.000 C 
BRANCH  14  15
ATOM     15  C   UNL     1       7.247  -5.709 -31.624  1.00  0.00    -0.000 C 
BRANCH  15  16
ATOM     16  C   UNL     1       7.686  -5.414 -33.065  1.00  0.00    -0.000 C 
BRANCH  16  17
ATOM     17  C   UNL     1       7.709  -3.908 -33.388  1.00  0.00    -0.000 C 
BRANCH  17  18
ATOM     18  C   UNL     1       6.421  -3.366 -34.034  1.00  0.00    -0.003 C 
ATOM     19  C   UNL     1       6.393  -3.541 -35.552  1.00  0.00     0.004 C 
ENDBRANCH  17  18
ENDBRANCH  16  17
ENDBRANCH  15  16
ENDBRANCH  14  15
ENDBRANCH  13  14
ENDBRANCH  12  13
ENDBRANCH   1  12
TORSDOF 14
ENDMDL
MODEL 8
REMARK VINA RESULT:    -4.246     16.381     19.790
REMARK INTER + INTRA:          -9.725
REMARK INTER:                  -7.710
REMARK INTRA:                  -2.015
REMARK UNBOUND:                -2.005
REMARK SMILES CCCCCCCCCCCCCC[C@@H](C)C(=O)[O-]
REMARK SMILES IDX 9 1 10 2 11 3 12 4 13 5 14 6 15 7 16 8 17 9 18 10 19 11 8 12
REMARK SMILES IDX 7 13 6 14 5 15 4 16 3 17 2 18 1 19
REMARK H PARENT
REMARK Flexibility Score: inf
ROOT
ATOM      1  C   UNL     1       5.563  -8.369 -34.820  1.00  0.00     0.000 C 
ENDROOT
BRANCH   1   2
ATOM      2  C   UNL     1       4.325  -7.468 -34.666  1.00  0.00     0.000 C 
BRANCH   2   3
ATOM      3  C   UNL     1       3.547  -7.187 -35.968  1.00  0.00     0.000 C 
BRANCH   3   4
ATOM      4  C   UNL     1       2.047  -7.550 -35.939  1.00  0.00     0.000 C 
BRANCH   4   5
ATOM      5  C   UNL     1       1.495  -7.904 -34.545  1.00  0.00     0.001 C 
BRANCH   5   6
ATOM      6  C   UNL     1       1.165  -9.406 -34.372  1.00  0.00     0.009 C 
BRANCH   6   7
ATOM      7  C   UNL     1       2.308 -10.216 -33.721  1.00  0.00     0.032 C 
ATOM      8  C   UNL     1       1.873 -10.895 -32.417  1.00  0.00     0.014 C 
BRANCH   7   9
ATOM      9  C   UNL     1       2.820 -11.251 -34.687  1.00  0.00     0.044 C 
ATOM     10  O   UNL     1       3.318 -10.904 -35.792  1.00  0.00    -0.550 OA
ATOM     11  O   UNL     1       2.745 -12.600 -34.364  1.00  0.00    -0.550 OA
ENDBRANCH   7   9
ENDBRANCH   6   7
ENDBRANCH   5   6
ENDBRANCH   4   5
ENDBRANCH   3   4
ENDBRANCH   2   3
ENDBRANCH   1   2
BRANCH   1  12
ATOM     12  C   UNL     1       6.416  -8.005 -36.048  1.00  0.00     0.000 C 
BRANCH  12  13
ATOM     13  C   UNL     1       7.538  -7.010 -35.711  1.00  0.00    -0.000 C 
BRANCH  13  14
ATOM     14  C   UNL     1       7.242  -5.589 -36.216  1.00  0.00    -0.000 C 
BRANCH  14  15
ATOM     15  C   UNL     1       7.455  -4.555 -35.103  1.00  0.00    -0.000 C 
BRANCH  15  16
ATOM     16  C   UNL     1       6.560  -4.858 -33.892  1.00  0.00    -0.000 C 
BRANCH  16  17
ATOM     17  C   UNL     1       7.288  -4.670 -32.548  1.00  0.00    -0.000 C 
BRANCH  17  18
ATOM     18  C   UNL     1       7.521  -5.967 -31.752  1.00  0.00    -0.003 C 
ATOM     19  C   UNL     1       6.226  -6.711 -31.428  1.00  0.00     0.004 C 
ENDBRANCH  17  18
ENDBRANCH  16  17
ENDBRANCH  15  16
ENDBRANCH  14  15
ENDBRANCH  13  14
ENDBRANCH  12  13
ENDBRANCH   1  12
TORSDOF 14
ENDMDL
MODEL 9
REMARK VINA RESULT:    -4.209     16.361     19.575
REMARK INTER + INTRA:          -9.658
REMARK INTER:                  -7.634
REMARK INTRA:                  -2.024
REMARK UNBOUND:                -2.005
REMARK SMILES CCCCCCCCCCCCCC[C@@H](C)C(=O)[O-]
REMARK SMILES IDX 9 1 10 2 11 3 12 4 13 5 14 6 15 7 16 8 17 9 18 10 19 11 8 12
REMARK SMILES IDX 7 13 6 14 5 15 4 16 3 17 2 18 1 19
REMARK H PARENT
REMARK Flexibility Score: inf
ROOT
ATOM      1  C   UNL     1       7.464  -6.089 -36.396  1.00  0.00     0.000 C 
ENDROOT
BRANCH   1   2
ATOM      2  C   UNL     1       7.176  -7.598 -36.305  1.00  0.00     0.000 C 
BRANCH   2   3
ATOM      3  C   UNL     1       5.870  -8.062 -36.983  1.00  0.00     0.000 C 
BRANCH   3   4
ATOM      4  C   UNL     1       4.791  -8.627 -36.034  1.00  0.00     0.000 C 
BRANCH   4   5
ATOM      5  C   UNL     1       4.046  -7.567 -35.199  1.00  0.00     0.001 C 
BRANCH   5   6
ATOM      6  C   UNL     1       3.647  -8.059 -33.788  1.00  0.00     0.009 C 
BRANCH   6   7
ATOM      7  C   UNL     1       2.145  -8.396 -33.656  1.00  0.00     0.032 C 
ATOM      8  C   UNL     1       1.315  -7.823 -34.811  1.00  0.00     0.014 C 
BRANCH   7   9
ATOM      9  C   UNL     1       1.956  -9.888 -33.584  1.00  0.00     0.044 C 
ATOM     10  O   UNL     1       1.623 -10.439 -32.500  1.00  0.00    -0.550 OA
ATOM     11  O   UNL     1       2.150 -10.667 -34.716  1.00  0.00    -0.550 OA
ENDBRANCH   7   9
ENDBRANCH   6   7
ENDBRANCH   5   6
ENDBRANCH   4   5
ENDBRANCH   3   4
ENDBRANCH   2   3
ENDBRANCH   1   2
BRANCH   1  12
ATOM     12  C   UNL     1       6.352  -5.313 -37.123  1.00  0.00     0.000 C 
BRANCH  12  13
ATOM     13  C   UNL     1       5.710  -4.234 -36.236  1.00  0.00    -0.000 C 
BRANCH  13  14
ATOM     14  C   UNL     1       6.742  -3.464 -35.397  1.00  0.00    -0.000 C 
BRANCH  14  15
ATOM     15  C   UNL     1       6.233  -3.242 -33.967  1.00  0.00    -0.000 C 
BRANCH  15  16
ATOM     16  C   UNL     1       7.297  -3.640 -32.935  1.00  0.00    -0.000 C 
BRANCH  16  17
ATOM     17  C   UNL     1       7.698  -5.124 -33.030  1.00  0.00    -0.000 C 
BRANCH  17  18
ATOM     18  C   UNL     1       6.559  -6.120 -32.748  1.00  0.00    -0.003 C 
ATOM     19  C   UNL     1       6.475  -6.534 -31.279  1.00  0.00     0.004 C 
ENDBRANCH  17  18
ENDBRANCH  16  17
ENDBRANCH  15  16
ENDBRANCH  14  15
ENDBRANCH  13  14
ENDBRANCH  12  13
ENDBRANCH   1  12
TORSDOF 14
ENDMDL
