MODEL 1
REMARK VINA RESULT:    -4.121      0.000      0.000
REMARK INTER + INTRA:          -5.035
REMARK INTER:                  -4.724
REMARK INTRA:                  -0.311
REMARK UNBOUND:                -0.311
REMARK SMILES COc1ccc(C(C)=O)c(O)c1
REMARK SMILES IDX 6 1 10 2 12 3 3 4 4 5 5 6 7 7 8 8 9 9 11 10 2 12 1 13
REMARK H PARENT 11 11
REMARK Flexibility Score: inf
ROOT
ATOM      1  C   UNL     1     -13.982 -10.940  94.320  1.00  0.00     0.059 A 
ATOM      2  C   UNL     1     -13.018 -11.835  94.845  1.00  0.00     0.130 A 
ATOM      3  C   UNL     1     -12.594 -11.700  96.173  1.00  0.00     0.093 A 
ATOM      4  C   UNL     1     -13.132 -10.714  97.005  1.00  0.00     0.122 A 
ATOM      5  C   UNL     1     -14.109  -9.845  96.493  1.00  0.00     0.047 A 
ATOM      6  C   UNL     1     -14.528  -9.957  95.166  1.00  0.00     0.019 A 
ENDROOT
BRANCH   1   7
ATOM      7  C   UNL     1     -14.404 -10.982  92.900  1.00  0.00     0.163 C 
ATOM      8  C   UNL     1     -14.037  -9.884  91.950  1.00  0.00     0.093 C 
ATOM      9  O   UNL     1     -15.010 -11.993  92.454  1.00  0.00    -0.294 OA
ENDBRANCH   1   7
BRANCH   2  10
ATOM     10  O   UNL     1     -12.483 -12.883  94.094  1.00  0.00    -0.507 OA
ATOM     11  H   UNL     1     -12.905 -13.229  93.242  1.00  0.00     0.293 HD
ENDBRANCH   2  10
BRANCH   4  12
ATOM     12  O   UNL     1     -12.673 -10.636  98.328  1.00  0.00    -0.497 OA
ATOM     13  C   UNL     1     -13.434 -11.019  99.468  1.00  0.00     0.278 C 
ENDBRANCH   4  12
TORSDOF 3
ENDMDL
MODEL 2
REMARK VINA RESULT:    -4.074      1.883      5.543
REMARK INTER + INTRA:          -4.981
REMARK INTER:                  -4.647
REMARK INTRA:                  -0.334
REMARK UNBOUND:                -0.311
REMARK SMILES COc1ccc(C(C)=O)c(O)c1
REMARK SMILES IDX 6 1 10 2 12 3 3 4 4 5 5 6 7 7 8 8 9 9 11 10 2 12 1 13
REMARK H PARENT 11 11
REMARK Flexibility Score: inf
ROOT
ATOM      1  C   UNL     1     -14.086 -10.224  98.427  1.00  0.00     0.059 A 
ATOM      2  C   UNL     1     -15.078  -9.510  97.710  1.00  0.00     0.130 A 
ATOM      3  C   UNL     1     -15.043  -9.486  96.311  1.00  0.00     0.093 A 
ATOM      4  C   UNL     1     -14.061 -10.184  95.602  1.00  0.00     0.122 A 
ATOM      5  C   UNL     1     -13.095 -10.916  96.311  1.00  0.00     0.047 A 
ATOM      6  C   UNL     1     -13.108 -10.934  97.707  1.00  0.00     0.019 A 
ENDROOT
BRANCH   1   7
ATOM      7  C   UNL     1     -14.025 -10.213  99.907  1.00  0.00     0.163 C 
ATOM      8  C   UNL     1     -13.555 -11.413 100.671  1.00  0.00     0.093 C 
ATOM      9  O   UNL     1     -14.292  -9.157 100.540  1.00  0.00    -0.294 OA
ENDBRANCH   1   7
BRANCH   2  10
ATOM     10  O   UNL     1     -16.125  -8.841  98.348  1.00  0.00    -0.507 OA
ATOM     11  H   UNL     1     -16.084  -7.865  98.610  1.00  0.00     0.293 HD
ENDBRANCH   2  10
BRANCH   4  12
ATOM     12  O   UNL     1     -14.085 -10.128  94.200  1.00  0.00    -0.497 OA
ATOM     13  C   UNL     1     -14.463 -11.211  93.358  1.00  0.00     0.278 C 
ENDBRANCH   4  12
TORSDOF 3
ENDMDL
MODEL 3
REMARK VINA RESULT:    -4.035      6.057      6.966
REMARK INTER + INTRA:          -4.936
REMARK INTER:                  -4.598
REMARK INTRA:                  -0.338
REMARK UNBOUND:                -0.311
REMARK SMILES COc1ccc(C(C)=O)c(O)c1
REMARK SMILES IDX 6 1 10 2 12 3 3 4 4 5 5 6 7 7 8 8 9 9 11 10 2 12 1 13
REMARK H PARENT 11 11
REMARK Flexibility Score: inf
ROOT
ATOM      1  C   UNL     1      -9.403  -9.976  90.216  1.00  0.00     0.059 A 
ATOM      2  C   UNL     1      -8.236  -9.198  90.012  1.00  0.00     0.130 A 
ATOM      3  C   UNL     1      -7.714  -8.438  91.065  1.00  0.00     0.093 A 
ATOM      4  C   UNL     1      -8.306  -8.458  92.331  1.00  0.00     0.122 A 
ATOM      5  C   UNL     1      -9.446  -9.250  92.542  1.00  0.00     0.047 A 
ATOM      6  C   UNL     1      -9.987 -10.000  91.495  1.00  0.00     0.019 A 
ENDROOT
BRANCH   1   7
ATOM      7  C   UNL     1     -10.047 -10.731  89.115  1.00  0.00     0.163 C 
ATOM      8  C   UNL     1     -11.476 -10.487  88.742  1.00  0.00     0.093 C 
ATOM      9  O   UNL     1      -9.367 -11.535  88.423  1.00  0.00    -0.294 OA
ENDBRANCH   1   7
BRANCH   2  10
ATOM     10  O   UNL     1      -7.554  -9.179  88.793  1.00  0.00    -0.507 OA
ATOM     11  H   UNL     1      -7.064  -9.980  88.417  1.00  0.00     0.293 HD
ENDBRANCH   2  10
BRANCH   4  12
ATOM     12  O   UNL     1      -7.731  -7.681  93.348  1.00  0.00    -0.497 OA
ATOM     13  C   UNL     1      -6.571  -8.052  94.086  1.00  0.00     0.278 C 
ENDBRANCH   4  12
TORSDOF 3
ENDMDL
MODEL 4
REMARK VINA RESULT:    -3.791      2.045      3.121
REMARK INTER + INTRA:          -4.656
REMARK INTER:                  -4.325
REMARK INTRA:                  -0.331
REMARK UNBOUND:                -0.311
REMARK SMILES COc1ccc(C(C)=O)c(O)c1
REMARK SMILES IDX 6 1 10 2 12 3 3 4 4 5 5 6 7 7 8 8 9 9 11 10 2 12 1 13
REMARK H PARENT 11 11
REMARK Flexibility Score: inf
ROOT
ATOM      1  C   UNL     1     -13.403 -10.934  96.064  1.00  0.00     0.059 A 
ATOM      2  C   UNL     1     -14.301  -9.854  95.880  1.00  0.00     0.130 A 
ATOM      3  C   UNL     1     -14.924  -9.271  96.990  1.00  0.00     0.093 A 
ATOM      4  C   UNL     1     -14.649  -9.713  98.287  1.00  0.00     0.122 A 
ATOM      5  C   UNL     1     -13.736 -10.764  98.473  1.00  0.00     0.047 A 
ATOM      6  C   UNL     1     -13.121 -11.366  97.373  1.00  0.00     0.019 A 
ENDROOT
BRANCH   1   7
ATOM      7  C   UNL     1     -12.782 -11.644  94.921  1.00  0.00     0.163 C 
ATOM      8  C   UNL     1     -11.306 -11.893  94.874  1.00  0.00     0.093 C 
ATOM      9  O   UNL     1     -13.508 -12.122  94.009  1.00  0.00    -0.294 OA
ENDBRANCH   1   7
BRANCH   2  10
ATOM     10  O   UNL     1     -14.577  -9.317  94.621  1.00  0.00    -0.507 OA
ATOM     11  H   UNL     1     -13.902  -9.292  93.867  1.00  0.00     0.293 HD
ENDBRANCH   2  10
BRANCH   4  12
ATOM     12  O   UNL     1     -15.298  -9.082  99.358  1.00  0.00    -0.497 OA
ATOM     13  C   UNL     1     -15.910  -7.798  99.284  1.00  0.00     0.278 C 
ENDBRANCH   4  12
TORSDOF 3
ENDMDL
MODEL 5
REMARK VINA RESULT:    -3.765      2.142      3.385
REMARK INTER + INTRA:          -4.626
REMARK INTER:                  -4.281
REMARK INTRA:                  -0.345
REMARK UNBOUND:                -0.311
REMARK SMILES COc1ccc(C(C)=O)c(O)c1
REMARK SMILES IDX 6 1 10 2 12 3 3 4 4 5 5 6 7 7 8 8 9 9 11 10 2 12 1 13
REMARK H PARENT 11 11
REMARK Flexibility Score: inf
ROOT
ATOM      1  C   UNL     1     -13.953 -10.162  96.603  1.00  0.00     0.059 A 
ATOM      2  C   UNL     1     -15.027  -9.493  97.241  1.00  0.00     0.130 A 
ATOM      3  C   UNL     1     -15.113  -9.493  98.638  1.00  0.00     0.093 A 
ATOM      4  C   UNL     1     -14.137 -10.116  99.422  1.00  0.00     0.122 A 
ATOM      5  C   UNL     1     -13.058 -10.755  98.790  1.00  0.00     0.047 A 
ATOM      6  C   UNL     1     -12.969 -10.777  97.397  1.00  0.00     0.019 A 
ENDROOT
BRANCH   1   7
ATOM      7  C   UNL     1     -13.858 -10.267  95.127  1.00  0.00     0.163 C 
ATOM      8  C   UNL     1     -13.634 -11.588  94.458  1.00  0.00     0.093 C 
ATOM      9  O   UNL     1     -14.049  -9.248  94.411  1.00  0.00    -0.294 OA
ENDBRANCH   1   7
BRANCH   2  10
ATOM     10  O   UNL     1     -16.004  -8.796  96.527  1.00  0.00    -0.507 OA
ATOM     11  H   UNL     1     -16.130  -7.794  96.591  1.00  0.00     0.293 HD
ENDBRANCH   2  10
BRANCH   4  12
ATOM     12  O   UNL     1     -14.276 -10.075 100.817  1.00  0.00    -0.497 OA
ATOM     13  C   UNL     1     -13.574 -10.921 101.721  1.00  0.00     0.278 C 
ENDBRANCH   4  12
TORSDOF 3
ENDMDL
MODEL 6
REMARK VINA RESULT:    -3.700      4.739      6.186
REMARK INTER + INTRA:          -4.551
REMARK INTER:                  -4.225
REMARK INTRA:                  -0.327
REMARK UNBOUND:                -0.311
REMARK SMILES COc1ccc(C(C)=O)c(O)c1
REMARK SMILES IDX 6 1 10 2 12 3 3 4 4 5 5 6 7 7 8 8 9 9 11 10 2 12 1 13
REMARK H PARENT 11 11
REMARK Flexibility Score: inf
ROOT
ATOM      1  C   UNL     1      -9.569  -9.971  90.447  1.00  0.00     0.059 A 
ATOM      2  C   UNL     1      -9.457  -9.631  91.818  1.00  0.00     0.130 A 
ATOM      3  C   UNL     1     -10.599  -9.622  92.627  1.00  0.00     0.093 A 
ATOM      4  C   UNL     1     -11.850  -9.976  92.114  1.00  0.00     0.122 A 
ATOM      5  C   UNL     1     -11.957 -10.341  90.762  1.00  0.00     0.047 A 
ATOM      6  C   UNL     1     -10.828 -10.337  89.940  1.00  0.00     0.019 A 
ENDROOT
BRANCH   1   7
ATOM      7  C   UNL     1      -8.409  -9.914  89.526  1.00  0.00     0.163 C 
ATOM      8  C   UNL     1      -8.080 -11.064  88.624  1.00  0.00     0.093 C 
ATOM      9  O   UNL     1      -7.732  -8.855  89.432  1.00  0.00    -0.294 OA
ENDBRANCH   1   7
BRANCH   2  10
ATOM     10  O   UNL     1      -8.232  -9.328  92.416  1.00  0.00    -0.507 OA
ATOM     11  H   UNL     1      -7.363  -9.779  92.163  1.00  0.00     0.293 HD
ENDBRANCH   2  10
BRANCH   4  12
ATOM     12  O   UNL     1     -12.955  -9.956  92.978  1.00  0.00    -0.497 OA
ATOM     13  C   UNL     1     -13.865 -11.038  93.146  1.00  0.00     0.278 C 
ENDBRANCH   4  12
TORSDOF 3
ENDMDL
MODEL 7
REMARK VINA RESULT:    -3.693      7.484      8.314
REMARK INTER + INTRA:          -4.543
REMARK INTER:                  -4.218
REMARK INTRA:                  -0.325
REMARK UNBOUND:                -0.311
REMARK SMILES COc1ccc(C(C)=O)c(O)c1
REMARK SMILES IDX 6 1 10 2 12 3 3 4 4 5 5 6 7 7 8 8 9 9 11 10 2 12 1 13
REMARK H PARENT 11 11
REMARK Flexibility Score: inf
ROOT
ATOM      1  C   UNL     1      -8.944  -8.790  89.905  1.00  0.00     0.059 A 
ATOM      2  C   UNL     1      -9.724  -7.666  89.538  1.00  0.00     0.130 A 
ATOM      3  C   UNL     1      -9.404  -6.401  90.046  1.00  0.00     0.093 A 
ATOM      4  C   UNL     1      -8.302  -6.220  90.887  1.00  0.00     0.122 A 
ATOM      5  C   UNL     1      -7.510  -7.329  91.228  1.00  0.00     0.047 A 
ATOM      6  C   UNL     1      -7.829  -8.598  90.742  1.00  0.00     0.019 A 
ENDROOT
BRANCH   1   7
ATOM      7  C   UNL     1      -9.288 -10.163  89.466  1.00  0.00     0.163 C 
ATOM      8  C   UNL     1      -8.265 -11.050  88.825  1.00  0.00     0.093 C 
ATOM      9  O   UNL     1     -10.433 -10.631  89.705  1.00  0.00    -0.294 OA
ENDBRANCH   1   7
BRANCH   2  10
ATOM     10  O   UNL     1     -10.800  -7.759  88.653  1.00  0.00    -0.507 OA
ATOM     11  H   UNL     1     -11.199  -8.639  88.354  1.00  0.00     0.293 HD
ENDBRANCH   2  10
BRANCH   4  12
ATOM     12  O   UNL     1      -8.028  -4.927  91.356  1.00  0.00    -0.497 OA
ATOM     13  C   UNL     1      -6.733  -4.460  91.720  1.00  0.00     0.278 C 
ENDBRANCH   4  12
TORSDOF 3
ENDMDL
MODEL 8
REMARK VINA RESULT:    -3.667      1.797      4.757
REMARK INTER + INTRA:          -4.514
REMARK INTER:                  -4.215
REMARK INTRA:                  -0.299
REMARK UNBOUND:                -0.311
REMARK SMILES COc1ccc(C(C)=O)c(O)c1
REMARK SMILES IDX 6 1 10 2 12 3 3 4 4 5 5 6 7 7 8 8 9 9 11 10 2 12 1 13
REMARK H PARENT 11 11
REMARK Flexibility Score: inf
ROOT
ATOM      1  C   UNL     1     -14.399  -9.706  97.822  1.00  0.00     0.059 A 
ATOM      2  C   UNL     1     -13.269 -10.552  97.937  1.00  0.00     0.130 A 
ATOM      3  C   UNL     1     -12.778 -11.214  96.805  1.00  0.00     0.093 A 
ATOM      4  C   UNL     1     -13.366 -11.029  95.550  1.00  0.00     0.122 A 
ATOM      5  C   UNL     1     -14.469 -10.168  95.431  1.00  0.00     0.047 A 
ATOM      6  C   UNL     1     -14.978  -9.515  96.555  1.00  0.00     0.019 A 
ENDROOT
BRANCH   1   7
ATOM      7  C   UNL     1     -15.011  -9.048  99.001  1.00  0.00     0.163 C 
ATOM      8  C   UNL     1     -16.045  -7.976  98.839  1.00  0.00     0.093 C 
ATOM      9  O   UNL     1     -14.726  -9.446 100.162  1.00  0.00    -0.294 OA
ENDBRANCH   1   7
BRANCH   2  10
ATOM     10  O   UNL     1     -12.591 -10.736  99.144  1.00  0.00    -0.507 OA
ATOM     11  H   UNL     1     -12.014 -10.023  99.572  1.00  0.00     0.293 HD
ENDBRANCH   2  10
BRANCH   4  12
ATOM     12  O   UNL     1     -12.824 -11.714  94.453  1.00  0.00    -0.497 OA
ATOM     13  C   UNL     1     -11.492 -12.214  94.395  1.00  0.00     0.278 C 
ENDBRANCH   4  12
TORSDOF 3
ENDMDL
MODEL 9
REMARK VINA RESULT:    -3.599      2.165      2.381
REMARK INTER + INTRA:          -4.436
REMARK INTER:                  -4.099
REMARK INTRA:                  -0.337
REMARK UNBOUND:                -0.311
REMARK SMILES COc1ccc(C(C)=O)c(O)c1
REMARK SMILES IDX 6 1 10 2 12 3 3 4 4 5 5 6 7 7 8 8 9 9 11 10 2 12 1 13
REMARK H PARENT 11 11
REMARK Flexibility Score: inf
ROOT
ATOM      1  C   UNL     1     -11.656 -10.450  94.401  1.00  0.00     0.059 A 
ATOM      2  C   UNL     1     -12.163 -11.695  94.850  1.00  0.00     0.130 A 
ATOM      3  C   UNL     1     -12.717 -11.799  96.131  1.00  0.00     0.093 A 
ATOM      4  C   UNL     1     -12.813 -10.684  96.969  1.00  0.00     0.122 A 
ATOM      5  C   UNL     1     -12.337  -9.443  96.513  1.00  0.00     0.047 A 
ATOM      6  C   UNL     1     -11.766  -9.330  95.245  1.00  0.00     0.019 A 
ENDROOT
BRANCH   1   7
ATOM      7  C   UNL     1     -10.982 -10.303  93.090  1.00  0.00     0.163 C 
ATOM      8  C   UNL     1      -9.559  -9.847  92.998  1.00  0.00     0.093 C 
ATOM      9  O   UNL     1     -11.581 -10.641  92.033  1.00  0.00    -0.294 OA
ENDBRANCH   1   7
BRANCH   2  10
ATOM     10  O   UNL     1     -12.160 -12.837  94.047  1.00  0.00    -0.507 OA
ATOM     11  H   UNL     1     -11.527 -13.614  94.187  1.00  0.00     0.293 HD
ENDBRANCH   2  10
BRANCH   4  12
ATOM     12  O   UNL     1     -13.386 -10.851  98.238  1.00  0.00    -0.497 OA
ATOM     13  C   UNL     1     -14.343  -9.966  98.811  1.00  0.00     0.278 C 
ENDBRANCH   4  12
TORSDOF 3
ENDMDL
