MODEL 1
REMARK VINA RESULT:    -4.937      0.000      0.000
REMARK INTER + INTRA:          -5.553
REMARK INTER:                  -5.515
REMARK INTRA:                  -0.038
REMARK UNBOUND:                -0.038
REMARK SMILES O=C([O-])c1ccc(O)c(O)c1
REMARK SMILES IDX 4 1 11 2 5 3 9 4 6 5 7 6 2 7 1 8 3 9 10 10 8 12
REMARK H PARENT 10 11 8 13
REMARK Flexibility Score: inf
ROOT
ATOM      1  C   UNL     1       9.379  -7.269  -7.652  1.00  0.00     0.001 A 
ATOM      2  C   UNL     1      10.254  -6.330  -7.078  1.00  0.00     0.060 A 
ATOM      3  C   UNL     1       8.063  -7.359  -7.167  1.00  0.00     0.014 A 
ATOM      4  C   UNL     1       9.821  -5.495  -6.037  1.00  0.00     0.158 A 
ATOM      5  C   UNL     1       7.632  -6.527  -6.130  1.00  0.00     0.051 A 
ATOM      6  C   UNL     1       8.508  -5.594  -5.563  1.00  0.00     0.157 A 
ENDROOT
BRANCH   1   7
ATOM      7  C   UNL     1       9.833  -8.152  -8.749  1.00  0.00     0.072 C 
ATOM      8  O   UNL     1       9.237  -8.153  -9.859  1.00  0.00    -0.545 OA
ATOM      9  O   UNL     1      10.924  -8.995  -8.569  1.00  0.00    -0.545 OA
ENDBRANCH   1   7
BRANCH   4  10
ATOM     10  O   UNL     1      10.691  -4.565  -5.470  1.00  0.00    -0.504 OA
ATOM     11  H   UNL     1      10.770  -4.456  -4.466  1.00  0.00     0.293 HD
ENDBRANCH   4  10
BRANCH   6  12
ATOM     12  O   UNL     1       8.081  -4.763  -4.529  1.00  0.00    -0.504 OA
ATOM     13  H   UNL     1       8.169  -3.754  -4.588  1.00  0.00     0.293 HD
ENDBRANCH   6  12
TORSDOF 3
ENDMDL
MODEL 2
REMARK VINA RESULT:    -4.737      1.383      2.391
REMARK INTER + INTRA:          -5.329
REMARK INTER:                  -5.293
REMARK INTRA:                  -0.036
REMARK UNBOUND:                -0.038
REMARK SMILES O=C([O-])c1ccc(O)c(O)c1
REMARK SMILES IDX 4 1 11 2 5 3 9 4 6 5 7 6 2 7 1 8 3 9 10 10 8 12
REMARK H PARENT 10 11 8 13
REMARK Flexibility Score: inf
ROOT
ATOM      1  C   UNL     1       8.534  -7.439  -8.325  1.00  0.00     0.001 A 
ATOM      2  C   UNL     1       7.776  -6.784  -7.338  1.00  0.00     0.060 A 
ATOM      3  C   UNL     1       9.916  -7.193  -8.398  1.00  0.00     0.014 A 
ATOM      4  C   UNL     1       8.389  -5.898  -6.439  1.00  0.00     0.158 A 
ATOM      5  C   UNL     1      10.526  -6.309  -7.504  1.00  0.00     0.051 A 
ATOM      6  C   UNL     1       9.766  -5.660  -6.523  1.00  0.00     0.157 A 
ENDROOT
BRANCH   1   7
ATOM      7  C   UNL     1       7.891  -8.374  -9.274  1.00  0.00     0.072 C 
ATOM      8  O   UNL     1       7.627  -8.012 -10.451  1.00  0.00    -0.545 OA
ATOM      9  O   UNL     1       7.569  -9.668  -8.879  1.00  0.00    -0.545 OA
ENDBRANCH   1   7
BRANCH   4  10
ATOM     10  O   UNL     1       7.635  -5.250  -5.462  1.00  0.00    -0.504 OA
ATOM     11  H   UNL     1       7.194  -4.354  -5.639  1.00  0.00     0.293 HD
ENDBRANCH   4  10
BRANCH   6  12
ATOM     12  O   UNL     1      10.371  -4.779  -5.629  1.00  0.00    -0.504 OA
ATOM     13  H   UNL     1       9.908  -3.929  -5.327  1.00  0.00     0.293 HD
ENDBRANCH   6  12
TORSDOF 3
ENDMDL
MODEL 3
REMARK VINA RESULT:    -4.699     17.814     19.046
REMARK INTER + INTRA:          -5.287
REMARK INTER:                  -5.242
REMARK INTRA:                  -0.044
REMARK UNBOUND:                -0.038
REMARK SMILES O=C([O-])c1ccc(O)c(O)c1
REMARK SMILES IDX 4 1 11 2 5 3 9 4 6 5 7 6 2 7 1 8 3 9 10 10 8 12
REMARK H PARENT 10 11 8 13
REMARK Flexibility Score: inf
ROOT
ATOM      1  C   UNL     1      20.210  -0.694 -19.776  1.00  0.00     0.001 A 
ATOM      2  C   UNL     1      20.680   0.631 -19.740  1.00  0.00     0.060 A 
ATOM      3  C   UNL     1      20.392  -1.450 -20.946  1.00  0.00     0.014 A 
ATOM      4  C   UNL     1      21.321   1.190 -20.856  1.00  0.00     0.158 A 
ATOM      5  C   UNL     1      21.030  -0.892 -22.058  1.00  0.00     0.051 A 
ATOM      6  C   UNL     1      21.496   0.427 -22.016  1.00  0.00     0.157 A 
ENDROOT
BRANCH   1   7
ATOM      7  C   UNL     1      19.534  -1.287 -18.601  1.00  0.00     0.072 C 
ATOM      8  O   UNL     1      19.497  -0.670 -17.503  1.00  0.00    -0.545 OA
ATOM      9  O   UNL     1      18.929  -2.536 -18.692  1.00  0.00    -0.545 OA
ENDBRANCH   1   7
BRANCH   4  10
ATOM     10  O   UNL     1      21.785   2.505 -20.818  1.00  0.00    -0.504 OA
ATOM     11  H   UNL     1      21.149   3.290 -20.749  1.00  0.00     0.293 HD
ENDBRANCH   4  10
BRANCH   6  12
ATOM     12  O   UNL     1      22.132   0.986 -23.123  1.00  0.00    -0.504 OA
ATOM     13  H   UNL     1      22.045   1.972 -23.343  1.00  0.00     0.293 HD
ENDBRANCH   6  12
TORSDOF 3
ENDMDL
MODEL 4
REMARK VINA RESULT:    -4.667     17.685     18.693
REMARK INTER + INTRA:          -5.251
REMARK INTER:                  -5.214
REMARK INTRA:                  -0.036
REMARK UNBOUND:                -0.038
REMARK SMILES O=C([O-])c1ccc(O)c(O)c1
REMARK SMILES IDX 4 1 11 2 5 3 9 4 6 5 7 6 2 7 1 8 3 9 10 10 8 12
REMARK H PARENT 10 11 8 13
REMARK Flexibility Score: inf
ROOT
ATOM      1  C   UNL     1      20.908   0.258 -20.878  1.00  0.00     0.001 A 
ATOM      2  C   UNL     1      21.561   0.250 -19.632  1.00  0.00     0.060 A 
ATOM      3  C   UNL     1      19.648  -0.354 -20.991  1.00  0.00     0.014 A 
ATOM      4  C   UNL     1      20.963  -0.358 -18.518  1.00  0.00     0.158 A 
ATOM      5  C   UNL     1      19.054  -0.961 -19.881  1.00  0.00     0.051 A 
ATOM      6  C   UNL     1      19.708  -0.964 -18.643  1.00  0.00     0.157 A 
ENDROOT
BRANCH   1   7
ATOM      7  C   UNL     1      21.535   0.898 -22.055  1.00  0.00     0.072 C 
ATOM      8  O   UNL     1      21.596   2.154 -22.146  1.00  0.00    -0.545 OA
ATOM      9  O   UNL     1      22.067   0.122 -23.079  1.00  0.00    -0.545 OA
ENDBRANCH   1   7
BRANCH   4  10
ATOM     10  O   UNL     1      21.613  -0.364 -17.284  1.00  0.00    -0.504 OA
ATOM     11  H   UNL     1      21.186   0.039 -16.458  1.00  0.00     0.293 HD
ENDBRANCH   4  10
BRANCH   6  12
ATOM     12  O   UNL     1      19.118  -1.569 -17.534  1.00  0.00    -0.504 OA
ATOM     13  H   UNL     1      18.626  -2.452 -17.611  1.00  0.00     0.293 HD
ENDBRANCH   6  12
TORSDOF 3
ENDMDL
MODEL 5
REMARK VINA RESULT:    -4.472      2.221      2.680
REMARK INTER + INTRA:          -5.033
REMARK INTER:                  -4.994
REMARK INTRA:                  -0.039
REMARK UNBOUND:                -0.038
REMARK SMILES O=C([O-])c1ccc(O)c(O)c1
REMARK SMILES IDX 4 1 11 2 5 3 9 4 6 5 7 6 2 7 1 8 3 9 10 10 8 12
REMARK H PARENT 10 11 8 13
REMARK Flexibility Score: inf
ROOT
ATOM      1  C   UNL     1       9.867  -6.377  -8.246  1.00  0.00     0.001 A 
ATOM      2  C   UNL     1       9.265  -6.114  -7.002  1.00  0.00     0.060 A 
ATOM      3  C   UNL     1       9.186  -6.017  -9.422  1.00  0.00     0.014 A 
ATOM      4  C   UNL     1       8.005  -5.501  -6.935  1.00  0.00     0.158 A 
ATOM      5  C   UNL     1       7.929  -5.407  -9.354  1.00  0.00     0.051 A 
ATOM      6  C   UNL     1       7.337  -5.147  -8.113  1.00  0.00     0.157 A 
ENDROOT
BRANCH   1   7
ATOM      7  C   UNL     1      11.195  -7.023  -8.321  1.00  0.00     0.072 C 
ATOM      8  O   UNL     1      12.131  -6.491  -8.976  1.00  0.00    -0.545 OA
ATOM      9  O   UNL     1      11.430  -8.228  -7.669  1.00  0.00    -0.545 OA
ENDBRANCH   1   7
BRANCH   4  10
ATOM     10  O   UNL     1       7.412  -5.242  -5.700  1.00  0.00    -0.504 OA
ATOM     11  H   UNL     1       6.412  -5.101  -5.611  1.00  0.00     0.293 HD
ENDBRANCH   4  10
BRANCH   6  12
ATOM     12  O   UNL     1       6.085  -4.540  -8.041  1.00  0.00    -0.504 OA
ATOM     13  H   UNL     1       5.242  -5.027  -8.324  1.00  0.00     0.293 HD
ENDBRANCH   6  12
TORSDOF 3
ENDMDL
MODEL 6
REMARK VINA RESULT:    -4.464      1.714      2.394
REMARK INTER + INTRA:          -5.023
REMARK INTER:                  -4.985
REMARK INTRA:                  -0.038
REMARK UNBOUND:                -0.038
REMARK SMILES O=C([O-])c1ccc(O)c(O)c1
REMARK SMILES IDX 4 1 11 2 5 3 9 4 6 5 7 6 2 7 1 8 3 9 10 10 8 12
REMARK H PARENT 10 11 8 13
REMARK Flexibility Score: inf
ROOT
ATOM      1  C   UNL     1       8.470  -7.790  -8.727  1.00  0.00     0.001 A 
ATOM      2  C   UNL     1       9.780  -7.369  -9.016  1.00  0.00     0.060 A 
ATOM      3  C   UNL     1       7.842  -7.315  -7.563  1.00  0.00     0.014 A 
ATOM      4  C   UNL     1      10.451  -6.487  -8.156  1.00  0.00     0.158 A 
ATOM      5  C   UNL     1       8.511  -6.437  -6.705  1.00  0.00     0.051 A 
ATOM      6  C   UNL     1       9.815  -6.020  -6.999  1.00  0.00     0.157 A 
ENDROOT
BRANCH   1   7
ATOM      7  C   UNL     1       7.759  -8.721  -9.632  1.00  0.00     0.072 C 
ATOM      8  O   UNL     1       7.604  -8.438 -10.850  1.00  0.00    -0.545 OA
ATOM      9  O   UNL     1       7.251  -9.922  -9.149  1.00  0.00    -0.545 OA
ENDBRANCH   1   7
BRANCH   4  10
ATOM     10  O   UNL     1      11.750  -6.071  -8.445  1.00  0.00    -0.504 OA
ATOM     11  H   UNL     1      12.049  -5.116  -8.284  1.00  0.00     0.293 HD
ENDBRANCH   4  10
BRANCH   6  12
ATOM     12  O   UNL     1      10.485  -5.145  -6.147  1.00  0.00    -0.504 OA
ATOM     13  H   UNL     1      11.397  -5.371  -5.765  1.00  0.00     0.293 HD
ENDBRANCH   6  12
TORSDOF 3
ENDMDL
MODEL 7
REMARK VINA RESULT:    -4.435     17.278     18.648
REMARK INTER + INTRA:          -4.992
REMARK INTER:                  -4.948
REMARK INTRA:                  -0.044
REMARK UNBOUND:                -0.038
REMARK SMILES O=C([O-])c1ccc(O)c(O)c1
REMARK SMILES IDX 4 1 11 2 5 3 9 4 6 5 7 6 2 7 1 8 3 9 10 10 8 12
REMARK H PARENT 10 11 8 13
REMARK Flexibility Score: inf
ROOT
ATOM      1  C   UNL     1      19.991  -1.154 -19.499  1.00  0.00     0.001 A 
ATOM      2  C   UNL     1      20.032  -1.545 -20.848  1.00  0.00     0.060 A 
ATOM      3  C   UNL     1      20.687   0.001 -19.103  1.00  0.00     0.014 A 
ATOM      4  C   UNL     1      20.756  -0.795 -21.787  1.00  0.00     0.158 A 
ATOM      5  C   UNL     1      21.409   0.748 -20.038  1.00  0.00     0.051 A 
ATOM      6  C   UNL     1      21.446   0.353 -21.381  1.00  0.00     0.157 A 
ENDROOT
BRANCH   1   7
ATOM      7  C   UNL     1      19.229  -1.943 -18.506  1.00  0.00     0.072 C 
ATOM      8  O   UNL     1      18.914  -1.442 -17.394  1.00  0.00    -0.545 OA
ATOM      9  O   UNL     1      18.849  -3.251 -18.787  1.00  0.00    -0.545 OA
ENDBRANCH   1   7
BRANCH   4  10
ATOM     10  O   UNL     1      20.795  -1.187 -23.125  1.00  0.00    -0.504 OA
ATOM     11  H   UNL     1      21.062  -0.541 -23.859  1.00  0.00     0.293 HD
ENDBRANCH   4  10
BRANCH   6  12
ATOM     12  O   UNL     1      22.164   1.095 -22.316  1.00  0.00    -0.504 OA
ATOM     13  H   UNL     1      23.169   0.998 -22.412  1.00  0.00     0.293 HD
ENDBRANCH   6  12
TORSDOF 3
ENDMDL
MODEL 8
REMARK VINA RESULT:    -4.308     10.661     12.149
REMARK INTER + INTRA:          -4.849
REMARK INTER:                  -4.808
REMARK INTRA:                  -0.042
REMARK UNBOUND:                -0.038
REMARK SMILES O=C([O-])c1ccc(O)c(O)c1
REMARK SMILES IDX 4 1 11 2 5 3 9 4 6 5 7 6 2 7 1 8 3 9 10 10 8 12
REMARK H PARENT 10 11 8 13
REMARK Flexibility Score: inf
ROOT
ATOM      1  C   UNL     1       5.602   4.960  -8.489  1.00  0.00     0.001 A 
ATOM      2  C   UNL     1       6.767   4.846  -9.269  1.00  0.00     0.060 A 
ATOM      3  C   UNL     1       5.363   4.014  -7.478  1.00  0.00     0.014 A 
ATOM      4  C   UNL     1       7.677   3.804  -9.041  1.00  0.00     0.158 A 
ATOM      5  C   UNL     1       6.271   2.975  -7.252  1.00  0.00     0.051 A 
ATOM      6  C   UNL     1       7.429   2.867  -8.031  1.00  0.00     0.157 A 
ENDROOT
BRANCH   1   7
ATOM      7  C   UNL     1       4.639   6.058  -8.727  1.00  0.00     0.072 C 
ATOM      8  O   UNL     1       3.978   6.548  -7.773  1.00  0.00    -0.545 OA
ATOM      9  O   UNL     1       4.449   6.563 -10.008  1.00  0.00    -0.545 OA
ENDBRANCH   1   7
BRANCH   4  10
ATOM     10  O   UNL     1       8.831   3.693  -9.816  1.00  0.00    -0.504 OA
ATOM     11  H   UNL     1       9.152   2.797 -10.165  1.00  0.00     0.293 HD
ENDBRANCH   4  10
BRANCH   6  12
ATOM     12  O   UNL     1       8.336   1.833  -7.808  1.00  0.00    -0.504 OA
ATOM     13  H   UNL     1       8.299   1.266  -6.968  1.00  0.00     0.293 HD
ENDBRANCH   6  12
TORSDOF 3
ENDMDL
