MODEL 1
REMARK VINA RESULT:    -3.904      0.000      0.000
REMARK INTER + INTRA:          -9.566
REMARK INTER:                  -7.327
REMARK INTRA:                  -2.239
REMARK UNBOUND:                -2.239
REMARK SMILES O=C([O-])CCCCCCCCCCCCCCC(=O)[O-]
REMARK SMILES IDX 10 1 9 2 8 3 7 4 6 5 5 6 4 7 2 8 1 9 3 10 11 11 12 12 13 13
REMARK SMILES IDX 14 14 15 15 16 16 17 17 18 18 19 19 20 20
REMARK H PARENT
REMARK Flexibility Score: inf
ROOT
ATOM      1  C   UNL     1     182.386 181.946 199.883  1.00  0.00     0.000 C 
ENDROOT
BRANCH   1   2
ATOM      2  C   UNL     1     183.877 182.225 199.618  1.00  0.00     0.000 C 
BRANCH   2   3
ATOM      3  C   UNL     1     184.512 183.105 200.705  1.00  0.00     0.000 C 
BRANCH   3   4
ATOM      4  C   UNL     1     185.191 184.360 200.127  1.00  0.00     0.000 C 
BRANCH   4   5
ATOM      5  C   UNL     1     184.567 184.807 198.796  1.00  0.00     0.000 C 
BRANCH   5   6
ATOM      6  C   UNL     1     184.734 186.315 198.542  1.00  0.00     0.006 C 
BRANCH   6   7
ATOM      7  C   UNL     1     185.414 187.029 199.717  1.00  0.00     0.053 C 
BRANCH   7   8
ATOM      8  C   UNL     1     186.277 188.163 199.253  1.00  0.00     0.041 C 
ATOM      9  O   UNL     1     186.614 189.070 200.059  1.00  0.00    -0.550 OA
ATOM     10  O   UNL     1     186.680 188.235 197.926  1.00  0.00    -0.550 OA
ENDBRANCH   7   8
ENDBRANCH   6   7
ENDBRANCH   5   6
ENDBRANCH   4   5
ENDBRANCH   3   4
ENDBRANCH   2   3
ENDBRANCH   1   2
BRANCH   1  11
ATOM     11  C   UNL     1     181.885 182.582 201.188  1.00  0.00     0.000 C 
BRANCH  11  12
ATOM     12  C   UNL     1     180.612 183.421 200.986  1.00  0.00     0.000 C 
BRANCH  12  13
ATOM     13  C   UNL     1     180.510 184.588 201.983  1.00  0.00     0.000 C 
BRANCH  13  14
ATOM     14  C   UNL     1     181.824 185.374 202.109  1.00  0.00     0.000 C 
BRANCH  14  15
ATOM     15  C   UNL     1     181.938 186.432 201.001  1.00  0.00     0.000 C 
BRANCH  15  16
ATOM     16  C   UNL     1     182.317 187.819 201.541  1.00  0.00     0.006 C 
BRANCH  16  17
ATOM     17  C   UNL     1     181.644 188.959 200.766  1.00  0.00     0.053 C 
BRANCH  17  18
ATOM     18  C   UNL     1     182.455 189.322 199.562  1.00  0.00     0.041 C 
ATOM     19  O   UNL     1     183.379 190.174 199.655  1.00  0.00    -0.550 OA
ATOM     20  O   UNL     1     182.161 188.757 198.328  1.00  0.00    -0.550 OA
ENDBRANCH  17  18
ENDBRANCH  16  17
ENDBRANCH  15  16
ENDBRANCH  14  15
ENDBRANCH  13  14
ENDBRANCH  12  13
ENDBRANCH  11  12
ENDBRANCH   1  11
TORSDOF 15
ENDMDL
MODEL 2
REMARK VINA RESULT:    -3.902      1.710      4.243
REMARK INTER + INTRA:          -9.562
REMARK INTER:                  -7.414
REMARK INTRA:                  -2.147
REMARK UNBOUND:                -2.239
REMARK SMILES O=C([O-])CCCCCCCCCCCCCCC(=O)[O-]
REMARK SMILES IDX 10 1 9 2 8 3 7 4 6 5 5 6 4 7 2 8 1 9 3 10 11 11 12 12 13 13
REMARK SMILES IDX 14 14 15 15 16 16 17 17 18 18 19 19 20 20
REMARK H PARENT
REMARK Flexibility Score: inf
ROOT
ATOM      1  C   UNL     1     182.623 181.927 199.797  1.00  0.00     0.000 C 
ENDROOT
BRANCH   1   2
ATOM      2  C   UNL     1     181.177 181.468 200.058  1.00  0.00     0.000 C 
BRANCH   2   3
ATOM      3  C   UNL     1     180.212 182.647 200.255  1.00  0.00     0.000 C 
BRANCH   3   4
ATOM      4  C   UNL     1     180.915 183.897 200.816  1.00  0.00     0.000 C 
BRANCH   4   5
ATOM      5  C   UNL     1     180.067 184.625 201.872  1.00  0.00     0.000 C 
BRANCH   5   6
ATOM      6  C   UNL     1     179.452 185.929 201.338  1.00  0.00     0.006 C 
BRANCH   6   7
ATOM      7  C   UNL     1     180.417 186.694 200.423  1.00  0.00     0.053 C 
BRANCH   7   8
ATOM      8  C   UNL     1     181.124 187.793 201.155  1.00  0.00     0.041 C 
ATOM      9  O   UNL     1     180.840 188.996 200.917  1.00  0.00    -0.550 OA
ATOM     10  O   UNL     1     182.119 187.489 202.076  1.00  0.00    -0.550 OA
ENDBRANCH   7   8
ENDBRANCH   6   7
ENDBRANCH   5   6
ENDBRANCH   4   5
ENDBRANCH   3   4
ENDBRANCH   2   3
ENDBRANCH   1   2
BRANCH   1  11
ATOM     11  C   UNL     1     183.642 181.235 200.715  1.00  0.00     0.000 C 
BRANCH  11  12
ATOM     12  C   UNL     1     183.687 181.855 202.122  1.00  0.00     0.000 C 
BRANCH  12  13
ATOM     13  C   UNL     1     184.250 183.286 202.118  1.00  0.00     0.000 C 
BRANCH  13  14
ATOM     14  C   UNL     1     185.560 183.405 201.324  1.00  0.00     0.000 C 
BRANCH  14  15
ATOM     15  C   UNL     1     185.391 184.352 200.127  1.00  0.00     0.000 C 
BRANCH  15  16
ATOM     16  C   UNL     1     184.163 185.265 200.261  1.00  0.00     0.006 C 
BRANCH  16  17
ATOM     17  C   UNL     1     183.806 185.971 198.946  1.00  0.00     0.053 C 
BRANCH  17  18
ATOM     18  C   UNL     1     184.408 187.340 198.908  1.00  0.00     0.041 C 
ATOM     19  O   UNL     1     184.788 187.894 199.974  1.00  0.00    -0.550 OA
ATOM     20  O   UNL     1     184.505 188.025 197.704  1.00  0.00    -0.550 OA
ENDBRANCH  17  18
ENDBRANCH  16  17
ENDBRANCH  15  16
ENDBRANCH  14  15
ENDBRANCH  13  14
ENDBRANCH  12  13
ENDBRANCH  11  12
ENDBRANCH   1  11
TORSDOF 15
ENDMDL
MODEL 3
REMARK VINA RESULT:    -3.861      2.549      4.762
REMARK INTER + INTRA:          -9.485
REMARK INTER:                  -7.377
REMARK INTRA:                  -2.107
REMARK UNBOUND:                -2.239
REMARK SMILES O=C([O-])CCCCCCCCCCCCCCC(=O)[O-]
REMARK SMILES IDX 10 1 9 2 8 3 7 4 6 5 5 6 4 7 2 8 1 9 3 10 11 11 12 12 13 13
REMARK SMILES IDX 14 14 15 15 16 16 17 17 18 18 19 19 20 20
REMARK H PARENT
REMARK Flexibility Score: inf
ROOT
ATOM      1  C   UNL     1     182.311 187.586 200.711  1.00  0.00     0.000 C 
ENDROOT
BRANCH   1   2
ATOM      2  C   UNL     1     181.950 187.617 199.215  1.00  0.00     0.000 C 
BRANCH   2   3
ATOM      3  C   UNL     1     182.432 188.901 198.521  1.00  0.00     0.000 C 
BRANCH   3   4
ATOM      4  C   UNL     1     183.352 189.748 199.419  1.00  0.00     0.000 C 
BRANCH   4   5
ATOM      5  C   UNL     1     184.803 189.776 198.914  1.00  0.00     0.000 C 
BRANCH   5   6
ATOM      6  C   UNL     1     185.757 188.974 199.816  1.00  0.00     0.006 C 
BRANCH   6   7
ATOM      7  C   UNL     1     186.587 187.956 199.022  1.00  0.00     0.053 C 
BRANCH   7   8
ATOM      8  C   UNL     1     185.720 187.056 198.196  1.00  0.00     0.041 C 
ATOM      9  O   UNL     1     185.061 186.134 198.745  1.00  0.00    -0.550 OA
ATOM     10  O   UNL     1     185.665 187.214 196.817  1.00  0.00    -0.550 OA
ENDBRANCH   7   8
ENDBRANCH   6   7
ENDBRANCH   5   6
ENDBRANCH   4   5
ENDBRANCH   3   4
ENDBRANCH   2   3
ENDBRANCH   1   2
BRANCH   1  11
ATOM     11  C   UNL     1     181.106 187.266 201.607  1.00  0.00     0.000 C 
BRANCH  11  12
ATOM     12  C   UNL     1     180.050 186.406 200.892  1.00  0.00     0.000 C 
BRANCH  12  13
ATOM     13  C   UNL     1     179.676 185.146 201.690  1.00  0.00     0.000 C 
BRANCH  13  14
ATOM     14  C   UNL     1     180.904 184.317 202.096  1.00  0.00     0.000 C 
BRANCH  14  15
ATOM     15  C   UNL     1     181.277 183.314 200.994  1.00  0.00     0.000 C 
BRANCH  15  16
ATOM     16  C   UNL     1     182.621 183.641 200.325  1.00  0.00     0.006 C 
BRANCH  16  17
ATOM     17  C   UNL     1     183.660 184.177 201.318  1.00  0.00     0.053 C 
BRANCH  17  18
ATOM     18  C   UNL     1     184.767 183.187 201.501  1.00  0.00     0.041 C 
ATOM     19  O   UNL     1     185.967 183.548 201.370  1.00  0.00    -0.550 OA
ATOM     20  O   UNL     1     184.473 181.856 201.768  1.00  0.00    -0.550 OA
ENDBRANCH  17  18
ENDBRANCH  16  17
ENDBRANCH  15  16
ENDBRANCH  14  15
ENDBRANCH  13  14
ENDBRANCH  12  13
ENDBRANCH  11  12
ENDBRANCH   1  11
TORSDOF 15
ENDMDL
MODEL 4
REMARK VINA RESULT:    -3.819      2.670      4.878
REMARK INTER + INTRA:          -9.407
REMARK INTER:                  -7.732
REMARK INTRA:                  -1.675
REMARK UNBOUND:                -2.239
REMARK SMILES O=C([O-])CCCCCCCCCCCCCCC(=O)[O-]
REMARK SMILES IDX 10 1 9 2 8 3 7 4 6 5 5 6 4 7 2 8 1 9 3 10 11 11 12 12 13 13
REMARK SMILES IDX 14 14 15 15 16 16 17 17 18 18 19 19 20 20
REMARK H PARENT
REMARK Flexibility Score: inf
ROOT
ATOM      1  C   UNL     1     184.711 185.707 199.291  1.00  0.00     0.000 C 
ENDROOT
BRANCH   1   2
ATOM      2  C   UNL     1     183.422 186.518 199.063  1.00  0.00     0.000 C 
BRANCH   2   3
ATOM      3  C   UNL     1     183.148 187.518 200.197  1.00  0.00     0.000 C 
BRANCH   3   4
ATOM      4  C   UNL     1     183.054 188.969 199.694  1.00  0.00     0.000 C 
BRANCH   4   5
ATOM      5  C   UNL     1     183.136 189.068 198.163  1.00  0.00     0.000 C 
BRANCH   5   6
ATOM      6  C   UNL     1     184.352 189.882 197.688  1.00  0.00     0.006 C 
BRANCH   6   7
ATOM      7  C   UNL     1     185.525 189.800 198.673  1.00  0.00     0.053 C 
BRANCH   7   8
ATOM      8  C   UNL     1     186.635 188.944 198.144  1.00  0.00     0.041 C 
ATOM      9  O   UNL     1     187.835 189.286 198.318  1.00  0.00    -0.550 OA
ATOM     10  O   UNL     1     186.346 187.787 197.433  1.00  0.00    -0.550 OA
ENDBRANCH   7   8
ENDBRANCH   6   7
ENDBRANCH   5   6
ENDBRANCH   4   5
ENDBRANCH   3   4
ENDBRANCH   2   3
ENDBRANCH   1   2
BRANCH   1  11
ATOM     11  C   UNL     1     184.746 184.404 198.477  1.00  0.00     0.000 C 
BRANCH  11  12
ATOM     12  C   UNL     1     184.563 183.154 199.355  1.00  0.00     0.000 C 
BRANCH  12  13
ATOM     13  C   UNL     1     185.110 183.349 200.780  1.00  0.00     0.000 C 
BRANCH  13  14
ATOM     14  C   UNL     1     184.083 182.983 201.862  1.00  0.00     0.000 C 
BRANCH  14  15
ATOM     15  C   UNL     1     182.968 184.037 201.939  1.00  0.00     0.000 C 
BRANCH  15  16
ATOM     16  C   UNL     1     181.565 183.414 201.987  1.00  0.00     0.006 C 
BRANCH  16  17
ATOM     17  C   UNL     1     181.550 181.956 201.511  1.00  0.00     0.053 C 
BRANCH  17  18
ATOM     18  C   UNL     1     180.979 181.863 200.130  1.00  0.00     0.041 C 
ATOM     19  O   UNL     1     179.892 182.438 199.855  1.00  0.00    -0.550 OA
ATOM     20  O   UNL     1     181.621 181.102 199.162  1.00  0.00    -0.550 OA
ENDBRANCH  17  18
ENDBRANCH  16  17
ENDBRANCH  15  16
ENDBRANCH  14  15
ENDBRANCH  13  14
ENDBRANCH  12  13
ENDBRANCH  11  12
ENDBRANCH   1  11
TORSDOF 15
ENDMDL
MODEL 5
REMARK VINA RESULT:    -3.815      2.028      4.618
REMARK INTER + INTRA:          -9.399
REMARK INTER:                  -7.808
REMARK INTRA:                  -1.591
REMARK UNBOUND:                -2.239
REMARK SMILES O=C([O-])CCCCCCCCCCCCCCC(=O)[O-]
REMARK SMILES IDX 10 1 9 2 8 3 7 4 6 5 5 6 4 7 2 8 1 9 3 10 11 11 12 12 13 13
REMARK SMILES IDX 14 14 15 15 16 16 17 17 18 18 19 19 20 20
REMARK H PARENT
REMARK Flexibility Score: inf
ROOT
ATOM      1  C   UNL     1     181.559 186.051 202.051  1.00  0.00     0.000 C 
ENDROOT
BRANCH   1   2
ATOM      2  C   UNL     1     180.597 186.971 201.277  1.00  0.00     0.000 C 
BRANCH   2   3
ATOM      3  C   UNL     1     181.323 188.145 200.602  1.00  0.00     0.000 C 
BRANCH   3   4
ATOM      4  C   UNL     1     181.698 187.845 199.140  1.00  0.00     0.000 C 
BRANCH   4   5
ATOM      5  C   UNL     1     183.216 187.713 198.936  1.00  0.00     0.000 C 
BRANCH   5   6
ATOM      6  C   UNL     1     184.014 188.070 200.202  1.00  0.00     0.006 C 
BRANCH   6   7
ATOM      7  C   UNL     1     185.087 189.133 199.931  1.00  0.00     0.053 C 
BRANCH   7   8
ATOM      8  C   UNL     1     186.458 188.641 200.280  1.00  0.00     0.041 C 
ATOM      9  O   UNL     1     187.013 187.759 199.573  1.00  0.00    -0.550 OA
ATOM     10  O   UNL     1     187.109 189.131 201.405  1.00  0.00    -0.550 OA
ENDBRANCH   7   8
ENDBRANCH   6   7
ENDBRANCH   5   6
ENDBRANCH   4   5
ENDBRANCH   3   4
ENDBRANCH   2   3
ENDBRANCH   1   2
BRANCH   1  11
ATOM     11  C   UNL     1     181.064 184.599 202.125  1.00  0.00     0.000 C 
BRANCH  11  12
ATOM     12  C   UNL     1     180.816 183.989 200.735  1.00  0.00     0.000 C 
BRANCH  12  13
ATOM     13  C   UNL     1     181.409 182.576 200.597  1.00  0.00     0.000 C 
BRANCH  13  14
ATOM     14  C   UNL     1     181.749 181.942 201.955  1.00  0.00     0.000 C 
BRANCH  14  15
ATOM     15  C   UNL     1     183.168 181.356 201.946  1.00  0.00     0.000 C 
BRANCH  15  16
ATOM     16  C   UNL     1     184.145 182.178 201.091  1.00  0.00     0.006 C 
BRANCH  16  17
ATOM     17  C   UNL     1     184.850 183.278 201.895  1.00  0.00     0.053 C 
BRANCH  17  18
ATOM     18  C   UNL     1     185.901 183.941 201.061  1.00  0.00     0.041 C 
ATOM     19  O   UNL     1     185.585 184.854 200.252  1.00  0.00    -0.550 OA
ATOM     20  O   UNL     1     187.222 183.520 201.142  1.00  0.00    -0.550 OA
ENDBRANCH  17  18
ENDBRANCH  16  17
ENDBRANCH  15  16
ENDBRANCH  14  15
ENDBRANCH  13  14
ENDBRANCH  12  13
ENDBRANCH  11  12
ENDBRANCH   1  11
TORSDOF 15
ENDMDL
MODEL 6
REMARK VINA RESULT:    -3.799      2.186      5.166
REMARK INTER + INTRA:          -9.369
REMARK INTER:                  -7.347
REMARK INTRA:                  -2.022
REMARK UNBOUND:                -2.239
REMARK SMILES O=C([O-])CCCCCCCCCCCCCCC(=O)[O-]
REMARK SMILES IDX 10 1 9 2 8 3 7 4 6 5 5 6 4 7 2 8 1 9 3 10 11 11 12 12 13 13
REMARK SMILES IDX 14 14 15 15 16 16 17 17 18 18 19 19 20 20
REMARK H PARENT
REMARK Flexibility Score: inf
ROOT
ATOM      1  C   UNL     1     184.433 185.713 198.850  1.00  0.00     0.000 C 
ENDROOT
BRANCH   1   2
ATOM      2  C   UNL     1     184.168 184.200 198.742  1.00  0.00     0.000 C 
BRANCH   2   3
ATOM      3  C   UNL     1     185.019 183.382 199.727  1.00  0.00     0.000 C 
BRANCH   3   4
ATOM      4  C   UNL     1     184.162 182.541 200.690  1.00  0.00     0.000 C 
BRANCH   4   5
ATOM      5  C   UNL     1     182.713 182.380 200.203  1.00  0.00     0.000 C 
BRANCH   5   6
ATOM      6  C   UNL     1     181.689 182.513 201.342  1.00  0.00     0.006 C 
BRANCH   6   7
ATOM      7  C   UNL     1     181.659 183.928 201.934  1.00  0.00     0.053 C 
BRANCH   7   8
ATOM      8  C   UNL     1     180.373 184.632 201.626  1.00  0.00     0.041 C 
ATOM      9  O   UNL     1     180.140 185.767 202.119  1.00  0.00    -0.550 OA
ATOM     10  O   UNL     1     179.418 184.020 200.823  1.00  0.00    -0.550 OA
ENDBRANCH   7   8
ENDBRANCH   6   7
ENDBRANCH   5   6
ENDBRANCH   4   5
ENDBRANCH   3   4
ENDBRANCH   2   3
ENDBRANCH   1   2
BRANCH   1  11
ATOM     11  C   UNL     1     184.022 186.293 200.212  1.00  0.00     0.000 C 
BRANCH  11  12
ATOM     12  C   UNL     1     182.745 187.146 200.129  1.00  0.00     0.000 C 
BRANCH  12  13
ATOM     13  C   UNL     1     182.571 187.816 198.756  1.00  0.00     0.000 C 
BRANCH  13  14
ATOM     14  C   UNL     1     183.174 189.228 198.705  1.00  0.00     0.000 C 
BRANCH  14  15
ATOM     15  C   UNL     1     184.370 189.278 197.743  1.00  0.00     0.000 C 
BRANCH  15  16
ATOM     16  C   UNL     1     185.646 189.815 198.410  1.00  0.00     0.006 C 
BRANCH  16  17
ATOM     17  C   UNL     1     186.740 188.748 198.536  1.00  0.00     0.053 C 
BRANCH  17  18
ATOM     18  C   UNL     1     186.947 188.379 199.971  1.00  0.00     0.041 C 
ATOM     19  O   UNL     1     186.361 189.024 200.882  1.00  0.00    -0.550 OA
ATOM     20  O   UNL     1     187.823 187.355 200.308  1.00  0.00    -0.550 OA
ENDBRANCH  17  18
ENDBRANCH  16  17
ENDBRANCH  15  16
ENDBRANCH  14  15
ENDBRANCH  13  14
ENDBRANCH  12  13
ENDBRANCH  11  12
ENDBRANCH   1  11
TORSDOF 15
ENDMDL
MODEL 7
REMARK VINA RESULT:    -3.768      3.286      5.339
REMARK INTER + INTRA:          -9.311
REMARK INTER:                  -7.381
REMARK INTRA:                  -1.929
REMARK UNBOUND:                -2.239
REMARK SMILES O=C([O-])CCCCCCCCCCCCCCC(=O)[O-]
REMARK SMILES IDX 10 1 9 2 8 3 7 4 6 5 5 6 4 7 2 8 1 9 3 10 11 11 12 12 13 13
REMARK SMILES IDX 14 14 15 15 16 16 17 17 18 18 19 19 20 20
REMARK H PARENT
REMARK Flexibility Score: inf
ROOT
ATOM      1  C   UNL     1     182.783 188.609 198.466  1.00  0.00     0.000 C 
ENDROOT
BRANCH   1   2
ATOM      2  C   UNL     1     183.579 189.071 199.700  1.00  0.00     0.000 C 
BRANCH   2   3
ATOM      3  C   UNL     1     185.054 189.356 199.375  1.00  0.00     0.000 C 
BRANCH   3   4
ATOM      4  C   UNL     1     185.784 188.120 198.817  1.00  0.00     0.000 C 
BRANCH   4   5
ATOM      5  C   UNL     1     185.754 186.930 199.789  1.00  0.00     0.000 C 
BRANCH   5   6
ATOM      6  C   UNL     1     184.983 185.725 199.224  1.00  0.00     0.006 C 
BRANCH   6   7
ATOM      7  C   UNL     1     184.184 184.988 200.306  1.00  0.00     0.053 C 
BRANCH   7   8
ATOM      8  C   UNL     1     185.000 183.921 200.970  1.00  0.00     0.041 C 
ATOM      9  O   UNL     1     184.652 183.464 202.090  1.00  0.00    -0.550 OA
ATOM     10  O   UNL     1     186.162 183.456 200.367  1.00  0.00    -0.550 OA
ENDBRANCH   7   8
ENDBRANCH   6   7
ENDBRANCH   5   6
ENDBRANCH   4   5
ENDBRANCH   3   4
ENDBRANCH   2   3
ENDBRANCH   1   2
BRANCH   1  11
ATOM     11  C   UNL     1     181.312 188.305 198.787  1.00  0.00     0.000 C 
BRANCH  11  12
ATOM     12  C   UNL     1     181.154 187.311 199.950  1.00  0.00     0.000 C 
BRANCH  12  13
ATOM     13  C   UNL     1     179.681 187.050 200.308  1.00  0.00     0.000 C 
BRANCH  13  14
ATOM     14  C   UNL     1     179.520 186.019 201.435  1.00  0.00     0.000 C 
BRANCH  14  15
ATOM     15  C   UNL     1     180.887 185.611 202.005  1.00  0.00     0.000 C 
BRANCH  15  16
ATOM     16  C   UNL     1     181.050 184.088 202.124  1.00  0.00     0.006 C 
BRANCH  16  17
ATOM     17  C   UNL     1     180.967 183.378 200.767  1.00  0.00     0.053 C 
BRANCH  17  18
ATOM     18  C   UNL     1     181.668 182.057 200.825  1.00  0.00     0.041 C 
ATOM     19  O   UNL     1     181.780 181.447 201.923  1.00  0.00    -0.550 OA
ATOM     20  O   UNL     1     182.239 181.521 199.678  1.00  0.00    -0.550 OA
ENDBRANCH  17  18
ENDBRANCH  16  17
ENDBRANCH  15  16
ENDBRANCH  14  15
ENDBRANCH  13  14
ENDBRANCH  12  13
ENDBRANCH  11  12
ENDBRANCH   1  11
TORSDOF 15
ENDMDL
MODEL 8
REMARK VINA RESULT:    -3.721      1.433      2.348
REMARK INTER + INTRA:          -9.224
REMARK INTER:                  -7.280
REMARK INTRA:                  -1.943
REMARK UNBOUND:                -2.239
REMARK SMILES O=C([O-])CCCCCCCCCCCCCCC(=O)[O-]
REMARK SMILES IDX 10 1 9 2 8 3 7 4 6 5 5 6 4 7 2 8 1 9 3 10 11 11 12 12 13 13
REMARK SMILES IDX 14 14 15 15 16 16 17 17 18 18 19 19 20 20
REMARK H PARENT
REMARK Flexibility Score: inf
ROOT
ATOM      1  C   UNL     1     181.128 182.956 200.525  1.00  0.00     0.000 C 
ENDROOT
BRANCH   1   2
ATOM      2  C   UNL     1     182.320 181.982 200.497  1.00  0.00     0.000 C 
BRANCH   2   3
ATOM      3  C   UNL     1     182.892 181.713 201.898  1.00  0.00     0.000 C 
BRANCH   3   4
ATOM      4  C   UNL     1     184.415 181.932 201.965  1.00  0.00     0.000 C 
BRANCH   4   5
ATOM      5  C   UNL     1     184.799 183.419 201.917  1.00  0.00     0.000 C 
BRANCH   5   6
ATOM      6  C   UNL     1     185.470 183.813 200.590  1.00  0.00     0.006 C 
BRANCH   6   7
ATOM      7  C   UNL     1     184.574 184.714 199.731  1.00  0.00     0.053 C 
BRANCH   7   8
ATOM      8  C   UNL     1     185.295 185.948 199.282  1.00  0.00     0.041 C 
ATOM      9  O   UNL     1     185.189 186.344 198.091  1.00  0.00    -0.550 OA
ATOM     10  O   UNL     1     186.109 186.642 200.168  1.00  0.00    -0.550 OA
ENDBRANCH   7   8
ENDBRANCH   6   7
ENDBRANCH   5   6
ENDBRANCH   4   5
ENDBRANCH   3   4
ENDBRANCH   2   3
ENDBRANCH   1   2
BRANCH   1  11
ATOM     11  C   UNL     1     181.208 183.961 201.683  1.00  0.00     0.000 C 
BRANCH  11  12
ATOM     12  C   UNL     1     179.941 184.825 201.805  1.00  0.00     0.000 C 
BRANCH  12  13
ATOM     13  C   UNL     1     180.202 186.305 201.476  1.00  0.00     0.000 C 
BRANCH  13  14
ATOM     14  C   UNL     1     181.686 186.597 201.205  1.00  0.00     0.000 C 
BRANCH  14  15
ATOM     15  C   UNL     1     181.873 187.249 199.826  1.00  0.00     0.000 C 
BRANCH  15  16
ATOM     16  C   UNL     1     182.087 188.768 199.912  1.00  0.00     0.006 C 
BRANCH  16  17
ATOM     17  C   UNL     1     183.540 189.141 200.232  1.00  0.00     0.053 C 
BRANCH  17  18
ATOM     18  C   UNL     1     184.257 189.564 198.989  1.00  0.00     0.041 C 
ATOM     19  O   UNL     1     185.449 189.971 199.052  1.00  0.00    -0.550 OA
ATOM     20  O   UNL     1     183.596 189.556 197.768  1.00  0.00    -0.550 OA
ENDBRANCH  17  18
ENDBRANCH  16  17
ENDBRANCH  15  16
ENDBRANCH  14  15
ENDBRANCH  13  14
ENDBRANCH  12  13
ENDBRANCH  11  12
ENDBRANCH   1  11
TORSDOF 15
ENDMDL
