MODEL 1
REMARK VINA RESULT:    -4.369      0.000      0.000
REMARK INTER + INTRA:          -8.142
REMARK INTER:                  -6.668
REMARK INTRA:                  -1.474
REMARK UNBOUND:                -1.474
REMARK SMILES CCCCCCCCCC=CC(=O)[O-]
REMARK SMILES IDX 7 1 8 2 9 3 10 4 11 5 12 6 13 7 14 8 6 9 5 10 4 11 3 12 2 13
REMARK SMILES IDX 1 14
REMARK H PARENT
REMARK Flexibility Score: inf
ROOT
ATOM      1  C   UNL     1      10.107   2.619   0.620  1.00  0.00     0.000 C 
ENDROOT
BRANCH   1   2
ATOM      2  C   UNL     1      10.404   2.014  -0.768  1.00  0.00     0.004 C 
BRANCH   2   3
ATOM      3  C   UNL     1      11.895   1.998  -1.148  1.00  0.00     0.027 C 
BRANCH   3   4
ATOM      4  C   UNL     1      12.112   2.006  -2.635  1.00  0.00    -0.025 C 
ATOM      5  C   UNL     1      11.300   1.343  -3.463  1.00  0.00     0.020 C 
BRANCH   5   6
ATOM      6  C   UNL     1      11.505   1.339  -4.920  1.00  0.00     0.064 C 
ATOM      7  O   UNL     1      11.789   0.261  -5.504  1.00  0.00    -0.545 OA
ATOM      8  O   UNL     1      11.388   2.508  -5.662  1.00  0.00    -0.545 OA
ENDBRANCH   5   6
ENDBRANCH   3   4
ENDBRANCH   2   3
ENDBRANCH   1   2
BRANCH   1   9
ATOM      9  C   UNL     1       9.089   3.777   0.623  1.00  0.00     0.000 C 
BRANCH   9  10
ATOM     10  C   UNL     1       9.710   5.187   0.652  1.00  0.00     0.000 C 
BRANCH  10  11
ATOM     11  C   UNL     1       9.681   5.938  -0.694  1.00  0.00    -0.000 C 
BRANCH  11  12
ATOM     12  C   UNL     1      10.857   5.625  -1.641  1.00  0.00    -0.000 C 
BRANCH  12  13
ATOM     13  C   UNL     1      10.457   5.364  -3.105  1.00  0.00    -0.003 C 
ATOM     14  C   UNL     1       9.224   4.470  -3.235  1.00  0.00     0.004 C 
ENDBRANCH  12  13
ENDBRANCH  11  12
ENDBRANCH  10  11
ENDBRANCH   9  10
ENDBRANCH   1   9
TORSDOF 9
ENDMDL
MODEL 2
REMARK VINA RESULT:    -4.143      3.207      5.818
REMARK INTER + INTRA:          -7.797
REMARK INTER:                  -6.912
REMARK INTRA:                  -0.885
REMARK UNBOUND:                -1.474
REMARK SMILES CCCCCCCCCC=CC(=O)[O-]
REMARK SMILES IDX 7 1 8 2 9 3 10 4 11 5 12 6 13 7 14 8 6 9 5 10 4 11 3 12 2 13
REMARK SMILES IDX 1 14
REMARK H PARENT
REMARK Flexibility Score: inf
ROOT
ATOM      1  C   UNL     1      11.097   3.372  -4.582  1.00  0.00     0.000 C 
ENDROOT
BRANCH   1   2
ATOM      2  C   UNL     1      10.032   4.033  -3.683  1.00  0.00     0.004 C 
BRANCH   2   3
ATOM      3  C   UNL     1      10.479   5.357  -3.038  1.00  0.00     0.027 C 
BRANCH   3   4
ATOM      4  C   UNL     1      10.223   5.393  -1.558  1.00  0.00    -0.025 C 
ATOM      5  C   UNL     1       9.718   4.340  -0.910  1.00  0.00     0.020 C 
BRANCH   5   6
ATOM      6  C   UNL     1       9.457   4.364   0.537  1.00  0.00     0.064 C 
ATOM      7  O   UNL     1       8.692   5.241   1.016  1.00  0.00    -0.545 OA
ATOM      8  O   UNL     1      10.042   3.431   1.386  1.00  0.00    -0.545 OA
ENDBRANCH   5   6
ENDBRANCH   3   4
ENDBRANCH   2   3
ENDBRANCH   1   2
BRANCH   1   9
ATOM      9  C   UNL     1      11.500   1.941  -4.172  1.00  0.00     0.000 C 
BRANCH   9  10
ATOM     10  C   UNL     1      11.146   1.558  -2.722  1.00  0.00     0.000 C 
BRANCH  10  11
ATOM     11  C   UNL     1      12.233   1.883  -1.679  1.00  0.00    -0.000 C 
BRANCH  11  12
ATOM     12  C   UNL     1      12.040   1.212  -0.304  1.00  0.00    -0.000 C 
BRANCH  12  13
ATOM     13  C   UNL     1      13.070   0.119   0.033  1.00  0.00    -0.003 C 
ATOM     14  C   UNL     1      12.858  -0.492   1.419  1.00  0.00     0.004 C 
ENDBRANCH  12  13
ENDBRANCH  11  12
ENDBRANCH  10  11
ENDBRANCH   9  10
ENDBRANCH   1   9
TORSDOF 9
ENDMDL
MODEL 3
REMARK VINA RESULT:    -4.135      4.363      6.246
REMARK INTER + INTRA:          -7.784
REMARK INTER:                  -7.140
REMARK INTRA:                  -0.644
REMARK UNBOUND:                -1.474
REMARK SMILES CCCCCCCCCC=CC(=O)[O-]
REMARK SMILES IDX 7 1 8 2 9 3 10 4 11 5 12 6 13 7 14 8 6 9 5 10 4 11 3 12 2 13
REMARK SMILES IDX 1 14
REMARK H PARENT
REMARK Flexibility Score: inf
ROOT
ATOM      1  C   UNL     1       9.982   1.997  -0.566  1.00  0.00     0.000 C 
ENDROOT
BRANCH   1   2
ATOM      2  C   UNL     1       9.361   2.851   0.558  1.00  0.00     0.004 C 
BRANCH   2   3
ATOM      3  C   UNL     1       9.039   4.299   0.149  1.00  0.00     0.027 C 
BRANCH   3   4
ATOM      4  C   UNL     1       9.092   5.252   1.310  1.00  0.00    -0.025 C 
ATOM      5  C   UNL     1      10.250   5.596   1.880  1.00  0.00     0.020 C 
BRANCH   5   6
ATOM      6  C   UNL     1      10.316   6.523   3.020  1.00  0.00     0.064 C 
ATOM      7  O   UNL     1       9.560   7.528   3.047  1.00  0.00    -0.545 OA
ATOM      8  O   UNL     1      11.200   6.304   4.070  1.00  0.00    -0.545 OA
ENDBRANCH   5   6
ENDBRANCH   3   4
ENDBRANCH   2   3
ENDBRANCH   1   2
BRANCH   1   9
ATOM      9  C   UNL     1      11.451   1.587  -0.339  1.00  0.00     0.000 C 
BRANCH   9  10
ATOM     10  C   UNL     1      12.392   1.854  -1.529  1.00  0.00     0.000 C 
BRANCH  10  11
ATOM     11  C   UNL     1      11.958   3.008  -2.455  1.00  0.00    -0.000 C 
BRANCH  11  12
ATOM     12  C   UNL     1      11.356   2.571  -3.805  1.00  0.00    -0.000 C 
BRANCH  12  13
ATOM     13  C   UNL     1      11.265   1.048  -4.011  1.00  0.00    -0.003 C 
ATOM     14  C   UNL     1      11.693   0.609  -5.411  1.00  0.00     0.004 C 
ENDBRANCH  12  13
ENDBRANCH  11  12
ENDBRANCH  10  11
ENDBRANCH   9  10
ENDBRANCH   1   9
TORSDOF 9
ENDMDL
MODEL 4
REMARK VINA RESULT:    -3.955      1.510      3.876
REMARK INTER + INTRA:          -7.510
REMARK INTER:                  -6.269
REMARK INTRA:                  -1.241
REMARK UNBOUND:                -1.474
REMARK SMILES CCCCCCCCCC=CC(=O)[O-]
REMARK SMILES IDX 7 1 8 2 9 3 10 4 11 5 12 6 13 7 14 8 6 9 5 10 4 11 3 12 2 13
REMARK SMILES IDX 1 14
REMARK H PARENT
REMARK Flexibility Score: inf
ROOT
ATOM      1  C   UNL     1       8.888   4.111   0.466  1.00  0.00     0.000 C 
ENDROOT
BRANCH   1   2
ATOM      2  C   UNL     1       9.014   4.876  -0.867  1.00  0.00     0.004 C 
BRANCH   2   3
ATOM      3  C   UNL     1      10.318   5.680  -1.016  1.00  0.00     0.027 C 
BRANCH   3   4
ATOM      4  C   UNL     1      10.792   5.754  -2.441  1.00  0.00    -0.025 C 
ATOM      5  C   UNL     1       9.957   5.558  -3.466  1.00  0.00     0.020 C 
BRANCH   5   6
ATOM      6  C   UNL     1      10.408   5.622  -4.864  1.00  0.00     0.064 C 
ATOM      7  O   UNL     1      10.607   6.741  -5.403  1.00  0.00    -0.545 OA
ATOM      8  O   UNL     1      10.621   4.462  -5.600  1.00  0.00    -0.545 OA
ENDBRANCH   5   6
ENDBRANCH   3   4
ENDBRANCH   2   3
ENDBRANCH   1   2
BRANCH   1   9
ATOM      9  C   UNL     1      10.001   3.079   0.735  1.00  0.00     0.000 C 
BRANCH   9  10
ATOM     10  C   UNL     1      10.204   2.037  -0.381  1.00  0.00     0.000 C 
BRANCH  10  11
ATOM     11  C   UNL     1      11.674   1.709  -0.707  1.00  0.00    -0.000 C 
BRANCH  11  12
ATOM     12  C   UNL     1      12.178   2.246  -2.062  1.00  0.00    -0.000 C 
BRANCH  12  13
ATOM     13  C   UNL     1      11.187   2.089  -3.229  1.00  0.00    -0.003 C 
ATOM     14  C   UNL     1      11.631   1.042  -4.251  1.00  0.00     0.004 C 
ENDBRANCH  12  13
ENDBRANCH  11  12
ENDBRANCH  10  11
ENDBRANCH   9  10
ENDBRANCH   1   9
TORSDOF 9
ENDMDL
MODEL 5
REMARK VINA RESULT:    -3.941      1.670      2.564
REMARK INTER + INTRA:          -7.488
REMARK INTER:                  -6.376
REMARK INTRA:                  -1.112
REMARK UNBOUND:                -1.474
REMARK SMILES CCCCCCCCCC=CC(=O)[O-]
REMARK SMILES IDX 7 1 8 2 9 3 10 4 11 5 12 6 13 7 14 8 6 9 5 10 4 11 3 12 2 13
REMARK SMILES IDX 1 14
REMARK H PARENT
REMARK Flexibility Score: inf
ROOT
ATOM      1  C   UNL     1      11.406   1.626  -0.502  1.00  0.00     0.000 C 
ENDROOT
BRANCH   1   2
ATOM      2  C   UNL     1      12.209   2.071  -1.742  1.00  0.00     0.004 C 
BRANCH   2   3
ATOM      3  C   UNL     1      11.795   1.372  -3.049  1.00  0.00     0.027 C 
BRANCH   3   4
ATOM      4  C   UNL     1      11.434   2.346  -4.135  1.00  0.00    -0.025 C 
ATOM      5  C   UNL     1      10.780   3.480  -3.868  1.00  0.00     0.020 C 
BRANCH   5   6
ATOM      6  C   UNL     1      10.415   4.439  -4.922  1.00  0.00     0.064 C 
ATOM      7  O   UNL     1       9.454   5.229  -4.738  1.00  0.00    -0.545 OA
ATOM      8  O   UNL     1      11.119   4.486  -6.120  1.00  0.00    -0.545 OA
ENDBRANCH   5   6
ENDBRANCH   3   4
ENDBRANCH   2   3
ENDBRANCH   1   2
BRANCH   1   9
ATOM      9  C   UNL     1      10.047   2.330  -0.317  1.00  0.00     0.000 C 
BRANCH   9  10
ATOM     10  C   UNL     1       9.909   3.143   0.984  1.00  0.00     0.000 C 
BRANCH  10  11
ATOM     11  C   UNL     1       9.643   4.648   0.786  1.00  0.00    -0.000 C 
BRANCH  11  12
ATOM     12  C   UNL     1       9.922   5.178  -0.635  1.00  0.00    -0.000 C 
BRANCH  12  13
ATOM     13  C   UNL     1       8.691   5.743  -1.368  1.00  0.00    -0.003 C 
ATOM     14  C   UNL     1       7.551   4.732  -1.484  1.00  0.00     0.004 C 
ENDBRANCH  12  13
ENDBRANCH  11  12
ENDBRANCH  10  11
ENDBRANCH   9  10
ENDBRANCH   1   9
TORSDOF 9
ENDMDL
MODEL 6
REMARK VINA RESULT:    -3.898      3.720      5.232
REMARK INTER + INTRA:          -7.423
REMARK INTER:                  -6.306
REMARK INTRA:                  -1.118
REMARK UNBOUND:                -1.474
REMARK SMILES CCCCCCCCCC=CC(=O)[O-]
REMARK SMILES IDX 7 1 8 2 9 3 10 4 11 5 12 6 13 7 14 8 6 9 5 10 4 11 3 12 2 13
REMARK SMILES IDX 1 14
REMARK H PARENT
REMARK Flexibility Score: inf
ROOT
ATOM      1  C   UNL     1      12.222   1.905  -1.715  1.00  0.00     0.000 C 
ENDROOT
BRANCH   1   2
ATOM      2  C   UNL     1      11.532   1.588  -0.373  1.00  0.00     0.004 C 
BRANCH   2   3
ATOM      3  C   UNL     1      10.124   2.192  -0.226  1.00  0.00     0.027 C 
BRANCH   3   4
ATOM      4  C   UNL     1      10.031   3.171   0.910  1.00  0.00    -0.025 C 
ATOM      5  C   UNL     1       9.653   4.438   0.712  1.00  0.00     0.020 C 
BRANCH   5   6
ATOM      6  C   UNL     1       9.563   5.408   1.814  1.00  0.00     0.064 C 
ATOM      7  O   UNL     1       8.484   6.021   2.015  1.00  0.00    -0.545 OA
ATOM      8  O   UNL     1      10.655   5.657   2.638  1.00  0.00    -0.545 OA
ENDBRANCH   5   6
ENDBRANCH   3   4
ENDBRANCH   2   3
ENDBRANCH   1   2
BRANCH   1   9
ATOM      9  C   UNL     1      11.355   1.666  -2.967  1.00  0.00     0.000 C 
BRANCH   9  10
ATOM     10  C   UNL     1      11.108   2.916  -3.834  1.00  0.00     0.000 C 
BRANCH  10  11
ATOM     11  C   UNL     1      10.712   4.183  -3.051  1.00  0.00    -0.000 C 
BRANCH  11  12
ATOM     12  C   UNL     1       9.600   5.030  -3.699  1.00  0.00    -0.000 C 
BRANCH  12  13
ATOM     13  C   UNL     1       8.329   5.192  -2.846  1.00  0.00    -0.003 C 
ATOM     14  C   UNL     1       7.742   3.856  -2.392  1.00  0.00     0.004 C 
ENDBRANCH  12  13
ENDBRANCH  11  12
ENDBRANCH  10  11
ENDBRANCH   9  10
ENDBRANCH   1   9
TORSDOF 9
ENDMDL
MODEL 7
REMARK VINA RESULT:    -3.871      4.088      6.257
REMARK INTER + INTRA:          -7.381
REMARK INTER:                  -6.486
REMARK INTRA:                  -0.895
REMARK UNBOUND:                -1.474
REMARK SMILES CCCCCCCCCC=CC(=O)[O-]
REMARK SMILES IDX 7 1 8 2 9 3 10 4 11 5 12 6 13 7 14 8 6 9 5 10 4 11 3 12 2 13
REMARK SMILES IDX 1 14
REMARK H PARENT
REMARK Flexibility Score: inf
ROOT
ATOM      1  C   UNL     1       9.530   4.743  -1.746  1.00  0.00     0.000 C 
ENDROOT
BRANCH   1   2
ATOM      2  C   UNL     1       8.501   4.071  -0.812  1.00  0.00     0.004 C 
BRANCH   2   3
ATOM      3  C   UNL     1       9.102   3.492   0.481  1.00  0.00     0.027 C 
BRANCH   3   4
ATOM      4  C   UNL     1       9.869   4.516   1.270  1.00  0.00    -0.025 C 
ATOM      5  C   UNL     1       9.283   5.623   1.735  1.00  0.00     0.020 C 
BRANCH   5   6
ATOM      6  C   UNL     1      10.023   6.635   2.504  1.00  0.00     0.064 C 
ATOM      7  O   UNL     1      10.659   6.291   3.533  1.00  0.00    -0.545 OA
ATOM      8  O   UNL     1      10.032   7.968   2.109  1.00  0.00    -0.545 OA
ENDBRANCH   5   6
ENDBRANCH   3   4
ENDBRANCH   2   3
ENDBRANCH   1   2
BRANCH   1   9
ATOM      9  C   UNL     1       9.692   4.076  -3.126  1.00  0.00     0.000 C 
BRANCH   9  10
ATOM     10  C   UNL     1      11.003   3.288  -3.317  1.00  0.00     0.000 C 
BRANCH  10  11
ATOM     11  C   UNL     1      11.092   1.971  -2.522  1.00  0.00    -0.000 C 
BRANCH  11  12
ATOM     12  C   UNL     1      12.230   1.910  -1.484  1.00  0.00    -0.000 C 
BRANCH  12  13
ATOM     13  C   UNL     1      11.868   1.203  -0.166  1.00  0.00    -0.003 C 
ATOM     14  C   UNL     1      12.890   0.142   0.242  1.00  0.00     0.004 C 
ENDBRANCH  12  13
ENDBRANCH  11  12
ENDBRANCH  10  11
ENDBRANCH   9  10
ENDBRANCH   1   9
TORSDOF 9
ENDMDL
MODEL 8
REMARK VINA RESULT:    -3.858      1.973      3.272
REMARK INTER + INTRA:          -7.362
REMARK INTER:                  -5.843
REMARK INTRA:                  -1.519
REMARK UNBOUND:                -1.474
REMARK SMILES CCCCCCCCCC=CC(=O)[O-]
REMARK SMILES IDX 7 1 8 2 9 3 10 4 11 5 12 6 13 7 14 8 6 9 5 10 4 11 3 12 2 13
REMARK SMILES IDX 1 14
REMARK H PARENT
REMARK Flexibility Score: inf
ROOT
ATOM      1  C   UNL     1       9.896   5.647   0.899  1.00  0.00     0.000 C 
ENDROOT
BRANCH   1   2
ATOM      2  C   UNL     1       8.645   4.745   0.927  1.00  0.00     0.004 C 
BRANCH   2   3
ATOM      3  C   UNL     1       8.948   3.238   0.847  1.00  0.00     0.027 C 
BRANCH   3   4
ATOM      4  C   UNL     1      10.331   2.954   0.331  1.00  0.00    -0.025 C 
ATOM      5  C   UNL     1      10.549   2.034  -0.612  1.00  0.00     0.020 C 
BRANCH   5   6
ATOM      6  C   UNL     1      11.897   1.742  -1.122  1.00  0.00     0.064 C 
ATOM      7  O   UNL     1      12.605   0.875  -0.547  1.00  0.00    -0.545 OA
ATOM      8  O   UNL     1      12.402   2.408  -2.233  1.00  0.00    -0.545 OA
ENDBRANCH   5   6
ENDBRANCH   3   4
ENDBRANCH   2   3
ENDBRANCH   1   2
BRANCH   1   9
ATOM      9  C   UNL     1       9.967   6.628  -0.289  1.00  0.00     0.000 C 
BRANCH   9  10
ATOM     10  C   UNL     1      10.922   6.206  -1.422  1.00  0.00     0.000 C 
BRANCH  10  11
ATOM     11  C   UNL     1      10.248   5.977  -2.790  1.00  0.00    -0.000 C 
BRANCH  11  12
ATOM     12  C   UNL     1       9.504   4.635  -2.935  1.00  0.00    -0.000 C 
BRANCH  12  13
ATOM     13  C   UNL     1       7.999   4.758  -3.233  1.00  0.00    -0.003 C 
ATOM     14  C   UNL     1       7.134   3.925  -2.287  1.00  0.00     0.004 C 
ENDBRANCH  12  13
ENDBRANCH  11  12
ENDBRANCH  10  11
ENDBRANCH   9  10
ENDBRANCH   1   9
TORSDOF 9
ENDMDL
MODEL 9
REMARK VINA RESULT:    -3.799      4.190      5.985
REMARK INTER + INTRA:          -7.272
REMARK INTER:                  -6.341
REMARK INTRA:                  -0.930
REMARK UNBOUND:                -1.474
REMARK SMILES CCCCCCCCCC=CC(=O)[O-]
REMARK SMILES IDX 7 1 8 2 9 3 10 4 11 5 12 6 13 7 14 8 6 9 5 10 4 11 3 12 2 13
REMARK SMILES IDX 1 14
REMARK H PARENT
REMARK Flexibility Score: inf
ROOT
ATOM      1  C   UNL     1      10.051   2.057  -0.616  1.00  0.00     0.000 C 
ENDROOT
BRANCH   1   2
ATOM      2  C   UNL     1       9.907   3.056   0.550  1.00  0.00     0.004 C 
BRANCH   2   3
ATOM      3  C   UNL     1       8.902   4.193   0.290  1.00  0.00     0.027 C 
BRANCH   3   4
ATOM      4  C   UNL     1       9.142   5.388   1.169  1.00  0.00    -0.025 C 
ATOM      5  C   UNL     1      10.069   5.373   2.131  1.00  0.00     0.020 C 
BRANCH   5   6
ATOM      6  C   UNL     1      10.311   6.534   3.002  1.00  0.00     0.064 C 
ATOM      7  O   UNL     1      11.199   6.471   3.890  1.00  0.00    -0.545 OA
ATOM      8  O   UNL     1       9.571   7.702   2.857  1.00  0.00    -0.545 OA
ENDBRANCH   5   6
ENDBRANCH   3   4
ENDBRANCH   2   3
ENDBRANCH   1   2
BRANCH   1   9
ATOM      9  C   UNL     1      11.493   1.590  -0.901  1.00  0.00     0.000 C 
BRANCH   9  10
ATOM     10  C   UNL     1      12.232   2.393  -1.989  1.00  0.00     0.000 C 
BRANCH  10  11
ATOM     11  C   UNL     1      11.853   2.025  -3.438  1.00  0.00    -0.000 C 
BRANCH  11  12
ATOM     12  C   UNL     1      11.007   3.080  -4.178  1.00  0.00    -0.000 C 
BRANCH  12  13
ATOM     13  C   UNL     1      10.660   4.330  -3.350  1.00  0.00    -0.003 C 
ATOM     14  C   UNL     1       9.168   4.662  -3.369  1.00  0.00     0.004 C 
ENDBRANCH  12  13
ENDBRANCH  11  12
ENDBRANCH  10  11
ENDBRANCH   9  10
ENDBRANCH   1   9
TORSDOF 9
ENDMDL
