MODEL 1
REMARK VINA RESULT:    -2.561      0.000      0.000
REMARK INTER + INTRA:          -2.561
REMARK INTER:                  -2.561
REMARK INTRA:                   0.000
REMARK UNBOUND:                 0.000
REMARK SMILES CC(=O)[O-]
REMARK SMILES IDX 1 1 2 2 3 3 4 4
REMARK H PARENT
REMARK Flexibility Score: inf
ROOT
ATOM      1  C   UNL     1      52.257   8.886  16.051  1.00  0.00     0.063 C 
ATOM      2  C   UNL     1      51.002   8.721  16.840  1.00  0.00     0.038 C 
ATOM      3  O   UNL     1      50.842   7.704  17.566  1.00  0.00    -0.550 OA
ATOM      4  O   UNL     1      50.031   9.713  16.818  1.00  0.00    -0.550 OA
ENDROOT
TORSDOF 0
ENDMDL
MODEL 2
REMARK VINA RESULT:    -2.525      1.401      2.095
REMARK INTER + INTRA:          -2.525
REMARK INTER:                  -2.525
REMARK INTRA:                   0.000
REMARK UNBOUND:                 0.000
REMARK SMILES CC(=O)[O-]
REMARK SMILES IDX 1 1 2 2 3 3 4 4
REMARK H PARENT
REMARK Flexibility Score: inf
ROOT
ATOM      1  C   UNL     1      50.888   7.615  17.643  1.00  0.00     0.063 C 
ATOM      2  C   UNL     1      51.093   8.772  16.725  1.00  0.00     0.038 C 
ATOM      3  O   UNL     1      50.245   9.702  16.682  1.00  0.00    -0.550 OA
ATOM      4  O   UNL     1      52.245   8.854  15.954  1.00  0.00    -0.550 OA
ENDROOT
TORSDOF 0
ENDMDL
MODEL 3
REMARK VINA RESULT:    -2.170      1.467      1.778
REMARK INTER + INTRA:          -2.170
REMARK INTER:                  -2.170
REMARK INTRA:                   0.000
REMARK UNBOUND:                 0.000
REMARK SMILES CC(=O)[O-]
REMARK SMILES IDX 1 1 2 2 3 3 4 4
REMARK H PARENT
REMARK Flexibility Score: inf
ROOT
ATOM      1  C   UNL     1      50.028   9.578  16.876  1.00  0.00     0.063 C 
ATOM      2  C   UNL     1      51.131   8.577  16.929  1.00  0.00     0.038 C 
ATOM      3  O   UNL     1      51.074   7.617  17.742  1.00  0.00    -0.550 OA
ATOM      4  O   UNL     1      52.199   8.670  16.045  1.00  0.00    -0.550 OA
ENDROOT
TORSDOF 0
ENDMDL
MODEL 4
REMARK VINA RESULT:    -1.814     12.733     12.926
REMARK INTER + INTRA:          -1.814
REMARK INTER:                  -1.814
REMARK INTRA:                   0.000
REMARK UNBOUND:                 0.000
REMARK SMILES CC(=O)[O-]
REMARK SMILES IDX 1 1 2 2 3 3 4 4
REMARK H PARENT
REMARK Flexibility Score: inf
ROOT
ATOM      1  C   UNL     1      50.608  21.024  14.591  1.00  0.00     0.063 C 
ATOM      2  C   UNL     1      51.755  21.462  15.437  1.00  0.00     0.038 C 
ATOM      3  O   UNL     1      52.936  21.267  15.049  1.00  0.00    -0.550 OA
ATOM      4  O   UNL     1      51.523  22.134  16.630  1.00  0.00    -0.550 OA
ENDROOT
TORSDOF 0
ENDMDL
MODEL 5
REMARK VINA RESULT:    -1.781     19.478     19.848
REMARK INTER + INTRA:          -1.781
REMARK INTER:                  -1.781
REMARK INTRA:                   0.000
REMARK UNBOUND:                 0.000
REMARK SMILES CC(=O)[O-]
REMARK SMILES IDX 1 1 2 2 3 3 4 4
REMARK H PARENT
REMARK Flexibility Score: inf
ROOT
ATOM      1  C   UNL     1      35.896  20.105  15.711  1.00  0.00     0.063 C 
ATOM      2  C   UNL     1      34.485  19.623  15.720  1.00  0.00     0.038 C 
ATOM      3  O   UNL     1      33.728  19.905  16.686  1.00  0.00    -0.550 OA
ATOM      4  O   UNL     1      33.987  18.909  14.638  1.00  0.00    -0.550 OA
ENDROOT
TORSDOF 0
ENDMDL
MODEL 6
REMARK VINA RESULT:    -1.778     19.464     19.867
REMARK INTER + INTRA:          -1.778
REMARK INTER:                  -1.778
REMARK INTRA:                   0.000
REMARK UNBOUND:                 0.000
REMARK SMILES CC(=O)[O-]
REMARK SMILES IDX 1 1 2 2 3 3 4 4
REMARK H PARENT
REMARK Flexibility Score: inf
ROOT
ATOM      1  C   UNL     1      35.885  20.111  15.704  1.00  0.00     0.063 C 
ATOM      2  C   UNL     1      34.467  19.652  15.721  1.00  0.00     0.038 C 
ATOM      3  O   UNL     1      34.026  18.929  14.789  1.00  0.00    -0.550 OA
ATOM      4  O   UNL     1      33.643  19.976  16.791  1.00  0.00    -0.550 OA
ENDROOT
TORSDOF 0
ENDMDL
MODEL 7
REMARK VINA RESULT:    -1.766     19.364     19.926
REMARK INTER + INTRA:          -1.766
REMARK INTER:                  -1.766
REMARK INTRA:                   0.000
REMARK UNBOUND:                 0.000
REMARK SMILES CC(=O)[O-]
REMARK SMILES IDX 1 1 2 2 3 3 4 4
REMARK H PARENT
REMARK Flexibility Score: inf
ROOT
ATOM      1  C   UNL     1      33.526  19.998  16.706  1.00  0.00     0.063 C 
ATOM      2  C   UNL     1      34.501  19.575  15.660  1.00  0.00     0.038 C 
ATOM      3  O   UNL     1      34.092  19.035  14.598  1.00  0.00    -0.550 OA
ATOM      4  O   UNL     1      35.856  19.824  15.831  1.00  0.00    -0.550 OA
ENDROOT
TORSDOF 0
ENDMDL
MODEL 8
REMARK VINA RESULT:    -1.715     13.133     13.675
REMARK INTER + INTRA:          -1.715
REMARK INTER:                  -1.715
REMARK INTRA:                   0.000
REMARK UNBOUND:                 0.000
REMARK SMILES CC(=O)[O-]
REMARK SMILES IDX 1 1 2 2 3 3 4 4
REMARK H PARENT
REMARK Flexibility Score: inf
ROOT
ATOM      1  C   UNL     1      46.851  22.788  17.088  1.00  0.00     0.063 C 
ATOM      2  C   UNL     1      46.656  21.534  16.307  1.00  0.00     0.038 C 
ATOM      3  O   UNL     1      45.493  21.127  16.046  1.00  0.00    -0.550 OA
ATOM      4  O   UNL     1      47.755  20.840  15.819  1.00  0.00    -0.550 OA
ENDROOT
TORSDOF 0
ENDMDL
MODEL 9
REMARK VINA RESULT:    -1.700     19.478     19.713
REMARK INTER + INTRA:          -1.700
REMARK INTER:                  -1.700
REMARK INTRA:                   0.000
REMARK UNBOUND:                 0.000
REMARK SMILES CC(=O)[O-]
REMARK SMILES IDX 1 1 2 2 3 3 4 4
REMARK H PARENT
REMARK Flexibility Score: inf
ROOT
ATOM      1  C   UNL     1      33.863  18.832  15.489  1.00  0.00     0.063 C 
ATOM      2  C   UNL     1      34.910  19.887  15.598  1.00  0.00     0.038 C 
ATOM      3  O   UNL     1      35.071  20.507  16.682  1.00  0.00    -0.550 OA
ATOM      4  O   UNL     1      35.747  20.151  14.522  1.00  0.00    -0.550 OA
ENDROOT
TORSDOF 0
ENDMDL
