MODEL 1
REMARK VINA RESULT:    -2.833      0.000      0.000
REMARK INTER + INTRA:          -3.667
REMARK INTER:                  -3.496
REMARK INTRA:                  -0.171
REMARK UNBOUND:                -0.171
REMARK SMILES CCCCCC(=O)[O-]
REMARK SMILES IDX 4 1 5 2 6 3 7 4 8 5 3 6 2 7 1 8
REMARK H PARENT
REMARK Flexibility Score: inf
ROOT
ATOM      1  C   UNL     1      63.567  43.920  15.025  1.00  0.00     0.006 C 
ENDROOT
BRANCH   1   2
ATOM      2  C   UNL     1      64.559  42.750  15.072  1.00  0.00     0.053 C 
BRANCH   2   3
ATOM      3  C   UNL     1      64.105  41.718  16.054  1.00  0.00     0.041 C 
ATOM      4  O   UNL     1      64.276  40.494  15.813  1.00  0.00    -0.550 OA
ATOM      5  O   UNL     1      63.448  42.104  17.216  1.00  0.00    -0.550 OA
ENDBRANCH   2   3
ENDBRANCH   1   2
BRANCH   1   6
ATOM      6  C   UNL     1      64.123  45.185  15.713  1.00  0.00     0.000 C 
BRANCH   6   7
ATOM      7  C   UNL     1      63.123  45.858  16.667  1.00  0.00    -0.003 C 
ATOM      8  C   UNL     1      61.819  45.076  16.817  1.00  0.00     0.004 C 
ENDBRANCH   6   7
ENDBRANCH   1   6
TORSDOF 4
ENDMDL
MODEL 2
REMARK VINA RESULT:    -2.819      1.125      1.680
REMARK INTER + INTRA:          -3.649
REMARK INTER:                  -3.448
REMARK INTRA:                  -0.201
REMARK UNBOUND:                -0.171
REMARK SMILES CCCCCC(=O)[O-]
REMARK SMILES IDX 4 1 5 2 6 3 7 4 8 5 3 6 2 7 1 8
REMARK H PARENT
REMARK Flexibility Score: inf
ROOT
ATOM      1  C   UNL     1      64.841  42.372  15.313  1.00  0.00     0.006 C 
ENDROOT
BRANCH   1   2
ATOM      2  C   UNL     1      64.151  41.059  15.707  1.00  0.00     0.053 C 
BRANCH   2   3
ATOM      3  C   UNL     1      64.153  40.891  17.193  1.00  0.00     0.041 C 
ATOM      4  O   UNL     1      65.110  40.304  17.764  1.00  0.00    -0.550 OA
ATOM      5  O   UNL     1      63.073  41.337  17.945  1.00  0.00    -0.550 OA
ENDBRANCH   2   3
ENDBRANCH   1   2
BRANCH   1   6
ATOM      6  C   UNL     1      63.839  43.428  14.801  1.00  0.00     0.000 C 
BRANCH   6   7
ATOM      7  C   UNL     1      63.694  44.642  15.733  1.00  0.00    -0.003 C 
ATOM      8  C   UNL     1      62.380  44.645  16.512  1.00  0.00     0.004 C 
ENDBRANCH   6   7
ENDBRANCH   1   6
TORSDOF 4
ENDMDL
MODEL 3
REMARK VINA RESULT:    -2.778      1.774      3.303
REMARK INTER + INTRA:          -3.599
REMARK INTER:                  -3.340
REMARK INTRA:                  -0.259
REMARK UNBOUND:                -0.171
REMARK SMILES CCCCCC(=O)[O-]
REMARK SMILES IDX 4 1 5 2 6 3 7 4 8 5 3 6 2 7 1 8
REMARK H PARENT
REMARK Flexibility Score: inf
ROOT
ATOM      1  C   UNL     1      63.492  44.915  15.948  1.00  0.00     0.006 C 
ENDROOT
BRANCH   1   2
ATOM      2  C   UNL     1      62.157  44.759  16.689  1.00  0.00     0.053 C 
BRANCH   2   3
ATOM      3  C   UNL     1      62.312  43.844  17.861  1.00  0.00     0.041 C 
ATOM      4  O   UNL     1      63.420  43.750  18.452  1.00  0.00    -0.550 OA
ATOM      5  O   UNL     1      61.245  43.053  18.273  1.00  0.00    -0.550 OA
ENDBRANCH   2   3
ENDBRANCH   1   2
BRANCH   1   6
ATOM      6  C   UNL     1      63.676  43.853  14.845  1.00  0.00     0.000 C 
BRANCH   6   7
ATOM      7  C   UNL     1      64.758  42.810  15.167  1.00  0.00    -0.003 C 
ATOM      8  C   UNL     1      64.183  41.478  15.644  1.00  0.00     0.004 C 
ENDBRANCH   6   7
ENDBRANCH   1   6
TORSDOF 4
ENDMDL
MODEL 4
REMARK VINA RESULT:    -2.740      2.715      4.131
REMARK INTER + INTRA:          -3.552
REMARK INTER:                  -3.408
REMARK INTRA:                  -0.143
REMARK UNBOUND:                -0.171
REMARK SMILES CCCCCC(=O)[O-]
REMARK SMILES IDX 4 1 5 2 6 3 7 4 8 5 3 6 2 7 1 8
REMARK H PARENT
REMARK Flexibility Score: inf
ROOT
ATOM      1  C   UNL     1      63.585  44.107  14.814  1.00  0.00     0.006 C 
ENDROOT
BRANCH   1   2
ATOM      2  C   UNL     1      62.854  44.535  16.094  1.00  0.00     0.053 C 
BRANCH   2   3
ATOM      3  C   UNL     1      63.329  45.879  16.545  1.00  0.00     0.041 C 
ATOM      4  O   UNL     1      62.584  46.613  17.247  1.00  0.00    -0.550 OA
ATOM      5  O   UNL     1      64.577  46.345  16.150  1.00  0.00    -0.550 OA
ENDBRANCH   2   3
ENDBRANCH   1   2
BRANCH   1   6
ATOM      6  C   UNL     1      64.268  42.732  14.963  1.00  0.00     0.000 C 
BRANCH   6   7
ATOM      7  C   UNL     1      64.046  42.079  16.337  1.00  0.00    -0.003 C 
ATOM      8  C   UNL     1      64.270  40.568  16.324  1.00  0.00     0.004 C 
ENDBRANCH   6   7
ENDBRANCH   1   6
TORSDOF 4
ENDMDL
MODEL 5
REMARK VINA RESULT:    -2.658     15.100     16.347
REMARK INTER + INTRA:          -3.451
REMARK INTER:                  -3.380
REMARK INTRA:                  -0.071
REMARK UNBOUND:                -0.171
REMARK SMILES CCCCCC(=O)[O-]
REMARK SMILES IDX 4 1 5 2 6 3 7 4 8 5 3 6 2 7 1 8
REMARK H PARENT
REMARK Flexibility Score: inf
ROOT
ATOM      1  C   UNL     1      48.220  43.067  15.110  1.00  0.00     0.006 C 
ENDROOT
BRANCH   1   2
ATOM      2  C   UNL     1      47.118  42.562  14.168  1.00  0.00     0.053 C 
BRANCH   2   3
ATOM      3  C   UNL     1      45.797  42.545  14.868  1.00  0.00     0.041 C 
ATOM      4  O   UNL     1      45.209  41.454  15.088  1.00  0.00    -0.550 OA
ATOM      5  O   UNL     1      45.189  43.740  15.236  1.00  0.00    -0.550 OA
ENDBRANCH   2   3
ENDBRANCH   1   2
BRANCH   1   6
ATOM      6  C   UNL     1      48.579  44.545  14.848  1.00  0.00     0.000 C 
BRANCH   6   7
ATOM      7  C   UNL     1      50.092  44.821  14.849  1.00  0.00    -0.003 C 
ATOM      8  C   UNL     1      50.469  46.090  14.086  1.00  0.00     0.004 C 
ENDBRANCH   6   7
ENDBRANCH   1   6
TORSDOF 4
ENDMDL
MODEL 6
REMARK VINA RESULT:    -2.647     14.561     15.503
REMARK INTER + INTRA:          -3.438
REMARK INTER:                  -3.358
REMARK INTRA:                  -0.080
REMARK UNBOUND:                -0.171
REMARK SMILES CCCCCC(=O)[O-]
REMARK SMILES IDX 4 1 5 2 6 3 7 4 8 5 3 6 2 7 1 8
REMARK H PARENT
REMARK Flexibility Score: inf
ROOT
ATOM      1  C   UNL     1      48.744  44.892  14.871  1.00  0.00     0.006 C 
ENDROOT
BRANCH   1   2
ATOM      2  C   UNL     1      48.527  43.376  14.968  1.00  0.00     0.053 C 
BRANCH   2   3
ATOM      3  C   UNL     1      47.158  43.011  14.490  1.00  0.00     0.041 C 
ATOM      4  O   UNL     1      46.937  41.867  14.011  1.00  0.00    -0.550 OA
ATOM      5  O   UNL     1      46.135  43.951  14.524  1.00  0.00    -0.550 OA
ENDBRANCH   2   3
ENDBRANCH   1   2
BRANCH   1   6
ATOM      6  C   UNL     1      50.182  45.249  14.440  1.00  0.00     0.000 C 
BRANCH   6   7
ATOM      7  C   UNL     1      50.382  46.744  14.139  1.00  0.00    -0.003 C 
ATOM      8  C   UNL     1      49.170  47.597  14.510  1.00  0.00     0.004 C 
ENDBRANCH   6   7
ENDBRANCH   1   6
TORSDOF 4
ENDMDL
MODEL 7
REMARK VINA RESULT:    -2.627      1.367      2.017
REMARK INTER + INTRA:          -3.412
REMARK INTER:                  -3.286
REMARK INTRA:                  -0.126
REMARK UNBOUND:                -0.171
REMARK SMILES CCCCCC(=O)[O-]
REMARK SMILES IDX 4 1 5 2 6 3 7 4 8 5 3 6 2 7 1 8
REMARK H PARENT
REMARK Flexibility Score: inf
ROOT
ATOM      1  C   UNL     1      62.558  44.483  16.384  1.00  0.00     0.006 C 
ENDROOT
BRANCH   1   2
ATOM      2  C   UNL     1      63.540  44.111  15.265  1.00  0.00     0.053 C 
BRANCH   2   3
ATOM      3  C   UNL     1      64.177  42.787  15.544  1.00  0.00     0.041 C 
ATOM      4  O   UNL     1      65.125  42.374  14.826  1.00  0.00    -0.550 OA
ATOM      5  O   UNL     1      63.691  41.984  16.569  1.00  0.00    -0.550 OA
ENDBRANCH   2   3
ENDBRANCH   1   2
BRANCH   1   6
ATOM      6  C   UNL     1      62.722  45.947  16.842  1.00  0.00     0.000 C 
BRANCH   6   7
ATOM      7  C   UNL     1      63.988  46.626  16.294  1.00  0.00    -0.003 C 
ATOM      8  C   UNL     1      63.883  48.149  16.260  1.00  0.00     0.004 C 
ENDBRANCH   6   7
ENDBRANCH   1   6
TORSDOF 4
ENDMDL
MODEL 8
REMARK VINA RESULT:    -2.627     16.063     17.335
REMARK INTER + INTRA:          -3.412
REMARK INTER:                  -3.150
REMARK INTRA:                  -0.262
REMARK UNBOUND:                -0.171
REMARK SMILES CCCCCC(=O)[O-]
REMARK SMILES IDX 4 1 5 2 6 3 7 4 8 5 3 6 2 7 1 8
REMARK H PARENT
REMARK Flexibility Score: inf
ROOT
ATOM      1  C   UNL     1      48.090  43.361  14.836  1.00  0.00     0.006 C 
ENDROOT
BRANCH   1   2
ATOM      2  C   UNL     1      47.604  44.801  15.051  1.00  0.00     0.053 C 
BRANCH   2   3
ATOM      3  C   UNL     1      46.617  44.859  16.173  1.00  0.00     0.041 C 
ATOM      4  O   UNL     1      46.853  44.264  17.258  1.00  0.00    -0.550 OA
ATOM      5  O   UNL     1      45.411  45.529  16.006  1.00  0.00    -0.550 OA
ENDBRANCH   2   3
ENDBRANCH   1   2
BRANCH   1   6
ATOM      6  C   UNL     1      47.094  42.527  14.004  1.00  0.00     0.000 C 
BRANCH   6   7
ATOM      7  C   UNL     1      46.440  41.380  14.793  1.00  0.00    -0.003 C 
ATOM      8  C   UNL     1      45.012  41.696  15.234  1.00  0.00     0.004 C 
ENDBRANCH   6   7
ENDBRANCH   1   6
TORSDOF 4
ENDMDL
MODEL 9
REMARK VINA RESULT:    -2.619     15.050     16.500
REMARK INTER + INTRA:          -3.403
REMARK INTER:                  -3.282
REMARK INTRA:                  -0.121
REMARK UNBOUND:                -0.171
REMARK SMILES CCCCCC(=O)[O-]
REMARK SMILES IDX 4 1 5 2 6 3 7 4 8 5 3 6 2 7 1 8
REMARK H PARENT
REMARK Flexibility Score: inf
ROOT
ATOM      1  C   UNL     1      48.018  43.340  15.040  1.00  0.00     0.006 C 
ENDROOT
BRANCH   1   2
ATOM      2  C   UNL     1      47.575  44.809  15.070  1.00  0.00     0.053 C 
BRANCH   2   3
ATOM      3  C   UNL     1      48.736  45.713  14.805  1.00  0.00     0.041 C 
ATOM      4  O   UNL     1      48.618  46.958  14.949  1.00  0.00    -0.550 OA
ATOM      5  O   UNL     1      49.939  45.185  14.349  1.00  0.00    -0.550 OA
ENDBRANCH   2   3
ENDBRANCH   1   2
BRANCH   1   6
ATOM      6  C   UNL     1      47.150  42.488  14.091  1.00  0.00     0.000 C 
BRANCH   6   7
ATOM      7  C   UNL     1      46.225  41.500  14.821  1.00  0.00    -0.003 C 
ATOM      8  C   UNL     1      44.939  42.148  15.329  1.00  0.00     0.004 C 
ENDBRANCH   6   7
ENDBRANCH   1   6
TORSDOF 4
ENDMDL
