MODEL 1
REMARK VINA RESULT:    -4.835      0.000      0.000
REMARK INTER + INTRA:         -10.127
REMARK INTER:                  -8.510
REMARK INTRA:                  -1.617
REMARK UNBOUND:                -1.617
REMARK SMILES CCCCCCC=CCCCCCCCC(=O)[O-]
REMARK SMILES IDX 10 1 11 2 12 3 13 4 14 5 15 6 16 7 17 8 18 9 9 10 8 11 7 12
REMARK SMILES IDX 6 13 5 14 4 15 3 16 2 17 1 18
REMARK H PARENT
REMARK Flexibility Score: inf
ROOT
ATOM      1  C   UNL     1       6.488   2.876  17.516  1.00  0.00     0.004 C 
ENDROOT
BRANCH   1   2
ATOM      2  C   UNL     1       6.606   3.809  18.730  1.00  0.00     0.000 C 
BRANCH   2   3
ATOM      3  C   UNL     1       8.011   4.417  18.876  1.00  0.00     0.000 C 
BRANCH   3   4
ATOM      4  C   UNL     1       8.834   3.744  19.986  1.00  0.00     0.000 C 
BRANCH   4   5
ATOM      5  C   UNL     1       7.978   3.516  21.241  1.00  0.00     0.006 C 
BRANCH   5   6
ATOM      6  C   UNL     1       8.204   4.600  22.303  1.00  0.00     0.053 C 
BRANCH   6   7
ATOM      7  C   UNL     1       7.008   5.488  22.454  1.00  0.00     0.041 C 
ATOM      8  O   UNL     1       6.241   5.356  23.443  1.00  0.00    -0.550 OA
ATOM      9  O   UNL     1       6.758   6.484  21.518  1.00  0.00    -0.550 OA
ENDBRANCH   6   7
ENDBRANCH   5   6
ENDBRANCH   4   5
ENDBRANCH   3   4
ENDBRANCH   2   3
ENDBRANCH   1   2
BRANCH   1  10
ATOM     10  C   UNL     1       5.858   1.536  17.915  1.00  0.00     0.027 C 
BRANCH  10  11
ATOM     11  C   UNL     1       6.842   0.409  17.770  1.00  0.00    -0.031 C 
ATOM     12  C   UNL     1       8.132   0.555  18.107  1.00  0.00    -0.031 C 
BRANCH  12  13
ATOM     13  C   UNL     1       9.112  -0.577  17.978  1.00  0.00     0.027 C 
BRANCH  13  14
ATOM     14  C   UNL     1       8.384  -1.926  17.860  1.00  0.00     0.004 C 
BRANCH  14  15
ATOM     15  C   UNL     1       8.539  -2.560  16.468  1.00  0.00     0.000 C 
BRANCH  15  16
ATOM     16  C   UNL     1       9.221  -1.616  15.463  1.00  0.00    -0.000 C 
BRANCH  16  17
ATOM     17  C   UNL     1       8.314  -1.274  14.271  1.00  0.00    -0.003 C 
ATOM     18  C   UNL     1       6.835  -1.219  14.650  1.00  0.00     0.004 C 
ENDBRANCH  16  17
ENDBRANCH  15  16
ENDBRANCH  14  15
ENDBRANCH  13  14
ENDBRANCH  12  13
ENDBRANCH  10  11
ENDBRANCH   1  10
TORSDOF 13
ENDMDL
MODEL 2
REMARK VINA RESULT:    -4.776      2.044      4.406
REMARK INTER + INTRA:         -10.023
REMARK INTER:                  -8.148
REMARK INTRA:                  -1.875
REMARK UNBOUND:                -1.617
REMARK SMILES CCCCCCC=CCCCCCCCC(=O)[O-]
REMARK SMILES IDX 10 1 11 2 12 3 13 4 14 5 15 6 16 7 17 8 18 9 9 10 8 11 7 12
REMARK SMILES IDX 6 13 5 14 4 15 3 16 2 17 1 18
REMARK H PARENT
REMARK Flexibility Score: inf
ROOT
ATOM      1  C   UNL     1       8.058  -0.792  18.046  1.00  0.00     0.004 C 
ENDROOT
BRANCH   1   2
ATOM      2  C   UNL     1       6.817   0.109  18.131  1.00  0.00     0.000 C 
BRANCH   2   3
ATOM      3  C   UNL     1       7.162   1.557  18.516  1.00  0.00     0.000 C 
BRANCH   3   4
ATOM      4  C   UNL     1       7.921   2.300  17.405  1.00  0.00     0.000 C 
BRANCH   4   5
ATOM      5  C   UNL     1       7.523   3.783  17.367  1.00  0.00     0.006 C 
BRANCH   5   6
ATOM      6  C   UNL     1       6.957   4.267  18.709  1.00  0.00     0.053 C 
BRANCH   6   7
ATOM      7  C   UNL     1       7.382   5.668  19.018  1.00  0.00     0.041 C 
ATOM      8  O   UNL     1       7.432   6.533  18.104  1.00  0.00    -0.550 OA
ATOM      9  O   UNL     1       7.693   6.028  20.324  1.00  0.00    -0.550 OA
ENDBRANCH   6   7
ENDBRANCH   5   6
ENDBRANCH   4   5
ENDBRANCH   3   4
ENDBRANCH   2   3
ENDBRANCH   1   2
BRANCH   1  10
ATOM     10  C   UNL     1       8.063  -1.596  16.740  1.00  0.00     0.027 C 
BRANCH  10  11
ATOM     11  C   UNL     1       6.916  -1.197  15.853  1.00  0.00    -0.031 C 
ATOM     12  C   UNL     1       7.034  -1.182  14.517  1.00  0.00    -0.031 C 
BRANCH  12  13
ATOM     13  C   UNL     1       5.882  -0.799  13.630  1.00  0.00     0.027 C 
BRANCH  13  14
ATOM     14  C   UNL     1       4.547  -1.279  14.221  1.00  0.00     0.004 C 
BRANCH  14  15
ATOM     15  C   UNL     1       3.551  -0.130  14.438  1.00  0.00     0.000 C 
BRANCH  15  16
ATOM     16  C   UNL     1       2.980  -0.106  15.867  1.00  0.00    -0.000 C 
BRANCH  16  17
ATOM     17  C   UNL     1       3.555   1.041  16.711  1.00  0.00    -0.003 C 
ATOM     18  C   UNL     1       4.465   1.969  15.906  1.00  0.00     0.004 C 
ENDBRANCH  16  17
ENDBRANCH  15  16
ENDBRANCH  14  15
ENDBRANCH  13  14
ENDBRANCH  12  13
ENDBRANCH  10  11
ENDBRANCH   1  10
TORSDOF 13
ENDMDL
MODEL 3
REMARK VINA RESULT:    -4.766      9.993     13.263
REMARK INTER + INTRA:         -10.006
REMARK INTER:                  -9.125
REMARK INTRA:                  -0.881
REMARK UNBOUND:                -1.617
REMARK SMILES CCCCCCC=CCCCCCCCC(=O)[O-]
REMARK SMILES IDX 10 1 11 2 12 3 13 4 14 5 15 6 16 7 17 8 18 9 9 10 8 11 7 12
REMARK SMILES IDX 6 13 5 14 4 15 3 16 2 17 1 18
REMARK H PARENT
REMARK Flexibility Score: inf
ROOT
ATOM      1  C   UNL     1      15.253  -1.926   9.261  1.00  0.00     0.004 C 
ENDROOT
BRANCH   1   2
ATOM      2  C   UNL     1      14.977  -3.021   8.219  1.00  0.00     0.000 C 
BRANCH   2   3
ATOM      3  C   UNL     1      14.313  -2.473   6.945  1.00  0.00     0.000 C 
BRANCH   3   4
ATOM      4  C   UNL     1      12.894  -3.022   6.735  1.00  0.00     0.000 C 
BRANCH   4   5
ATOM      5  C   UNL     1      11.904  -2.368   7.710  1.00  0.00     0.006 C 
BRANCH   5   6
ATOM      6  C   UNL     1      10.598  -3.163   7.832  1.00  0.00     0.053 C 
BRANCH   6   7
ATOM      7  C   UNL     1       9.673  -2.561   8.844  1.00  0.00     0.041 C 
ATOM      8  O   UNL     1       9.266  -3.245   9.819  1.00  0.00    -0.550 OA
ATOM      9  O   UNL     1       9.287  -1.231   8.729  1.00  0.00    -0.550 OA
ENDBRANCH   6   7
ENDBRANCH   5   6
ENDBRANCH   4   5
ENDBRANCH   3   4
ENDBRANCH   2   3
ENDBRANCH   1   2
BRANCH   1  10
ATOM     10  C   UNL     1      15.578  -0.591   8.579  1.00  0.00     0.027 C 
BRANCH  10  11
ATOM     11  C   UNL     1      15.140   0.572   9.426  1.00  0.00    -0.031 C 
ATOM     12  C   UNL     1      16.010   1.504   9.842  1.00  0.00    -0.031 C 
BRANCH  12  13
ATOM     13  C   UNL     1      15.568   2.675  10.675  1.00  0.00     0.027 C 
BRANCH  13  14
ATOM     14  C   UNL     1      14.720   2.214  11.870  1.00  0.00     0.004 C 
BRANCH  14  15
ATOM     15  C   UNL     1      15.228   2.777  13.207  1.00  0.00     0.000 C 
BRANCH  15  16
ATOM     16  C   UNL     1      16.312   3.852  13.020  1.00  0.00    -0.000 C 
BRANCH  16  17
ATOM     17  C   UNL     1      16.647   4.583  14.329  1.00  0.00    -0.003 C 
ATOM     18  C   UNL     1      16.025   3.915  15.555  1.00  0.00     0.004 C 
ENDBRANCH  16  17
ENDBRANCH  15  16
ENDBRANCH  14  15
ENDBRANCH  13  14
ENDBRANCH  12  13
ENDBRANCH  10  11
ENDBRANCH   1  10
TORSDOF 13
ENDMDL
MODEL 4
REMARK VINA RESULT:    -4.761      5.651      7.909
REMARK INTER + INTRA:          -9.996
REMARK INTER:                  -8.567
REMARK INTRA:                  -1.429
REMARK UNBOUND:                -1.617
REMARK SMILES CCCCCCC=CCCCCCCCC(=O)[O-]
REMARK SMILES IDX 10 1 11 2 12 3 13 4 14 5 15 6 16 7 17 8 18 9 9 10 8 11 7 12
REMARK SMILES IDX 6 13 5 14 4 15 3 16 2 17 1 18
REMARK H PARENT
REMARK Flexibility Score: inf
ROOT
ATOM      1  C   UNL     1       3.588   0.374  16.600  1.00  0.00     0.004 C 
ENDROOT
BRANCH   1   2
ATOM      2  C   UNL     1       3.173  -0.360  15.316  1.00  0.00     0.000 C 
BRANCH   2   3
ATOM      3  C   UNL     1       4.191  -0.185  14.178  1.00  0.00     0.000 C 
BRANCH   3   4
ATOM      4  C   UNL     1       5.073  -1.427  13.977  1.00  0.00     0.000 C 
BRANCH   4   5
ATOM      5  C   UNL     1       6.243  -1.120  13.031  1.00  0.00     0.006 C 
BRANCH   5   6
ATOM      6  C   UNL     1       5.802  -1.057  11.563  1.00  0.00     0.053 C 
BRANCH   6   7
ATOM      7  C   UNL     1       6.702  -1.862  10.677  1.00  0.00     0.041 C 
ATOM      8  O   UNL     1       7.624  -1.300  10.029  1.00  0.00    -0.550 OA
ATOM      9  O   UNL     1       6.543  -3.240  10.594  1.00  0.00    -0.550 OA
ENDBRANCH   6   7
ENDBRANCH   5   6
ENDBRANCH   4   5
ENDBRANCH   3   4
ENDBRANCH   2   3
ENDBRANCH   1   2
BRANCH   1  10
ATOM     10  C   UNL     1       4.557   1.521  16.286  1.00  0.00     0.027 C 
BRANCH  10  11
ATOM     11  C   UNL     1       5.784   1.448  17.151  1.00  0.00    -0.031 C 
ATOM     12  C   UNL     1       6.203   0.287  17.678  1.00  0.00    -0.031 C 
BRANCH  12  13
ATOM     13  C   UNL     1       7.439   0.212  18.530  1.00  0.00     0.027 C 
BRANCH  13  14
ATOM     14  C   UNL     1       8.314  -0.987  18.129  1.00  0.00     0.004 C 
BRANCH  14  15
ATOM     15  C   UNL     1       8.345  -1.212  16.609  1.00  0.00     0.000 C 
BRANCH  15  16
ATOM     16  C   UNL     1       8.053  -2.672  16.222  1.00  0.00    -0.000 C 
BRANCH  16  17
ATOM     17  C   UNL     1       9.211  -3.617  16.579  1.00  0.00    -0.003 C 
ATOM     18  C   UNL     1       8.862  -4.574  17.718  1.00  0.00     0.004 C 
ENDBRANCH  16  17
ENDBRANCH  15  16
ENDBRANCH  14  15
ENDBRANCH  13  14
ENDBRANCH  12  13
ENDBRANCH  10  11
ENDBRANCH   1  10
TORSDOF 13
ENDMDL
MODEL 5
REMARK VINA RESULT:    -4.742      9.344     11.455
REMARK INTER + INTRA:          -9.962
REMARK INTER:                  -9.037
REMARK INTRA:                  -0.925
REMARK UNBOUND:                -1.617
REMARK SMILES CCCCCCC=CCCCCCCCC(=O)[O-]
REMARK SMILES IDX 10 1 11 2 12 3 13 4 14 5 15 6 16 7 17 8 18 9 9 10 8 11 7 12
REMARK SMILES IDX 6 13 5 14 4 15 3 16 2 17 1 18
REMARK H PARENT
REMARK Flexibility Score: inf
ROOT
ATOM      1  C   UNL     1      14.336   3.436   7.152  1.00  0.00     0.004 C 
ENDROOT
BRANCH   1   2
ATOM      2  C   UNL     1      13.205   4.400   7.542  1.00  0.00     0.000 C 
BRANCH   2   3
ATOM      3  C   UNL     1      13.325   4.898   8.992  1.00  0.00     0.000 C 
BRANCH   3   4
ATOM      4  C   UNL     1      12.578   6.220   9.227  1.00  0.00     0.000 C 
BRANCH   4   5
ATOM      5  C   UNL     1      11.198   5.965   9.849  1.00  0.00     0.006 C 
BRANCH   5   6
ATOM      6  C   UNL     1      11.267   5.812  11.374  1.00  0.00     0.053 C 
BRANCH   6   7
ATOM      7  C   UNL     1      10.451   6.853  12.075  1.00  0.00     0.041 C 
ATOM      8  O   UNL     1      10.940   7.987  12.318  1.00  0.00    -0.550 OA
ATOM      9  O   UNL     1       9.135   6.582  12.430  1.00  0.00    -0.550 OA
ENDBRANCH   6   7
ENDBRANCH   5   6
ENDBRANCH   4   5
ENDBRANCH   3   4
ENDBRANCH   2   3
ENDBRANCH   1   2
BRANCH   1  10
ATOM     10  C   UNL     1      13.835   1.986   7.125  1.00  0.00     0.027 C 
BRANCH  10  11
ATOM     11  C   UNL     1      14.524   1.154   8.171  1.00  0.00    -0.031 C 
ATOM     12  C   UNL     1      15.254   1.716   9.147  1.00  0.00    -0.031 C 
BRANCH  12  13
ATOM     13  C   UNL     1      15.929   0.885  10.202  1.00  0.00     0.027 C 
BRANCH  13  14
ATOM     14  C   UNL     1      15.660   1.449  11.605  1.00  0.00     0.004 C 
BRANCH  14  15
ATOM     15  C   UNL     1      16.428   2.752  11.875  1.00  0.00     0.000 C 
BRANCH  15  16
ATOM     16  C   UNL     1      15.646   3.724  12.775  1.00  0.00    -0.000 C 
BRANCH  16  17
ATOM     17  C   UNL     1      16.525   4.350  13.867  1.00  0.00    -0.003 C 
ATOM     18  C   UNL     1      17.994   4.449  13.460  1.00  0.00     0.004 C 
ENDBRANCH  16  17
ENDBRANCH  15  16
ENDBRANCH  14  15
ENDBRANCH  13  14
ENDBRANCH  12  13
ENDBRANCH  10  11
ENDBRANCH   1  10
TORSDOF 13
ENDMDL
MODEL 6
REMARK VINA RESULT:    -4.731     12.661     14.236
REMARK INTER + INTRA:          -9.943
REMARK INTER:                  -7.509
REMARK INTRA:                  -2.434
REMARK UNBOUND:                -1.617
REMARK SMILES CCCCCCC=CCCCCCCCC(=O)[O-]
REMARK SMILES IDX 10 1 11 2 12 3 13 4 14 5 15 6 16 7 17 8 18 9 9 10 8 11 7 12
REMARK SMILES IDX 6 13 5 14 4 15 3 16 2 17 1 18
REMARK H PARENT
REMARK Flexibility Score: inf
ROOT
ATOM      1  C   UNL     1      21.479  -1.116  24.030  1.00  0.00     0.004 C 
ENDROOT
BRANCH   1   2
ATOM      2  C   UNL     1      20.697   0.206  24.028  1.00  0.00     0.000 C 
BRANCH   2   3
ATOM      3  C   UNL     1      19.751   0.333  22.822  1.00  0.00     0.000 C 
BRANCH   3   4
ATOM      4  C   UNL     1      18.803  -0.869  22.685  1.00  0.00     0.000 C 
BRANCH   4   5
ATOM      5  C   UNL     1      17.548  -0.678  23.549  1.00  0.00     0.006 C 
BRANCH   5   6
ATOM      6  C   UNL     1      17.448  -1.724  24.667  1.00  0.00     0.053 C 
BRANCH   6   7
ATOM      7  C   UNL     1      16.498  -2.826  24.312  1.00  0.00     0.041 C 
ATOM      8  O   UNL     1      15.750  -2.720  23.305  1.00  0.00    -0.550 OA
ATOM      9  O   UNL     1      16.463  -3.986  25.077  1.00  0.00    -0.550 OA
ENDBRANCH   6   7
ENDBRANCH   5   6
ENDBRANCH   4   5
ENDBRANCH   3   4
ENDBRANCH   2   3
ENDBRANCH   1   2
BRANCH   1  10
ATOM     10  C   UNL     1      22.652  -1.060  23.044  1.00  0.00     0.027 C 
BRANCH  10  11
ATOM     11  C   UNL     1      22.707  -2.299  22.194  1.00  0.00    -0.031 C 
ATOM     12  C   UNL     1      21.690  -2.645  21.391  1.00  0.00    -0.031 C 
BRANCH  12  13
ATOM     13  C   UNL     1      21.752  -3.875  20.529  1.00  0.00     0.027 C 
BRANCH  13  14
ATOM     14  C   UNL     1      20.504  -4.750  20.725  1.00  0.00     0.004 C 
BRANCH  14  15
ATOM     15  C   UNL     1      19.587  -4.227  21.842  1.00  0.00     0.000 C 
BRANCH  15  16
ATOM     16  C   UNL     1      19.590  -5.137  23.082  1.00  0.00    -0.000 C 
BRANCH  16  17
ATOM     17  C   UNL     1      19.995  -4.388  24.360  1.00  0.00    -0.003 C 
ATOM     18  C   UNL     1      21.390  -4.771  24.854  1.00  0.00     0.004 C 
ENDBRANCH  16  17
ENDBRANCH  15  16
ENDBRANCH  14  15
ENDBRANCH  13  14
ENDBRANCH  12  13
ENDBRANCH  10  11
ENDBRANCH   1  10
TORSDOF 13
ENDMDL
MODEL 7
REMARK VINA RESULT:    -4.722     11.134     14.455
REMARK INTER + INTRA:          -9.928
REMARK INTER:                  -9.091
REMARK INTRA:                  -0.837
REMARK UNBOUND:                -1.617
REMARK SMILES CCCCCCC=CCCCCCCCC(=O)[O-]
REMARK SMILES IDX 10 1 11 2 12 3 13 4 14 5 15 6 16 7 17 8 18 9 9 10 8 11 7 12
REMARK SMILES IDX 6 13 5 14 4 15 3 16 2 17 1 18
REMARK H PARENT
REMARK Flexibility Score: inf
ROOT
ATOM      1  C   UNL     1      13.543   1.218   7.035  1.00  0.00     0.004 C 
ENDROOT
BRANCH   1   2
ATOM      2  C   UNL     1      13.423  -0.072   7.860  1.00  0.00     0.000 C 
BRANCH   2   3
ATOM      3  C   UNL     1      13.929  -1.310   7.102  1.00  0.00     0.000 C 
BRANCH   3   4
ATOM      4  C   UNL     1      14.562  -2.356   8.032  1.00  0.00     0.000 C 
BRANCH   4   5
ATOM      5  C   UNL     1      14.715  -3.705   7.315  1.00  0.00     0.006 C 
BRANCH   5   6
ATOM      6  C   UNL     1      16.125  -3.902   6.742  1.00  0.00     0.053 C 
BRANCH   6   7
ATOM      7  C   UNL     1      17.115  -4.249   7.810  1.00  0.00     0.041 C 
ATOM      8  O   UNL     1      18.241  -3.687   7.839  1.00  0.00    -0.550 OA
ATOM      9  O   UNL     1      16.781  -5.170   8.795  1.00  0.00    -0.550 OA
ENDBRANCH   6   7
ENDBRANCH   5   6
ENDBRANCH   4   5
ENDBRANCH   3   4
ENDBRANCH   2   3
ENDBRANCH   1   2
BRANCH   1  10
ATOM     10  C   UNL     1      14.536   2.191   7.682  1.00  0.00     0.027 C 
BRANCH  10  11
ATOM     11  C   UNL     1      14.651   1.945   9.161  1.00  0.00    -0.031 C 
ATOM     12  C   UNL     1      15.837   1.707   9.743  1.00  0.00    -0.031 C 
BRANCH  12  13
ATOM     13  C   UNL     1      15.953   1.478  11.224  1.00  0.00     0.027 C 
BRANCH  13  14
ATOM     14  C   UNL     1      16.760   2.601  11.895  1.00  0.00     0.004 C 
BRANCH  14  15
ATOM     15  C   UNL     1      15.865   3.725  12.439  1.00  0.00     0.000 C 
BRANCH  15  16
ATOM     16  C   UNL     1      14.994   3.266  13.621  1.00  0.00    -0.000 C 
BRANCH  16  17
ATOM     17  C   UNL     1      15.641   3.571  14.981  1.00  0.00    -0.003 C 
ATOM     18  C   UNL     1      16.858   4.487  14.865  1.00  0.00     0.004 C 
ENDBRANCH  16  17
ENDBRANCH  15  16
ENDBRANCH  14  15
ENDBRANCH  13  14
ENDBRANCH  12  13
ENDBRANCH  10  11
ENDBRANCH   1  10
TORSDOF 13
ENDMDL
MODEL 8
REMARK VINA RESULT:    -4.637     12.356     14.301
REMARK INTER + INTRA:          -9.777
REMARK INTER:                  -7.440
REMARK INTRA:                  -2.337
REMARK UNBOUND:                -1.617
REMARK SMILES CCCCCCC=CCCCCCCCC(=O)[O-]
REMARK SMILES IDX 10 1 11 2 12 3 13 4 14 5 15 6 16 7 17 8 18 9 9 10 8 11 7 12
REMARK SMILES IDX 6 13 5 14 4 15 3 16 2 17 1 18
REMARK H PARENT
REMARK Flexibility Score: inf
ROOT
ATOM      1  C   UNL     1      21.814  -4.420  22.135  1.00  0.00     0.004 C 
ENDROOT
BRANCH   1   2
ATOM      2  C   UNL     1      20.408  -4.700  21.583  1.00  0.00     0.000 C 
BRANCH   2   3
ATOM      3  C   UNL     1      19.474  -5.326  22.632  1.00  0.00     0.000 C 
BRANCH   3   4
ATOM      4  C   UNL     1      18.288  -4.416  22.985  1.00  0.00     0.000 C 
BRANCH   4   5
ATOM      5  C   UNL     1      18.685  -3.390  24.056  1.00  0.00     0.006 C 
BRANCH   5   6
ATOM      6  C   UNL     1      17.886  -3.564  25.354  1.00  0.00     0.053 C 
BRANCH   6   7
ATOM      7  C   UNL     1      16.545  -2.902  25.274  1.00  0.00     0.041 C 
ATOM      8  O   UNL     1      15.493  -3.592  25.298  1.00  0.00    -0.550 OA
ATOM      9  O   UNL     1      16.458  -1.516  25.205  1.00  0.00    -0.550 OA
ENDBRANCH   6   7
ENDBRANCH   5   6
ENDBRANCH   4   5
ENDBRANCH   3   4
ENDBRANCH   2   3
ENDBRANCH   1   2
BRANCH   1  10
ATOM     10  C   UNL     1      22.446  -3.210  21.436  1.00  0.00     0.027 C 
BRANCH  10  11
ATOM     11  C   UNL     1      22.143  -1.937  22.176  1.00  0.00    -0.031 C 
ATOM     12  C   UNL     1      21.980  -1.920  23.507  1.00  0.00    -0.031 C 
BRANCH  12  13
ATOM     13  C   UNL     1      21.693  -0.643  24.248  1.00  0.00     0.027 C 
BRANCH  13  14
ATOM     14  C   UNL     1      20.799   0.289  23.416  1.00  0.00     0.004 C 
BRANCH  14  15
ATOM     15  C   UNL     1      19.311   0.153  23.775  1.00  0.00     0.000 C 
BRANCH  15  16
ATOM     16  C   UNL     1      18.395   0.255  22.543  1.00  0.00    -0.000 C 
BRANCH  16  17
ATOM     17  C   UNL     1      19.134  -0.062  21.234  1.00  0.00    -0.003 C 
ATOM     18  C   UNL     1      18.817  -1.458  20.700  1.00  0.00     0.004 C 
ENDBRANCH  16  17
ENDBRANCH  15  16
ENDBRANCH  14  15
ENDBRANCH  13  14
ENDBRANCH  12  13
ENDBRANCH  10  11
ENDBRANCH   1  10
TORSDOF 13
ENDMDL
MODEL 9
REMARK VINA RESULT:    -4.612     12.478     14.684
REMARK INTER + INTRA:          -9.734
REMARK INTER:                  -7.092
REMARK INTRA:                  -2.643
REMARK UNBOUND:                -1.617
REMARK SMILES CCCCCCC=CCCCCCCCC(=O)[O-]
REMARK SMILES IDX 10 1 11 2 12 3 13 4 14 5 15 6 16 7 17 8 18 9 9 10 8 11 7 12
REMARK SMILES IDX 6 13 5 14 4 15 3 16 2 17 1 18
REMARK H PARENT
REMARK Flexibility Score: inf
ROOT
ATOM      1  C   UNL     1      21.391  -4.348  23.708  1.00  0.00     0.004 C 
ENDROOT
BRANCH   1   2
ATOM      2  C   UNL     1      19.914  -4.763  23.793  1.00  0.00     0.000 C 
BRANCH   2   3
ATOM      3  C   UNL     1      19.410  -5.430  22.503  1.00  0.00     0.000 C 
BRANCH   3   4
ATOM      4  C   UNL     1      18.418  -4.548  21.729  1.00  0.00     0.000 C 
BRANCH   4   5
ATOM      5  C   UNL     1      18.946  -4.236  20.322  1.00  0.00     0.006 C 
BRANCH   5   6
ATOM      6  C   UNL     1      19.600  -2.850  20.240  1.00  0.00     0.053 C 
BRANCH   6   7
ATOM      7  C   UNL     1      20.971  -2.917  19.642  1.00  0.00     0.041 C 
ATOM      8  O   UNL     1      21.228  -2.304  18.573  1.00  0.00    -0.550 OA
ATOM      9  O   UNL     1      21.975  -3.631  20.285  1.00  0.00    -0.550 OA
ENDBRANCH   6   7
ENDBRANCH   5   6
ENDBRANCH   4   5
ENDBRANCH   3   4
ENDBRANCH   2   3
ENDBRANCH   1   2
BRANCH   1  10
ATOM     10  C   UNL     1      21.530  -2.821  23.677  1.00  0.00     0.027 C 
BRANCH  10  11
ATOM     11  C   UNL     1      20.203  -2.150  23.896  1.00  0.00    -0.031 C 
ATOM     12  C   UNL     1      19.882  -1.007  23.271  1.00  0.00    -0.031 C 
BRANCH  12  13
ATOM     13  C   UNL     1      18.548  -0.345  23.479  1.00  0.00     0.027 C 
BRANCH  13  14
ATOM     14  C   UNL     1      17.435  -1.105  22.740  1.00  0.00     0.004 C 
BRANCH  14  15
ATOM     15  C   UNL     1      16.384  -1.689  23.698  1.00  0.00     0.000 C 
BRANCH  15  16
ATOM     16  C   UNL     1      16.821  -1.611  25.171  1.00  0.00    -0.000 C 
BRANCH  16  17
ATOM     17  C   UNL     1      17.170  -2.989  25.754  1.00  0.00    -0.003 C 
ATOM     18  C   UNL     1      16.476  -4.135  25.018  1.00  0.00     0.004 C 
ENDBRANCH  16  17
ENDBRANCH  15  16
ENDBRANCH  14  15
ENDBRANCH  13  14
ENDBRANCH  12  13
ENDBRANCH  10  11
ENDBRANCH   1  10
TORSDOF 13
ENDMDL
