MODEL 1
REMARK VINA RESULT:    -5.455      0.000      0.000
REMARK INTER + INTRA:          -6.692
REMARK INTER:                  -6.411
REMARK INTRA:                  -0.281
REMARK UNBOUND:                -0.281
REMARK SMILES O=c1c(O)c(-c2ccc(O)cc2)oc2cc(O)cc(O)c12
REMARK SMILES IDX 5 1 3 2 2 3 1 4 21 5 19 6 18 7 16 8 15 9 14 10 13 11 6 12
REMARK SMILES IDX 7 13 8 14 9 15 12 16 11 17 10 18 4 20 20 22 17 24
REMARK H PARENT 10 19 4 21 20 23 17 25
REMARK Flexibility Score: inf
ROOT
ATOM      1  C   UNL     1      43.141  18.565  -2.870  1.00  0.00     0.180 A 
ATOM      2  C   UNL     1      43.596  19.062  -4.104  1.00  0.00     0.208 A 
ATOM      3  C   UNL     1      44.571  18.340  -4.811  1.00  0.00     0.238 A 
ATOM      4  O   UNL     1      44.934  18.762  -5.941  1.00  0.00    -0.285 OA
ATOM      5  C   UNL     1      45.092  17.141  -4.269  1.00  0.00     0.111 A 
ATOM      6  C   UNL     1      46.111  16.350  -4.879  1.00  0.00     0.134 A 
ATOM      7  C   UNL     1      46.456  15.115  -4.317  1.00  0.00     0.093 A 
ATOM      8  C   UNL     1      45.865  14.672  -3.131  1.00  0.00     0.123 A 
ATOM      9  C   UNL     1      44.912  15.464  -2.496  1.00  0.00     0.094 A 
ATOM     10  C   UNL     1      44.521  16.685  -3.052  1.00  0.00     0.146 A 
ATOM     11  O   UNL     1      43.601  17.404  -2.419  1.00  0.00    -0.452 OA
ENDROOT
BRANCH   1  12
ATOM     12  C   UNL     1      42.133  19.281  -2.056  1.00  0.00     0.021 A 
ATOM     13  C   UNL     1      42.544  20.322  -1.206  1.00  0.00     0.016 A 
ATOM     14  C   UNL     1      41.606  21.027  -0.445  1.00  0.00     0.047 A 
ATOM     15  C   UNL     1      40.248  20.712  -0.534  1.00  0.00     0.115 A 
ATOM     16  C   UNL     1      40.762  18.983  -2.157  1.00  0.00     0.016 A 
ATOM     17  C   UNL     1      39.826  19.691  -1.396  1.00  0.00     0.047 A 
BRANCH  15  18
ATOM     18  O   UNL     1      39.324  21.422   0.230  1.00  0.00    -0.508 OA
ATOM     19  H   UNL     1      39.599  21.912   1.073  1.00  0.00     0.293 HD
ENDBRANCH  15  18
ENDBRANCH   1  12
BRANCH   2  20
ATOM     20  O   UNL     1      43.052  20.236  -4.633  1.00  0.00    -0.502 OA
ATOM     21  H   UNL     1      42.632  20.275  -5.554  1.00  0.00     0.293 HD
ENDBRANCH   2  20
BRANCH   6  22
ATOM     22  O   UNL     1      46.829  16.743  -6.012  1.00  0.00    -0.507 OA
ATOM     23  H   UNL     1      47.770  16.453  -6.227  1.00  0.00     0.293 HD
ENDBRANCH   6  22
BRANCH   8  24
ATOM     24  O   UNL     1      46.226  13.448  -2.571  1.00  0.00    -0.508 OA
ATOM     25  H   UNL     1      45.584  12.665  -2.552  1.00  0.00     0.293 HD
ENDBRANCH   8  24
TORSDOF 5
ENDMDL
MODEL 2
REMARK VINA RESULT:    -5.088      2.478      4.858
REMARK INTER + INTRA:          -6.262
REMARK INTER:                  -6.285
REMARK INTRA:                   0.023
REMARK UNBOUND:                -0.281
REMARK SMILES O=c1c(O)c(-c2ccc(O)cc2)oc2cc(O)cc(O)c12
REMARK SMILES IDX 5 1 3 2 2 3 1 4 21 5 19 6 18 7 16 8 15 9 14 10 13 11 6 12
REMARK SMILES IDX 7 13 8 14 9 15 12 16 11 17 10 18 4 20 20 22 17 24
REMARK H PARENT 10 19 4 21 20 23 17 25
REMARK Flexibility Score: inf
ROOT
ATOM      1  C   UNL     1      45.500  15.737  -3.495  1.00  0.00     0.180 A 
ATOM      2  C   UNL     1      44.884  14.553  -3.053  1.00  0.00     0.208 A 
ATOM      3  C   UNL     1      45.657  13.387  -2.936  1.00  0.00     0.238 A 
ATOM      4  O   UNL     1      45.113  12.343  -2.488  1.00  0.00    -0.285 OA
ATOM      5  C   UNL     1      47.031  13.414  -3.277  1.00  0.00     0.111 A 
ATOM      6  C   UNL     1      47.900  12.282  -3.235  1.00  0.00     0.134 A 
ATOM      7  C   UNL     1      49.269  12.454  -3.469  1.00  0.00     0.093 A 
ATOM      8  C   UNL     1      49.791  13.705  -3.809  1.00  0.00     0.123 A 
ATOM      9  C   UNL     1      48.942  14.804  -3.910  1.00  0.00     0.094 A 
ATOM     10  C   UNL     1      47.576  14.671  -3.647  1.00  0.00     0.146 A 
ATOM     11  O   UNL     1      46.803  15.747  -3.745  1.00  0.00    -0.452 OA
ENDROOT
BRANCH   1  12
ATOM     12  C   UNL     1      44.745  16.999  -3.668  1.00  0.00     0.021 A 
ATOM     13  C   UNL     1      44.005  17.516  -2.591  1.00  0.00     0.016 A 
ATOM     14  C   UNL     1      43.304  18.718  -2.725  1.00  0.00     0.047 A 
ATOM     15  C   UNL     1      43.346  19.426  -3.929  1.00  0.00     0.115 A 
ATOM     16  C   UNL     1      44.801  17.728  -4.870  1.00  0.00     0.016 A 
ATOM     17  C   UNL     1      44.100  18.931  -5.001  1.00  0.00     0.047 A 
BRANCH  15  18
ATOM     18  O   UNL     1      42.642  20.623  -4.049  1.00  0.00    -0.508 OA
ATOM     19  H   UNL     1      42.082  20.828  -4.867  1.00  0.00     0.293 HD
ENDBRANCH  15  18
ENDBRANCH   1  12
BRANCH   2  20
ATOM     20  O   UNL     1      43.532  14.553  -2.699  1.00  0.00    -0.502 OA
ATOM     21  H   UNL     1      43.215  14.757  -1.759  1.00  0.00     0.293 HD
ENDBRANCH   2  20
BRANCH   6  22
ATOM     22  O   UNL     1      47.466  10.975  -2.997  1.00  0.00    -0.507 OA
ATOM     23  H   UNL     1      47.134  10.631  -2.109  1.00  0.00     0.293 HD
ENDBRANCH   6  22
BRANCH   8  24
ATOM     24  O   UNL     1      51.153  13.864  -4.055  1.00  0.00    -0.508 OA
ATOM     25  H   UNL     1      51.491  14.485  -4.781  1.00  0.00     0.293 HD
ENDBRANCH   8  24
TORSDOF 5
ENDMDL
MODEL 3
REMARK VINA RESULT:    -4.965      1.957      6.818
REMARK INTER + INTRA:          -6.117
REMARK INTER:                  -5.817
REMARK INTRA:                  -0.300
REMARK UNBOUND:                -0.281
REMARK SMILES O=c1c(O)c(-c2ccc(O)cc2)oc2cc(O)cc(O)c12
REMARK SMILES IDX 5 1 3 2 2 3 1 4 21 5 19 6 18 7 16 8 15 9 14 10 13 11 6 12
REMARK SMILES IDX 7 13 8 14 9 15 12 16 11 17 10 18 4 20 20 22 17 24
REMARK H PARENT 10 19 4 21 20 23 17 25
REMARK Flexibility Score: inf
ROOT
ATOM      1  C   UNL     1      43.764  17.529  -3.843  1.00  0.00     0.180 A 
ATOM      2  C   UNL     1      42.668  16.687  -4.100  1.00  0.00     0.208 A 
ATOM      3  C   UNL     1      41.427  16.990  -3.519  1.00  0.00     0.238 A 
ATOM      4  O   UNL     1      40.436  16.263  -3.796  1.00  0.00    -0.285 OA
ATOM      5  C   UNL     1      41.299  18.119  -2.675  1.00  0.00     0.111 A 
ATOM      6  C   UNL     1      40.100  18.497  -2.001  1.00  0.00     0.134 A 
ATOM      7  C   UNL     1      40.055  19.706  -1.296  1.00  0.00     0.093 A 
ATOM      8  C   UNL     1      41.187  20.518  -1.186  1.00  0.00     0.123 A 
ATOM      9  C   UNL     1      42.379  20.128  -1.791  1.00  0.00     0.094 A 
ATOM     10  C   UNL     1      42.444  18.945  -2.531  1.00  0.00     0.146 A 
ATOM     11  O   UNL     1      43.598  18.616  -3.100  1.00  0.00    -0.452 OA
ENDROOT
BRANCH   1  12
ATOM     12  C   UNL     1      45.110  17.261  -4.400  1.00  0.00     0.021 A 
ATOM     13  C   UNL     1      45.502  17.889  -5.594  1.00  0.00     0.016 A 
ATOM     14  C   UNL     1      46.777  17.669  -6.125  1.00  0.00     0.047 A 
ATOM     15  C   UNL     1      47.679  16.832  -5.464  1.00  0.00     0.115 A 
ATOM     16  C   UNL     1      46.031  16.436  -3.728  1.00  0.00     0.016 A 
ATOM     17  C   UNL     1      47.305  16.219  -4.261  1.00  0.00     0.047 A 
BRANCH  15  18
ATOM     18  O   UNL     1      48.946  16.621  -6.005  1.00  0.00    -0.508 OA
ATOM     19  H   UNL     1      49.337  15.690  -6.088  1.00  0.00     0.293 HD
ENDBRANCH  15  18
ENDBRANCH   1  12
BRANCH   2  20
ATOM     20  O   UNL     1      42.809  15.590  -4.954  1.00  0.00    -0.502 OA
ATOM     21  H   UNL     1      42.044  14.959  -5.161  1.00  0.00     0.293 HD
ENDBRANCH   2  20
BRANCH   6  22
ATOM     22  O   UNL     1      38.943  17.713  -1.970  1.00  0.00    -0.507 OA
ATOM     23  H   UNL     1      38.103  17.946  -1.463  1.00  0.00     0.293 HD
ENDBRANCH   6  22
BRANCH   8  24
ATOM     24  O   UNL     1      41.137  21.712  -0.470  1.00  0.00    -0.508 OA
ATOM     25  H   UNL     1      40.355  21.936   0.133  1.00  0.00     0.293 HD
ENDBRANCH   8  24
TORSDOF 5
ENDMDL
MODEL 4
REMARK VINA RESULT:    -4.924      2.207      7.114
REMARK INTER + INTRA:          -6.068
REMARK INTER:                  -6.012
REMARK INTRA:                  -0.056
REMARK UNBOUND:                -0.281
REMARK SMILES O=c1c(O)c(-c2ccc(O)cc2)oc2cc(O)cc(O)c12
REMARK SMILES IDX 5 1 3 2 2 3 1 4 21 5 19 6 18 7 16 8 15 9 14 10 13 11 6 12
REMARK SMILES IDX 7 13 8 14 9 15 12 16 11 17 10 18 4 20 20 22 17 24
REMARK H PARENT 10 19 4 21 20 23 17 25
REMARK Flexibility Score: inf
ROOT
ATOM      1  C   UNL     1      45.634  16.459  -3.774  1.00  0.00     0.180 A 
ATOM      2  C   UNL     1      44.933  15.266  -3.521  1.00  0.00     0.208 A 
ATOM      3  C   UNL     1      43.667  15.336  -2.919  1.00  0.00     0.238 A 
ATOM      4  O   UNL     1      43.022  14.269  -2.744  1.00  0.00    -0.285 OA
ATOM      5  C   UNL     1      43.124  16.593  -2.561  1.00  0.00     0.111 A 
ATOM      6  C   UNL     1      41.867  16.778  -1.909  1.00  0.00     0.134 A 
ATOM      7  C   UNL     1      41.372  18.074  -1.721  1.00  0.00     0.093 A 
ATOM      8  C   UNL     1      42.116  19.193  -2.103  1.00  0.00     0.123 A 
ATOM      9  C   UNL     1      43.369  19.024  -2.685  1.00  0.00     0.094 A 
ATOM     10  C   UNL     1      43.875  17.743  -2.919  1.00  0.00     0.146 A 
ATOM     11  O   UNL     1      45.070  17.626  -3.487  1.00  0.00    -0.452 OA
ENDROOT
BRANCH   1  12
ATOM     12  C   UNL     1      46.983  16.466  -4.383  1.00  0.00     0.021 A 
ATOM     13  C   UNL     1      47.228  17.262  -5.514  1.00  0.00     0.016 A 
ATOM     14  C   UNL     1      48.501  17.301  -6.092  1.00  0.00     0.047 A 
ATOM     15  C   UNL     1      49.547  16.558  -5.539  1.00  0.00     0.115 A 
ATOM     16  C   UNL     1      48.046  15.737  -3.819  1.00  0.00     0.016 A 
ATOM     17  C   UNL     1      49.318  15.778  -4.398  1.00  0.00     0.047 A 
BRANCH  15  18
ATOM     18  O   UNL     1      50.810  16.606  -6.125  1.00  0.00    -0.508 OA
ATOM     19  H   UNL     1      51.497  17.296  -5.847  1.00  0.00     0.293 HD
ENDBRANCH  15  18
ENDBRANCH   1  12
BRANCH   2  20
ATOM     20  O   UNL     1      45.477  14.037  -3.902  1.00  0.00    -0.502 OA
ATOM     21  H   UNL     1      46.298  13.643  -3.457  1.00  0.00     0.293 HD
ENDBRANCH   2  20
BRANCH   6  22
ATOM     22  O   UNL     1      41.089  15.732  -1.407  1.00  0.00    -0.507 OA
ATOM     23  H   UNL     1      41.376  14.766  -1.371  1.00  0.00     0.293 HD
ENDBRANCH   6  22
BRANCH   8  24
ATOM     24  O   UNL     1      41.621  20.480  -1.898  1.00  0.00    -0.508 OA
ATOM     25  H   UNL     1      42.209  21.222  -1.538  1.00  0.00     0.293 HD
ENDBRANCH   8  24
TORSDOF 5
ENDMDL
MODEL 5
REMARK VINA RESULT:    -4.879      2.109      7.101
REMARK INTER + INTRA:          -6.015
REMARK INTER:                  -6.058
REMARK INTRA:                   0.043
REMARK UNBOUND:                -0.281
REMARK SMILES O=c1c(O)c(-c2ccc(O)cc2)oc2cc(O)cc(O)c12
REMARK SMILES IDX 5 1 3 2 2 3 1 4 21 5 19 6 18 7 16 8 15 9 14 10 13 11 6 12
REMARK SMILES IDX 7 13 8 14 9 15 12 16 11 17 10 18 4 20 20 22 17 24
REMARK H PARENT 10 19 4 21 20 23 17 25
REMARK Flexibility Score: inf
ROOT
ATOM      1  C   UNL     1      44.580  15.865  -2.888  1.00  0.00     0.180 A 
ATOM      2  C   UNL     1      43.393  15.116  -2.801  1.00  0.00     0.208 A 
ATOM      3  C   UNL     1      42.175  15.791  -2.624  1.00  0.00     0.238 A 
ATOM      4  O   UNL     1      41.110  15.119  -2.601  1.00  0.00    -0.285 OA
ATOM      5  C   UNL     1      42.159  17.203  -2.520  1.00  0.00     0.111 A 
ATOM      6  C   UNL     1      40.986  17.986  -2.300  1.00  0.00     0.134 A 
ATOM      7  C   UNL     1      41.071  19.383  -2.344  1.00  0.00     0.093 A 
ATOM      8  C   UNL     1      42.298  20.025  -2.536  1.00  0.00     0.123 A 
ATOM      9  C   UNL     1      43.456  19.269  -2.692  1.00  0.00     0.094 A 
ATOM     10  C   UNL     1      43.398  17.873  -2.689  1.00  0.00     0.146 A 
ATOM     11  O   UNL     1      44.526  17.191  -2.852  1.00  0.00    -0.452 OA
ENDROOT
BRANCH   1  12
ATOM     12  C   UNL     1      45.905  15.224  -3.049  1.00  0.00     0.021 A 
ATOM     13  C   UNL     1      46.818  15.746  -3.981  1.00  0.00     0.016 A 
ATOM     14  C   UNL     1      48.083  15.171  -4.133  1.00  0.00     0.047 A 
ATOM     15  C   UNL     1      48.457  14.078  -3.348  1.00  0.00     0.115 A 
ATOM     16  C   UNL     1      46.296  14.136  -2.247  1.00  0.00     0.016 A 
ATOM     17  C   UNL     1      47.563  13.563  -2.401  1.00  0.00     0.047 A 
BRANCH  15  18
ATOM     18  O   UNL     1      49.721  13.514  -3.511  1.00  0.00    -0.508 OA
ATOM     19  H   UNL     1      49.881  12.751  -4.157  1.00  0.00     0.293 HD
ENDBRANCH  15  18
ENDBRANCH   1  12
BRANCH   2  20
ATOM     20  O   UNL     1      43.428  13.725  -2.928  1.00  0.00    -0.502 OA
ATOM     21  H   UNL     1      42.784  13.117  -2.437  1.00  0.00     0.293 HD
ENDBRANCH   2  20
BRANCH   6  22
ATOM     22  O   UNL     1      39.731  17.446  -2.007  1.00  0.00    -0.507 OA
ATOM     23  H   UNL     1      39.408  16.541  -2.314  1.00  0.00     0.293 HD
ENDBRANCH   6  22
BRANCH   8  24
ATOM     24  O   UNL     1      42.375  21.416  -2.563  1.00  0.00    -0.508 OA
ATOM     25  H   UNL     1      41.549  21.994  -2.462  1.00  0.00     0.293 HD
ENDBRANCH   8  24
TORSDOF 5
ENDMDL
MODEL 6
REMARK VINA RESULT:    -4.798      2.352      3.791
REMARK INTER + INTRA:          -5.921
REMARK INTER:                  -5.907
REMARK INTRA:                  -0.013
REMARK UNBOUND:                -0.281
REMARK SMILES O=c1c(O)c(-c2ccc(O)cc2)oc2cc(O)cc(O)c12
REMARK SMILES IDX 5 1 3 2 2 3 1 4 21 5 19 6 18 7 16 8 15 9 14 10 13 11 6 12
REMARK SMILES IDX 7 13 8 14 9 15 12 16 11 17 10 18 4 20 20 22 17 24
REMARK H PARENT 10 19 4 21 20 23 17 25
REMARK Flexibility Score: inf
ROOT
ATOM      1  C   UNL     1      45.431  16.157  -3.562  1.00  0.00     0.180 A 
ATOM      2  C   UNL     1      46.127  16.940  -4.500  1.00  0.00     0.208 A 
ATOM      3  C   UNL     1      47.441  16.581  -4.844  1.00  0.00     0.238 A 
ATOM      4  O   UNL     1      48.040  17.254  -5.724  1.00  0.00    -0.285 OA
ATOM      5  C   UNL     1      48.048  15.457  -4.235  1.00  0.00     0.111 A 
ATOM      6  C   UNL     1      49.386  15.027  -4.478  1.00  0.00     0.134 A 
ATOM      7  C   UNL     1      49.838  13.825  -3.918  1.00  0.00     0.093 A 
ATOM      8  C   UNL     1      49.021  13.072  -3.071  1.00  0.00     0.123 A 
ATOM      9  C   UNL     1      47.733  13.515  -2.781  1.00  0.00     0.094 A 
ATOM     10  C   UNL     1      47.241  14.691  -3.353  1.00  0.00     0.146 A 
ATOM     11  O   UNL     1      46.004  15.071  -3.057  1.00  0.00    -0.452 OA
ENDROOT
BRANCH   1  12
ATOM     12  C   UNL     1      44.053  16.485  -3.131  1.00  0.00     0.021 A 
ATOM     13  C   UNL     1      43.071  15.481  -3.128  1.00  0.00     0.016 A 
ATOM     14  C   UNL     1      41.770  15.763  -2.702  1.00  0.00     0.047 A 
ATOM     15  C   UNL     1      41.437  17.046  -2.262  1.00  0.00     0.115 A 
ATOM     16  C   UNL     1      43.717  17.770  -2.666  1.00  0.00     0.016 A 
ATOM     17  C   UNL     1      42.415  18.049  -2.240  1.00  0.00     0.047 A 
BRANCH  15  18
ATOM     18  O   UNL     1      40.136  17.315  -1.841  1.00  0.00    -0.508 OA
ATOM     19  H   UNL     1      39.360  17.322  -2.492  1.00  0.00     0.293 HD
ENDBRANCH  15  18
ENDBRANCH   1  12
BRANCH   2  20
ATOM     20  O   UNL     1      45.502  18.032  -5.107  1.00  0.00    -0.502 OA
ATOM     21  H   UNL     1      44.501  18.074  -5.254  1.00  0.00     0.293 HD
ENDBRANCH   2  20
BRANCH   6  22
ATOM     22  O   UNL     1      50.313  15.751  -5.232  1.00  0.00    -0.507 OA
ATOM     23  H   UNL     1      51.302  15.796  -5.041  1.00  0.00     0.293 HD
ENDBRANCH   6  22
BRANCH   8  24
ATOM     24  O   UNL     1      49.484  11.886  -2.507  1.00  0.00    -0.508 OA
ATOM     25  H   UNL     1      48.914  11.347  -1.866  1.00  0.00     0.293 HD
ENDBRANCH   8  24
TORSDOF 5
ENDMDL
MODEL 7
REMARK VINA RESULT:    -4.702      2.290      6.458
REMARK INTER + INTRA:          -5.807
REMARK INTER:                  -5.660
REMARK INTRA:                  -0.148
REMARK UNBOUND:                -0.281
REMARK SMILES O=c1c(O)c(-c2ccc(O)cc2)oc2cc(O)cc(O)c12
REMARK SMILES IDX 5 1 3 2 2 3 1 4 21 5 19 6 18 7 16 8 15 9 14 10 13 11 6 12
REMARK SMILES IDX 7 13 8 14 9 15 12 16 11 17 10 18 4 20 20 22 17 24
REMARK H PARENT 10 19 4 21 20 23 17 25
REMARK Flexibility Score: inf
ROOT
ATOM      1  C   UNL     1      43.249  16.434  -3.023  1.00  0.00     0.180 A 
ATOM      2  C   UNL     1      42.406  16.968  -2.033  1.00  0.00     0.208 A 
ATOM      3  C   UNL     1      42.194  18.355  -1.995  1.00  0.00     0.238 A 
ATOM      4  O   UNL     1      41.395  18.821  -1.140  1.00  0.00    -0.285 OA
ATOM      5  C   UNL     1      42.839  19.193  -2.936  1.00  0.00     0.111 A 
ATOM      6  C   UNL     1      42.728  20.616  -2.965  1.00  0.00     0.134 A 
ATOM      7  C   UNL     1      43.306  21.332  -4.020  1.00  0.00     0.093 A 
ATOM      8  C   UNL     1      44.046  20.683  -5.012  1.00  0.00     0.123 A 
ATOM      9  C   UNL     1      44.210  19.301  -4.959  1.00  0.00     0.094 A 
ATOM     10  C   UNL     1      43.615  18.555  -3.939  1.00  0.00     0.146 A 
ATOM     11  O   UNL     1      43.788  17.238  -3.932  1.00  0.00    -0.452 OA
ENDROOT
BRANCH   1  12
ATOM     12  C   UNL     1      43.540  14.985  -3.112  1.00  0.00     0.021 A 
ATOM     13  C   UNL     1      44.829  14.519  -2.806  1.00  0.00     0.016 A 
ATOM     14  C   UNL     1      45.120  13.152  -2.861  1.00  0.00     0.047 A 
ATOM     15  C   UNL     1      44.126  12.235  -3.208  1.00  0.00     0.115 A 
ATOM     16  C   UNL     1      42.537  14.054  -3.440  1.00  0.00     0.016 A 
ATOM     17  C   UNL     1      42.831  12.688  -3.494  1.00  0.00     0.047 A 
BRANCH  15  18
ATOM     18  O   UNL     1      44.429  10.876  -3.260  1.00  0.00    -0.508 OA
ATOM     19  H   UNL     1      44.720  10.366  -2.434  1.00  0.00     0.293 HD
ENDBRANCH  15  18
ENDBRANCH   1  12
BRANCH   2  20
ATOM     20  O   UNL     1      41.760  16.121  -1.128  1.00  0.00    -0.502 OA
ATOM     21  H   UNL     1      42.176  15.849  -0.245  1.00  0.00     0.293 HD
ENDBRANCH   2  20
BRANCH   6  22
ATOM     22  O   UNL     1      42.091  21.368  -1.975  1.00  0.00    -0.507 OA
ATOM     23  H   UNL     1      42.563  21.853  -1.227  1.00  0.00     0.293 HD
ENDBRANCH   6  22
BRANCH   8  24
ATOM     24  O   UNL     1      44.631  21.405  -6.050  1.00  0.00    -0.508 OA
ATOM     25  H   UNL     1      44.105  22.090  -6.580  1.00  0.00     0.293 HD
ENDBRANCH   8  24
TORSDOF 5
ENDMDL
MODEL 8
REMARK VINA RESULT:    -4.609      2.383      4.217
REMARK INTER + INTRA:          -5.699
REMARK INTER:                  -5.870
REMARK INTRA:                   0.171
REMARK UNBOUND:                -0.281
REMARK SMILES O=c1c(O)c(-c2ccc(O)cc2)oc2cc(O)cc(O)c12
REMARK SMILES IDX 5 1 3 2 2 3 1 4 21 5 19 6 18 7 16 8 15 9 14 10 13 11 6 12
REMARK SMILES IDX 7 13 8 14 9 15 12 16 11 17 10 18 4 20 20 22 17 24
REMARK H PARENT 10 19 4 21 20 23 17 25
REMARK Flexibility Score: inf
ROOT
ATOM      1  C   UNL     1      45.857  16.242  -3.772  1.00  0.00     0.180 A 
ATOM      2  C   UNL     1      47.105  16.480  -4.374  1.00  0.00     0.208 A 
ATOM      3  C   UNL     1      48.131  15.537  -4.207  1.00  0.00     0.238 A 
ATOM      4  O   UNL     1      49.229  15.729  -4.794  1.00  0.00    -0.285 OA
ATOM      5  C   UNL     1      47.905  14.378  -3.426  1.00  0.00     0.111 A 
ATOM      6  C   UNL     1      48.886  13.377  -3.157  1.00  0.00     0.134 A 
ATOM      7  C   UNL     1      48.512  12.209  -2.482  1.00  0.00     0.093 A 
ATOM      8  C   UNL     1      47.209  12.034  -2.008  1.00  0.00     0.123 A 
ATOM      9  C   UNL     1      46.260  13.032  -2.215  1.00  0.00     0.094 A 
ATOM     10  C   UNL     1      46.593  14.193  -2.917  1.00  0.00     0.146 A 
ATOM     11  O   UNL     1      45.654  15.115  -3.100  1.00  0.00    -0.452 OA
ENDROOT
BRANCH   1  12
ATOM     12  C   UNL     1      44.734  17.201  -3.882  1.00  0.00     0.021 A 
ATOM     13  C   UNL     1      43.971  17.507  -2.743  1.00  0.00     0.016 A 
ATOM     14  C   UNL     1      42.921  18.427  -2.820  1.00  0.00     0.047 A 
ATOM     15  C   UNL     1      42.629  19.062  -4.029  1.00  0.00     0.115 A 
ATOM     16  C   UNL     1      44.448  17.859  -5.092  1.00  0.00     0.016 A 
ATOM     17  C   UNL     1      43.397  18.779  -5.166  1.00  0.00     0.047 A 
BRANCH  15  18
ATOM     18  O   UNL     1      41.579  19.976  -4.092  1.00  0.00    -0.508 OA
ATOM     19  H   UNL     1      40.835  19.882  -4.774  1.00  0.00     0.293 HD
ENDBRANCH  15  18
ENDBRANCH   1  12
BRANCH   2  20
ATOM     20  O   UNL     1      47.301  17.619  -5.159  1.00  0.00    -0.502 OA
ATOM     21  H   UNL     1      48.199  17.852  -5.567  1.00  0.00     0.293 HD
ENDBRANCH   2  20
BRANCH   6  22
ATOM     22  O   UNL     1      50.234  13.494  -3.504  1.00  0.00    -0.507 OA
ATOM     23  H   UNL     1      50.577  13.943  -4.340  1.00  0.00     0.293 HD
ENDBRANCH   6  22
BRANCH   8  24
ATOM     24  O   UNL     1      46.851  10.875  -1.324  1.00  0.00    -0.508 OA
ATOM     25  H   UNL     1      47.350  10.004  -1.459  1.00  0.00     0.293 HD
ENDBRANCH   8  24
TORSDOF 5
ENDMDL
MODEL 9
REMARK VINA RESULT:    -4.594      3.166      7.975
REMARK INTER + INTRA:          -5.681
REMARK INTER:                  -5.530
REMARK INTRA:                  -0.151
REMARK UNBOUND:                -0.281
REMARK SMILES O=c1c(O)c(-c2ccc(O)cc2)oc2cc(O)cc(O)c12
REMARK SMILES IDX 5 1 3 2 2 3 1 4 21 5 19 6 18 7 16 8 15 9 14 10 13 11 6 12
REMARK SMILES IDX 7 13 8 14 9 15 12 16 11 17 10 18 4 20 20 22 17 24
REMARK H PARENT 10 19 4 21 20 23 17 25
REMARK Flexibility Score: inf
ROOT
ATOM      1  C   UNL     1      47.464  14.936  -4.455  1.00  0.00     0.180 A 
ATOM      2  C   UNL     1      46.843  13.696  -4.689  1.00  0.00     0.208 A 
ATOM      3  C   UNL     1      45.515  13.510  -4.274  1.00  0.00     0.238 A 
ATOM      4  O   UNL     1      44.947  12.417  -4.534  1.00  0.00    -0.285 OA
ATOM      5  C   UNL     1      44.829  14.559  -3.615  1.00  0.00     0.111 A 
ATOM      6  C   UNL     1      43.495  14.467  -3.116  1.00  0.00     0.134 A 
ATOM      7  C   UNL     1      42.872  15.609  -2.598  1.00  0.00     0.093 A 
ATOM      8  C   UNL     1      43.557  16.823  -2.502  1.00  0.00     0.123 A 
ATOM      9  C   UNL     1      44.878  16.907  -2.932  1.00  0.00     0.094 A 
ATOM     10  C   UNL     1      45.516  15.795  -3.487  1.00  0.00     0.146 A 
ATOM     11  O   UNL     1      46.773  15.921  -3.894  1.00  0.00    -0.452 OA
ENDROOT
BRANCH   1  12
ATOM     12  C   UNL     1      48.868  15.199  -4.842  1.00  0.00     0.021 A 
ATOM     13  C   UNL     1      49.153  16.220  -5.763  1.00  0.00     0.016 A 
ATOM     14  C   UNL     1      50.474  16.501  -6.125  1.00  0.00     0.047 A 
ATOM     15  C   UNL     1      51.527  15.776  -5.561  1.00  0.00     0.115 A 
ATOM     16  C   UNL     1      49.934  14.486  -4.261  1.00  0.00     0.016 A 
ATOM     17  C   UNL     1      51.255  14.770  -4.624  1.00  0.00     0.047 A 
BRANCH  15  18
ATOM     18  O   UNL     1      52.839  16.065  -5.931  1.00  0.00    -0.508 OA
ATOM     19  H   UNL     1      53.329  16.869  -5.557  1.00  0.00     0.293 HD
ENDBRANCH  15  18
ENDBRANCH   1  12
BRANCH   2  20
ATOM     20  O   UNL     1      47.531  12.681  -5.361  1.00  0.00    -0.502 OA
ATOM     21  H   UNL     1      47.092  11.805  -5.619  1.00  0.00     0.293 HD
ENDBRANCH   2  20
BRANCH   6  22
ATOM     22  O   UNL     1      42.756  13.282  -3.079  1.00  0.00    -0.507 OA
ATOM     23  H   UNL     1      42.150  12.959  -3.818  1.00  0.00     0.293 HD
ENDBRANCH   6  22
BRANCH   8  24
ATOM     24  O   UNL     1      42.934  17.951  -1.971  1.00  0.00    -0.508 OA
ATOM     25  H   UNL     1      43.282  18.403  -1.134  1.00  0.00     0.293 HD
ENDBRANCH   8  24
TORSDOF 5
ENDMDL
