MODEL 1
REMARK VINA RESULT:    -2.620      0.000      0.000
REMARK INTER + INTRA:          -3.027
REMARK INTER:                  -3.003
REMARK INTRA:                  -0.024
REMARK UNBOUND:                -0.024
REMARK SMILES CC(C)[C@H]([NH3+])C(=O)[O-]
REMARK SMILES IDX 4 1 5 2 6 6 7 7 8 8 2 9 1 10 3 11
REMARK H PARENT 5 3 5 4 5 5
REMARK Flexibility Score: inf
ROOT
ATOM      1  C   UNL     1     -38.705  64.620 -47.586  1.00  0.00     0.230 C 
ENDROOT
BRANCH   1   2
ATOM      2  N   UNL     1     -39.051  63.501 -46.696  1.00  0.00    -0.350 N 
ATOM      3  H   UNL     1     -39.541  63.847 -45.839  1.00  0.00     0.345 HD
ATOM      4  H   UNL     1     -39.662  62.816 -47.196  1.00  0.00     0.345 HD
ATOM      5  H   UNL     1     -38.184  62.989 -46.409  1.00  0.00     0.345 HD
ENDBRANCH   1   2
BRANCH   1   6
ATOM      6  C   UNL     1     -38.837  64.179 -49.023  1.00  0.00     0.099 C 
ATOM      7  O   UNL     1     -39.088  65.020 -49.928  1.00  0.00    -0.544 OA
ATOM      8  O   UNL     1     -38.689  62.839 -49.355  1.00  0.00    -0.544 OA
ENDBRANCH   1   6
BRANCH   1   9
ATOM      9  C   UNL     1     -37.273  65.169 -47.302  1.00  0.00     0.047 C 
ATOM     10  C   UNL     1     -37.193  66.682 -47.570  1.00  0.00     0.014 C 
ATOM     11  C   UNL     1     -36.829  64.891 -45.855  1.00  0.00     0.014 C 
ENDBRANCH   1   9
TORSDOF 3
ENDMDL
MODEL 2
REMARK VINA RESULT:    -2.457     11.960     12.393
REMARK INTER + INTRA:          -2.840
REMARK INTER:                  -2.798
REMARK INTRA:                  -0.042
REMARK UNBOUND:                -0.024
REMARK SMILES CC(C)[C@H]([NH3+])C(=O)[O-]
REMARK SMILES IDX 4 1 5 2 6 6 7 7 8 8 2 9 1 10 3 11
REMARK H PARENT 5 3 5 4 5 5
REMARK Flexibility Score: inf
ROOT
ATOM      1  C   UNL     1     -29.030  58.377 -53.575  1.00  0.00     0.230 C 
ENDROOT
BRANCH   1   2
ATOM      2  N   UNL     1     -30.249  57.711 -54.058  1.00  0.00    -0.350 N 
ATOM      3  H   UNL     1     -30.680  58.253 -54.842  1.00  0.00     0.345 HD
ATOM      4  H   UNL     1     -30.029  56.742 -54.381  1.00  0.00     0.345 HD
ATOM      5  H   UNL     1     -30.945  57.627 -53.280  1.00  0.00     0.345 HD
ENDBRANCH   1   2
BRANCH   1   6
ATOM      6  C   UNL     1     -28.468  57.609 -52.403  1.00  0.00     0.099 C 
ATOM      7  O   UNL     1     -28.775  56.400 -52.227  1.00  0.00    -0.544 OA
ATOM      8  O   UNL     1     -27.612  58.237 -51.507  1.00  0.00    -0.544 OA
ENDBRANCH   1   6
BRANCH   1   9
ATOM      9  C   UNL     1     -29.294  59.865 -53.188  1.00  0.00     0.047 C 
ATOM     10  C   UNL     1     -28.256  60.800 -53.834  1.00  0.00     0.014 C 
ATOM     11  C   UNL     1     -30.705  60.322 -53.596  1.00  0.00     0.014 C 
ENDBRANCH   1   9
TORSDOF 3
ENDMDL
MODEL 3
REMARK VINA RESULT:    -2.450     12.834     13.621
REMARK INTER + INTRA:          -2.832
REMARK INTER:                  -2.764
REMARK INTRA:                  -0.068
REMARK UNBOUND:                -0.024
REMARK SMILES CC(C)[C@H]([NH3+])C(=O)[O-]
REMARK SMILES IDX 4 1 5 2 6 6 7 7 8 8 2 9 1 10 3 11
REMARK H PARENT 5 3 5 4 5 5
REMARK Flexibility Score: inf
ROOT
ATOM      1  C   UNL     1     -25.882  60.473 -46.474  1.00  0.00     0.230 C 
ENDROOT
BRANCH   1   2
ATOM      2  N   UNL     1     -26.438  60.282 -47.822  1.00  0.00    -0.350 N 
ATOM      3  H   UNL     1     -27.076  61.072 -48.074  1.00  0.00     0.345 HD
ATOM      4  H   UNL     1     -25.668  60.216 -48.526  1.00  0.00     0.345 HD
ATOM      5  H   UNL     1     -26.974  59.384 -47.866  1.00  0.00     0.345 HD
ENDBRANCH   1   2
BRANCH   1   6
ATOM      6  C   UNL     1     -26.445  61.737 -45.872  1.00  0.00     0.099 C 
ATOM      7  O   UNL     1     -27.185  61.683 -44.854  1.00  0.00    -0.544 OA
ATOM      8  O   UNL     1     -26.154  62.969 -46.444  1.00  0.00    -0.544 OA
ENDBRANCH   1   6
BRANCH   1   9
ATOM      9  C   UNL     1     -24.322  60.511 -46.488  1.00  0.00     0.047 C 
ATOM     10  C   UNL     1     -23.760  60.787 -45.083  1.00  0.00     0.014 C 
ATOM     11  C   UNL     1     -23.722  59.199 -47.022  1.00  0.00     0.014 C 
ENDBRANCH   1   9
TORSDOF 3
ENDMDL
MODEL 4
REMARK VINA RESULT:    -2.436     16.220     16.921
REMARK INTER + INTRA:          -2.816
REMARK INTER:                  -2.759
REMARK INTRA:                  -0.057
REMARK UNBOUND:                -0.024
REMARK SMILES CC(C)[C@H]([NH3+])C(=O)[O-]
REMARK SMILES IDX 4 1 5 2 6 6 7 7 8 8 2 9 1 10 3 11
REMARK H PARENT 5 3 5 4 5 5
REMARK Flexibility Score: inf
ROOT
ATOM      1  C   UNL     1     -22.880  58.098 -48.730  1.00  0.00     0.230 C 
ENDROOT
BRANCH   1   2
ATOM      2  N   UNL     1     -24.016  58.542 -49.552  1.00  0.00    -0.350 N 
ATOM      3  H   UNL     1     -24.608  59.226 -49.025  1.00  0.00     0.345 HD
ATOM      4  H   UNL     1     -23.674  58.984 -50.435  1.00  0.00     0.345 HD
ATOM      5  H   UNL     1     -24.606  57.721 -49.825  1.00  0.00     0.345 HD
ENDBRANCH   1   2
BRANCH   1   6
ATOM      6  C   UNL     1     -22.579  56.650 -49.030  1.00  0.00     0.099 C 
ATOM      7  O   UNL     1     -21.406  56.288 -49.316  1.00  0.00    -0.544 OA
ATOM      8  O   UNL     1     -23.598  55.707 -48.998  1.00  0.00    -0.544 OA
ENDBRANCH   1   6
BRANCH   1   9
ATOM      9  C   UNL     1     -23.146  58.306 -47.207  1.00  0.00     0.047 C 
ATOM     10  C   UNL     1     -21.828  58.358 -46.414  1.00  0.00     0.014 C 
ATOM     11  C   UNL     1     -23.947  59.591 -46.936  1.00  0.00     0.014 C 
ENDBRANCH   1   9
TORSDOF 3
ENDMDL
MODEL 5
REMARK VINA RESULT:    -2.432     14.996     15.752
REMARK INTER + INTRA:          -2.812
REMARK INTER:                  -2.776
REMARK INTRA:                  -0.036
REMARK UNBOUND:                -0.024
REMARK SMILES CC(C)[C@H]([NH3+])C(=O)[O-]
REMARK SMILES IDX 4 1 5 2 6 6 7 7 8 8 2 9 1 10 3 11
REMARK H PARENT 5 3 5 4 5 5
REMARK Flexibility Score: inf
ROOT
ATOM      1  C   UNL     1     -23.495  59.341 -47.762  1.00  0.00     0.230 C 
ENDROOT
BRANCH   1   2
ATOM      2  N   UNL     1     -24.330  59.328 -48.973  1.00  0.00    -0.350 N 
ATOM      3  H   UNL     1     -23.897  59.911 -49.727  1.00  0.00     0.345 HD
ATOM      4  H   UNL     1     -24.456  58.349 -49.316  1.00  0.00     0.345 HD
ATOM      5  H   UNL     1     -25.283  59.705 -48.757  1.00  0.00     0.345 HD
ENDBRANCH   1   2
BRANCH   1   6
ATOM      6  C   UNL     1     -22.941  57.958 -47.519  1.00  0.00     0.099 C 
ATOM      7  O   UNL     1     -22.273  57.712 -46.480  1.00  0.00    -0.544 OA
ATOM      8  O   UNL     1     -23.161  56.948 -48.448  1.00  0.00    -0.544 OA
ENDBRANCH   1   6
BRANCH   1   9
ATOM      9  C   UNL     1     -24.284  59.850 -46.516  1.00  0.00     0.047 C 
ATOM     10  C   UNL     1     -23.479  60.911 -45.744  1.00  0.00     0.014 C 
ATOM     11  C   UNL     1     -25.650  60.439 -46.905  1.00  0.00     0.014 C 
ENDBRANCH   1   9
TORSDOF 3
ENDMDL
MODEL 6
REMARK VINA RESULT:    -2.417      5.342      6.467
REMARK INTER + INTRA:          -2.795
REMARK INTER:                  -2.728
REMARK INTRA:                  -0.066
REMARK UNBOUND:                -0.024
REMARK SMILES CC(C)[C@H]([NH3+])C(=O)[O-]
REMARK SMILES IDX 4 1 5 2 6 6 7 7 8 8 2 9 1 10 3 11
REMARK H PARENT 5 3 5 4 5 5
REMARK Flexibility Score: inf
ROOT
ATOM      1  C   UNL     1     -34.384  64.768 -43.873  1.00  0.00     0.230 C 
ENDROOT
BRANCH   1   2
ATOM      2  N   UNL     1     -34.096  66.006 -44.613  1.00  0.00    -0.350 N 
ATOM      3  H   UNL     1     -33.349  66.559 -44.131  1.00  0.00     0.345 HD
ATOM      4  H   UNL     1     -33.792  65.784 -45.587  1.00  0.00     0.345 HD
ATOM      5  H   UNL     1     -34.960  66.592 -44.684  1.00  0.00     0.345 HD
ENDBRANCH   1   2
BRANCH   1   6
ATOM      6  C   UNL     1     -33.097  64.019 -43.625  1.00  0.00     0.099 C 
ATOM      7  O   UNL     1     -32.344  63.710 -44.587  1.00  0.00    -0.544 OA
ATOM      8  O   UNL     1     -32.740  63.660 -42.332  1.00  0.00    -0.544 OA
ENDBRANCH   1   6
BRANCH   1   9
ATOM      9  C   UNL     1     -35.414  63.868 -44.624  1.00  0.00     0.047 C 
ATOM     10  C   UNL     1     -36.085  62.870 -43.664  1.00  0.00     0.014 C 
ATOM     11  C   UNL     1     -36.502  64.703 -45.322  1.00  0.00     0.014 C 
ENDBRANCH   1   9
TORSDOF 3
ENDMDL
MODEL 7
REMARK VINA RESULT:    -2.343     12.416     13.047
REMARK INTER + INTRA:          -2.710
REMARK INTER:                  -2.647
REMARK INTRA:                  -0.062
REMARK UNBOUND:                -0.024
REMARK SMILES CC(C)[C@H]([NH3+])C(=O)[O-]
REMARK SMILES IDX 4 1 5 2 6 6 7 7 8 8 2 9 1 10 3 11
REMARK H PARENT 5 3 5 4 5 5
REMARK Flexibility Score: inf
ROOT
ATOM      1  C   UNL     1     -25.498  61.128 -46.832  1.00  0.00     0.230 C 
ENDROOT
BRANCH   1   2
ATOM      2  N   UNL     1     -25.152  59.714 -47.045  1.00  0.00    -0.350 N 
ATOM      3  H   UNL     1     -25.955  59.094 -46.789  1.00  0.00     0.345 HD
ATOM      4  H   UNL     1     -24.890  59.552 -48.044  1.00  0.00     0.345 HD
ATOM      5  H   UNL     1     -24.323  59.454 -46.462  1.00  0.00     0.345 HD
ENDBRANCH   1   2
BRANCH   1   6
ATOM      6  C   UNL     1     -25.997  61.316 -45.420  1.00  0.00     0.099 C 
ATOM      7  O   UNL     1     -27.206  61.595 -45.203  1.00  0.00    -0.544 OA
ATOM      8  O   UNL     1     -25.119  61.189 -44.351  1.00  0.00    -0.544 OA
ENDBRANCH   1   6
BRANCH   1   9
ATOM      9  C   UNL     1     -26.552  61.631 -47.866  1.00  0.00     0.047 C 
ATOM     10  C   UNL     1     -26.153  62.998 -48.448  1.00  0.00     0.014 C 
ATOM     11  C   UNL     1     -26.747  60.631 -49.018  1.00  0.00     0.014 C 
ENDBRANCH   1   9
TORSDOF 3
ENDMDL
MODEL 8
REMARK VINA RESULT:    -2.336      9.438      9.779
REMARK INTER + INTRA:          -2.701
REMARK INTER:                  -2.651
REMARK INTRA:                  -0.050
REMARK UNBOUND:                -0.024
REMARK SMILES CC(C)[C@H]([NH3+])C(=O)[O-]
REMARK SMILES IDX 4 1 5 2 6 6 7 7 8 8 2 9 1 10 3 11
REMARK H PARENT 5 3 5 4 5 5
REMARK Flexibility Score: inf
ROOT
ATOM      1  C   UNL     1     -29.648  64.067 -52.626  1.00  0.00     0.230 C 
ENDROOT
BRANCH   1   2
ATOM      2  N   UNL     1     -29.015  62.749 -52.785  1.00  0.00    -0.350 N 
ATOM      3  H   UNL     1     -29.267  62.120 -51.988  1.00  0.00     0.345 HD
ATOM      4  H   UNL     1     -29.314  62.310 -53.686  1.00  0.00     0.345 HD
ATOM      5  H   UNL     1     -27.974  62.851 -52.822  1.00  0.00     0.345 HD
ENDBRANCH   1   2
BRANCH   1   6
ATOM      6  C   UNL     1     -29.485  64.535 -51.201  1.00  0.00     0.099 C 
ATOM      7  O   UNL     1     -30.175  65.492 -50.760  1.00  0.00    -0.544 OA
ATOM      8  O   UNL     1     -28.564  63.913 -50.367  1.00  0.00    -0.544 OA
ENDBRANCH   1   6
BRANCH   1   9
ATOM      9  C   UNL     1     -31.153  64.043 -53.035  1.00  0.00     0.047 C 
ATOM     10  C   UNL     1     -31.453  65.095 -54.117  1.00  0.00     0.014 C 
ATOM     11  C   UNL     1     -31.586  62.659 -53.545  1.00  0.00     0.014 C 
ENDBRANCH   1   9
TORSDOF 3
ENDMDL
MODEL 9
REMARK VINA RESULT:    -2.279     12.749     13.545
REMARK INTER + INTRA:          -2.636
REMARK INTER:                  -2.581
REMARK INTRA:                  -0.055
REMARK UNBOUND:                -0.024
REMARK SMILES CC(C)[C@H]([NH3+])C(=O)[O-]
REMARK SMILES IDX 4 1 5 2 6 6 7 7 8 8 2 9 1 10 3 11
REMARK H PARENT 5 3 5 4 5 5
REMARK Flexibility Score: inf
ROOT
ATOM      1  C   UNL     1     -25.017  61.507 -45.510  1.00  0.00     0.230 C 
ENDROOT
BRANCH   1   2
ATOM      2  N   UNL     1     -24.434  61.019 -44.250  1.00  0.00    -0.350 N 
ATOM      3  H   UNL     1     -23.675  61.660 -43.922  1.00  0.00     0.345 HD
ATOM      4  H   UNL     1     -25.172  60.944 -43.515  1.00  0.00     0.345 HD
ATOM      5  H   UNL     1     -24.035  60.061 -44.386  1.00  0.00     0.345 HD
ENDBRANCH   1   2
BRANCH   1   6
ATOM      6  C   UNL     1     -26.266  62.299 -45.212  1.00  0.00     0.099 C 
ATOM      7  O   UNL     1     -27.259  61.745 -44.670  1.00  0.00    -0.544 OA
ATOM      8  O   UNL     1     -26.328  63.647 -45.541  1.00  0.00    -0.544 OA
ENDBRANCH   1   6
BRANCH   1   9
ATOM      9  C   UNL     1     -25.321  60.340 -46.500  1.00  0.00     0.047 C 
ATOM     10  C   UNL     1     -26.027  60.856 -47.767  1.00  0.00     0.014 C 
ATOM     11  C   UNL     1     -24.045  59.586 -46.907  1.00  0.00     0.014 C 
ENDBRANCH   1   9
TORSDOF 3
ENDMDL
