MODEL 1
REMARK VINA RESULT:    -5.748      0.000      0.000
REMARK INTER + INTRA:          -7.599
REMARK INTER:                  -7.428
REMARK INTRA:                  -0.170
REMARK UNBOUND:                -0.170
REMARK SMILES CCO[C@H]1O[C@H](CO)[C@@H](O)[C@H](O)[C@@H]1O
REMARK SMILES IDX 4 1 13 2 11 3 9 4 6 5 5 6 3 7 2 8 1 9 14 10 12 12 7 14 8 15
REMARK SMILES IDX 10 17
REMARK H PARENT 14 11 12 13 8 16 10 18
REMARK Flexibility Score: inf
ROOT
ATOM      1  C   UNL     1      22.220  20.752  85.376  1.00  0.00     0.281 C 
ATOM      2  C   UNL     1      23.144  21.874  84.860  1.00  0.00     0.202 C 
ATOM      3  C   UNL     1      24.618  21.478  85.066  1.00  0.00     0.179 C 
ATOM      4  C   UNL     1      24.857  21.051  86.524  1.00  0.00     0.177 C 
ATOM      5  C   UNL     1      23.814  19.982  86.932  1.00  0.00     0.178 C 
ATOM      6  O   UNL     1      22.493  20.466  86.740  1.00  0.00    -0.341 OA
ENDROOT
BRANCH   1   7
ATOM      7  O   UNL     1      22.355  19.575  84.589  1.00  0.00    -0.350 OA
BRANCH   7   8
ATOM      8  C   UNL     1      21.099  19.024  84.240  1.00  0.00     0.160 C 
ATOM      9  C   UNL     1      20.549  19.706  82.993  1.00  0.00     0.035 C 
ENDBRANCH   7   8
ENDBRANCH   1   7
BRANCH   2  10
ATOM     10  O   UNL     1      22.853  23.061  85.554  1.00  0.00    -0.385 OA
ATOM     11  H   UNL     1      23.060  23.815  84.941  1.00  0.00     0.211 HD
ENDBRANCH   2  10
BRANCH   3  12
ATOM     12  O   UNL     1      25.464  22.552  84.745  1.00  0.00    -0.387 OA
ATOM     13  H   UNL     1      26.358  22.331  85.117  1.00  0.00     0.211 HD
ENDBRANCH   3  12
BRANCH   5  14
ATOM     14  C   UNL     1      23.959  19.597  88.414  1.00  0.00     0.191 C 
BRANCH  14  15
ATOM     15  O   UNL     1      23.188  18.469  88.729  1.00  0.00    -0.394 OA
ATOM     16  H   UNL     1      23.799  17.822  89.170  1.00  0.00     0.210 HD
ENDBRANCH  14  15
ENDBRANCH   5  14
BRANCH   4  17
ATOM     17  O   UNL     1      26.153  20.525  86.649  1.00  0.00    -0.387 OA
ATOM     18  H   UNL     1      26.353  20.476  87.622  1.00  0.00     0.211 HD
ENDBRANCH   4  17
TORSDOF 7
ENDMDL
MODEL 2
REMARK VINA RESULT:    -5.740      1.870      2.648
REMARK INTER + INTRA:          -7.588
REMARK INTER:                  -7.196
REMARK INTRA:                  -0.392
REMARK UNBOUND:                -0.170
REMARK SMILES CCO[C@H]1O[C@H](CO)[C@@H](O)[C@H](O)[C@@H]1O
REMARK SMILES IDX 4 1 13 2 11 3 9 4 6 5 5 6 3 7 2 8 1 9 14 10 12 12 7 14 8 15
REMARK SMILES IDX 10 17
REMARK H PARENT 14 11 12 13 8 16 10 18
REMARK Flexibility Score: inf
ROOT
ATOM      1  C   UNL     1      23.183  19.417  85.170  1.00  0.00     0.281 C 
ATOM      2  C   UNL     1      22.548  20.771  84.794  1.00  0.00     0.202 C 
ATOM      3  C   UNL     1      23.111  21.885  85.696  1.00  0.00     0.179 C 
ATOM      4  C   UNL     1      22.982  21.489  87.177  1.00  0.00     0.177 C 
ATOM      5  C   UNL     1      23.589  20.081  87.394  1.00  0.00     0.178 C 
ATOM      6  O   UNL     1      22.969  19.127  86.543  1.00  0.00    -0.341 OA
ENDROOT
BRANCH   1   7
ATOM      7  O   UNL     1      24.575  19.405  84.874  1.00  0.00    -0.350 OA
BRANCH   7   8
ATOM      8  C   UNL     1      24.820  19.341  83.481  1.00  0.00     0.160 C 
ATOM      9  C   UNL     1      25.867  20.373  83.079  1.00  0.00     0.035 C 
ENDBRANCH   7   8
ENDBRANCH   1   7
BRANCH   2  10
ATOM     10  O   UNL     1      21.153  20.678  84.942  1.00  0.00    -0.385 OA
ATOM     11  H   UNL     1      20.979  19.988  85.634  1.00  0.00     0.211 HD
ENDBRANCH   2  10
BRANCH   3  12
ATOM     12  O   UNL     1      22.429  23.092  85.471  1.00  0.00    -0.387 OA
ATOM     13  H   UNL     1      21.501  22.960  85.802  1.00  0.00     0.211 HD
ENDBRANCH   3  12
BRANCH   5  14
ATOM     14  C   UNL     1      23.394  19.607  88.845  1.00  0.00     0.191 C 
BRANCH  14  15
ATOM     15  O   UNL     1      22.583  20.495  89.568  1.00  0.00    -0.394 OA
ATOM     16  H   UNL     1      22.762  21.402  89.206  1.00  0.00     0.210 HD
ENDBRANCH  14  15
ENDBRANCH   5  14
BRANCH   4  17
ATOM     17  O   UNL     1      23.659  22.428  87.972  1.00  0.00    -0.387 OA
ATOM     18  H   UNL     1      23.685  22.060  88.895  1.00  0.00     0.211 HD
ENDBRANCH   4  17
TORSDOF 7
ENDMDL
MODEL 3
REMARK VINA RESULT:    -5.482      1.347      1.866
REMARK INTER + INTRA:          -7.255
REMARK INTER:                  -6.914
REMARK INTRA:                  -0.341
REMARK UNBOUND:                -0.170
REMARK SMILES CCO[C@H]1O[C@H](CO)[C@@H](O)[C@H](O)[C@@H]1O
REMARK SMILES IDX 4 1 13 2 11 3 9 4 6 5 5 6 3 7 2 8 1 9 14 10 12 12 7 14 8 15
REMARK SMILES IDX 10 17
REMARK H PARENT 14 11 12 13 8 16 10 18
REMARK Flexibility Score: inf
ROOT
ATOM      1  C   UNL     1      23.299  21.169  84.975  1.00  0.00     0.281 C 
ATOM      2  C   UNL     1      24.837  21.047  84.976  1.00  0.00     0.202 C 
ATOM      3  C   UNL     1      25.292  20.132  86.128  1.00  0.00     0.179 C 
ATOM      4  C   UNL     1      24.669  20.595  87.456  1.00  0.00     0.177 C 
ATOM      5  C   UNL     1      23.137  20.748  87.288  1.00  0.00     0.178 C 
ATOM      6  O   UNL     1      22.833  21.644  86.228  1.00  0.00    -0.341 OA
ENDROOT
BRANCH   1   7
ATOM      7  O   UNL     1      22.688  19.922  84.662  1.00  0.00    -0.350 OA
BRANCH   7   8
ATOM      8  C   UNL     1      22.547  19.738  83.266  1.00  0.00     0.160 C 
ATOM      9  C   UNL     1      21.071  19.669  82.887  1.00  0.00     0.035 C 
ENDBRANCH   7   8
ENDBRANCH   1   7
BRANCH   2  10
ATOM     10  O   UNL     1      25.396  22.329  85.119  1.00  0.00    -0.385 OA
ATOM     11  H   UNL     1      26.300  22.300  84.710  1.00  0.00     0.211 HD
ENDBRANCH   2  10
BRANCH   3  12
ATOM     12  O   UNL     1      26.692  20.138  86.237  1.00  0.00    -0.387 OA
ATOM     13  H   UNL     1      27.030  19.449  85.608  1.00  0.00     0.211 HD
ENDBRANCH   3  12
BRANCH   5  14
ATOM     14  C   UNL     1      22.489  21.302  88.568  1.00  0.00     0.191 C 
BRANCH  14  15
ATOM     15  O   UNL     1      22.567  20.380  89.622  1.00  0.00    -0.394 OA
ATOM     16  H   UNL     1      21.902  20.668  90.301  1.00  0.00     0.210 HD
ENDBRANCH  14  15
ENDBRANCH   5  14
BRANCH   4  17
ATOM     17  O   UNL     1      24.947  19.649  88.456  1.00  0.00    -0.387 OA
ATOM     18  H   UNL     1      24.837  18.751  88.044  1.00  0.00     0.211 HD
ENDBRANCH   4  17
TORSDOF 7
ENDMDL
MODEL 4
REMARK VINA RESULT:    -5.406      1.688      4.234
REMARK INTER + INTRA:          -7.157
REMARK INTER:                  -6.969
REMARK INTRA:                  -0.189
REMARK UNBOUND:                -0.170
REMARK SMILES CCO[C@H]1O[C@H](CO)[C@@H](O)[C@H](O)[C@@H]1O
REMARK SMILES IDX 4 1 13 2 11 3 9 4 6 5 5 6 3 7 2 8 1 9 14 10 12 12 7 14 8 15
REMARK SMILES IDX 10 17
REMARK H PARENT 14 11 12 13 8 16 10 18
REMARK Flexibility Score: inf
ROOT
ATOM      1  C   UNL     1      24.550  21.448  86.175  1.00  0.00     0.281 C 
ATOM      2  C   UNL     1      23.041  21.652  85.932  1.00  0.00     0.202 C 
ATOM      3  C   UNL     1      22.469  20.461  85.141  1.00  0.00     0.179 C 
ATOM      4  C   UNL     1      23.308  20.207  83.877  1.00  0.00     0.177 C 
ATOM      5  C   UNL     1      24.806  20.101  84.258  1.00  0.00     0.178 C 
ATOM      6  O   UNL     1      25.236  21.268  84.945  1.00  0.00    -0.341 OA
ENDROOT
BRANCH   1   7
ATOM      7  O   UNL     1      24.784  20.341  87.037  1.00  0.00    -0.350 OA
BRANCH   7   8
ATOM      8  C   UNL     1      24.225  20.543  88.321  1.00  0.00     0.160 C 
ATOM      9  C   UNL     1      23.447  19.308  88.761  1.00  0.00     0.035 C 
ENDBRANCH   7   8
ENDBRANCH   1   7
BRANCH   2  10
ATOM     10  O   UNL     1      22.851  22.850  85.221  1.00  0.00    -0.385 OA
ATOM     11  H   UNL     1      22.612  23.548  85.885  1.00  0.00     0.211 HD
ENDBRANCH   2  10
BRANCH   3  12
ATOM     12  O   UNL     1      21.135  20.707  84.778  1.00  0.00    -0.387 OA
ATOM     13  H   UNL     1      20.989  21.685  84.876  1.00  0.00     0.211 HD
ENDBRANCH   3  12
BRANCH   5  14
ATOM     14  C   UNL     1      25.689  19.942  83.009  1.00  0.00     0.191 C 
BRANCH  14  15
ATOM     15  O   UNL     1      27.049  19.892  83.347  1.00  0.00    -0.394 OA
ATOM     16  H   UNL     1      27.556  20.004  82.500  1.00  0.00     0.210 HD
ENDBRANCH  14  15
ENDBRANCH   5  14
BRANCH   4  17
ATOM     17  O   UNL     1      22.885  19.015  83.268  1.00  0.00    -0.387 OA
ATOM     18  H   UNL     1      21.934  18.880  83.524  1.00  0.00     0.211 HD
ENDBRANCH   4  17
TORSDOF 7
ENDMDL
MODEL 5
REMARK VINA RESULT:    -5.345      1.338      2.274
REMARK INTER + INTRA:          -7.078
REMARK INTER:                  -6.673
REMARK INTRA:                  -0.405
REMARK UNBOUND:                -0.170
REMARK SMILES CCO[C@H]1O[C@H](CO)[C@@H](O)[C@H](O)[C@@H]1O
REMARK SMILES IDX 4 1 13 2 11 3 9 4 6 5 5 6 3 7 2 8 1 9 14 10 12 12 7 14 8 15
REMARK SMILES IDX 10 17
REMARK H PARENT 14 11 12 13 8 16 10 18
REMARK Flexibility Score: inf
ROOT
ATOM      1  C   UNL     1      22.208  19.538  85.829  1.00  0.00     0.281 C 
ATOM      2  C   UNL     1      21.861  21.019  86.086  1.00  0.00     0.202 C 
ATOM      3  C   UNL     1      22.836  21.929  85.316  1.00  0.00     0.179 C 
ATOM      4  C   UNL     1      24.291  21.534  85.622  1.00  0.00     0.177 C 
ATOM      5  C   UNL     1      24.476  20.013  85.396  1.00  0.00     0.178 C 
ATOM      6  O   UNL     1      23.556  19.270  86.184  1.00  0.00    -0.341 OA
ENDROOT
BRANCH   1   7
ATOM      7  O   UNL     1      21.978  19.188  84.469  1.00  0.00    -0.350 OA
BRANCH   7   8
ATOM      8  C   UNL     1      20.605  18.966  84.205  1.00  0.00     0.160 C 
ATOM      9  C   UNL     1      20.157  19.788  83.003  1.00  0.00     0.035 C 
ENDBRANCH   7   8
ENDBRANCH   1   7
BRANCH   2  10
ATOM     10  O   UNL     1      21.940  21.273  87.466  1.00  0.00    -0.385 OA
ATOM     11  H   UNL     1      21.125  21.783  87.715  1.00  0.00     0.211 HD
ENDBRANCH   2  10
BRANCH   3  12
ATOM     12  O   UNL     1      22.631  23.274  85.664  1.00  0.00    -0.387 OA
ATOM     13  H   UNL     1      21.877  23.289  86.311  1.00  0.00     0.211 HD
ENDBRANCH   3  12
BRANCH   5  14
ATOM     14  C   UNL     1      25.894  19.561  85.783  1.00  0.00     0.191 C 
BRANCH  14  15
ATOM     15  O   UNL     1      26.557  20.542  86.536  1.00  0.00    -0.394 OA
ATOM     16  H   UNL     1      26.074  20.611  87.400  1.00  0.00     0.210 HD
ENDBRANCH  14  15
ENDBRANCH   5  14
BRANCH   4  17
ATOM     17  O   UNL     1      25.156  22.250  84.779  1.00  0.00    -0.387 OA
ATOM     18  H   UNL     1      24.586  22.811  84.189  1.00  0.00     0.211 HD
ENDBRANCH   4  17
TORSDOF 7
ENDMDL
MODEL 6
REMARK VINA RESULT:    -5.276      1.511      3.567
REMARK INTER + INTRA:          -6.988
REMARK INTER:                  -6.570
REMARK INTRA:                  -0.419
REMARK UNBOUND:                -0.170
REMARK SMILES CCO[C@H]1O[C@H](CO)[C@@H](O)[C@H](O)[C@@H]1O
REMARK SMILES IDX 4 1 13 2 11 3 9 4 6 5 5 6 3 7 2 8 1 9 14 10 12 12 7 14 8 15
REMARK SMILES IDX 10 17
REMARK H PARENT 14 11 12 13 8 16 10 18
REMARK Flexibility Score: inf
ROOT
ATOM      1  C   UNL     1      23.510  18.882  85.248  1.00  0.00     0.281 C 
ATOM      2  C   UNL     1      22.961  19.413  86.588  1.00  0.00     0.202 C 
ATOM      3  C   UNL     1      22.363  20.819  86.392  1.00  0.00     0.179 C 
ATOM      4  C   UNL     1      23.376  21.737  85.688  1.00  0.00     0.177 C 
ATOM      5  C   UNL     1      23.901  21.048  84.404  1.00  0.00     0.178 C 
ATOM      6  O   UNL     1      24.467  19.781  84.707  1.00  0.00    -0.341 OA
ENDROOT
BRANCH   1   7
ATOM      7  O   UNL     1      22.458  18.662  84.316  1.00  0.00    -0.350 OA
BRANCH   7   8
ATOM      8  C   UNL     1      21.616  17.595  84.711  1.00  0.00     0.160 C 
ATOM      9  C   UNL     1      20.151  17.991  84.557  1.00  0.00     0.035 C 
ENDBRANCH   7   8
ENDBRANCH   1   7
BRANCH   2  10
ATOM     10  O   UNL     1      24.007  19.453  87.527  1.00  0.00    -0.385 OA
ATOM     11  H   UNL     1      24.411  20.358  87.475  1.00  0.00     0.211 HD
ENDBRANCH   2  10
BRANCH   3  12
ATOM     12  O   UNL     1      22.003  21.377  87.630  1.00  0.00    -0.387 OA
ATOM     13  H   UNL     1      21.051  21.138  87.784  1.00  0.00     0.211 HD
ENDBRANCH   3  12
BRANCH   5  14
ATOM     14  C   UNL     1      24.989  21.894  83.722  1.00  0.00     0.191 C 
BRANCH  14  15
ATOM     15  O   UNL     1      25.647  22.721  84.643  1.00  0.00    -0.394 OA
ATOM     16  H   UNL     1      25.964  23.515  84.137  1.00  0.00     0.210 HD
ENDBRANCH  14  15
ENDBRANCH   5  14
BRANCH   4  17
ATOM     17  O   UNL     1      22.754  22.952  85.357  1.00  0.00    -0.387 OA
ATOM     18  H   UNL     1      22.292  22.813  84.488  1.00  0.00     0.211 HD
ENDBRANCH   4  17
TORSDOF 7
ENDMDL
MODEL 7
REMARK VINA RESULT:    -5.236      1.746      4.500
REMARK INTER + INTRA:          -6.937
REMARK INTER:                  -6.635
REMARK INTRA:                  -0.302
REMARK UNBOUND:                -0.170
REMARK SMILES CCO[C@H]1O[C@H](CO)[C@@H](O)[C@H](O)[C@@H]1O
REMARK SMILES IDX 4 1 13 2 11 3 9 4 6 5 5 6 3 7 2 8 1 9 14 10 12 12 7 14 8 15
REMARK SMILES IDX 10 17
REMARK H PARENT 14 11 12 13 8 16 10 18
REMARK Flexibility Score: inf
ROOT
ATOM      1  C   UNL     1      24.062  20.942  85.135  1.00  0.00     0.281 C 
ATOM      2  C   UNL     1      23.022  21.745  85.943  1.00  0.00     0.202 C 
ATOM      3  C   UNL     1      21.744  20.907  86.137  1.00  0.00     0.179 C 
ATOM      4  C   UNL     1      21.249  20.369  84.784  1.00  0.00     0.177 C 
ATOM      5  C   UNL     1      22.412  19.656  84.049  1.00  0.00     0.178 C 
ATOM      6  O   UNL     1      23.519  20.532  83.889  1.00  0.00    -0.341 OA
ENDROOT
BRANCH   1   7
ATOM      7  O   UNL     1      24.520  19.813  85.870  1.00  0.00    -0.350 OA
BRANCH   7   8
ATOM      8  C   UNL     1      25.414  20.181  86.903  1.00  0.00     0.160 C 
ATOM      9  C   UNL     1      24.778  19.935  88.267  1.00  0.00     0.035 C 
ENDBRANCH   7   8
ENDBRANCH   1   7
BRANCH   2  10
ATOM     10  O   UNL     1      22.728  22.935  85.255  1.00  0.00    -0.385 OA
ATOM     11  H   UNL     1      23.446  23.066  84.581  1.00  0.00     0.211 HD
ENDBRANCH   2  10
BRANCH   3  12
ATOM     12  O   UNL     1      20.735  21.681  86.733  1.00  0.00    -0.387 OA
ATOM     13  H   UNL     1      20.013  21.052  86.998  1.00  0.00     0.211 HD
ENDBRANCH   3  12
BRANCH   5  14
ATOM     14  C   UNL     1      21.982  19.187  82.649  1.00  0.00     0.191 C 
BRANCH  14  15
ATOM     15  O   UNL     1      20.832  19.861  82.213  1.00  0.00    -0.394 OA
ATOM     16  H   UNL     1      21.105  20.798  82.029  1.00  0.00     0.210 HD
ENDBRANCH  14  15
ENDBRANCH   5  14
BRANCH   4  17
ATOM     17  O   UNL     1      20.196  19.465  84.999  1.00  0.00    -0.387 OA
ATOM     18  H   UNL     1      20.161  18.867  84.206  1.00  0.00     0.211 HD
ENDBRANCH   4  17
TORSDOF 7
ENDMDL
MODEL 8
REMARK VINA RESULT:    -5.109      2.066      3.777
REMARK INTER + INTRA:          -6.773
REMARK INTER:                  -6.401
REMARK INTRA:                  -0.372
REMARK UNBOUND:                -0.170
REMARK SMILES CCO[C@H]1O[C@H](CO)[C@@H](O)[C@H](O)[C@@H]1O
REMARK SMILES IDX 4 1 13 2 11 3 9 4 6 5 5 6 3 7 2 8 1 9 14 10 12 12 7 14 8 15
REMARK SMILES IDX 10 17
REMARK H PARENT 14 11 12 13 8 16 10 18
REMARK Flexibility Score: inf
ROOT
ATOM      1  C   UNL     1      23.883  19.369  85.846  1.00  0.00     0.281 C 
ATOM      2  C   UNL     1      22.422  19.115  85.424  1.00  0.00     0.202 C 
ATOM      3  C   UNL     1      21.645  20.444  85.386  1.00  0.00     0.179 C 
ATOM      4  C   UNL     1      21.822  21.203  86.713  1.00  0.00     0.177 C 
ATOM      5  C   UNL     1      23.328  21.317  87.051  1.00  0.00     0.178 C 
ATOM      6  O   UNL     1      23.933  20.033  87.100  1.00  0.00    -0.341 OA
ENDROOT
BRANCH   1   7
ATOM      7  O   UNL     1      24.576  20.124  84.860  1.00  0.00    -0.350 OA
BRANCH   7   8
ATOM      8  C   UNL     1      24.889  19.346  83.720  1.00  0.00     0.160 C 
ATOM      9  C   UNL     1      25.713  20.162  82.731  1.00  0.00     0.035 C 
ENDBRANCH   7   8
ENDBRANCH   1   7
BRANCH   2  10
ATOM     10  O   UNL     1      21.829  18.227  86.338  1.00  0.00    -0.385 OA
ATOM     11  H   UNL     1      21.943  18.622  87.242  1.00  0.00     0.211 HD
ENDBRANCH   2  10
BRANCH   3  12
ATOM     12  O   UNL     1      20.280  20.209  85.157  1.00  0.00    -0.387 OA
ATOM     13  H   UNL     1      20.130  19.237  85.296  1.00  0.00     0.211 HD
ENDBRANCH   3  12
BRANCH   5  14
ATOM     14  C   UNL     1      23.543  21.986  88.420  1.00  0.00     0.191 C 
BRANCH  14  15
ATOM     15  O   UNL     1      23.559  23.384  88.309  1.00  0.00    -0.394 OA
ATOM     16  H   UNL     1      23.982  23.595  87.436  1.00  0.00     0.210 HD
ENDBRANCH  14  15
ENDBRANCH   5  14
BRANCH   4  17
ATOM     17  O   UNL     1      21.261  22.485  86.595  1.00  0.00    -0.387 OA
ATOM     18  H   UNL     1      20.280  22.363  86.486  1.00  0.00     0.211 HD
ENDBRANCH   4  17
TORSDOF 7
ENDMDL
MODEL 9
REMARK VINA RESULT:    -5.008      2.129      3.671
REMARK INTER + INTRA:          -6.642
REMARK INTER:                  -6.459
REMARK INTRA:                  -0.183
REMARK UNBOUND:                -0.170
REMARK SMILES CCO[C@H]1O[C@H](CO)[C@@H](O)[C@H](O)[C@@H]1O
REMARK SMILES IDX 4 1 13 2 11 3 9 4 6 5 5 6 3 7 2 8 1 9 14 10 12 12 7 14 8 15
REMARK SMILES IDX 10 17
REMARK H PARENT 14 11 12 13 8 16 10 18
REMARK Flexibility Score: inf
ROOT
ATOM      1  C   UNL     1      23.816  20.362  86.531  1.00  0.00     0.281 C 
ATOM      2  C   UNL     1      24.994  20.136  85.561  1.00  0.00     0.202 C 
ATOM      3  C   UNL     1      24.485  19.498  84.254  1.00  0.00     0.179 C 
ATOM      4  C   UNL     1      23.641  18.250  84.563  1.00  0.00     0.177 C 
ATOM      5  C   UNL     1      22.551  18.603  85.605  1.00  0.00     0.178 C 
ATOM      6  O   UNL     1      23.133  19.143  86.782  1.00  0.00    -0.341 OA
ENDROOT
BRANCH   1   7
ATOM      7  O   UNL     1      22.914  21.337  86.022  1.00  0.00    -0.350 OA
BRANCH   7   8
ATOM      8  C   UNL     1      22.349  22.125  87.052  1.00  0.00     0.160 C 
ATOM      9  C   UNL     1      23.322  22.248  88.219  1.00  0.00     0.035 C 
ENDBRANCH   7   8
ENDBRANCH   1   7
BRANCH   2  10
ATOM     10  O   UNL     1      25.940  19.300  86.178  1.00  0.00    -0.385 OA
ATOM     11  H   UNL     1      26.655  19.886  86.541  1.00  0.00     0.211 HD
ENDBRANCH   2  10
BRANCH   3  12
ATOM     12  O   UNL     1      25.564  19.144  83.428  1.00  0.00    -0.387 OA
ATOM     13  H   UNL     1      25.391  19.558  82.541  1.00  0.00     0.211 HD
ENDBRANCH   3  12
BRANCH   5  14
ATOM     14  C   UNL     1      21.745  17.357  86.012  1.00  0.00     0.191 C 
BRANCH  14  15
ATOM     15  O   UNL     1      21.818  17.129  87.394  1.00  0.00    -0.394 OA
ATOM     16  H   UNL     1      21.437  16.226  87.553  1.00  0.00     0.210 HD
ENDBRANCH  14  15
ENDBRANCH   5  14
BRANCH   4  17
ATOM     17  O   UNL     1      23.039  17.790  83.380  1.00  0.00    -0.387 OA
ATOM     18  H   UNL     1      23.391  16.875  83.214  1.00  0.00     0.211 HD
ENDBRANCH   4  17
TORSDOF 7
ENDMDL
