MODEL 1
REMARK VINA RESULT:    -3.893      0.000      0.000
REMARK INTER + INTRA:          -4.919
REMARK INTER:                  -4.803
REMARK INTRA:                  -0.116
REMARK UNBOUND:                -0.116
REMARK SMILES C=C1CC[C@H]2[C@H]1[C@@H]1[C@H](CC[C@@H]2C)C1(C)C
REMARK SMILES IDX 6 1 5 2 4 3 3 4 2 5 1 6 11 7 12 8 10 9 7 11 8 12 13 13 14 14
REMARK SMILES IDX 15 15 9 16
REMARK H PARENT
REMARK Flexibility Score: 80.00
ROOT
ATOM      1  C   UNL     1       1.277  15.745  15.654  1.00  0.00     0.022 C 
ATOM      2  C   UNL     1       0.981  14.233  15.696  1.00  0.00    -0.000 C 
ATOM      3  C   UNL     1       1.798  13.708  16.890  1.00  0.00     0.009 C 
ATOM      4  C   UNL     1       1.866  14.851  17.894  1.00  0.00     0.031 C 
ATOM      5  C   UNL     1       1.660  16.068  17.062  1.00  0.00    -0.074 C 
ATOM      6  C   UNL     1       1.875  17.308  17.518  1.00  0.00     0.008 C 
ENDROOT
BRANCH   2   7
ATOM      7  C   UNL     1       1.302  13.520  14.349  1.00  0.00    -0.011 C 
ATOM      8  C   UNL     1       1.186  11.991  14.491  1.00  0.00     0.008 C 
BRANCH   7   9
ATOM      9  C   UNL     1       0.362  13.982  13.205  1.00  0.00     0.004 CG0
ATOM     10  G   UNL     1       0.496  15.471  12.847  1.00  0.00     0.000 G0
ENDBRANCH   7   9
ENDBRANCH   2   7
BRANCH   1  11
ATOM     11  C   UNL     1       0.018  16.527  15.222  1.00  0.00     0.006 C 
ATOM     12  C   UNL     1      -0.406  16.343  13.753  1.00  0.00    -0.001 C 
ATOM     13  C   UNL     1       0.082  17.717  14.245  1.00  0.00    -0.029 C 
ATOM     14  C   UNL     1      -1.034  18.752  14.427  1.00  0.00     0.012 C 
ATOM     15  C   UNL     1       1.425  18.286  13.745  1.00  0.00     0.012 C 
BRANCH  12  16
ATOM     16  C   UNL     1       0.493  15.474  12.848  1.00  0.00     0.005 CG0
ATOM     17  G   UNL     1       0.363  13.983  13.203  1.00  0.00     0.000 G0
ENDBRANCH  12  16
ENDBRANCH   1  11
TORSDOF 0
ENDMDL
MODEL 2
REMARK VINA RESULT:    -3.771      1.888      2.264
REMARK INTER + INTRA:          -4.768
REMARK INTER:                  -4.658
REMARK INTRA:                  -0.110
REMARK UNBOUND:                -0.116
REMARK SMILES C=C1CC[C@H]2[C@H]1[C@@H]1[C@H](CC[C@@H]2C)C1(C)C
REMARK SMILES IDX 6 1 5 2 4 3 3 4 2 5 1 6 11 7 12 8 10 9 7 11 8 12 13 13 14 14
REMARK SMILES IDX 15 15 9 16
REMARK H PARENT
REMARK Flexibility Score: 80.00
ROOT
ATOM      1  C   UNL     1       1.737  15.563  14.746  1.00  0.00     0.022 C 
ATOM      2  C   UNL     1       2.259  14.289  14.054  1.00  0.00    -0.000 C 
ATOM      3  C   UNL     1       2.523  13.300  15.204  1.00  0.00     0.009 C 
ATOM      4  C   UNL     1       1.510  13.634  16.291  1.00  0.00     0.031 C 
ATOM      5  C   UNL     1       1.162  15.057  16.028  1.00  0.00    -0.074 C 
ATOM      6  C   UNL     1       0.474  15.812  16.894  1.00  0.00     0.008 C 
ENDROOT
BRANCH   2   7
ATOM      7  C   UNL     1       3.503  14.558  13.156  1.00  0.00    -0.011 C 
ATOM      8  C   UNL     1       4.119  13.240  12.653  1.00  0.00     0.008 C 
BRANCH   7   9
ATOM      9  C   UNL     1       3.157  15.441  11.928  1.00  0.00     0.004 CG0
ATOM     10  G   UNL     1       2.688  16.861  12.289  1.00  0.00     0.000 G0
ENDBRANCH   7   9
ENDBRANCH   2   7
BRANCH   1  11
ATOM     11  C   UNL     1       0.657  16.242  13.876  1.00  0.00     0.006 C 
ATOM     12  C   UNL     1       1.163  16.885  12.571  1.00  0.00    -0.001 C 
ATOM     13  C   UNL     1       0.589  17.770  13.691  1.00  0.00    -0.029 C 
ATOM     14  C   UNL     1      -0.816  18.316  13.404  1.00  0.00     0.012 C 
ATOM     15  C   UNL     1       1.513  18.725  14.473  1.00  0.00     0.012 C 
BRANCH  12  16
ATOM     16  C   UNL     1       2.681  16.859  12.298  1.00  0.00     0.005 CG0
ATOM     17  G   UNL     1       3.156  15.444  11.928  1.00  0.00     0.000 G0
ENDBRANCH  12  16
ENDBRANCH   1  11
TORSDOF 0
ENDMDL
MODEL 3
REMARK VINA RESULT:    -3.689      1.964      4.525
REMARK INTER + INTRA:          -4.668
REMARK INTER:                  -4.556
REMARK INTRA:                  -0.112
REMARK UNBOUND:                -0.116
REMARK SMILES C=C1CC[C@H]2[C@H]1[C@@H]1[C@H](CC[C@@H]2C)C1(C)C
REMARK SMILES IDX 6 1 5 2 4 3 3 4 2 5 1 6 11 7 12 8 10 9 7 11 8 12 13 13 14 14
REMARK SMILES IDX 15 15 9 16
REMARK H PARENT
REMARK Flexibility Score: 80.00
ROOT
ATOM      1  C   UNL     1       1.456  15.422  14.784  1.00  0.00     0.022 C 
ATOM      2  C   UNL     1       0.586  16.222  13.794  1.00  0.00    -0.000 C 
ATOM      3  C   UNL     1       1.509  16.491  12.592  1.00  0.00     0.009 C 
ATOM      4  C   UNL     1       2.468  15.309  12.520  1.00  0.00     0.031 C 
ATOM      5  C   UNL     1       2.482  14.777  13.909  1.00  0.00    -0.074 C 
ATOM      6  C   UNL     1       3.374  13.875  14.336  1.00  0.00     0.008 C 
ENDROOT
BRANCH   2   7
ATOM      7  C   UNL     1      -0.016  17.510  14.428  1.00  0.00    -0.011 C 
ATOM      8  C   UNL     1      -0.711  18.379  13.363  1.00  0.00     0.008 C 
BRANCH   7   9
ATOM      9  C   UNL     1      -1.041  17.187  15.547  1.00  0.00     0.004 CG0
ATOM     10  G   UNL     1      -0.439  16.449  16.754  1.00  0.00     0.000 G0
ENDBRANCH   7   9
ENDBRANCH   2   7
BRANCH   1  11
ATOM     11  C   UNL     1       0.601  14.367  15.518  1.00  0.00     0.006 C 
ATOM     12  C   UNL     1      -0.423  14.924  16.524  1.00  0.00    -0.001 C 
ATOM     13  C   UNL     1       0.761  14.079  17.023  1.00  0.00    -0.029 C 
ATOM     14  C   UNL     1       0.383  12.653  17.444  1.00  0.00     0.012 C 
ATOM     15  C   UNL     1       1.880  14.732  17.860  1.00  0.00     0.012 C 
BRANCH  12  16
ATOM     16  C   UNL     1      -0.446  16.450  16.756  1.00  0.00     0.005 CG0
ATOM     17  G   UNL     1      -1.046  17.188  15.547  1.00  0.00     0.000 G0
ENDBRANCH  12  16
ENDBRANCH   1  11
TORSDOF 0
ENDMDL
MODEL 4
REMARK VINA RESULT:    -3.685      0.973      3.894
REMARK INTER + INTRA:          -4.662
REMARK INTER:                  -4.546
REMARK INTRA:                  -0.116
REMARK UNBOUND:                -0.116
REMARK SMILES C=C1CC[C@H]2[C@H]1[C@@H]1[C@H](CC[C@@H]2C)C1(C)C
REMARK SMILES IDX 6 1 5 2 4 3 3 4 2 5 1 6 11 7 12 8 10 9 7 11 8 12 13 13 14 14
REMARK SMILES IDX 15 15 9 16
REMARK H PARENT
REMARK Flexibility Score: 80.00
ROOT
ATOM      1  C   UNL     1       0.728  14.371  15.679  1.00  0.00     0.022 C 
ATOM      2  C   UNL     1       1.416  15.725  15.415  1.00  0.00    -0.000 C 
ATOM      3  C   UNL     1       1.514  16.390  16.799  1.00  0.00     0.009 C 
ATOM      4  C   UNL     1       1.650  15.256  17.807  1.00  0.00     0.031 C 
ATOM      5  C   UNL     1       1.047  14.087  17.110  1.00  0.00    -0.074 C 
ATOM      6  C   UNL     1       0.757  12.938  17.733  1.00  0.00     0.008 C 
ENDROOT
BRANCH   2   7
ATOM      7  C   UNL     1       0.667  16.584  14.353  1.00  0.00    -0.011 C 
ATOM      8  C   UNL     1       1.261  18.002  14.269  1.00  0.00     0.008 C 
BRANCH   7   9
ATOM      9  C   UNL     1       0.717  15.942  12.942  1.00  0.00     0.004 CG0
ATOM     10  G   UNL     1       0.011  14.580  12.847  1.00  0.00     0.000 G0
ENDBRANCH   7   9
ENDBRANCH   2   7
BRANCH   1  11
ATOM     11  C   UNL     1       1.307  13.284  14.748  1.00  0.00     0.006 C 
ATOM     12  C   UNL     1       0.951  13.429  13.257  1.00  0.00    -0.001 C 
ATOM     13  C   UNL     1       0.418  12.230  14.060  1.00  0.00    -0.029 C 
ATOM     14  C   UNL     1       1.124  10.903  13.753  1.00  0.00     0.012 C 
ATOM     15  C   UNL     1      -1.088  12.112  14.368  1.00  0.00     0.012 C 
BRANCH  12  16
ATOM     16  C   UNL     1       0.005  14.579  12.851  1.00  0.00     0.005 CG0
ATOM     17  G   UNL     1       0.714  15.940  12.942  1.00  0.00     0.000 G0
ENDBRANCH  12  16
ENDBRANCH   1  11
TORSDOF 0
ENDMDL
MODEL 5
REMARK VINA RESULT:    -3.613      1.712      4.087
REMARK INTER + INTRA:          -4.574
REMARK INTER:                  -4.458
REMARK INTRA:                  -0.116
REMARK UNBOUND:                -0.116
REMARK SMILES C=C1CC[C@H]2[C@H]1[C@@H]1[C@H](CC[C@@H]2C)C1(C)C
REMARK SMILES IDX 6 1 5 2 4 3 3 4 2 5 1 6 11 7 12 8 10 9 7 11 8 12 13 13 14 14
REMARK SMILES IDX 15 15 9 16
REMARK H PARENT
REMARK Flexibility Score: 80.00
ROOT
ATOM      1  C   UNL     1       0.810  15.683  14.869  1.00  0.00     0.022 C 
ATOM      2  C   UNL     1       1.887  16.322  13.971  1.00  0.00    -0.000 C 
ATOM      3  C   UNL     1       1.207  17.564  13.368  1.00  0.00     0.009 C 
ATOM      4  C   UNL     1       0.203  18.045  14.408  1.00  0.00     0.031 C 
ATOM      5  C   UNL     1      -0.086  16.828  15.213  1.00  0.00    -0.074 C 
ATOM      6  C   UNL     1      -1.095  16.757  16.091  1.00  0.00     0.008 C 
ENDROOT
BRANCH   2   7
ATOM      7  C   UNL     1       2.450  15.332  12.908  1.00  0.00    -0.011 C 
ATOM      8  C   UNL     1       3.351  16.061  11.894  1.00  0.00     0.008 C 
BRANCH   7   9
ATOM      9  C   UNL     1       3.265  14.182  13.555  1.00  0.00     0.004 CG0
ATOM     10  G   UNL     1       2.435  13.262  14.466  1.00  0.00     0.000 G0
ENDBRANCH   7   9
ENDBRANCH   2   7
BRANCH   1  11
ATOM     11  C   UNL     1       1.456  15.075  16.133  1.00  0.00     0.006 C 
ATOM     12  C   UNL     1       2.329  13.829  15.899  1.00  0.00    -0.001 C 
ATOM     13  C   UNL     1       1.023  13.712  16.705  1.00  0.00    -0.029 C 
ATOM     14  C   UNL     1       1.229  13.561  18.217  1.00  0.00     0.012 C 
ATOM     15  C   UNL     1      -0.175  12.932  16.128  1.00  0.00     0.012 C 
BRANCH  12  16
ATOM     16  C   UNL     1       2.413  13.269  14.464  1.00  0.00     0.005 CG0
ATOM     17  G   UNL     1       3.265  14.176  13.561  1.00  0.00     0.000 G0
ENDBRANCH  12  16
ENDBRANCH   1  11
TORSDOF 0
ENDMDL
MODEL 6
REMARK VINA RESULT:    -3.610      1.850      4.248
REMARK INTER + INTRA:          -4.570
REMARK INTER:                  -4.454
REMARK INTRA:                  -0.116
REMARK UNBOUND:                -0.116
REMARK SMILES C=C1CC[C@H]2[C@H]1[C@@H]1[C@H](CC[C@@H]2C)C1(C)C
REMARK SMILES IDX 6 1 5 2 4 3 3 4 2 5 1 6 11 7 12 8 10 9 7 11 8 12 13 13 14 14
REMARK SMILES IDX 15 15 9 16
REMARK H PARENT
REMARK Flexibility Score: 80.00
ROOT
ATOM      1  C   UNL     1       1.427  15.797  14.359  1.00  0.00     0.022 C 
ATOM      2  C   UNL     1       0.268  15.939  15.364  1.00  0.00    -0.000 C 
ATOM      3  C   UNL     1      -0.013  17.451  15.426  1.00  0.00     0.009 C 
ATOM      4  C   UNL     1       0.334  18.004  14.049  1.00  0.00     0.031 C 
ATOM      5  C   UNL     1       1.302  17.015  13.503  1.00  0.00    -0.074 C 
ATOM      6  C   UNL     1       2.032  17.241  12.403  1.00  0.00     0.008 C 
ENDROOT
BRANCH   2   7
ATOM      7  C   UNL     1       0.590  15.300  16.748  1.00  0.00    -0.011 C 
ATOM      8  C   UNL     1      -0.500  15.641  17.782  1.00  0.00     0.008 C 
BRANCH   7   9
ATOM      9  C   UNL     1       0.723  13.757  16.661  1.00  0.00     0.004 CG0
ATOM     10  G   UNL     1       1.890  13.277  15.782  1.00  0.00     0.000 G0
ENDBRANCH   7   9
ENDBRANCH   2   7
BRANCH   1  11
ATOM     11  C   UNL     1       1.262  14.507  13.527  1.00  0.00     0.006 C 
ATOM     12  C   UNL     1       1.470  13.189  14.296  1.00  0.00    -0.001 C 
ATOM     13  C   UNL     1       2.452  13.591  13.182  1.00  0.00    -0.029 C 
ATOM     14  C   UNL     1       2.287  12.794  11.882  1.00  0.00     0.012 C 
ATOM     15  C   UNL     1       3.903  13.978  13.531  1.00  0.00     0.012 C 
BRANCH  12  16
ATOM     16  C   UNL     1       1.891  13.281  15.778  1.00  0.00     0.005 CG0
ATOM     17  G   UNL     1       0.725  13.754  16.661  1.00  0.00     0.000 G0
ENDBRANCH  12  16
ENDBRANCH   1  11
TORSDOF 0
ENDMDL
MODEL 7
REMARK VINA RESULT:    -3.608      2.053      4.888
REMARK INTER + INTRA:          -4.568
REMARK INTER:                  -4.456
REMARK INTRA:                  -0.112
REMARK UNBOUND:                -0.116
REMARK SMILES C=C1CC[C@H]2[C@H]1[C@@H]1[C@H](CC[C@@H]2C)C1(C)C
REMARK SMILES IDX 6 1 5 2 4 3 3 4 2 5 1 6 11 7 12 8 10 9 7 11 8 12 13 13 14 14
REMARK SMILES IDX 15 15 9 16
REMARK H PARENT
REMARK Flexibility Score: 80.00
ROOT
ATOM      1  C   UNL     1       1.012  15.749  14.820  1.00  0.00     0.022 C 
ATOM      2  C   UNL     1       0.994  17.164  15.432  1.00  0.00    -0.000 C 
ATOM      3  C   UNL     1       1.356  18.099  14.265  1.00  0.00     0.009 C 
ATOM      4  C   UNL     1       0.823  17.431  13.004  1.00  0.00     0.031 C 
ATOM      5  C   UNL     1       0.749  15.990  13.369  1.00  0.00    -0.074 C 
ATOM      6  C   UNL     1       0.546  15.019  12.469  1.00  0.00     0.008 C 
ENDROOT
BRANCH   2   7
ATOM      7  C   UNL     1       1.937  17.298  16.664  1.00  0.00    -0.011 C 
ATOM      8  C   UNL     1       2.043  18.764  17.123  1.00  0.00     0.008 C 
BRANCH   7   9
ATOM      9  C   UNL     1       1.457  16.439  17.863  1.00  0.00     0.004 CG0
ATOM     10  G   UNL     1       1.450  14.926  17.587  1.00  0.00     0.000 G0
ENDBRANCH   7   9
ENDBRANCH   2   7
BRANCH   1  11
ATOM     11  C   UNL     1      -0.093  14.876  15.453  1.00  0.00     0.006 C 
ATOM     12  C   UNL     1       0.133  14.482  16.924  1.00  0.00    -0.001 C 
ATOM     13  C   UNL     1       0.138  13.400  15.830  1.00  0.00    -0.029 C 
ATOM     14  C   UNL     1      -1.125  12.530  15.801  1.00  0.00     0.012 C 
ATOM     15  C   UNL     1       1.446  12.666  15.474  1.00  0.00     0.012 C 
BRANCH  12  16
ATOM     16  C   UNL     1       1.452  14.923  17.592  1.00  0.00     0.005 CG0
ATOM     17  G   UNL     1       1.464  16.438  17.857  1.00  0.00     0.000 G0
ENDBRANCH  12  16
ENDBRANCH   1  11
TORSDOF 0
ENDMDL
MODEL 8
REMARK VINA RESULT:    -3.600      1.893      3.519
REMARK INTER + INTRA:          -4.558
REMARK INTER:                  -4.442
REMARK INTRA:                  -0.116
REMARK UNBOUND:                -0.116
REMARK SMILES C=C1CC[C@H]2[C@H]1[C@@H]1[C@H](CC[C@@H]2C)C1(C)C
REMARK SMILES IDX 6 1 5 2 4 3 3 4 2 5 1 6 11 7 12 8 10 9 7 11 8 12 13 13 14 14
REMARK SMILES IDX 15 15 9 16
REMARK H PARENT
REMARK Flexibility Score: 80.00
ROOT
ATOM      1  C   UNL     1       0.634  14.553  14.664  1.00  0.00     0.022 C 
ATOM      2  C   UNL     1       1.038  13.667  15.858  1.00  0.00    -0.000 C 
ATOM      3  C   UNL     1       1.125  12.244  15.277  1.00  0.00     0.009 C 
ATOM      4  C   UNL     1       1.549  12.405  13.823  1.00  0.00     0.031 C 
ATOM      5  C   UNL     1       1.116  13.786  13.477  1.00  0.00    -0.074 C 
ATOM      6  C   UNL     1       1.093  14.250  12.221  1.00  0.00     0.008 C 
ENDROOT
BRANCH   2   7
ATOM      7  C   UNL     1       0.060  13.798  17.063  1.00  0.00    -0.011 C 
ATOM      8  C   UNL     1       0.376  12.753  18.149  1.00  0.00     0.008 C 
BRANCH   7   9
ATOM      9  C   UNL     1       0.110  15.209  17.706  1.00  0.00     0.004 CG0
ATOM     10  G   UNL     1      -0.350  16.340  16.771  1.00  0.00     0.000 G0
ENDBRANCH   7   9
ENDBRANCH   2   7
BRANCH   1  11
ATOM     11  C   UNL     1       1.324  15.931  14.760  1.00  0.00     0.006 C 
ATOM     12  C   UNL     1       0.826  16.846  15.895  1.00  0.00    -0.001 C 
ATOM     13  C   UNL     1       0.591  17.245  14.428  1.00  0.00    -0.029 C 
ATOM     14  C   UNL     1       1.502  18.374  13.930  1.00  0.00     0.012 C 
ATOM     15  C   UNL     1      -0.837  17.254  13.847  1.00  0.00     0.012 C 
BRANCH  12  16
ATOM     16  C   UNL     1      -0.345  16.341  16.763  1.00  0.00     0.005 CG0
ATOM     17  G   UNL     1       0.105  15.212  17.704  1.00  0.00     0.000 G0
ENDBRANCH  12  16
ENDBRANCH   1  11
TORSDOF 0
ENDMDL
MODEL 9
REMARK VINA RESULT:    -3.544      1.398      3.872
REMARK INTER + INTRA:          -4.488
REMARK INTER:                  -4.372
REMARK INTRA:                  -0.116
REMARK UNBOUND:                -0.116
REMARK SMILES C=C1CC[C@H]2[C@H]1[C@@H]1[C@H](CC[C@@H]2C)C1(C)C
REMARK SMILES IDX 6 1 5 2 4 3 3 4 2 5 1 6 11 7 12 8 10 9 7 11 8 12 13 13 14 14
REMARK SMILES IDX 15 15 9 16
REMARK H PARENT
REMARK Flexibility Score: 80.00
ROOT
ATOM      1  C   UNL     1       1.273  15.408  14.825  1.00  0.00     0.022 C 
ATOM      2  C   UNL     1       0.882  16.889  14.653  1.00  0.00    -0.000 C 
ATOM      3  C   UNL     1       0.512  17.362  16.070  1.00  0.00     0.009 C 
ATOM      4  C   UNL     1       1.372  16.548  17.028  1.00  0.00     0.031 C 
ATOM      5  C   UNL     1       1.703  15.321  16.253  1.00  0.00    -0.074 C 
ATOM      6  C   UNL     1       2.254  14.234  16.809  1.00  0.00     0.008 C 
ENDROOT
BRANCH   2   7
ATOM      7  C   UNL     1      -0.250  17.094  13.603  1.00  0.00    -0.011 C 
ATOM      8  C   UNL     1      -0.754  18.549  13.610  1.00  0.00     0.008 C 
BRANCH   7   9
ATOM      9  C   UNL     1       0.214  16.738  12.166  1.00  0.00     0.004 CG0
ATOM     10  G   UNL     1       0.589  15.259  11.977  1.00  0.00     0.000 G0
ENDBRANCH   7   9
ENDBRANCH   2   7
BRANCH   1  11
ATOM     11  C   UNL     1       2.429  15.043  13.868  1.00  0.00     0.006 C 
ATOM     12  C   UNL     1       2.066  15.006  12.372  1.00  0.00    -0.001 C 
ATOM     13  C   UNL     1       2.470  13.710  13.096  1.00  0.00    -0.029 C 
ATOM     14  C   UNL     1       3.880  13.213  12.757  1.00  0.00     0.012 C 
ATOM     15  C   UNL     1       1.427  12.600  13.336  1.00  0.00     0.012 C 
BRANCH  12  16
ATOM     16  C   UNL     1       0.594  15.256  11.983  1.00  0.00     0.005 CG0
ATOM     17  G   UNL     1       0.213  16.735  12.166  1.00  0.00     0.000 G0
ENDBRANCH  12  16
ENDBRANCH   1  11
TORSDOF 0
ENDMDL
