MODEL 1
REMARK VINA RESULT:    -2.817      0.000      0.000
REMARK INTER + INTRA:          -2.817
REMARK INTER:                  -2.817
REMARK INTRA:                   0.000
REMARK UNBOUND:                 0.000
REMARK SMILES CC(=O)[O-]
REMARK SMILES IDX 1 1 2 2 3 3 4 4
REMARK H PARENT
REMARK Flexibility Score: inf
ROOT
ATOM      1  C   UNL     1      17.001 -61.383  60.287  1.00  0.00     0.063 C 
ATOM      2  C   UNL     1      17.755 -61.626  61.550  1.00  0.00     0.038 C 
ATOM      3  O   UNL     1      17.665 -60.813  62.506  1.00  0.00    -0.550 OA
ATOM      4  O   UNL     1      18.601 -62.723  61.655  1.00  0.00    -0.550 OA
ENDROOT
TORSDOF 0
ENDMDL
MODEL 2
REMARK VINA RESULT:    -2.774      1.736      1.982
REMARK INTER + INTRA:          -2.774
REMARK INTER:                  -2.774
REMARK INTRA:                   0.000
REMARK UNBOUND:                 0.000
REMARK SMILES CC(=O)[O-]
REMARK SMILES IDX 1 1 2 2 3 3 4 4
REMARK H PARENT
REMARK Flexibility Score: inf
ROOT
ATOM      1  C   UNL     1      17.772 -61.174  62.161  1.00  0.00     0.063 C 
ATOM      2  C   UNL     1      17.188 -61.801  60.941  1.00  0.00     0.038 C 
ATOM      3  O   UNL     1      16.904 -61.092  59.941  1.00  0.00    -0.550 OA
ATOM      4  O   UNL     1      16.905 -63.161  60.924  1.00  0.00    -0.550 OA
ENDROOT
TORSDOF 0
ENDMDL
MODEL 3
REMARK VINA RESULT:    -2.593      1.343      1.759
REMARK INTER + INTRA:          -2.593
REMARK INTER:                  -2.593
REMARK INTRA:                   0.000
REMARK UNBOUND:                 0.000
REMARK SMILES CC(=O)[O-]
REMARK SMILES IDX 1 1 2 2 3 3 4 4
REMARK H PARENT
REMARK Flexibility Score: inf
ROOT
ATOM      1  C   UNL     1      18.142 -62.947  61.593  1.00  0.00     0.063 C 
ATOM      2  C   UNL     1      17.610 -61.557  61.505  1.00  0.00     0.038 C 
ATOM      3  O   UNL     1      17.674 -60.792  62.502  1.00  0.00    -0.550 OA
ATOM      4  O   UNL     1      16.994 -61.120  60.339  1.00  0.00    -0.550 OA
ENDROOT
TORSDOF 0
ENDMDL
MODEL 4
REMARK VINA RESULT:    -2.579      1.350      1.963
REMARK INTER + INTRA:          -2.579
REMARK INTER:                  -2.579
REMARK INTRA:                   0.000
REMARK UNBOUND:                 0.000
REMARK SMILES CC(=O)[O-]
REMARK SMILES IDX 1 1 2 2 3 3 4 4
REMARK H PARENT
REMARK Flexibility Score: inf
ROOT
ATOM      1  C   UNL     1      18.061 -62.967  61.464  1.00  0.00     0.063 C 
ATOM      2  C   UNL     1      17.552 -61.565  61.460  1.00  0.00     0.038 C 
ATOM      3  O   UNL     1      17.040 -61.083  60.417  1.00  0.00    -0.550 OA
ATOM      4  O   UNL     1      17.690 -60.771  62.592  1.00  0.00    -0.550 OA
ENDROOT
TORSDOF 0
ENDMDL
MODEL 5
REMARK VINA RESULT:    -2.255      1.745      2.175
REMARK INTER + INTRA:          -2.255
REMARK INTER:                  -2.255
REMARK INTRA:                   0.000
REMARK UNBOUND:                 0.000
REMARK SMILES CC(=O)[O-]
REMARK SMILES IDX 1 1 2 2 3 3 4 4
REMARK H PARENT
REMARK Flexibility Score: inf
ROOT
ATOM      1  C   UNL     1      16.965 -61.361  60.205  1.00  0.00     0.063 C 
ATOM      2  C   UNL     1      17.137 -62.814  60.492  1.00  0.00     0.038 C 
ATOM      3  O   UNL     1      17.853 -63.185  61.458  1.00  0.00    -0.550 OA
ATOM      4  O   UNL     1      16.552 -63.762  59.662  1.00  0.00    -0.550 OA
ENDROOT
TORSDOF 0
ENDMDL
MODEL 6
REMARK VINA RESULT:    -2.081      2.078      2.124
REMARK INTER + INTRA:          -2.081
REMARK INTER:                  -2.081
REMARK INTRA:                   0.000
REMARK UNBOUND:                 0.000
REMARK SMILES CC(=O)[O-]
REMARK SMILES IDX 1 1 2 2 3 3 4 4
REMARK H PARENT
REMARK Flexibility Score: inf
ROOT
ATOM      1  C   UNL     1      17.402 -63.784  59.908  1.00  0.00     0.063 C 
ATOM      2  C   UNL     1      17.085 -62.498  60.592  1.00  0.00     0.038 C 
ATOM      3  O   UNL     1      16.443 -61.602  59.986  1.00  0.00    -0.550 OA
ATOM      4  O   UNL     1      17.543 -62.265  61.883  1.00  0.00    -0.550 OA
ENDROOT
TORSDOF 0
ENDMDL
MODEL 7
REMARK VINA RESULT:    -1.880     14.404     14.647
REMARK INTER + INTRA:          -1.880
REMARK INTER:                  -1.880
REMARK INTRA:                   0.000
REMARK UNBOUND:                 0.000
REMARK SMILES CC(=O)[O-]
REMARK SMILES IDX 1 1 2 2 3 3 4 4
REMARK H PARENT
REMARK Flexibility Score: inf
ROOT
ATOM      1  C   UNL     1      25.587 -54.542  70.486  1.00  0.00     0.063 C 
ATOM      2  C   UNL     1      25.886 -53.162  70.006  1.00  0.00     0.038 C 
ATOM      3  O   UNL     1      26.878 -52.954  69.261  1.00  0.00    -0.550 OA
ATOM      4  O   UNL     1      25.101 -52.095  70.425  1.00  0.00    -0.550 OA
ENDROOT
TORSDOF 0
ENDMDL
MODEL 8
REMARK VINA RESULT:    -1.877      2.307      2.492
REMARK INTER + INTRA:          -1.877
REMARK INTER:                  -1.877
REMARK INTRA:                   0.000
REMARK UNBOUND:                 0.000
REMARK SMILES CC(=O)[O-]
REMARK SMILES IDX 1 1 2 2 3 3 4 4
REMARK H PARENT
REMARK Flexibility Score: inf
ROOT
ATOM      1  C   UNL     1      18.344 -61.598  62.628  1.00  0.00     0.063 C 
ATOM      2  C   UNL     1      18.844 -62.951  63.004  1.00  0.00     0.038 C 
ATOM      3  O   UNL     1      18.690 -63.377  64.178  1.00  0.00    -0.550 OA
ATOM      4  O   UNL     1      19.528 -63.725  62.074  1.00  0.00    -0.550 OA
ENDROOT
TORSDOF 0
ENDMDL
MODEL 9
REMARK VINA RESULT:    -1.834     10.601     11.001
REMARK INTER + INTRA:          -1.834
REMARK INTER:                  -1.834
REMARK INTRA:                   0.000
REMARK UNBOUND:                 0.000
REMARK SMILES CC(=O)[O-]
REMARK SMILES IDX 1 1 2 2 3 3 4 4
REMARK H PARENT
REMARK Flexibility Score: inf
ROOT
ATOM      1  C   UNL     1       7.764 -66.079  56.121  1.00  0.00     0.063 C 
ATOM      2  C   UNL     1       9.223 -66.022  56.423  1.00  0.00     0.038 C 
ATOM      3  O   UNL     1      10.065 -66.234  55.512  1.00  0.00    -0.550 OA
ATOM      4  O   UNL     1       9.656 -65.788  57.722  1.00  0.00    -0.550 OA
ENDROOT
TORSDOF 0
ENDMDL
