MODEL 1
REMARK VINA RESULT:    -6.426      0.000      0.000
REMARK INTER + INTRA:          -9.655
REMARK INTER:                  -8.867
REMARK INTRA:                  -0.788
REMARK UNBOUND:                -0.788
REMARK SMILES C=C(CC[C@@H](C(=O)[O-])[C@H]1CC[C@@]2(C)C3=C(CC[C@@]12C)[C@@]1(C)CC[C@@H](O)C(C)(C)[C@H]1CC3)C(C)C
REMARK SMILES IDX 4 1 5 2 6 3 7 4 8 5 9 6 10 7 18 8 11 9 12 10 17 11 19 12
REMARK SMILES IDX 13 13 14 14 16 15 15 16 31 17 20 18 30 19 29 20 22 21 21 22
REMARK SMILES IDX 26 23 23 24 24 25 27 26 28 27 25 28 3 30 2 31 1 32 32 33
REMARK SMILES IDX 33 34 34 35
REMARK H PARENT 25 29
REMARK Flexibility Score: inf
ROOT
ATOM      1  C   UNL     1      14.240 -21.464  42.629  1.00  0.00     0.014 C 
ENDROOT
BRANCH   1   2
ATOM      2  C   UNL     1      15.777 -21.227  42.704  1.00  0.00     0.039 C 
BRANCH   2   3
ATOM      3  C   UNL     1      16.567 -22.525  42.733  1.00  0.00     0.045 C 
ATOM      4  O   UNL     1      16.884 -23.098  41.659  1.00  0.00    -0.550 OA
ATOM      5  O   UNL     1      16.974 -23.098  43.931  1.00  0.00    -0.550 OA
ENDBRANCH   2   3
BRANCH   2   6
ATOM      6  C   UNL     1      16.264 -20.180  41.634  1.00  0.00     0.004 C 
ATOM      7  C   UNL     1      15.270 -19.026  41.404  1.00  0.00     0.006 C 
ATOM      8  C   UNL     1      17.700 -19.534  41.727  1.00  0.00    -0.020 C 
ATOM      9  C   UNL     1      16.080 -17.743  41.364  1.00  0.00     0.012 C 
ATOM     10  C   UNL     1      17.527 -18.139  41.016  1.00  0.00    -0.006 C 
ATOM     11  C   UNL     1      18.150 -19.298  43.185  1.00  0.00     0.012 C 
ATOM     12  C   UNL     1      18.757 -20.446  41.026  1.00  0.00     0.012 C 
ATOM     13  C   UNL     1      17.652 -18.278  39.467  1.00  0.00     0.017 C 
ATOM     14  C   UNL     1      18.477 -17.020  41.513  1.00  0.00    -0.064 C 
ATOM     15  C   UNL     1      19.460 -18.521  43.249  1.00  0.00     0.032 C 
ATOM     16  C   UNL     1      19.394 -17.192  42.510  1.00  0.00    -0.064 C 
ATOM     17  C   UNL     1      18.319 -15.636  40.933  1.00  0.00     0.032 C 
ATOM     18  C   UNL     1      20.370 -16.051  42.954  1.00  0.00    -0.008 C 
ATOM     19  C   UNL     1      19.694 -15.092  40.610  1.00  0.00     0.009 C 
ATOM     20  C   UNL     1      20.449 -14.823  41.928  1.00  0.00     0.007 C 
ATOM     21  C   UNL     1      21.780 -16.675  43.162  1.00  0.00     0.014 C 
ATOM     22  C   UNL     1      19.838 -15.533  44.319  1.00  0.00     0.016 C 
ATOM     23  C   UNL     1      21.882 -14.188  41.680  1.00  0.00    -0.006 C 
ATOM     24  C   UNL     1      22.909 -15.689  43.509  1.00  0.00     0.033 C 
ATOM     25  C   UNL     1      22.707 -14.252  42.995  1.00  0.00     0.120 C 
ATOM     26  C   UNL     1      22.660 -14.868  40.517  1.00  0.00     0.014 C 
ATOM     27  C   UNL     1      21.721 -12.689  41.302  1.00  0.00     0.014 C 
BRANCH  25  28
ATOM     28  O   UNL     1      23.963 -13.639  42.823  1.00  0.00    -0.393 OA
ATOM     29  H   UNL     1      24.572 -14.033  43.504  1.00  0.00     0.210 HD
ENDBRANCH  25  28
ENDBRANCH   2   6
ENDBRANCH   1   2
BRANCH   1  30
ATOM     30  C   UNL     1      13.775 -22.199  41.355  1.00  0.00     0.031 C 
BRANCH  30  31
ATOM     31  C   UNL     1      12.271 -22.233  41.164  1.00  0.00    -0.075 C 
ATOM     32  C   UNL     1      11.539 -23.125  41.858  1.00  0.00     0.008 C 
BRANCH  31  33
ATOM     33  C   UNL     1      11.629 -21.368  40.085  1.00  0.00     0.008 C 
ATOM     34  C   UNL     1      10.708 -22.180  39.164  1.00  0.00     0.012 C 
ATOM     35  C   UNL     1      12.697 -20.628  39.270  1.00  0.00     0.012 C 
ENDBRANCH  31  33
ENDBRANCH  30  31
ENDBRANCH   1  30
TORSDOF 7
ENDMDL
MODEL 2
REMARK VINA RESULT:    -6.402      1.740      2.986
REMARK INTER + INTRA:          -9.623
REMARK INTER:                  -7.243
REMARK INTRA:                  -2.380
REMARK UNBOUND:                -0.788
REMARK SMILES C=C(CC[C@@H](C(=O)[O-])[C@H]1CC[C@@]2(C)C3=C(CC[C@@]12C)[C@@]1(C)CC[C@@H](O)C(C)(C)[C@H]1CC3)C(C)C
REMARK SMILES IDX 4 1 5 2 6 3 7 4 8 5 9 6 10 7 18 8 11 9 12 10 17 11 19 12
REMARK SMILES IDX 13 13 14 14 16 15 15 16 31 17 20 18 30 19 29 20 22 21 21 22
REMARK SMILES IDX 26 23 23 24 24 25 27 26 28 27 25 28 3 30 2 31 1 32 32 33
REMARK SMILES IDX 33 34 34 35
REMARK H PARENT 25 29
REMARK Flexibility Score: inf
ROOT
ATOM      1  C   UNL     1      14.314 -20.677  43.136  1.00  0.00     0.014 C 
ENDROOT
BRANCH   1   2
ATOM      2  C   UNL     1      15.765 -20.951  42.643  1.00  0.00     0.039 C 
BRANCH   2   3
ATOM      3  C   UNL     1      15.962 -22.385  42.178  1.00  0.00     0.045 C 
ATOM      4  O   UNL     1      17.082 -22.944  42.306  1.00  0.00    -0.550 OA
ATOM      5  O   UNL     1      14.918 -23.116  41.625  1.00  0.00    -0.550 OA
ENDBRANCH   2   3
BRANCH   2   6
ATOM      6  C   UNL     1      16.259 -19.853  41.629  1.00  0.00     0.004 C 
ATOM      7  C   UNL     1      15.322 -18.633  41.537  1.00  0.00     0.006 C 
ATOM      8  C   UNL     1      17.733 -19.294  41.693  1.00  0.00    -0.020 C 
ATOM      9  C   UNL     1      16.202 -17.396  41.549  1.00  0.00     0.012 C 
ATOM     10  C   UNL     1      17.605 -17.841  41.098  1.00  0.00    -0.006 C 
ATOM     11  C   UNL     1      18.265 -19.194  43.139  1.00  0.00     0.012 C 
ATOM     12  C   UNL     1      18.700 -20.205  40.873  1.00  0.00     0.012 C 
ATOM     13  C   UNL     1      17.648 -17.868  39.537  1.00  0.00     0.017 C 
ATOM     14  C   UNL     1      18.641 -16.816  41.624  1.00  0.00    -0.064 C 
ATOM     15  C   UNL     1      19.619 -18.496  43.191  1.00  0.00     0.032 C 
ATOM     16  C   UNL     1      19.594 -17.113  42.557  1.00  0.00    -0.064 C 
ATOM     17  C   UNL     1      18.535 -15.385  41.157  1.00  0.00     0.032 C 
ATOM     18  C   UNL     1      20.654 -16.063  43.032  1.00  0.00    -0.008 C 
ATOM     19  C   UNL     1      19.922 -14.893  40.803  1.00  0.00     0.009 C 
ATOM     20  C   UNL     1      20.753 -14.766  42.096  1.00  0.00     0.007 C 
ATOM     21  C   UNL     1      22.034 -16.776  43.119  1.00  0.00     0.014 C 
ATOM     22  C   UNL     1      20.219 -15.623  44.457  1.00  0.00     0.016 C 
ATOM     23  C   UNL     1      22.207 -14.191  41.820  1.00  0.00    -0.006 C 
ATOM     24  C   UNL     1      23.233 -15.880  43.478  1.00  0.00     0.033 C 
ATOM     25  C   UNL     1      23.089 -14.400  43.082  1.00  0.00     0.120 C 
ATOM     26  C   UNL     1      22.888 -14.822  40.572  1.00  0.00     0.014 C 
ATOM     27  C   UNL     1      22.114 -12.661  41.563  1.00  0.00     0.014 C 
BRANCH  25  28
ATOM     28  O   UNL     1      24.369 -13.844  42.891  1.00  0.00    -0.393 OA
ATOM     29  H   UNL     1      24.336 -12.916  43.245  1.00  0.00     0.210 HD
ENDBRANCH  25  28
ENDBRANCH   2   6
ENDBRANCH   1   2
BRANCH   1  30
ATOM     30  C   UNL     1      14.193 -20.456  44.657  1.00  0.00     0.031 C 
BRANCH  30  31
ATOM     31  C   UNL     1      14.258 -19.004  45.090  1.00  0.00    -0.075 C 
ATOM     32  C   UNL     1      13.329 -18.141  44.639  1.00  0.00     0.008 C 
BRANCH  31  33
ATOM     33  C   UNL     1      15.452 -18.513  45.901  1.00  0.00     0.008 C 
ATOM     34  C   UNL     1      16.127 -17.295  45.256  1.00  0.00     0.012 C 
ATOM     35  C   UNL     1      16.466 -19.643  46.121  1.00  0.00     0.012 C 
ENDBRANCH  31  33
ENDBRANCH  30  31
ENDBRANCH   1  30
TORSDOF 7
ENDMDL
MODEL 3
REMARK VINA RESULT:    -6.328     16.471     18.420
REMARK INTER + INTRA:          -9.521
REMARK INTER:                  -7.089
REMARK INTRA:                  -2.432
REMARK UNBOUND:                -0.788
REMARK SMILES C=C(CC[C@@H](C(=O)[O-])[C@H]1CC[C@@]2(C)C3=C(CC[C@@]12C)[C@@]1(C)CC[C@@H](O)C(C)(C)[C@H]1CC3)C(C)C
REMARK SMILES IDX 4 1 5 2 6 3 7 4 8 5 9 6 10 7 18 8 11 9 12 10 17 11 19 12
REMARK SMILES IDX 13 13 14 14 16 15 15 16 31 17 20 18 30 19 29 20 22 21 21 22
REMARK SMILES IDX 26 23 23 24 24 25 27 26 28 27 25 28 3 30 2 31 1 32 32 33
REMARK SMILES IDX 33 34 34 35
REMARK H PARENT 25 29
REMARK Flexibility Score: inf
ROOT
ATOM      1  C   UNL     1       6.332  -9.713  30.930  1.00  0.00     0.014 C 
ENDROOT
BRANCH   1   2
ATOM      2  C   UNL     1       6.633  -8.290  31.486  1.00  0.00     0.039 C 
BRANCH   2   3
ATOM      3  C   UNL     1       5.631  -7.852  32.541  1.00  0.00     0.045 C 
ATOM      4  O   UNL     1       5.437  -8.558  33.564  1.00  0.00    -0.550 OA
ATOM      5  O   UNL     1       4.924  -6.662  32.417  1.00  0.00    -0.550 OA
ENDBRANCH   2   3
BRANCH   2   6
ATOM      6  C   UNL     1       8.143  -8.128  31.900  1.00  0.00     0.004 C 
ATOM      7  C   UNL     1       8.873  -9.469  32.107  1.00  0.00     0.006 C 
ATOM      8  C   UNL     1       9.115  -7.201  31.074  1.00  0.00    -0.020 C 
ATOM      9  C   UNL     1      10.225  -9.347  31.428  1.00  0.00     0.012 C 
ATOM     10  C   UNL     1      10.534  -7.843  31.313  1.00  0.00    -0.006 C 
ATOM     11  C   UNL     1       8.809  -7.221  29.561  1.00  0.00     0.012 C 
ATOM     12  C   UNL     1       9.024  -5.725  31.577  1.00  0.00     0.012 C 
ATOM     13  C   UNL     1      11.154  -7.352  32.659  1.00  0.00     0.017 C 
ATOM     14  C   UNL     1      11.557  -7.637  30.168  1.00  0.00    -0.064 C 
ATOM     15  C   UNL     1       9.861  -6.457  28.765  1.00  0.00     0.032 C 
ATOM     16  C   UNL     1      11.273  -6.970  29.010  1.00  0.00    -0.064 C 
ATOM     17  C   UNL     1      12.912  -8.287  30.291  1.00  0.00     0.032 C 
ATOM     18  C   UNL     1      12.346  -6.740  27.893  1.00  0.00    -0.008 C 
ATOM     19  C   UNL     1      13.966  -7.281  29.882  1.00  0.00     0.009 C 
ATOM     20  C   UNL     1      13.851  -7.023  28.366  1.00  0.00     0.007 C 
ATOM     21  C   UNL     1      12.204  -5.278  27.380  1.00  0.00     0.014 C 
ATOM     22  C   UNL     1      11.988  -7.718  26.740  1.00  0.00     0.016 C 
ATOM     23  C   UNL     1      14.966  -6.023  27.840  1.00  0.00    -0.006 C 
ATOM     24  C   UNL     1      13.243  -4.825  26.340  1.00  0.00     0.033 C 
ATOM     25  C   UNL     1      14.599  -5.551  26.406  1.00  0.00     0.120 C 
ATOM     26  C   UNL     1      15.180  -4.799  28.776  1.00  0.00     0.014 C 
ATOM     27  C   UNL     1      16.326  -6.771  27.752  1.00  0.00     0.014 C 
BRANCH  25  28
ATOM     28  O   UNL     1      15.602  -4.710  25.887  1.00  0.00    -0.393 OA
ATOM     29  H   UNL     1      16.350  -4.716  26.542  1.00  0.00     0.210 HD
ENDBRANCH  25  28
ENDBRANCH   2   6
ENDBRANCH   1   2
BRANCH   1  30
ATOM     30  C   UNL     1       5.803  -9.728  29.482  1.00  0.00     0.031 C 
BRANCH  30  31
ATOM     31  C   UNL     1       6.847 -10.067  28.435  1.00  0.00    -0.075 C 
ATOM     32  C   UNL     1       6.628  -9.727  27.151  1.00  0.00     0.008 C 
BRANCH  31  33
ATOM     33  C   UNL     1       8.053 -10.916  28.822  1.00  0.00     0.008 C 
ATOM     34  C   UNL     1       9.324 -10.491  28.074  1.00  0.00     0.012 C 
ATOM     35  C   UNL     1       7.766 -12.407  28.602  1.00  0.00     0.012 C 
ENDBRANCH  31  33
ENDBRANCH  30  31
ENDBRANCH   1  30
TORSDOF 7
ENDMDL
MODEL 4
REMARK VINA RESULT:    -6.316      2.349      9.235
REMARK INTER + INTRA:          -9.503
REMARK INTER:                  -7.634
REMARK INTRA:                  -1.870
REMARK UNBOUND:                -0.788
REMARK SMILES C=C(CC[C@@H](C(=O)[O-])[C@H]1CC[C@@]2(C)C3=C(CC[C@@]12C)[C@@]1(C)CC[C@@H](O)C(C)(C)[C@H]1CC3)C(C)C
REMARK SMILES IDX 4 1 5 2 6 3 7 4 8 5 9 6 10 7 18 8 11 9 12 10 17 11 19 12
REMARK SMILES IDX 13 13 14 14 16 15 15 16 31 17 20 18 30 19 29 20 22 21 21 22
REMARK SMILES IDX 26 23 23 24 24 25 27 26 28 27 25 28 3 30 2 31 1 32 32 33
REMARK SMILES IDX 33 34 34 35
REMARK H PARENT 25 29
REMARK Flexibility Score: inf
ROOT
ATOM      1  C   UNL     1      21.563 -13.125  43.321  1.00  0.00     0.014 C 
ENDROOT
BRANCH   1   2
ATOM      2  C   UNL     1      20.123 -13.223  42.738  1.00  0.00     0.039 C 
BRANCH   2   3
ATOM      3  C   UNL     1      19.677 -11.933  42.066  1.00  0.00     0.045 C 
ATOM      4  O   UNL     1      19.847 -10.828  42.642  1.00  0.00    -0.550 OA
ATOM      5  O   UNL     1      19.097 -11.938  40.804  1.00  0.00    -0.550 OA
ENDBRANCH   2   3
BRANCH   2   6
ATOM      6  C   UNL     1      19.926 -14.522  41.871  1.00  0.00     0.004 C 
ATOM      7  C   UNL     1      21.181 -15.413  41.803  1.00  0.00     0.006 C 
ATOM      8  C   UNL     1      18.697 -15.480  42.115  1.00  0.00    -0.020 C 
ATOM      9  C   UNL     1      20.720 -16.845  42.001  1.00  0.00     0.012 C 
ATOM     10  C   UNL     1      19.224 -16.887  41.639  1.00  0.00    -0.006 C 
ATOM     11  C   UNL     1      18.306 -15.574  43.606  1.00  0.00     0.012 C 
ATOM     12  C   UNL     1      17.454 -14.992  41.307  1.00  0.00     0.012 C 
ATOM     13  C   UNL     1      19.084 -17.046  40.092  1.00  0.00     0.017 C 
ATOM     14  C   UNL     1      18.580 -18.108  42.343  1.00  0.00    -0.064 C 
ATOM     15  C   UNL     1      17.233 -16.631  43.838  1.00  0.00     0.032 C 
ATOM     16  C   UNL     1      17.638 -18.005  43.327  1.00  0.00    -0.064 C 
ATOM     17  C   UNL     1      19.087 -19.486  41.995  1.00  0.00     0.032 C 
ATOM     18  C   UNL     1      16.975 -19.263  43.984  1.00  0.00    -0.008 C 
ATOM     19  C   UNL     1      17.896 -20.402  41.810  1.00  0.00     0.009 C 
ATOM     20  C   UNL     1      17.219 -20.626  43.177  1.00  0.00     0.007 C 
ATOM     21  C   UNL     1      15.452 -18.985  44.132  1.00  0.00     0.014 C 
ATOM     22  C   UNL     1      17.606 -19.395  45.398  1.00  0.00     0.016 C 
ATOM     23  C   UNL     1      15.994 -21.631  43.083  1.00  0.00    -0.006 C 
ATOM     24  C   UNL     1      14.604 -20.149  44.672  1.00  0.00     0.033 C 
ATOM     25  C   UNL     1      15.166 -21.555  44.395  1.00  0.00     0.120 C 
ATOM     26  C   UNL     1      15.083 -21.371  41.850  1.00  0.00     0.014 C 
ATOM     27  C   UNL     1      16.531 -23.084  42.953  1.00  0.00     0.014 C 
BRANCH  25  28
ATOM     28  O   UNL     1      14.106 -22.482  44.368  1.00  0.00    -0.393 OA
ATOM     29  H   UNL     1      14.372 -23.206  43.741  1.00  0.00     0.210 HD
ENDBRANCH  25  28
ENDBRANCH   2   6
ENDBRANCH   1   2
BRANCH   1  30
ATOM     30  C   UNL     1      21.628 -13.185  44.861  1.00  0.00     0.031 C 
BRANCH  30  31
ATOM     31  C   UNL     1      21.930 -14.559  45.425  1.00  0.00    -0.075 C 
ATOM     32  C   UNL     1      20.932 -15.284  45.965  1.00  0.00     0.008 C 
BRANCH  31  33
ATOM     33  C   UNL     1      23.376 -15.037  45.510  1.00  0.00     0.008 C 
ATOM     34  C   UNL     1      24.336 -13.908  45.908  1.00  0.00     0.012 C 
ATOM     35  C   UNL     1      23.816 -15.686  44.191  1.00  0.00     0.012 C 
ENDBRANCH  31  33
ENDBRANCH  30  31
ENDBRANCH   1  30
TORSDOF 7
ENDMDL
MODEL 5
REMARK VINA RESULT:    -6.264      2.737      4.162
REMARK INTER + INTRA:          -9.432
REMARK INTER:                  -7.596
REMARK INTRA:                  -1.837
REMARK UNBOUND:                -0.788
REMARK SMILES C=C(CC[C@@H](C(=O)[O-])[C@H]1CC[C@@]2(C)C3=C(CC[C@@]12C)[C@@]1(C)CC[C@@H](O)C(C)(C)[C@H]1CC3)C(C)C
REMARK SMILES IDX 4 1 5 2 6 3 7 4 8 5 9 6 10 7 18 8 11 9 12 10 17 11 19 12
REMARK SMILES IDX 13 13 14 14 16 15 15 16 31 17 20 18 30 19 29 20 22 21 21 22
REMARK SMILES IDX 26 23 23 24 24 25 27 26 28 27 25 28 3 30 2 31 1 32 32 33
REMARK SMILES IDX 33 34 34 35
REMARK H PARENT 25 29
REMARK Flexibility Score: inf
ROOT
ATOM      1  C   UNL     1      14.331 -22.778  42.292  1.00  0.00     0.014 C 
ENDROOT
BRANCH   1   2
ATOM      2  C   UNL     1      14.392 -21.589  43.294  1.00  0.00     0.039 C 
BRANCH   2   3
ATOM      3  C   UNL     1      13.897 -21.969  44.680  1.00  0.00     0.045 C 
ATOM      4  O   UNL     1      14.514 -21.574  45.703  1.00  0.00    -0.550 OA
ATOM      5  O   UNL     1      12.752 -22.735  44.855  1.00  0.00    -0.550 OA
ENDBRANCH   2   3
BRANCH   2   6
ATOM      6  C   UNL     1      15.790 -20.866  43.265  1.00  0.00     0.004 C 
ATOM      7  C   UNL     1      16.923 -21.740  42.696  1.00  0.00     0.006 C 
ATOM      8  C   UNL     1      15.949 -19.434  42.623  1.00  0.00    -0.020 C 
ATOM      9  C   UNL     1      17.725 -20.865  41.749  1.00  0.00     0.012 C 
ATOM     10  C   UNL     1      17.452 -19.404  42.151  1.00  0.00    -0.006 C 
ATOM     11  C   UNL     1      15.037 -19.233  41.393  1.00  0.00     0.012 C 
ATOM     12  C   UNL     1      15.618 -18.324  43.670  1.00  0.00     0.012 C 
ATOM     13  C   UNL     1      18.402 -19.019  43.328  1.00  0.00     0.017 C 
ATOM     14  C   UNL     1      17.745 -18.494  40.931  1.00  0.00    -0.064 C 
ATOM     15  C   UNL     1      15.329 -17.913  40.688  1.00  0.00     0.032 C 
ATOM     16  C   UNL     1      16.787 -17.775  40.275  1.00  0.00    -0.064 C 
ATOM     17  C   UNL     1      19.147 -18.471  40.375  1.00  0.00     0.032 C 
ATOM     18  C   UNL     1      17.128 -16.829  39.074  1.00  0.00    -0.008 C 
ATOM     19  C   UNL     1      19.532 -17.033  40.101  1.00  0.00     0.009 C 
ATOM     20  C   UNL     1      18.691 -16.506  38.921  1.00  0.00     0.007 C 
ATOM     21  C   UNL     1      16.316 -15.514  39.249  1.00  0.00     0.014 C 
ATOM     22  C   UNL     1      16.638 -17.561  37.794  1.00  0.00     0.016 C 
ATOM     23  C   UNL     1      19.078 -15.018  38.526  1.00  0.00    -0.006 C 
ATOM     24  C   UNL     1      16.591 -14.410  38.213  1.00  0.00     0.033 C 
ATOM     25  C   UNL     1      17.992 -14.439  37.578  1.00  0.00     0.120 C 
ATOM     26  C   UNL     1      19.273 -14.089  39.758  1.00  0.00     0.014 C 
ATOM     27  C   UNL     1      20.422 -15.028  37.746  1.00  0.00     0.014 C 
BRANCH  25  28
ATOM     28  O   UNL     1      18.340 -13.140  37.159  1.00  0.00    -0.393 OA
ATOM     29  H   UNL     1      18.211 -12.541  37.941  1.00  0.00     0.210 HD
ENDBRANCH  25  28
ENDBRANCH   2   6
ENDBRANCH   1   2
BRANCH   1  30
ATOM     30  C   UNL     1      13.759 -22.412  40.907  1.00  0.00     0.031 C 
BRANCH  30  31
ATOM     31  C   UNL     1      12.275 -22.099  40.903  1.00  0.00    -0.075 C 
ATOM     32  C   UNL     1      11.425 -22.929  41.536  1.00  0.00     0.008 C 
BRANCH  31  33
ATOM     33  C   UNL     1      11.752 -20.939  40.061  1.00  0.00     0.008 C 
ATOM     34  C   UNL     1      12.730 -20.548  38.945  1.00  0.00     0.012 C 
ATOM     35  C   UNL     1      11.421 -19.729  40.943  1.00  0.00     0.012 C 
ENDBRANCH  31  33
ENDBRANCH  30  31
ENDBRANCH   1  30
TORSDOF 7
ENDMDL
MODEL 6
REMARK VINA RESULT:    -6.194      3.853     10.564
REMARK INTER + INTRA:          -9.336
REMARK INTER:                  -6.829
REMARK INTRA:                  -2.507
REMARK UNBOUND:                -0.788
REMARK SMILES C=C(CC[C@@H](C(=O)[O-])[C@H]1CC[C@@]2(C)C3=C(CC[C@@]12C)[C@@]1(C)CC[C@@H](O)C(C)(C)[C@H]1CC3)C(C)C
REMARK SMILES IDX 4 1 5 2 6 3 7 4 8 5 9 6 10 7 18 8 11 9 12 10 17 11 19 12
REMARK SMILES IDX 13 13 14 14 16 15 15 16 31 17 20 18 30 19 29 20 22 21 21 22
REMARK SMILES IDX 26 23 23 24 24 25 27 26 28 27 25 28 3 30 2 31 1 32 32 33
REMARK SMILES IDX 33 34 34 35
REMARK H PARENT 25 29
REMARK Flexibility Score: inf
ROOT
ATOM      1  C   UNL     1      23.647  -9.141  42.571  1.00  0.00     0.014 C 
ENDROOT
BRANCH   1   2
ATOM      2  C   UNL     1      22.234  -9.267  43.212  1.00  0.00     0.039 C 
BRANCH   2   3
ATOM      3  C   UNL     1      21.724  -7.944  43.762  1.00  0.00     0.045 C 
ATOM      4  O   UNL     1      20.996  -7.923  44.787  1.00  0.00    -0.550 OA
ATOM      5  O   UNL     1      22.060  -6.735  43.167  1.00  0.00    -0.550 OA
ENDBRANCH   2   3
BRANCH   2   6
ATOM      6  C   UNL     1      21.226 -10.025  42.270  1.00  0.00     0.004 C 
ATOM      7  C   UNL     1      21.773 -10.268  40.851  1.00  0.00     0.006 C 
ATOM      8  C   UNL     1      20.539 -11.367  42.733  1.00  0.00    -0.020 C 
ATOM      9  C   UNL     1      21.429 -11.700  40.483  1.00  0.00     0.012 C 
ATOM     10  C   UNL     1      20.250 -12.122  41.379  1.00  0.00    -0.006 C 
ATOM     11  C   UNL     1      21.470 -12.241  43.601  1.00  0.00     0.012 C 
ATOM     12  C   UNL     1      19.242 -11.065  43.549  1.00  0.00     0.012 C 
ATOM     13  C   UNL     1      18.920 -11.624  40.731  1.00  0.00     0.017 C 
ATOM     14  C   UNL     1      20.231 -13.668  41.474  1.00  0.00    -0.064 C 
ATOM     15  C   UNL     1      20.850 -13.603  43.892  1.00  0.00     0.032 C 
ATOM     16  C   UNL     1      20.467 -14.359  42.629  1.00  0.00    -0.064 C 
ATOM     17  C   UNL     1      20.036 -14.461  40.206  1.00  0.00     0.032 C 
ATOM     18  C   UNL     1      20.393 -15.922  42.697  1.00  0.00    -0.008 C 
ATOM     19  C   UNL     1      19.039 -15.567  40.480  1.00  0.00     0.009 C 
ATOM     20  C   UNL     1      19.683 -16.598  41.429  1.00  0.00     0.007 C 
ATOM     21  C   UNL     1      19.652 -16.314  44.007  1.00  0.00     0.014 C 
ATOM     22  C   UNL     1      21.862 -16.422  42.777  1.00  0.00     0.016 C 
ATOM     23  C   UNL     1      18.723 -17.829  41.718  1.00  0.00    -0.006 C 
ATOM     24  C   UNL     1      19.391 -17.817  44.210  1.00  0.00     0.033 C 
ATOM     25  C   UNL     1      19.281 -18.645  42.917  1.00  0.00     0.120 C 
ATOM     26  C   UNL     1      17.251 -17.406  41.988  1.00  0.00     0.014 C 
ATOM     27  C   UNL     1      18.707 -18.769  40.481  1.00  0.00     0.014 C 
BRANCH  25  28
ATOM     28  O   UNL     1      18.484 -19.780  43.159  1.00  0.00    -0.393 OA
ATOM     29  H   UNL     1      17.616 -19.453  43.514  1.00  0.00     0.210 HD
ENDBRANCH  25  28
ENDBRANCH   2   6
ENDBRANCH   1   2
BRANCH   1  30
ATOM     30  C   UNL     1      24.685 -10.139  43.125  1.00  0.00     0.031 C 
BRANCH  30  31
ATOM     31  C   UNL     1      25.033 -11.273  42.181  1.00  0.00    -0.075 C 
ATOM     32  C   UNL     1      25.125 -11.026  40.860  1.00  0.00     0.008 C 
BRANCH  31  33
ATOM     33  C   UNL     1      25.125 -12.698  42.716  1.00  0.00     0.008 C 
ATOM     34  C   UNL     1      24.167 -13.652  41.991  1.00  0.00     0.012 C 
ATOM     35  C   UNL     1      24.881 -12.730  44.230  1.00  0.00     0.012 C 
ENDBRANCH  31  33
ENDBRANCH  30  31
ENDBRANCH   1  30
TORSDOF 7
ENDMDL
MODEL 7
REMARK VINA RESULT:    -6.169      2.349      9.803
REMARK INTER + INTRA:          -9.301
REMARK INTER:                  -8.570
REMARK INTRA:                  -0.731
REMARK UNBOUND:                -0.788
REMARK SMILES C=C(CC[C@@H](C(=O)[O-])[C@H]1CC[C@@]2(C)C3=C(CC[C@@]12C)[C@@]1(C)CC[C@@H](O)C(C)(C)[C@H]1CC3)C(C)C
REMARK SMILES IDX 4 1 5 2 6 3 7 4 8 5 9 6 10 7 18 8 11 9 12 10 17 11 19 12
REMARK SMILES IDX 13 13 14 14 16 15 15 16 31 17 20 18 30 19 29 20 22 21 21 22
REMARK SMILES IDX 26 23 23 24 24 25 27 26 28 27 25 28 3 30 2 31 1 32 32 33
REMARK SMILES IDX 33 34 34 35
REMARK H PARENT 25 29
REMARK Flexibility Score: inf
ROOT
ATOM      1  C   UNL     1      22.732 -15.256  45.055  1.00  0.00     0.014 C 
ENDROOT
BRANCH   1   2
ATOM      2  C   UNL     1      21.214 -15.062  44.772  1.00  0.00     0.039 C 
BRANCH   2   3
ATOM      3  C   UNL     1      20.806 -13.597  44.757  1.00  0.00     0.045 C 
ATOM      4  O   UNL     1      20.606 -12.984  45.837  1.00  0.00    -0.550 OA
ATOM      5  O   UNL     1      20.665 -12.898  43.565  1.00  0.00    -0.550 OA
ENDBRANCH   2   3
BRANCH   2   6
ATOM      6  C   UNL     1      20.736 -15.895  43.525  1.00  0.00     0.004 C 
ATOM      7  C   UNL     1      21.697 -17.036  43.142  1.00  0.00     0.006 C 
ATOM      8  C   UNL     1      19.275 -16.483  43.454  1.00  0.00    -0.020 C 
ATOM      9  C   UNL     1      20.843 -18.259  42.858  1.00  0.00     0.012 C 
ATOM     10  C   UNL     1      19.428 -17.748  42.527  1.00  0.00    -0.006 C 
ATOM     11  C   UNL     1      18.753 -16.939  44.834  1.00  0.00     0.012 C 
ATOM     12  C   UNL     1      18.285 -15.423  42.877  1.00  0.00     0.012 C 
ATOM     13  C   UNL     1      19.377 -17.349  41.019  1.00  0.00     0.017 C 
ATOM     14  C   UNL     1      18.417 -18.891  42.793  1.00  0.00    -0.064 C 
ATOM     15  C   UNL     1      17.414 -17.658  44.718  1.00  0.00     0.032 C 
ATOM     16  C   UNL     1      17.463 -18.847  43.770  1.00  0.00    -0.064 C 
ATOM     17  C   UNL     1      18.549 -20.165  41.996  1.00  0.00     0.032 C 
ATOM     18  C   UNL     1      16.427 -20.002  43.980  1.00  0.00    -0.008 C 
ATOM     19  C   UNL     1      17.171 -20.588  41.535  1.00  0.00     0.009 C 
ATOM     20  C   UNL     1      16.349 -21.039  42.760  1.00  0.00     0.007 C 
ATOM     21  C   UNL     1      15.034 -19.361  44.237  1.00  0.00     0.014 C 
ATOM     22  C   UNL     1      16.879 -20.762  45.258  1.00  0.00     0.016 C 
ATOM     23  C   UNL     1      14.906 -21.561  42.356  1.00  0.00    -0.006 C 
ATOM     24  C   UNL     1      13.855 -20.341  44.371  1.00  0.00     0.033 C 
ATOM     25  C   UNL     1      14.027 -21.680  43.631  1.00  0.00     0.120 C 
ATOM     26  C   UNL     1      14.206 -20.664  41.295  1.00  0.00     0.014 C 
ATOM     27  C   UNL     1      15.028 -22.982  41.739  1.00  0.00     0.014 C 
BRANCH  25  28
ATOM     28  O   UNL     1      12.758 -22.201  43.313  1.00  0.00    -0.393 OA
ATOM     29  H   UNL     1      12.126 -21.863  44.002  1.00  0.00     0.210 HD
ENDBRANCH  25  28
ENDBRANCH   2   6
ENDBRANCH   1   2
BRANCH   1  30
ATOM     30  C   UNL     1      23.658 -14.695  43.956  1.00  0.00     0.031 C 
BRANCH  30  31
ATOM     31  C   UNL     1      24.556 -13.560  44.409  1.00  0.00    -0.075 C 
ATOM     32  C   UNL     1      24.729 -13.343  45.726  1.00  0.00     0.008 C 
BRANCH  31  33
ATOM     33  C   UNL     1      25.125 -12.593  43.377  1.00  0.00     0.008 C 
ATOM     34  C   UNL     1      24.387 -11.248  43.375  1.00  0.00     0.012 C 
ATOM     35  C   UNL     1      25.116 -13.220  41.977  1.00  0.00     0.012 C 
ENDBRANCH  31  33
ENDBRANCH  30  31
ENDBRANCH   1  30
TORSDOF 7
ENDMDL
MODEL 8
REMARK VINA RESULT:    -6.133      1.936      9.131
REMARK INTER + INTRA:          -9.251
REMARK INTER:                  -7.921
REMARK INTRA:                  -1.330
REMARK UNBOUND:                -0.788
REMARK SMILES C=C(CC[C@@H](C(=O)[O-])[C@H]1CC[C@@]2(C)C3=C(CC[C@@]12C)[C@@]1(C)CC[C@@H](O)C(C)(C)[C@H]1CC3)C(C)C
REMARK SMILES IDX 4 1 5 2 6 3 7 4 8 5 9 6 10 7 18 8 11 9 12 10 17 11 19 12
REMARK SMILES IDX 13 13 14 14 16 15 15 16 31 17 20 18 30 19 29 20 22 21 21 22
REMARK SMILES IDX 26 23 23 24 24 25 27 26 28 27 25 28 3 30 2 31 1 32 32 33
REMARK SMILES IDX 33 34 34 35
REMARK H PARENT 25 29
REMARK Flexibility Score: inf
ROOT
ATOM      1  C   UNL     1      23.666 -13.680  40.262  1.00  0.00     0.014 C 
ENDROOT
BRANCH   1   2
ATOM      2  C   UNL     1      22.870 -14.528  41.296  1.00  0.00     0.039 C 
BRANCH   2   3
ATOM      3  C   UNL     1      23.283 -14.237  42.730  1.00  0.00     0.045 C 
ATOM      4  O   UNL     1      23.308 -13.053  43.155  1.00  0.00    -0.550 OA
ATOM      5  O   UNL     1      23.619 -15.260  43.608  1.00  0.00    -0.550 OA
ENDBRANCH   2   3
BRANCH   2   6
ATOM      6  C   UNL     1      21.319 -14.476  41.031  1.00  0.00     0.004 C 
ATOM      7  C   UNL     1      20.949 -14.484  39.536  1.00  0.00     0.006 C 
ATOM      8  C   UNL     1      20.339 -15.481  41.751  1.00  0.00    -0.020 C 
ATOM      9  C   UNL     1      19.797 -15.458  39.370  1.00  0.00     0.012 C 
ATOM     10  C   UNL     1      19.128 -15.600  40.750  1.00  0.00    -0.006 C 
ATOM     11  C   UNL     1      20.964 -16.879  41.945  1.00  0.00     0.012 C 
ATOM     12  C   UNL     1      19.919 -14.928  43.150  1.00  0.00     0.012 C 
ATOM     13  C   UNL     1      18.120 -14.424  40.945  1.00  0.00     0.017 C 
ATOM     14  C   UNL     1      18.365 -16.947  40.791  1.00  0.00    -0.064 C 
ATOM     15  C   UNL     1      19.946 -17.878  42.484  1.00  0.00     0.032 C 
ATOM     16  C   UNL     1      18.706 -17.987  41.609  1.00  0.00    -0.064 C 
ATOM     17  C   UNL     1      17.240 -17.165  39.809  1.00  0.00     0.032 C 
ATOM     18  C   UNL     1      17.882 -19.317  41.658  1.00  0.00    -0.008 C 
ATOM     19  C   UNL     1      16.072 -17.781  40.546  1.00  0.00     0.009 C 
ATOM     20  C   UNL     1      16.443 -19.220  40.959  1.00  0.00     0.007 C 
ATOM     21  C   UNL     1      17.735 -19.741  43.147  1.00  0.00     0.014 C 
ATOM     22  C   UNL     1      18.733 -20.381  40.910  1.00  0.00     0.016 C 
ATOM     23  C   UNL     1      15.243 -19.964  41.686  1.00  0.00    -0.006 C 
ATOM     24  C   UNL     1      16.867 -20.983  43.412  1.00  0.00     0.033 C 
ATOM     25  C   UNL     1      15.776 -21.258  42.362  1.00  0.00     0.120 C 
ATOM     26  C   UNL     1      14.509 -19.071  42.726  1.00  0.00     0.014 C 
ATOM     27  C   UNL     1      14.188 -20.391  40.627  1.00  0.00     0.014 C 
BRANCH  25  28
ATOM     28  O   UNL     1      14.722 -21.974  42.963  1.00  0.00    -0.393 OA
ATOM     29  H   UNL     1      13.884 -21.483  42.753  1.00  0.00     0.210 HD
ENDBRANCH  25  28
ENDBRANCH   2   6
ENDBRANCH   1   2
BRANCH   1  30
ATOM     30  C   UNL     1      24.616 -14.502  39.366  1.00  0.00     0.031 C 
BRANCH  30  31
ATOM     31  C   UNL     1      24.272 -14.470  37.890  1.00  0.00    -0.075 C 
ATOM     32  C   UNL     1      24.376 -13.310  37.214  1.00  0.00     0.008 C 
BRANCH  31  33
ATOM     33  C   UNL     1      23.674 -15.707  37.228  1.00  0.00     0.008 C 
ATOM     34  C   UNL     1      24.741 -16.565  36.535  1.00  0.00     0.012 C 
ATOM     35  C   UNL     1      22.565 -15.318  36.243  1.00  0.00     0.012 C 
ENDBRANCH  31  33
ENDBRANCH  30  31
ENDBRANCH   1  30
TORSDOF 7
ENDMDL
MODEL 9
REMARK VINA RESULT:    -5.980      1.923      9.743
REMARK INTER + INTRA:          -9.041
REMARK INTER:                  -7.741
REMARK INTRA:                  -1.300
REMARK UNBOUND:                -0.788
REMARK SMILES C=C(CC[C@@H](C(=O)[O-])[C@H]1CC[C@@]2(C)C3=C(CC[C@@]12C)[C@@]1(C)CC[C@@H](O)C(C)(C)[C@H]1CC3)C(C)C
REMARK SMILES IDX 4 1 5 2 6 3 7 4 8 5 9 6 10 7 18 8 11 9 12 10 17 11 19 12
REMARK SMILES IDX 13 13 14 14 16 15 15 16 31 17 20 18 30 19 29 20 22 21 21 22
REMARK SMILES IDX 26 23 23 24 24 25 27 26 28 27 25 28 3 30 2 31 1 32 32 33
REMARK SMILES IDX 33 34 34 35
REMARK H PARENT 25 29
REMARK Flexibility Score: inf
ROOT
ATOM      1  C   UNL     1      24.016 -14.300  42.397  1.00  0.00     0.014 C 
ENDROOT
BRANCH   1   2
ATOM      2  C   UNL     1      23.066 -14.958  43.439  1.00  0.00     0.039 C 
BRANCH   2   3
ATOM      3  C   UNL     1      23.454 -14.629  44.872  1.00  0.00     0.045 C 
ATOM      4  O   UNL     1      24.399 -15.244  45.430  1.00  0.00    -0.550 OA
ATOM      5  O   UNL     1      22.797 -13.638  45.590  1.00  0.00    -0.550 OA
ENDBRANCH   2   3
BRANCH   2   6
ATOM      6  C   UNL     1      21.550 -14.713  43.092  1.00  0.00     0.004 C 
ATOM      7  C   UNL     1      21.320 -14.237  41.645  1.00  0.00     0.006 C 
ATOM      8  C   UNL     1      20.462 -15.815  43.390  1.00  0.00    -0.020 C 
ATOM      9  C   UNL     1      20.143 -15.026  41.101  1.00  0.00     0.012 C 
ATOM     10  C   UNL     1      19.344 -15.533  42.315  1.00  0.00    -0.006 C 
ATOM     11  C   UNL     1      20.998 -17.248  43.185  1.00  0.00     0.012 C 
ATOM     12  C   UNL     1      19.941 -15.687  44.857  1.00  0.00     0.012 C 
ATOM     13  C   UNL     1      18.379 -14.402  42.792  1.00  0.00     0.017 C 
ATOM     14  C   UNL     1      18.516 -16.768  41.880  1.00  0.00    -0.064 C 
ATOM     15  C   UNL     1      19.889 -18.286  43.311  1.00  0.00     0.032 C 
ATOM     16  C   UNL     1      18.731 -18.030  42.358  1.00  0.00    -0.064 C 
ATOM     17  C   UNL     1      17.478 -16.591  40.800  1.00  0.00     0.032 C 
ATOM     18  C   UNL     1      17.843 -19.247  41.930  1.00  0.00    -0.008 C 
ATOM     19  C   UNL     1      16.218 -17.316  41.222  1.00  0.00     0.009 C 
ATOM     20  C   UNL     1      16.481 -18.835  41.194  1.00  0.00     0.007 C 
ATOM     21  C   UNL     1      17.540 -20.094  43.199  1.00  0.00     0.014 C 
ATOM     22  C   UNL     1      18.708 -20.091  40.953  1.00  0.00     0.016 C 
ATOM     23  C   UNL     1      15.185 -19.675  41.563  1.00  0.00    -0.006 C 
ATOM     24  C   UNL     1      16.593 -21.290  43.001  1.00  0.00     0.033 C 
ATOM     25  C   UNL     1      15.591 -21.149  41.841  1.00  0.00     0.120 C 
ATOM     26  C   UNL     1      14.402 -19.091  42.773  1.00  0.00     0.014 C 
ATOM     27  C   UNL     1      14.213 -19.679  40.350  1.00  0.00     0.014 C 
BRANCH  25  28
ATOM     28  O   UNL     1      14.454 -21.934  42.111  1.00  0.00    -0.393 OA
ATOM     29  H   UNL     1      13.758 -21.322  42.470  1.00  0.00     0.210 HD
ENDBRANCH  25  28
ENDBRANCH   2   6
ENDBRANCH   1   2
BRANCH   1  30
ATOM     30  C   UNL     1      24.597 -12.941  42.839  1.00  0.00     0.031 C 
BRANCH  30  31
ATOM     31  C   UNL     1      24.345 -11.804  41.868  1.00  0.00    -0.075 C 
ATOM     32  C   UNL     1      24.679 -11.957  40.573  1.00  0.00     0.008 C 
BRANCH  31  33
ATOM     33  C   UNL     1      23.860 -10.457  42.395  1.00  0.00     0.008 C 
ATOM     34  C   UNL     1      24.946  -9.724  43.193  1.00  0.00     0.012 C 
ATOM     35  C   UNL     1      22.588 -10.625  43.235  1.00  0.00     0.012 C 
ENDBRANCH  31  33
ENDBRANCH  30  31
ENDBRANCH   1  30
TORSDOF 7
ENDMDL
