MODEL 1
REMARK VINA RESULT:    -4.986      0.000      0.000
REMARK INTER + INTRA:          -7.909
REMARK INTER:                  -7.171
REMARK INTRA:                  -0.738
REMARK UNBOUND:                -0.738
REMARK SMILES O=C(CO)[C@@H](O)[C@H](O)[C@@H](O)CO
REMARK SMILES IDX 7 1 9 2 11 3 12 4 10 6 5 8 2 9 1 10 3 11 4 12 6 14 8 16
REMARK H PARENT 12 5 10 7 4 13 6 15 8 17
REMARK Flexibility Score: inf
ROOT
ATOM      1  C   UNL     1       4.324   1.640  17.158  1.00  0.00     0.181 C 
ENDROOT
BRANCH   1   2
ATOM      2  C   UNL     1       4.358   2.242  15.736  1.00  0.00     0.171 C 
BRANCH   2   3
ATOM      3  C   UNL     1       2.949   2.288  15.127  1.00  0.00     0.190 C 
BRANCH   3   4
ATOM      4  O   UNL     1       2.407   3.572  15.277  1.00  0.00    -0.394 OA
ATOM      5  H   UNL     1       1.818   3.531  16.074  1.00  0.00     0.210 HD
ENDBRANCH   3   4
ENDBRANCH   2   3
BRANCH   2   6
ATOM      6  O   UNL     1       5.203   1.479  14.914  1.00  0.00    -0.388 OA
ATOM      7  H   UNL     1       5.456   2.053  14.144  1.00  0.00     0.211 HD
ENDBRANCH   2   6
ENDBRANCH   1   2
BRANCH   1   8
ATOM      8  C   UNL     1       4.814   0.167  17.168  1.00  0.00     0.214 C 
BRANCH   8   9
ATOM      9  C   UNL     1       5.221  -0.268  18.566  1.00  0.00     0.189 C 
ATOM     10  O   UNL     1       4.710   0.272  19.536  1.00  0.00    -0.294 OA
BRANCH   9  11
ATOM     11  C   UNL     1       6.285  -1.311  18.810  1.00  0.00     0.234 C 
BRANCH  11  12
ATOM     12  O   UNL     1       7.093  -0.990  19.912  1.00  0.00    -0.388 OA
ATOM     13  H   UNL     1       8.029  -1.188  19.646  1.00  0.00     0.211 HD
ENDBRANCH  11  12
ENDBRANCH   9  11
ENDBRANCH   8   9
BRANCH   8  14
ATOM     14  O   UNL     1       3.854  -0.711  16.629  1.00  0.00    -0.382 OA
ATOM     15  H   UNL     1       4.270  -1.197  15.871  1.00  0.00     0.211 HD
ENDBRANCH   8  14
ENDBRANCH   1   8
BRANCH   1  16
ATOM     16  O   UNL     1       3.021   1.734  17.681  1.00  0.00    -0.387 OA
ATOM     17  H   UNL     1       2.955   1.075  18.421  1.00  0.00     0.211 HD
ENDBRANCH   1  16
TORSDOF 10
ENDMDL
MODEL 2
REMARK VINA RESULT:    -4.943      0.752      5.076
REMARK INTER + INTRA:          -7.849
REMARK INTER:                  -7.122
REMARK INTRA:                  -0.727
REMARK UNBOUND:                -0.738
REMARK SMILES O=C(CO)[C@@H](O)[C@H](O)[C@@H](O)CO
REMARK SMILES IDX 7 1 9 2 11 3 12 4 10 6 5 8 2 9 1 10 3 11 4 12 6 14 8 16
REMARK H PARENT 12 5 10 7 4 13 6 15 8 17
REMARK Flexibility Score: inf
ROOT
ATOM      1  C   UNL     1       4.692   0.456  16.851  1.00  0.00     0.181 C 
ENDROOT
BRANCH   1   2
ATOM      2  C   UNL     1       5.345   0.374  18.249  1.00  0.00     0.171 C 
BRANCH   2   3
ATOM      3  C   UNL     1       5.871  -1.042  18.527  1.00  0.00     0.190 C 
BRANCH   3   4
ATOM      4  O   UNL     1       6.775  -1.011  19.597  1.00  0.00    -0.394 OA
ATOM      5  H   UNL     1       7.655  -1.273  19.222  1.00  0.00     0.210 HD
ENDBRANCH   3   4
ENDBRANCH   2   3
BRANCH   2   6
ATOM      6  O   UNL     1       4.409   0.732  19.234  1.00  0.00    -0.388 OA
ATOM      7  H   UNL     1       3.535   0.349  18.957  1.00  0.00     0.211 HD
ENDBRANCH   2   6
ENDBRANCH   1   2
BRANCH   1   8
ATOM      8  C   UNL     1       3.962   1.808  16.638  1.00  0.00     0.214 C 
BRANCH   8   9
ATOM      9  C   UNL     1       3.807   2.122  15.159  1.00  0.00     0.189 C 
ATOM     10  O   UNL     1       4.052   1.256  14.332  1.00  0.00    -0.294 OA
BRANCH   9  11
ATOM     11  C   UNL     1       3.412   3.491  14.660  1.00  0.00     0.234 C 
BRANCH  11  12
ATOM     12  O   UNL     1       2.123   3.853  15.079  1.00  0.00    -0.388 OA
ATOM     13  H   UNL     1       2.065   3.636  16.046  1.00  0.00     0.211 HD
ENDBRANCH  11  12
ENDBRANCH   9  11
ENDBRANCH   8   9
BRANCH   8  14
ATOM     14  O   UNL     1       2.715   1.842  17.291  1.00  0.00    -0.382 OA
ATOM     15  H   UNL     1       2.637   1.026  17.852  1.00  0.00     0.211 HD
ENDBRANCH   8  14
ENDBRANCH   1   8
BRANCH   1  16
ATOM     16  O   UNL     1       3.804  -0.623  16.680  1.00  0.00    -0.387 OA
ATOM     17  H   UNL     1       3.669  -1.034  17.575  1.00  0.00     0.211 HD
ENDBRANCH   1  16
TORSDOF 10
ENDMDL
MODEL 3
REMARK VINA RESULT:    -4.928      1.288      4.752
REMARK INTER + INTRA:          -7.826
REMARK INTER:                  -6.648
REMARK INTRA:                  -1.178
REMARK UNBOUND:                -0.738
REMARK SMILES O=C(CO)[C@@H](O)[C@H](O)[C@@H](O)CO
REMARK SMILES IDX 7 1 9 2 11 3 12 4 10 6 5 8 2 9 1 10 3 11 4 12 6 14 8 16
REMARK H PARENT 12 5 10 7 4 13 6 15 8 17
REMARK Flexibility Score: inf
ROOT
ATOM      1  C   UNL     1       5.218  -0.769  16.678  1.00  0.00     0.181 C 
ENDROOT
BRANCH   1   2
ATOM      2  C   UNL     1       5.761  -0.276  18.037  1.00  0.00     0.171 C 
BRANCH   2   3
ATOM      3  C   UNL     1       6.323  -1.445  18.860  1.00  0.00     0.190 C 
BRANCH   3   4
ATOM      4  O   UNL     1       7.111  -0.952  19.909  1.00  0.00    -0.394 OA
ATOM      5  H   UNL     1       6.944  -1.550  20.682  1.00  0.00     0.210 HD
ENDBRANCH   3   4
ENDBRANCH   2   3
BRANCH   2   6
ATOM      6  O   UNL     1       4.737   0.361  18.758  1.00  0.00    -0.388 OA
ATOM      7  H   UNL     1       5.157   1.103  19.265  1.00  0.00     0.211 HD
ENDBRANCH   2   6
ENDBRANCH   1   2
BRANCH   1   8
ATOM      8  C   UNL     1       5.104   0.389  15.651  1.00  0.00     0.214 C 
BRANCH   8   9
ATOM      9  C   UNL     1       3.666   0.586  15.201  1.00  0.00     0.189 C 
ATOM     10  O   UNL     1       3.196  -0.155  14.351  1.00  0.00    -0.294 OA
BRANCH   9  11
ATOM     11  C   UNL     1       2.801   1.707  15.725  1.00  0.00     0.234 C 
BRANCH  11  12
ATOM     12  O   UNL     1       2.749   1.721  17.127  1.00  0.00    -0.388 OA
ATOM     13  H   UNL     1       3.516   2.270  17.436  1.00  0.00     0.211 HD
ENDBRANCH  11  12
ENDBRANCH   9  11
ENDBRANCH   8   9
BRANCH   8  14
ATOM     14  O   UNL     1       5.643   1.590  16.151  1.00  0.00    -0.382 OA
ATOM     15  H   UNL     1       6.468   1.372  16.657  1.00  0.00     0.211 HD
ENDBRANCH   8  14
ENDBRANCH   1   8
BRANCH   1  16
ATOM     16  O   UNL     1       3.970  -1.392  16.866  1.00  0.00    -0.387 OA
ATOM     17  H   UNL     1       3.306  -0.672  17.030  1.00  0.00     0.211 HD
ENDBRANCH   1  16
TORSDOF 10
ENDMDL
MODEL 4
REMARK VINA RESULT:    -4.785      1.768      4.890
REMARK INTER + INTRA:          -7.620
REMARK INTER:                  -6.972
REMARK INTRA:                  -0.648
REMARK UNBOUND:                -0.738
REMARK SMILES O=C(CO)[C@@H](O)[C@H](O)[C@@H](O)CO
REMARK SMILES IDX 7 1 9 2 11 3 12 4 10 6 5 8 2 9 1 10 3 11 4 12 6 14 8 16
REMARK H PARENT 12 5 10 7 4 13 6 15 8 17
REMARK Flexibility Score: inf
ROOT
ATOM      1  C   UNL     1       4.640  -0.682  16.324  1.00  0.00     0.181 C 
ENDROOT
BRANCH   1   2
ATOM      2  C   UNL     1       5.410  -0.231  17.585  1.00  0.00     0.171 C 
BRANCH   2   3
ATOM      3  C   UNL     1       5.955  -1.443  18.356  1.00  0.00     0.190 C 
BRANCH   3   4
ATOM      4  O   UNL     1       6.743  -1.007  19.430  1.00  0.00    -0.394 OA
ATOM      5  H   UNL     1       6.888  -1.802  20.006  1.00  0.00     0.210 HD
ENDBRANCH   3   4
ENDBRANCH   2   3
BRANCH   2   6
ATOM      6  O   UNL     1       4.562   0.517  18.420  1.00  0.00    -0.388 OA
ATOM      7  H   UNL     1       3.938  -0.124  18.850  1.00  0.00     0.211 HD
ENDBRANCH   2   6
ENDBRANCH   1   2
BRANCH   1   8
ATOM      8  C   UNL     1       4.073   0.529  15.536  1.00  0.00     0.214 C 
BRANCH   8   9
ATOM      9  C   UNL     1       2.566   0.633  15.697  1.00  0.00     0.189 C 
ATOM     10  O   UNL     1       2.103   1.158  16.699  1.00  0.00    -0.294 OA
BRANCH   9  11
ATOM     11  C   UNL     1       1.603   0.059  14.686  1.00  0.00     0.234 C 
BRANCH  11  12
ATOM     12  O   UNL     1       0.271   0.148  15.118  1.00  0.00    -0.388 OA
ATOM     13  H   UNL     1       0.218   0.933  15.723  1.00  0.00     0.211 HD
ENDBRANCH  11  12
ENDBRANCH   9  11
ENDBRANCH   8   9
BRANCH   8  14
ATOM     14  O   UNL     1       4.701   1.735  15.902  1.00  0.00    -0.382 OA
ATOM     15  H   UNL     1       5.419   1.922  15.243  1.00  0.00     0.211 HD
ENDBRANCH   8  14
ENDBRANCH   1   8
BRANCH   1  16
ATOM     16  O   UNL     1       3.607  -1.565  16.691  1.00  0.00    -0.387 OA
ATOM     17  H   UNL     1       3.238  -1.240  17.554  1.00  0.00     0.211 HD
ENDBRANCH   1  16
TORSDOF 10
ENDMDL
MODEL 5
REMARK VINA RESULT:    -4.776      1.109      1.570
REMARK INTER + INTRA:          -7.609
REMARK INTER:                  -7.302
REMARK INTRA:                  -0.307
REMARK UNBOUND:                -0.738
REMARK SMILES O=C(CO)[C@@H](O)[C@H](O)[C@@H](O)CO
REMARK SMILES IDX 7 1 9 2 11 3 12 4 10 6 5 8 2 9 1 10 3 11 4 12 6 14 8 16
REMARK H PARENT 12 5 10 7 4 13 6 15 8 17
REMARK Flexibility Score: inf
ROOT
ATOM      1  C   UNL     1       4.348   1.769  17.297  1.00  0.00     0.181 C 
ENDROOT
BRANCH   1   2
ATOM      2  C   UNL     1       3.252   1.682  16.213  1.00  0.00     0.171 C 
BRANCH   2   3
ATOM      3  C   UNL     1       3.379   2.839  15.211  1.00  0.00     0.190 C 
BRANCH   3   4
ATOM      4  O   UNL     1       2.183   3.570  15.175  1.00  0.00    -0.394 OA
ATOM      5  H   UNL     1       2.403   4.436  14.744  1.00  0.00     0.210 HD
ENDBRANCH   3   4
ENDBRANCH   2   3
BRANCH   2   6
ATOM      6  O   UNL     1       1.982   1.715  16.814  1.00  0.00    -0.388 OA
ATOM      7  H   UNL     1       1.962   2.512  17.406  1.00  0.00     0.211 HD
ENDBRANCH   2   6
ENDBRANCH   1   2
BRANCH   1   8
ATOM      8  C   UNL     1       5.449   0.697  17.086  1.00  0.00     0.214 C 
BRANCH   8   9
ATOM      9  C   UNL     1       5.317  -0.433  18.094  1.00  0.00     0.189 C 
ATOM     10  O   UNL     1       4.449  -1.279  17.938  1.00  0.00    -0.294 OA
BRANCH   9  11
ATOM     11  C   UNL     1       6.186  -0.524  19.325  1.00  0.00     0.234 C 
BRANCH  11  12
ATOM     12  O   UNL     1       6.966  -1.691  19.333  1.00  0.00    -0.388 OA
ATOM     13  H   UNL     1       7.224  -1.855  20.278  1.00  0.00     0.211 HD
ENDBRANCH  11  12
ENDBRANCH   9  11
ENDBRANCH   8   9
BRANCH   8  14
ATOM     14  O   UNL     1       5.452   0.196  15.770  1.00  0.00    -0.382 OA
ATOM     15  H   UNL     1       6.170   0.659  15.265  1.00  0.00     0.211 HD
ENDBRANCH   8  14
ENDBRANCH   1   8
BRANCH   1  16
ATOM     16  O   UNL     1       3.764   1.640  18.571  1.00  0.00    -0.387 OA
ATOM     17  H   UNL     1       2.823   1.353  18.433  1.00  0.00     0.211 HD
ENDBRANCH   1  16
TORSDOF 10
ENDMDL
MODEL 6
REMARK VINA RESULT:    -4.751      1.790      2.688
REMARK INTER + INTRA:          -7.572
REMARK INTER:                  -6.801
REMARK INTRA:                  -0.771
REMARK UNBOUND:                -0.738
REMARK SMILES O=C(CO)[C@@H](O)[C@H](O)[C@@H](O)CO
REMARK SMILES IDX 7 1 9 2 11 3 12 4 10 6 5 8 2 9 1 10 3 11 4 12 6 14 8 16
REMARK H PARENT 12 5 10 7 4 13 6 15 8 17
REMARK Flexibility Score: inf
ROOT
ATOM      1  C   UNL     1       2.867   1.474  15.944  1.00  0.00     0.181 C 
ENDROOT
BRANCH   1   2
ATOM      2  C   UNL     1       2.556   0.180  15.160  1.00  0.00     0.171 C 
BRANCH   2   3
ATOM      3  C   UNL     1       1.063   0.096  14.810  1.00  0.00     0.190 C 
BRANCH   3   4
ATOM      4  O   UNL     1       0.658  -1.245  14.773  1.00  0.00    -0.394 OA
ATOM      5  H   UNL     1       0.352  -1.465  15.691  1.00  0.00     0.210 HD
ENDBRANCH   3   4
ENDBRANCH   2   3
BRANCH   2   6
ATOM      6  O   UNL     1       2.926  -0.941  15.923  1.00  0.00    -0.388 OA
ATOM      7  H   UNL     1       3.286  -0.601  16.783  1.00  0.00     0.211 HD
ENDBRANCH   2   6
ENDBRANCH   1   2
BRANCH   1   8
ATOM      8  C   UNL     1       4.354   1.533  16.384  1.00  0.00     0.214 C 
BRANCH   8   9
ATOM      9  C   UNL     1       4.511   1.145  17.845  1.00  0.00     0.189 C 
ATOM     10  O   UNL     1       4.001   1.842  18.710  1.00  0.00    -0.294 OA
BRANCH   9  11
ATOM     11  C   UNL     1       5.326  -0.048  18.281  1.00  0.00     0.234 C 
BRANCH  11  12
ATOM     12  O   UNL     1       4.698  -1.262  17.959  1.00  0.00    -0.388 OA
ATOM     13  H   UNL     1       3.880  -1.032  17.445  1.00  0.00     0.211 HD
ENDBRANCH  11  12
ENDBRANCH   9  11
ENDBRANCH   8   9
BRANCH   8  14
ATOM     14  O   UNL     1       5.179   0.741  15.562  1.00  0.00    -0.382 OA
ATOM     15  H   UNL     1       5.047  -0.209  15.816  1.00  0.00     0.211 HD
ENDBRANCH   8  14
ENDBRANCH   1   8
BRANCH   1  16
ATOM     16  O   UNL     1       2.013   1.568  17.058  1.00  0.00    -0.387 OA
ATOM     17  H   UNL     1       1.934   2.532  17.284  1.00  0.00     0.211 HD
ENDBRANCH   1  16
TORSDOF 10
ENDMDL
MODEL 7
REMARK VINA RESULT:    -4.692      1.275      1.852
REMARK INTER + INTRA:          -7.487
REMARK INTER:                  -6.451
REMARK INTRA:                  -1.036
REMARK UNBOUND:                -0.738
REMARK SMILES O=C(CO)[C@@H](O)[C@H](O)[C@@H](O)CO
REMARK SMILES IDX 7 1 9 2 11 3 12 4 10 6 5 8 2 9 1 10 3 11 4 12 6 14 8 16
REMARK H PARENT 12 5 10 7 4 13 6 15 8 17
REMARK Flexibility Score: inf
ROOT
ATOM      1  C   UNL     1       4.196   2.215  16.574  1.00  0.00     0.181 C 
ENDROOT
BRANCH   1   2
ATOM      2  C   UNL     1       3.945   2.298  15.052  1.00  0.00     0.171 C 
BRANCH   2   3
ATOM      3  C   UNL     1       3.394   3.678  14.663  1.00  0.00     0.190 C 
BRANCH   3   4
ATOM      4  O   UNL     1       2.056   3.786  15.068  1.00  0.00    -0.394 OA
ATOM      5  H   UNL     1       1.545   4.054  14.261  1.00  0.00     0.210 HD
ENDBRANCH   3   4
ENDBRANCH   2   3
BRANCH   2   6
ATOM      6  O   UNL     1       3.037   1.300  14.663  1.00  0.00    -0.388 OA
ATOM      7  H   UNL     1       2.431   1.141  15.433  1.00  0.00     0.211 HD
ENDBRANCH   2   6
ENDBRANCH   1   2
BRANCH   1   8
ATOM      8  C   UNL     1       5.359   1.245  16.911  1.00  0.00     0.214 C 
BRANCH   8   9
ATOM      9  C   UNL     1       4.942   0.230  17.963  1.00  0.00     0.189 C 
ATOM     10  O   UNL     1       4.644   0.615  19.084  1.00  0.00    -0.294 OA
BRANCH   9  11
ATOM     11  C   UNL     1       4.935  -1.255  17.696  1.00  0.00     0.234 C 
BRANCH  11  12
ATOM     12  O   UNL     1       3.973  -1.613  16.738  1.00  0.00    -0.388 OA
ATOM     13  H   UNL     1       4.026  -2.599  16.635  1.00  0.00     0.211 HD
ENDBRANCH  11  12
ENDBRANCH   9  11
ENDBRANCH   8   9
BRANCH   8  14
ATOM     14  O   UNL     1       5.857   0.601  15.762  1.00  0.00    -0.382 OA
ATOM     15  H   UNL     1       5.401   0.986  14.969  1.00  0.00     0.211 HD
ENDBRANCH   8  14
ENDBRANCH   1   8
BRANCH   1  16
ATOM     16  O   UNL     1       3.013   1.820  17.227  1.00  0.00    -0.387 OA
ATOM     17  H   UNL     1       2.567   2.648  17.548  1.00  0.00     0.211 HD
ENDBRANCH   1  16
TORSDOF 10
ENDMDL
MODEL 8
REMARK VINA RESULT:    -4.652      1.509      4.613
REMARK INTER + INTRA:          -7.430
REMARK INTER:                  -6.126
REMARK INTRA:                  -1.304
REMARK UNBOUND:                -0.738
REMARK SMILES O=C(CO)[C@@H](O)[C@H](O)[C@@H](O)CO
REMARK SMILES IDX 7 1 9 2 11 3 12 4 10 6 5 8 2 9 1 10 3 11 4 12 6 14 8 16
REMARK H PARENT 12 5 10 7 4 13 6 15 8 17
REMARK Flexibility Score: inf
ROOT
ATOM      1  C   UNL     1       5.541   0.986  16.850  1.00  0.00     0.181 C 
ENDROOT
BRANCH   1   2
ATOM      2  C   UNL     1       5.620   0.140  18.139  1.00  0.00     0.171 C 
BRANCH   2   3
ATOM      3  C   UNL     1       5.510  -1.359  17.819  1.00  0.00     0.190 C 
BRANCH   3   4
ATOM      4  O   UNL     1       4.209  -1.659  17.393  1.00  0.00    -0.394 OA
ATOM      5  H   UNL     1       4.092  -1.200  16.521  1.00  0.00     0.210 HD
ENDBRANCH   3   4
ENDBRANCH   2   3
BRANCH   2   6
ATOM      6  O   UNL     1       4.589   0.511  19.018  1.00  0.00    -0.388 OA
ATOM      7  H   UNL     1       4.685  -0.048  19.832  1.00  0.00     0.211 HD
ENDBRANCH   2   6
ENDBRANCH   1   2
BRANCH   1   8
ATOM      8  C   UNL     1       4.213   1.785  16.769  1.00  0.00     0.214 C 
BRANCH   8   9
ATOM      9  C   UNL     1       4.275   2.848  15.685  1.00  0.00     0.189 C 
ATOM     10  O   UNL     1       4.825   3.913  15.920  1.00  0.00    -0.294 OA
BRANCH   9  11
ATOM     11  C   UNL     1       3.629   2.663  14.333  1.00  0.00     0.234 C 
BRANCH  11  12
ATOM     12  O   UNL     1       3.841   1.374  13.820  1.00  0.00    -0.388 OA
ATOM     13  H   UNL     1       4.343   0.870  14.513  1.00  0.00     0.211 HD
ENDBRANCH  11  12
ENDBRANCH   9  11
ENDBRANCH   8   9
BRANCH   8  14
ATOM     14  O   UNL     1       3.101   0.940  16.581  1.00  0.00    -0.382 OA
ATOM     15  H   UNL     1       2.298   1.510  16.457  1.00  0.00     0.211 HD
ENDBRANCH   8  14
ENDBRANCH   1   8
BRANCH   1  16
ATOM     16  O   UNL     1       5.689   0.152  15.726  1.00  0.00    -0.387 OA
ATOM     17  H   UNL     1       5.003   0.430  15.063  1.00  0.00     0.211 HD
ENDBRANCH   1  16
TORSDOF 10
ENDMDL
MODEL 9
REMARK VINA RESULT:    -4.597      2.589      3.513
REMARK INTER + INTRA:          -7.350
REMARK INTER:                  -6.588
REMARK INTRA:                  -0.762
REMARK UNBOUND:                -0.738
REMARK SMILES O=C(CO)[C@@H](O)[C@H](O)[C@@H](O)CO
REMARK SMILES IDX 7 1 9 2 11 3 12 4 10 6 5 8 2 9 1 10 3 11 4 12 6 14 8 16
REMARK H PARENT 12 5 10 7 4 13 6 15 8 17
REMARK Flexibility Score: inf
ROOT
ATOM      1  C   UNL     1       3.082   1.399  16.578  1.00  0.00     0.181 C 
ENDROOT
BRANCH   1   2
ATOM      2  C   UNL     1       4.026   2.490  16.026  1.00  0.00     0.171 C 
BRANCH   2   3
ATOM      3  C   UNL     1       3.432   3.143  14.768  1.00  0.00     0.190 C 
BRANCH   3   4
ATOM      4  O   UNL     1       2.313   3.912  15.116  1.00  0.00    -0.394 OA
ATOM      5  H   UNL     1       2.415   4.776  14.640  1.00  0.00     0.210 HD
ENDBRANCH   3   4
ENDBRANCH   2   3
BRANCH   2   6
ATOM      6  O   UNL     1       5.277   1.929  15.721  1.00  0.00    -0.388 OA
ATOM      7  H   UNL     1       5.483   2.172  14.780  1.00  0.00     0.211 HD
ENDBRANCH   2   6
ENDBRANCH   1   2
BRANCH   1   8
ATOM      8  C   UNL     1       2.496   0.520  15.442  1.00  0.00     0.214 C 
BRANCH   8   9
ATOM      9  C   UNL     1       3.113  -0.868  15.446  1.00  0.00     0.189 C 
ATOM     10  O   UNL     1       4.083  -1.093  16.155  1.00  0.00    -0.294 OA
BRANCH   9  11
ATOM     11  C   UNL     1       2.609  -1.980  14.558  1.00  0.00     0.234 C 
BRANCH  11  12
ATOM     12  O   UNL     1       1.215  -2.125  14.636  1.00  0.00    -0.388 OA
ATOM     13  H   UNL     1       0.920  -2.515  13.772  1.00  0.00     0.211 HD
ENDBRANCH  11  12
ENDBRANCH   9  11
ENDBRANCH   8   9
BRANCH   8  14
ATOM     14  O   UNL     1       1.091   0.445  15.506  1.00  0.00    -0.382 OA
ATOM     15  H   UNL     1       0.753   1.291  15.900  1.00  0.00     0.211 HD
ENDBRANCH   8  14
ENDBRANCH   1   8
BRANCH   1  16
ATOM     16  O   UNL     1       2.052   1.999  17.326  1.00  0.00    -0.387 OA
ATOM     17  H   UNL     1       1.278   2.116  16.715  1.00  0.00     0.211 HD
ENDBRANCH   1  16
TORSDOF 10
ENDMDL
