MODEL 1
REMARK VINA RESULT:    -6.856      0.000      0.000
REMARK INTER + INTRA:         -11.412
REMARK INTER:                 -10.063
REMARK INTRA:                  -1.350
REMARK UNBOUND:                -1.350
REMARK SMILES O=c1c(O[C@@H]2O[C@H](CO)[C@H](O)[C@@H](O)[C@@H]2O)c(-c2ccc(O)c(O)c2)oc2cc(O)cc(O)c12
REMARK SMILES IDX 4 1 3 2 16 3 25 4 2 5 26 6 1 7 33 8 27 9 31 10 28 11 30 12
REMARK SMILES IDX 17 13 18 14 19 15 20 16 24 17 22 18 21 19 23 21 32 23 29 25
REMARK SMILES IDX 5 27 14 28 6 29 12 30 7 31 10 32 15 33 13 35 8 37 9 38 11 40
REMARK H PARENT 21 20 23 22 32 24 29 26 15 34 13 36 9 39 11 41
REMARK Flexibility Score: inf
ROOT
ATOM      1  O   UNL     1      54.269   4.815  78.287  1.00  0.00    -0.454 OA
ENDROOT
BRANCH   1   2
ATOM      2  C   UNL     1      55.051   5.570  79.185  1.00  0.00     0.214 A 
ATOM      3  C   UNL     1      54.993   6.977  79.092  1.00  0.00     0.180 A 
ATOM      4  O   UNL     1      55.661   7.734  79.956  1.00  0.00    -0.452 OA
ATOM      5  C   UNL     1      55.860   5.001  80.196  1.00  0.00     0.239 A 
ATOM      6  C   UNL     1      56.426   7.241  80.919  1.00  0.00     0.146 A 
ATOM      7  O   UNL     1      55.938   3.750  80.321  1.00  0.00    -0.285 OA
ATOM      8  C   UNL     1      56.568   5.843  81.080  1.00  0.00     0.111 A 
ATOM      9  C   UNL     1      57.094   8.122  81.774  1.00  0.00     0.094 A 
ATOM     10  C   UNL     1      57.400   5.352  82.118  1.00  0.00     0.134 A 
ATOM     11  C   UNL     1      57.912   7.631  82.796  1.00  0.00     0.123 A 
ATOM     12  C   UNL     1      58.062   6.253  82.964  1.00  0.00     0.093 A 
BRANCH   3  13
ATOM     13  C   UNL     1      54.191   7.656  78.051  1.00  0.00     0.025 A 
ATOM     14  C   UNL     1      54.660   7.771  76.731  1.00  0.00     0.016 A 
ATOM     15  C   UNL     1      53.896   8.430  75.766  1.00  0.00     0.051 A 
ATOM     16  C   UNL     1      52.661   8.998  76.108  1.00  0.00     0.157 A 
ATOM     17  C   UNL     1      52.965   8.246  78.396  1.00  0.00     0.062 A 
ATOM     18  C   UNL     1      52.197   8.909  77.432  1.00  0.00     0.158 A 
BRANCH  16  19
ATOM     19  O   UNL     1      51.899   9.652  75.141  1.00  0.00    -0.504 OA
ATOM     20  H   UNL     1      50.895   9.529  75.085  1.00  0.00     0.293 HD
ENDBRANCH  16  19
BRANCH  18  21
ATOM     21  O   UNL     1      50.977   9.471  77.807  1.00  0.00    -0.504 OA
ATOM     22  H   UNL     1      50.345   9.006  78.448  1.00  0.00     0.293 HD
ENDBRANCH  18  21
ENDBRANCH   3  13
BRANCH  10  23
ATOM     23  O   UNL     1      57.574   3.981  82.313  1.00  0.00    -0.507 OA
ATOM     24  H   UNL     1      57.667   3.339  81.535  1.00  0.00     0.293 HD
ENDBRANCH  10  23
BRANCH  11  25
ATOM     25  O   UNL     1      58.581   8.504  83.651  1.00  0.00    -0.508 OA
ATOM     26  H   UNL     1      58.619   8.342  84.651  1.00  0.00     0.293 HD
ENDBRANCH  11  25
ENDBRANCH   1   2
BRANCH   1  27
ATOM     27  C   UNL     1      52.867   4.556  78.367  1.00  0.00     0.339 C 
ATOM     28  C   UNL     1      52.530   3.262  77.581  1.00  0.00     0.214 C 
ATOM     29  O   UNL     1      52.491   4.397  79.720  1.00  0.00    -0.332 OA
ATOM     30  C   UNL     1      51.258   2.573  78.139  1.00  0.00     0.180 C 
ATOM     31  C   UNL     1      51.075   4.438  79.868  1.00  0.00     0.179 C 
ATOM     32  C   UNL     1      50.319   3.614  78.765  1.00  0.00     0.177 C 
BRANCH  28  33
ATOM     33  O   UNL     1      53.610   2.360  77.581  1.00  0.00    -0.384 OA
ATOM     34  H   UNL     1      53.256   1.471  77.850  1.00  0.00     0.211 HD
ENDBRANCH  28  33
BRANCH  30  35
ATOM     35  O   UNL     1      50.585   1.893  77.111  1.00  0.00    -0.387 OA
ATOM     36  H   UNL     1      50.081   2.579  76.599  1.00  0.00     0.211 HD
ENDBRANCH  30  35
BRANCH  31  37
ATOM     37  C   UNL     1      50.737   3.991  81.302  1.00  0.00     0.191 C 
BRANCH  37  38
ATOM     38  O   UNL     1      49.423   4.342  81.645  1.00  0.00    -0.394 OA
ATOM     39  H   UNL     1      48.888   4.301  80.809  1.00  0.00     0.210 HD
ENDBRANCH  37  38
ENDBRANCH  31  37
BRANCH  32  40
ATOM     40  O   UNL     1      49.172   2.976  79.269  1.00  0.00    -0.387 OA
ATOM     41  H   UNL     1      48.967   2.228  78.650  1.00  0.00     0.211 HD
ENDBRANCH  32  40
ENDBRANCH   1  27
TORSDOF 12
ENDMDL
MODEL 2
REMARK VINA RESULT:    -6.793      2.629      5.302
REMARK INTER + INTRA:         -11.320
REMARK INTER:                 -10.290
REMARK INTRA:                  -1.030
REMARK UNBOUND:                -1.350
REMARK SMILES O=c1c(O[C@@H]2O[C@H](CO)[C@H](O)[C@@H](O)[C@@H]2O)c(-c2ccc(O)c(O)c2)oc2cc(O)cc(O)c12
REMARK SMILES IDX 4 1 3 2 16 3 25 4 2 5 26 6 1 7 33 8 27 9 31 10 28 11 30 12
REMARK SMILES IDX 17 13 18 14 19 15 20 16 24 17 22 18 21 19 23 21 32 23 29 25
REMARK SMILES IDX 5 27 14 28 6 29 12 30 7 31 10 32 15 33 13 35 8 37 9 38 11 40
REMARK H PARENT 21 20 23 22 32 24 29 26 15 34 13 36 9 39 11 41
REMARK Flexibility Score: inf
ROOT
ATOM      1  O   UNL     1      54.606   5.925  81.243  1.00  0.00    -0.454 OA
ENDROOT
BRANCH   1   2
ATOM      2  C   UNL     1      55.362   6.510  80.206  1.00  0.00     0.214 A 
ATOM      3  C   UNL     1      55.108   6.090  78.884  1.00  0.00     0.180 A 
ATOM      4  O   UNL     1      55.747   6.655  77.865  1.00  0.00    -0.452 OA
ATOM      5  C   UNL     1      56.331   7.519  80.411  1.00  0.00     0.239 A 
ATOM      6  C   UNL     1      56.658   7.606  78.014  1.00  0.00     0.146 A 
ATOM      7  O   UNL     1      56.587   7.931  81.573  1.00  0.00    -0.285 OA
ATOM      8  C   UNL     1      57.000   8.080  79.302  1.00  0.00     0.111 A 
ATOM      9  C   UNL     1      57.280   8.134  76.879  1.00  0.00     0.094 A 
ATOM     10  C   UNL     1      57.984   9.094  79.422  1.00  0.00     0.134 A 
ATOM     11  C   UNL     1      58.249   9.134  77.004  1.00  0.00     0.123 A 
ATOM     12  C   UNL     1      58.597   9.609  78.271  1.00  0.00     0.093 A 
BRANCH   3  13
ATOM     13  C   UNL     1      54.128   5.024  78.580  1.00  0.00     0.025 A 
ATOM     14  C   UNL     1      52.746   5.280  78.598  1.00  0.00     0.016 A 
ATOM     15  C   UNL     1      51.835   4.258  78.325  1.00  0.00     0.051 A 
ATOM     16  C   UNL     1      52.290   2.962  78.046  1.00  0.00     0.157 A 
ATOM     17  C   UNL     1      54.579   3.720  78.325  1.00  0.00     0.062 A 
ATOM     18  C   UNL     1      53.669   2.691  78.052  1.00  0.00     0.158 A 
BRANCH  16  19
ATOM     19  O   UNL     1      51.378   1.943  77.770  1.00  0.00    -0.504 OA
ATOM     20  H   UNL     1      51.430   1.402  76.915  1.00  0.00     0.293 HD
ENDBRANCH  16  19
BRANCH  18  21
ATOM     21  O   UNL     1      54.154   1.410  77.787  1.00  0.00    -0.504 OA
ATOM     22  H   UNL     1      53.986   0.632  78.413  1.00  0.00     0.293 HD
ENDBRANCH  18  21
ENDBRANCH   3  13
BRANCH  10  23
ATOM     23  O   UNL     1      58.357   9.591  80.672  1.00  0.00    -0.507 OA
ATOM     24  H   UNL     1      58.381   9.000  81.495  1.00  0.00     0.293 HD
ENDBRANCH  10  23
BRANCH  11  25
ATOM     25  O   UNL     1      58.873   9.664  75.877  1.00  0.00    -0.508 OA
ATOM     26  H   UNL     1      59.075  10.655  75.799  1.00  0.00     0.293 HD
ENDBRANCH  11  25
ENDBRANCH   1   2
BRANCH   1  27
ATOM     27  C   UNL     1      54.634   4.564  81.672  1.00  0.00     0.339 C 
ATOM     28  C   UNL     1      55.753   4.371  82.728  1.00  0.00     0.214 C 
ATOM     29  O   UNL     1      53.386   4.220  82.240  1.00  0.00    -0.332 OA
ATOM     30  C   UNL     1      55.437   3.192  83.684  1.00  0.00     0.180 C 
ATOM     31  C   UNL     1      53.266   2.810  82.402  1.00  0.00     0.179 C 
ATOM     32  C   UNL     1      54.570   2.145  82.970  1.00  0.00     0.177 C 
BRANCH  28  33
ATOM     33  O   UNL     1      55.976   5.548  83.466  1.00  0.00    -0.384 OA
ATOM     34  H   UNL     1      56.254   5.278  84.381  1.00  0.00     0.211 HD
ENDBRANCH  28  33
BRANCH  30  35
ATOM     35  O   UNL     1      56.628   2.593  84.125  1.00  0.00    -0.387 OA
ATOM     36  H   UNL     1      56.943   2.009  83.386  1.00  0.00     0.211 HD
ENDBRANCH  30  35
BRANCH  31  37
ATOM     37  C   UNL     1      52.019   2.539  83.264  1.00  0.00     0.191 C 
BRANCH  37  38
ATOM     38  O   UNL     1      50.886   3.171  82.728  1.00  0.00    -0.394 OA
ATOM     39  H   UNL     1      50.251   2.451  82.475  1.00  0.00     0.210 HD
ENDBRANCH  37  38
ENDBRANCH  31  37
BRANCH  32  40
ATOM     40  O   UNL     1      54.289   1.084  83.848  1.00  0.00    -0.387 OA
ATOM     41  H   UNL     1      55.080   0.984  84.438  1.00  0.00     0.211 HD
ENDBRANCH  32  40
ENDBRANCH   1  27
TORSDOF 12
ENDMDL
MODEL 3
REMARK VINA RESULT:    -6.664      1.947      2.157
REMARK INTER + INTRA:         -11.130
REMARK INTER:                  -9.865
REMARK INTRA:                  -1.265
REMARK UNBOUND:                -1.350
REMARK SMILES O=c1c(O[C@@H]2O[C@H](CO)[C@H](O)[C@@H](O)[C@@H]2O)c(-c2ccc(O)c(O)c2)oc2cc(O)cc(O)c12
REMARK SMILES IDX 4 1 3 2 16 3 25 4 2 5 26 6 1 7 33 8 27 9 31 10 28 11 30 12
REMARK SMILES IDX 17 13 18 14 19 15 20 16 24 17 22 18 21 19 23 21 32 23 29 25
REMARK SMILES IDX 5 27 14 28 6 29 12 30 7 31 10 32 15 33 13 35 8 37 9 38 11 40
REMARK H PARENT 21 20 23 22 32 24 29 26 15 34 13 36 9 39 11 41
REMARK Flexibility Score: inf
ROOT
ATOM      1  O   UNL     1      54.036   5.295  77.698  1.00  0.00    -0.454 OA
ENDROOT
BRANCH   1   2
ATOM      2  C   UNL     1      55.191   6.044  78.002  1.00  0.00     0.214 A 
ATOM      3  C   UNL     1      55.148   7.439  77.798  1.00  0.00     0.180 A 
ATOM      4  O   UNL     1      56.186   8.199  78.128  1.00  0.00    -0.452 OA
ATOM      5  C   UNL     1      56.376   5.485  78.534  1.00  0.00     0.239 A 
ATOM      6  C   UNL     1      57.313   7.715  78.633  1.00  0.00     0.146 A 
ATOM      7  O   UNL     1      56.460   4.245  78.739  1.00  0.00    -0.285 OA
ATOM      8  C   UNL     1      57.464   6.326  78.853  1.00  0.00     0.111 A 
ATOM      9  C   UNL     1      58.352   8.596  78.942  1.00  0.00     0.094 A 
ATOM     10  C   UNL     1      58.685   5.844  79.388  1.00  0.00     0.134 A 
ATOM     11  C   UNL     1      59.553   8.114  79.471  1.00  0.00     0.123 A 
ATOM     12  C   UNL     1      59.716   6.745  79.691  1.00  0.00     0.093 A 
BRANCH   3  13
ATOM     13  C   UNL     1      53.958   8.106  77.224  1.00  0.00     0.025 A 
ATOM     14  C   UNL     1      53.934   8.522  75.882  1.00  0.00     0.016 A 
ATOM     15  C   UNL     1      52.808   9.164  75.363  1.00  0.00     0.051 A 
ATOM     16  C   UNL     1      51.697   9.414  76.180  1.00  0.00     0.157 A 
ATOM     17  C   UNL     1      52.854   8.379  78.046  1.00  0.00     0.062 A 
ATOM     18  C   UNL     1      51.723   9.024  77.530  1.00  0.00     0.158 A 
BRANCH  16  19
ATOM     19  O   UNL     1      50.572  10.052  75.658  1.00  0.00    -0.504 OA
ATOM     20  H   UNL     1      50.328  10.998  75.926  1.00  0.00     0.293 HD
ENDBRANCH  16  19
BRANCH  18  21
ATOM     21  O   UNL     1      50.638   9.266  78.372  1.00  0.00    -0.504 OA
ATOM     22  H   UNL     1      50.248   8.545  78.967  1.00  0.00     0.293 HD
ENDBRANCH  18  21
ENDBRANCH   3  13
BRANCH  10  23
ATOM     23  O   UNL     1      58.881   4.481  79.620  1.00  0.00    -0.507 OA
ATOM     24  H   UNL     1      58.134   3.884  79.955  1.00  0.00     0.293 HD
ENDBRANCH  10  23
BRANCH  11  25
ATOM     25  O   UNL     1      60.594   8.988  79.781  1.00  0.00    -0.508 OA
ATOM     26  H   UNL     1      61.432   8.667  80.252  1.00  0.00     0.293 HD
ENDBRANCH  11  25
ENDBRANCH   1   2
BRANCH   1  27
ATOM     27  C   UNL     1      52.935   5.012  78.562  1.00  0.00     0.339 C 
ATOM     28  C   UNL     1      52.319   3.639  78.192  1.00  0.00     0.214 C 
ATOM     29  O   UNL     1      53.381   4.983  79.904  1.00  0.00    -0.332 OA
ATOM     30  C   UNL     1      51.622   2.981  79.410  1.00  0.00     0.180 C 
ATOM     31  C   UNL     1      52.283   5.007  80.810  1.00  0.00     0.179 C 
ATOM     32  C   UNL     1      51.109   4.057  80.376  1.00  0.00     0.177 C 
BRANCH  28  33
ATOM     33  O   UNL     1      53.285   2.766  77.656  1.00  0.00    -0.384 OA
ATOM     34  H   UNL     1      52.912   1.846  77.699  1.00  0.00     0.211 HD
ENDBRANCH  28  33
BRANCH  30  35
ATOM     35  O   UNL     1      50.547   2.185  78.982  1.00  0.00    -0.387 OA
ATOM     36  H   UNL     1      50.889   1.254  78.921  1.00  0.00     0.211 HD
ENDBRANCH  30  35
BRANCH  31  37
ATOM     37  C   UNL     1      52.826   4.699  82.217  1.00  0.00     0.191 C 
BRANCH  37  38
ATOM     38  O   UNL     1      53.328   3.391  82.292  1.00  0.00    -0.394 OA
ATOM     39  H   UNL     1      52.543   2.789  82.378  1.00  0.00     0.210 HD
ENDBRANCH  37  38
ENDBRANCH  31  37
BRANCH  32  40
ATOM     40  O   UNL     1      50.482   3.448  81.477  1.00  0.00    -0.387 OA
ATOM     41  H   UNL     1      49.679   2.983  81.126  1.00  0.00     0.211 HD
ENDBRANCH  32  40
ENDBRANCH   1  27
TORSDOF 12
ENDMDL
MODEL 4
REMARK VINA RESULT:    -6.550      2.782      7.460
REMARK INTER + INTRA:         -10.962
REMARK INTER:                  -9.648
REMARK INTRA:                  -1.315
REMARK UNBOUND:                -1.350
REMARK SMILES O=c1c(O[C@@H]2O[C@H](CO)[C@H](O)[C@@H](O)[C@@H]2O)c(-c2ccc(O)c(O)c2)oc2cc(O)cc(O)c12
REMARK SMILES IDX 4 1 3 2 16 3 25 4 2 5 26 6 1 7 33 8 27 9 31 10 28 11 30 12
REMARK SMILES IDX 17 13 18 14 19 15 20 16 24 17 22 18 21 19 23 21 32 23 29 25
REMARK SMILES IDX 5 27 14 28 6 29 12 30 7 31 10 32 15 33 13 35 8 37 9 38 11 40
REMARK H PARENT 21 20 23 22 32 24 29 26 15 34 13 36 9 39 11 41
REMARK Flexibility Score: inf
ROOT
ATOM      1  O   UNL     1      55.225   5.357  81.993  1.00  0.00    -0.454 OA
ENDROOT
BRANCH   1   2
ATOM      2  C   UNL     1      54.408   4.913  80.934  1.00  0.00     0.214 A 
ATOM      3  C   UNL     1      54.969   4.861  79.641  1.00  0.00     0.180 A 
ATOM      4  O   UNL     1      54.262   4.390  78.620  1.00  0.00    -0.452 OA
ATOM      5  C   UNL     1      53.071   4.482  81.098  1.00  0.00     0.239 A 
ATOM      6  C   UNL     1      53.009   3.972  78.732  1.00  0.00     0.146 A 
ATOM      7  O   UNL     1      52.528   4.504  82.234  1.00  0.00    -0.285 OA
ATOM      8  C   UNL     1      52.348   4.006  79.982  1.00  0.00     0.111 A 
ATOM      9  C   UNL     1      52.346   3.499  77.596  1.00  0.00     0.094 A 
ATOM     10  C   UNL     1      51.006   3.557  80.062  1.00  0.00     0.134 A 
ATOM     11  C   UNL     1      51.024   3.057  77.682  1.00  0.00     0.123 A 
ATOM     12  C   UNL     1      50.359   3.087  78.910  1.00  0.00     0.093 A 
BRANCH   3  13
ATOM     13  C   UNL     1      56.353   5.314  79.374  1.00  0.00     0.025 A 
ATOM     14  C   UNL     1      57.458   4.608  79.879  1.00  0.00     0.016 A 
ATOM     15  C   UNL     1      58.756   5.059  79.630  1.00  0.00     0.051 A 
ATOM     16  C   UNL     1      58.968   6.230  78.890  1.00  0.00     0.157 A 
ATOM     17  C   UNL     1      56.567   6.499  78.654  1.00  0.00     0.062 A 
ATOM     18  C   UNL     1      57.867   6.956  78.404  1.00  0.00     0.158 A 
BRANCH  16  19
ATOM     19  O   UNL     1      60.265   6.677  78.641  1.00  0.00    -0.504 OA
ATOM     20  H   UNL     1      61.066   6.066  78.748  1.00  0.00     0.293 HD
ENDBRANCH  16  19
BRANCH  18  21
ATOM     21  O   UNL     1      58.043   8.130  77.671  1.00  0.00    -0.504 OA
ATOM     22  H   UNL     1      57.840   8.180  76.680  1.00  0.00     0.293 HD
ENDBRANCH  18  21
ENDBRANCH   3  13
BRANCH  10  23
ATOM     23  O   UNL     1      50.312   3.575  81.273  1.00  0.00    -0.507 OA
ATOM     24  H   UNL     1      49.344   3.281  81.338  1.00  0.00     0.293 HD
ENDBRANCH  10  23
BRANCH  11  25
ATOM     25  O   UNL     1      50.358   2.585  76.553  1.00  0.00    -0.508 OA
ATOM     26  H   UNL     1      49.466   2.972  76.263  1.00  0.00     0.293 HD
ENDBRANCH  11  25
ENDBRANCH   1   2
BRANCH   1  27
ATOM     27  C   UNL     1      55.679   6.689  82.237  1.00  0.00     0.339 C 
ATOM     28  C   UNL     1      54.636   7.447  83.097  1.00  0.00     0.214 C 
ATOM     29  O   UNL     1      56.916   6.650  82.920  1.00  0.00    -0.332 OA
ATOM     30  C   UNL     1      55.298   8.576  83.929  1.00  0.00     0.180 C 
ATOM     31  C   UNL     1      57.546   7.927  82.915  1.00  0.00     0.179 C 
ATOM     32  C   UNL     1      56.548   9.104  83.211  1.00  0.00     0.177 C 
BRANCH  28  33
ATOM     33  O   UNL     1      53.929   6.572  83.944  1.00  0.00    -0.384 OA
ATOM     34  H   UNL     1      53.440   7.129  84.606  1.00  0.00     0.211 HD
ENDBRANCH  28  33
BRANCH  30  35
ATOM     35  O   UNL     1      54.390   9.629  84.124  1.00  0.00    -0.387 OA
ATOM     36  H   UNL     1      53.511   9.312  83.789  1.00  0.00     0.211 HD
ENDBRANCH  30  35
BRANCH  31  37
ATOM     37  C   UNL     1      58.732   7.873  83.895  1.00  0.00     0.191 C 
BRANCH  37  38
ATOM     38  O   UNL     1      59.645   8.908  83.643  1.00  0.00    -0.394 OA
ATOM     39  H   UNL     1      60.374   8.518  83.094  1.00  0.00     0.210 HD
ENDBRANCH  37  38
ENDBRANCH  31  37
BRANCH  32  40
ATOM     40  O   UNL     1      57.139  10.124  83.976  1.00  0.00    -0.387 OA
ATOM     41  H   UNL     1      58.098  10.152  83.722  1.00  0.00     0.211 HD
ENDBRANCH  32  40
ENDBRANCH   1  27
TORSDOF 12
ENDMDL
MODEL 5
REMARK VINA RESULT:    -6.531      1.434      1.804
REMARK INTER + INTRA:         -10.935
REMARK INTER:                  -9.702
REMARK INTRA:                  -1.232
REMARK UNBOUND:                -1.350
REMARK SMILES O=c1c(O[C@@H]2O[C@H](CO)[C@H](O)[C@@H](O)[C@@H]2O)c(-c2ccc(O)c(O)c2)oc2cc(O)cc(O)c12
REMARK SMILES IDX 4 1 3 2 16 3 25 4 2 5 26 6 1 7 33 8 27 9 31 10 28 11 30 12
REMARK SMILES IDX 17 13 18 14 19 15 20 16 24 17 22 18 21 19 23 21 32 23 29 25
REMARK SMILES IDX 5 27 14 28 6 29 12 30 7 31 10 32 15 33 13 35 8 37 9 38 11 40
REMARK H PARENT 21 20 23 22 32 24 29 26 15 34 13 36 9 39 11 41
REMARK Flexibility Score: inf
ROOT
ATOM      1  O   UNL     1      55.042   4.213  79.918  1.00  0.00    -0.454 OA
ENDROOT
BRANCH   1   2
ATOM      2  C   UNL     1      56.006   5.040  80.531  1.00  0.00     0.214 A 
ATOM      3  C   UNL     1      56.260   6.301  79.953  1.00  0.00     0.180 A 
ATOM      4  O   UNL     1      57.111   7.144  80.527  1.00  0.00    -0.452 OA
ATOM      5  C   UNL     1      56.706   4.694  81.710  1.00  0.00     0.239 A 
ATOM      6  C   UNL     1      57.783   6.860  81.634  1.00  0.00     0.146 A 
ATOM      7  O   UNL     1      56.508   3.580  82.265  1.00  0.00    -0.285 OA
ATOM      8  C   UNL     1      57.617   5.611  82.277  1.00  0.00     0.111 A 
ATOM      9  C   UNL     1      58.663   7.812  82.158  1.00  0.00     0.094 A 
ATOM     10  C   UNL     1      58.357   5.341  83.455  1.00  0.00     0.134 A 
ATOM     11  C   UNL     1      59.389   7.539  83.320  1.00  0.00     0.123 A 
ATOM     12  C   UNL     1      59.235   6.309  83.963  1.00  0.00     0.093 A 
BRANCH   3  13
ATOM     13  C   UNL     1      55.590   6.736  78.707  1.00  0.00     0.025 A 
ATOM     14  C   UNL     1      55.988   6.236  77.455  1.00  0.00     0.016 A 
ATOM     15  C   UNL     1      55.355   6.669  76.289  1.00  0.00     0.051 A 
ATOM     16  C   UNL     1      54.327   7.620  76.354  1.00  0.00     0.157 A 
ATOM     17  C   UNL     1      54.577   7.706  78.767  1.00  0.00     0.062 A 
ATOM     18  C   UNL     1      53.941   8.144  77.599  1.00  0.00     0.158 A 
BRANCH  16  19
ATOM     19  O   UNL     1      53.695   8.050  75.188  1.00  0.00    -0.504 OA
ATOM     20  H   UNL     1      53.051   7.452  74.683  1.00  0.00     0.293 HD
ENDBRANCH  16  19
BRANCH  18  21
ATOM     21  O   UNL     1      52.928   9.098  77.698  1.00  0.00    -0.504 OA
ATOM     22  H   UNL     1      52.993   9.888  78.329  1.00  0.00     0.293 HD
ENDBRANCH  18  21
ENDBRANCH   3  13
BRANCH  10  23
ATOM     23  O   UNL     1      58.228   4.121  84.122  1.00  0.00    -0.507 OA
ATOM     24  H   UNL     1      58.994   3.459  84.176  1.00  0.00     0.293 HD
ENDBRANCH  10  23
BRANCH  11  25
ATOM     25  O   UNL     1      60.267   8.484  83.847  1.00  0.00    -0.508 OA
ATOM     26  H   UNL     1      60.154   9.474  83.662  1.00  0.00     0.293 HD
ENDBRANCH  11  25
ENDBRANCH   1   2
BRANCH   1  27
ATOM     27  C   UNL     1      53.623   4.361  79.959  1.00  0.00     0.339 C 
ATOM     28  C   UNL     1      52.969   3.419  78.916  1.00  0.00     0.214 C 
ATOM     29  O   UNL     1      53.149   4.036  81.251  1.00  0.00    -0.332 OA
ATOM     30  C   UNL     1      51.526   3.028  79.328  1.00  0.00     0.180 C 
ATOM     31  C   UNL     1      51.799   4.455  81.423  1.00  0.00     0.179 C 
ATOM     32  C   UNL     1      50.894   4.139  80.178  1.00  0.00     0.177 C 
BRANCH  28  33
ATOM     33  O   UNL     1      53.744   2.262  78.706  1.00  0.00    -0.384 OA
ATOM     34  H   UNL     1      54.323   2.142  79.504  1.00  0.00     0.211 HD
ENDBRANCH  28  33
BRANCH  30  35
ATOM     35  O   UNL     1      50.740   2.806  78.186  1.00  0.00    -0.387 OA
ATOM     36  H   UNL     1      49.793   2.820  78.486  1.00  0.00     0.211 HD
ENDBRANCH  30  35
BRANCH  31  37
ATOM     37  C   UNL     1      51.275   3.833  82.730  1.00  0.00     0.191 C 
BRANCH  37  38
ATOM     38  O   UNL     1      51.273   2.432  82.659  1.00  0.00    -0.394 OA
ATOM     39  H   UNL     1      50.431   2.125  83.084  1.00  0.00     0.210 HD
ENDBRANCH  37  38
ENDBRANCH  31  37
BRANCH  32  40
ATOM     40  O   UNL     1      49.590   3.771  80.547  1.00  0.00    -0.387 OA
ATOM     41  H   UNL     1      49.129   3.483  79.716  1.00  0.00     0.211 HD
ENDBRANCH  32  40
ENDBRANCH   1  27
TORSDOF 12
ENDMDL
MODEL 6
REMARK VINA RESULT:    -6.280     10.016     13.090
REMARK INTER + INTRA:         -10.567
REMARK INTER:                  -9.681
REMARK INTRA:                  -0.886
REMARK UNBOUND:                -1.350
REMARK SMILES O=c1c(O[C@@H]2O[C@H](CO)[C@H](O)[C@@H](O)[C@@H]2O)c(-c2ccc(O)c(O)c2)oc2cc(O)cc(O)c12
REMARK SMILES IDX 4 1 3 2 16 3 25 4 2 5 26 6 1 7 33 8 27 9 31 10 28 11 30 12
REMARK SMILES IDX 17 13 18 14 19 15 20 16 24 17 22 18 21 19 23 21 32 23 29 25
REMARK SMILES IDX 5 27 14 28 6 29 12 30 7 31 10 32 15 33 13 35 8 37 9 38 11 40
REMARK H PARENT 21 20 23 22 32 24 29 26 15 34 13 36 9 39 11 41
REMARK Flexibility Score: inf
ROOT
ATOM      1  O   UNL     1      51.340  -5.436  80.123  1.00  0.00    -0.454 OA
ENDROOT
BRANCH   1   2
ATOM      2  C   UNL     1      52.350  -6.169  80.781  1.00  0.00     0.214 A 
ATOM      3  C   UNL     1      52.957  -5.589  81.915  1.00  0.00     0.180 A 
ATOM      4  O   UNL     1      53.867  -6.263  82.608  1.00  0.00    -0.452 OA
ATOM      5  C   UNL     1      52.763  -7.464  80.393  1.00  0.00     0.239 A 
ATOM      6  C   UNL     1      54.278  -7.480  82.280  1.00  0.00     0.146 A 
ATOM      7  O   UNL     1      52.246  -8.025  79.390  1.00  0.00    -0.285 OA
ATOM      8  C   UNL     1      53.748  -8.138  81.146  1.00  0.00     0.111 A 
ATOM      9  C   UNL     1      55.248  -8.105  83.070  1.00  0.00     0.094 A 
ATOM     10  C   UNL     1      54.217  -9.436  80.824  1.00  0.00     0.134 A 
ATOM     11  C   UNL     1      55.705  -9.386  82.747  1.00  0.00     0.123 A 
ATOM     12  C   UNL     1      55.191 -10.045  81.629  1.00  0.00     0.093 A 
BRANCH   3  13
ATOM     13  C   UNL     1      52.601  -4.229  82.378  1.00  0.00     0.025 A 
ATOM     14  C   UNL     1      51.261  -3.853  82.568  1.00  0.00     0.016 A 
ATOM     15  C   UNL     1      50.944  -2.560  82.990  1.00  0.00     0.051 A 
ATOM     16  C   UNL     1      51.959  -1.620  83.212  1.00  0.00     0.157 A 
ATOM     17  C   UNL     1      53.614  -3.279  82.578  1.00  0.00     0.062 A 
ATOM     18  C   UNL     1      53.301  -1.981  83.000  1.00  0.00     0.158 A 
BRANCH  16  19
ATOM     19  O   UNL     1      51.640  -0.331  83.636  1.00  0.00    -0.504 OA
ATOM     20  H   UNL     1      52.354   0.316  83.951  1.00  0.00     0.293 HD
ENDBRANCH  16  19
BRANCH  18  21
ATOM     21  O   UNL     1      54.334  -1.067  83.203  1.00  0.00    -0.504 OA
ATOM     22  H   UNL     1      54.383  -0.487  84.032  1.00  0.00     0.293 HD
ENDBRANCH  18  21
ENDBRANCH   3  13
BRANCH  10  23
ATOM     23  O   UNL     1      53.726 -10.124  79.712  1.00  0.00    -0.507 OA
ATOM     24  H   UNL     1      52.806  -9.935  79.332  1.00  0.00     0.293 HD
ENDBRANCH  10  23
BRANCH  11  25
ATOM     25  O   UNL     1      56.671 -10.014  83.530  1.00  0.00    -0.508 OA
ATOM     26  H   UNL     1      56.882 -11.000  83.422  1.00  0.00     0.293 HD
ENDBRANCH  11  25
ENDBRANCH   1   2
BRANCH   1  27
ATOM     27  C   UNL     1      49.931  -5.657  80.184  1.00  0.00     0.339 C 
ATOM     28  C   UNL     1      49.348  -5.707  78.749  1.00  0.00     0.214 C 
ATOM     29  O   UNL     1      49.672  -6.882  80.842  1.00  0.00    -0.332 OA
ATOM     30  C   UNL     1      48.055  -6.562  78.690  1.00  0.00     0.180 C 
ATOM     31  C   UNL     1      48.296  -6.995  81.191  1.00  0.00     0.179 C 
ATOM     32  C   UNL     1      47.331  -6.527  80.042  1.00  0.00     0.177 C 
BRANCH  28  33
ATOM     33  O   UNL     1      50.291  -6.190  77.822  1.00  0.00    -0.384 OA
ATOM     34  H   UNL     1      49.788  -6.565  77.052  1.00  0.00     0.211 HD
ENDBRANCH  28  33
BRANCH  30  35
ATOM     35  O   UNL     1      47.200  -6.077  77.687  1.00  0.00    -0.387 OA
ATOM     36  H   UNL     1      46.788  -5.246  78.042  1.00  0.00     0.211 HD
ENDBRANCH  30  35
BRANCH  31  37
ATOM     37  C   UNL     1      48.043  -8.444  81.646  1.00  0.00     0.191 C 
BRANCH  37  38
ATOM     38  O   UNL     1      48.158  -9.340  80.573  1.00  0.00    -0.394 OA
ATOM     39  H   UNL     1      48.142  -8.795  79.743  1.00  0.00     0.210 HD
ENDBRANCH  37  38
ENDBRANCH  31  37
BRANCH  32  40
ATOM     40  O   UNL     1      46.164  -7.307  79.976  1.00  0.00    -0.387 OA
ATOM     41  H   UNL     1      45.399  -6.676  79.968  1.00  0.00     0.211 HD
ENDBRANCH  32  40
ENDBRANCH   1  27
TORSDOF 12
ENDMDL
MODEL 7
REMARK VINA RESULT:    -6.206      2.494      6.436
REMARK INTER + INTRA:         -10.458
REMARK INTER:                  -9.147
REMARK INTRA:                  -1.311
REMARK UNBOUND:                -1.350
REMARK SMILES O=c1c(O[C@@H]2O[C@H](CO)[C@H](O)[C@@H](O)[C@@H]2O)c(-c2ccc(O)c(O)c2)oc2cc(O)cc(O)c12
REMARK SMILES IDX 4 1 3 2 16 3 25 4 2 5 26 6 1 7 33 8 27 9 31 10 28 11 30 12
REMARK SMILES IDX 17 13 18 14 19 15 20 16 24 17 22 18 21 19 23 21 32 23 29 25
REMARK SMILES IDX 5 27 14 28 6 29 12 30 7 31 10 32 15 33 13 35 8 37 9 38 11 40
REMARK H PARENT 21 20 23 22 32 24 29 26 15 34 13 36 9 39 11 41
REMARK Flexibility Score: inf
ROOT
ATOM      1  O   UNL     1      56.345   5.109  80.015  1.00  0.00    -0.454 OA
ENDROOT
BRANCH   1   2
ATOM      2  C   UNL     1      55.236   4.585  80.711  1.00  0.00     0.214 A 
ATOM      3  C   UNL     1      53.946   4.917  80.247  1.00  0.00     0.180 A 
ATOM      4  O   UNL     1      52.869   4.399  80.827  1.00  0.00    -0.452 OA
ATOM      5  C   UNL     1      55.342   3.719  81.824  1.00  0.00     0.239 A 
ATOM      6  C   UNL     1      52.925   3.581  81.869  1.00  0.00     0.146 A 
ATOM      7  O   UNL     1      56.472   3.390  82.271  1.00  0.00    -0.285 OA
ATOM      8  C   UNL     1      54.171   3.206  82.424  1.00  0.00     0.111 A 
ATOM      9  C   UNL     1      51.734   3.093  82.415  1.00  0.00     0.094 A 
ATOM     10  C   UNL     1      54.191   2.334  83.541  1.00  0.00     0.134 A 
ATOM     11  C   UNL     1      51.761   2.233  83.516  1.00  0.00     0.123 A 
ATOM     12  C   UNL     1      52.985   1.858  84.074  1.00  0.00     0.093 A 
BRANCH   3  13
ATOM     13  C   UNL     1      53.742   5.834  79.103  1.00  0.00     0.025 A 
ATOM     14  C   UNL     1      54.171   5.490  77.810  1.00  0.00     0.016 A 
ATOM     15  C   UNL     1      53.984   6.375  76.746  1.00  0.00     0.051 A 
ATOM     16  C   UNL     1      53.382   7.622  76.961  1.00  0.00     0.157 A 
ATOM     17  C   UNL     1      53.161   7.093  79.320  1.00  0.00     0.062 A 
ATOM     18  C   UNL     1      52.974   7.984  78.257  1.00  0.00     0.158 A 
BRANCH  16  19
ATOM     19  O   UNL     1      53.194   8.503  75.897  1.00  0.00    -0.504 OA
ATOM     20  H   UNL     1      53.977   8.873  75.370  1.00  0.00     0.293 HD
ENDBRANCH  16  19
BRANCH  18  21
ATOM     21  O   UNL     1      52.380   9.221  78.506  1.00  0.00    -0.504 OA
ATOM     22  H   UNL     1      52.927  10.062  78.649  1.00  0.00     0.293 HD
ENDBRANCH  18  21
ENDBRANCH   3  13
BRANCH  10  23
ATOM     23  O   UNL     1      55.397   1.940  84.125  1.00  0.00    -0.507 OA
ATOM     24  H   UNL     1      55.771   1.007  83.996  1.00  0.00     0.293 HD
ENDBRANCH  10  23
BRANCH  11  25
ATOM     25  O   UNL     1      50.578   1.744  84.065  1.00  0.00    -0.508 OA
ATOM     26  H   UNL     1      50.431   1.716  85.068  1.00  0.00     0.293 HD
ENDBRANCH  11  25
ENDBRANCH   1   2
BRANCH   1  27
ATOM     27  C   UNL     1      56.943   6.394  80.180  1.00  0.00     0.339 C 
ATOM     28  C   UNL     1      57.938   6.358  81.368  1.00  0.00     0.214 C 
ATOM     29  O   UNL     1      57.632   6.752  78.999  1.00  0.00    -0.332 OA
ATOM     30  C   UNL     1      59.058   7.418  81.206  1.00  0.00     0.180 C 
ATOM     31  C   UNL     1      57.982   8.132  79.007  1.00  0.00     0.179 C 
ATOM     32  C   UNL     1      58.544   8.615  80.392  1.00  0.00     0.177 C 
BRANCH  28  33
ATOM     33  O   UNL     1      58.503   5.078  81.532  1.00  0.00    -0.384 OA
ATOM     34  H   UNL     1      59.457   5.203  81.779  1.00  0.00     0.211 HD
ENDBRANCH  28  33
BRANCH  30  35
ATOM     35  O   UNL     1      59.493   7.860  82.465  1.00  0.00    -0.387 OA
ATOM     36  H   UNL     1      59.381   7.095  83.089  1.00  0.00     0.211 HD
ENDBRANCH  30  35
BRANCH  31  37
ATOM     37  C   UNL     1      58.952   8.380  77.837  1.00  0.00     0.191 C 
BRANCH  37  38
ATOM     38  O   UNL     1      60.019   7.469  77.862  1.00  0.00    -0.394 OA
ATOM     39  H   UNL     1      60.457   7.566  78.747  1.00  0.00     0.210 HD
ENDBRANCH  37  38
ENDBRANCH  31  37
BRANCH  32  40
ATOM     40  O   UNL     1      59.568   9.567  80.250  1.00  0.00    -0.387 OA
ATOM     41  H   UNL     1      59.279  10.374  80.750  1.00  0.00     0.211 HD
ENDBRANCH  32  40
ENDBRANCH   1  27
TORSDOF 12
ENDMDL
MODEL 8
REMARK VINA RESULT:    -6.187      2.023      6.459
REMARK INTER + INTRA:         -10.430
REMARK INTER:                  -9.744
REMARK INTRA:                  -0.685
REMARK UNBOUND:                -1.350
REMARK SMILES O=c1c(O[C@@H]2O[C@H](CO)[C@H](O)[C@@H](O)[C@@H]2O)c(-c2ccc(O)c(O)c2)oc2cc(O)cc(O)c12
REMARK SMILES IDX 4 1 3 2 16 3 25 4 2 5 26 6 1 7 33 8 27 9 31 10 28 11 30 12
REMARK SMILES IDX 17 13 18 14 19 15 20 16 24 17 22 18 21 19 23 21 32 23 29 25
REMARK SMILES IDX 5 27 14 28 6 29 12 30 7 31 10 32 15 33 13 35 8 37 9 38 11 40
REMARK H PARENT 21 20 23 22 32 24 29 26 15 34 13 36 9 39 11 41
REMARK Flexibility Score: inf
ROOT
ATOM      1  O   UNL     1      54.317   5.851  80.514  1.00  0.00    -0.454 OA
ENDROOT
BRANCH   1   2
ATOM      2  C   UNL     1      54.328   6.530  79.279  1.00  0.00     0.214 A 
ATOM      3  C   UNL     1      53.473   6.062  78.258  1.00  0.00     0.180 A 
ATOM      4  O   UNL     1      53.398   6.705  77.098  1.00  0.00    -0.452 OA
ATOM      5  C   UNL     1      55.118   7.673  79.015  1.00  0.00     0.239 A 
ATOM      6  C   UNL     1      54.117   7.781  76.813  1.00  0.00     0.146 A 
ATOM      7  O   UNL     1      55.892   8.130  79.896  1.00  0.00    -0.285 OA
ATOM      8  C   UNL     1      55.022   8.314  77.760  1.00  0.00     0.111 A 
ATOM      9  C   UNL     1      53.972   8.382  75.559  1.00  0.00     0.094 A 
ATOM     10  C   UNL     1      55.779   9.462  77.417  1.00  0.00     0.134 A 
ATOM     11  C   UNL     1      54.721   9.515  75.228  1.00  0.00     0.123 A 
ATOM     12  C   UNL     1      55.619  10.049  76.154  1.00  0.00     0.093 A 
BRANCH   3  13
ATOM     13  C   UNL     1      52.629   4.860  78.440  1.00  0.00     0.025 A 
ATOM     14  C   UNL     1      52.831   3.706  77.664  1.00  0.00     0.016 A 
ATOM     15  C   UNL     1      52.014   2.587  77.838  1.00  0.00     0.051 A 
ATOM     16  C   UNL     1      50.974   2.610  78.778  1.00  0.00     0.157 A 
ATOM     17  C   UNL     1      51.572   4.889  79.363  1.00  0.00     0.062 A 
ATOM     18  C   UNL     1      50.749   3.770  79.540  1.00  0.00     0.158 A 
BRANCH  16  19
ATOM     19  O   UNL     1      50.162   1.491  78.952  1.00  0.00    -0.504 OA
ATOM     20  H   UNL     1      50.554   0.569  79.101  1.00  0.00     0.293 HD
ENDBRANCH  16  19
BRANCH  18  21
ATOM     21  O   UNL     1      49.718   3.829  80.476  1.00  0.00    -0.504 OA
ATOM     22  H   UNL     1      49.891   4.024  81.455  1.00  0.00     0.293 HD
ENDBRANCH  18  21
ENDBRANCH   3  13
BRANCH  10  23
ATOM     23  O   UNL     1      56.686  10.022  78.318  1.00  0.00    -0.507 OA
ATOM     24  H   UNL     1      56.948   9.548  79.176  1.00  0.00     0.293 HD
ENDBRANCH  10  23
BRANCH  11  25
ATOM     25  O   UNL     1      54.581  10.118  73.980  1.00  0.00    -0.508 OA
ATOM     26  H   UNL     1      55.313  10.063  73.280  1.00  0.00     0.293 HD
ENDBRANCH  11  25
ENDBRANCH   1   2
BRANCH   1  27
ATOM     27  C   UNL     1      55.443   5.490  81.314  1.00  0.00     0.339 C 
ATOM     28  C   UNL     1      55.081   4.278  82.210  1.00  0.00     0.214 C 
ATOM     29  O   UNL     1      56.529   5.149  80.475  1.00  0.00    -0.332 OA
ATOM     30  C   UNL     1      56.337   3.445  82.574  1.00  0.00     0.180 C 
ATOM     31  C   UNL     1      57.745   5.078  81.214  1.00  0.00     0.179 C 
ATOM     32  C   UNL     1      57.584   4.339  82.591  1.00  0.00     0.177 C 
BRANCH  28  33
ATOM     33  O   UNL     1      54.112   3.457  81.603  1.00  0.00    -0.384 OA
ATOM     34  H   UNL     1      53.230   3.898  81.722  1.00  0.00     0.211 HD
ENDBRANCH  28  33
BRANCH  30  35
ATOM     35  O   UNL     1      56.172   2.846  83.834  1.00  0.00    -0.387 OA
ATOM     36  H   UNL     1      57.049   2.909  84.295  1.00  0.00     0.211 HD
ENDBRANCH  30  35
BRANCH  31  37
ATOM     37  C   UNL     1      58.813   4.444  80.304  1.00  0.00     0.191 C 
BRANCH  37  38
ATOM     38  O   UNL     1      59.202   5.329  79.287  1.00  0.00    -0.394 OA
ATOM     39  H   UNL     1      58.664   5.097  78.485  1.00  0.00     0.210 HD
ENDBRANCH  37  38
ENDBRANCH  31  37
BRANCH  32  40
ATOM     40  O   UNL     1      58.714   3.572  82.919  1.00  0.00    -0.387 OA
ATOM     41  H   UNL     1      58.530   3.154  83.800  1.00  0.00     0.211 HD
ENDBRANCH  32  40
ENDBRANCH   1  27
TORSDOF 12
ENDMDL
MODEL 9
REMARK VINA RESULT:    -6.134      1.620      2.552
REMARK INTER + INTRA:         -10.352
REMARK INTER:                  -9.246
REMARK INTRA:                  -1.106
REMARK UNBOUND:                -1.350
REMARK SMILES O=c1c(O[C@@H]2O[C@H](CO)[C@H](O)[C@@H](O)[C@@H]2O)c(-c2ccc(O)c(O)c2)oc2cc(O)cc(O)c12
REMARK SMILES IDX 4 1 3 2 16 3 25 4 2 5 26 6 1 7 33 8 27 9 31 10 28 11 30 12
REMARK SMILES IDX 17 13 18 14 19 15 20 16 24 17 22 18 21 19 23 21 32 23 29 25
REMARK SMILES IDX 5 27 14 28 6 29 12 30 7 31 10 32 15 33 13 35 8 37 9 38 11 40
REMARK H PARENT 21 20 23 22 32 24 29 26 15 34 13 36 9 39 11 41
REMARK Flexibility Score: inf
ROOT
ATOM      1  O   UNL     1      54.268   6.150  80.441  1.00  0.00    -0.454 OA
ENDROOT
BRANCH   1   2
ATOM      2  C   UNL     1      55.472   6.881  80.484  1.00  0.00     0.214 A 
ATOM      3  C   UNL     1      55.614   7.976  79.606  1.00  0.00     0.180 A 
ATOM      4  O   UNL     1      56.702   8.737  79.651  1.00  0.00    -0.452 OA
ATOM      5  C   UNL     1      56.531   6.604  81.380  1.00  0.00     0.239 A 
ATOM      6  C   UNL     1      57.714   8.514  80.478  1.00  0.00     0.146 A 
ATOM      7  O   UNL     1      56.448   5.640  82.186  1.00  0.00    -0.285 OA
ATOM      8  C   UNL     1      57.679   7.426  81.381  1.00  0.00     0.111 A 
ATOM      9  C   UNL     1      58.820   9.368  80.444  1.00  0.00     0.094 A 
ATOM     10  C   UNL     1      58.782   7.216  82.246  1.00  0.00     0.134 A 
ATOM     11  C   UNL     1      59.904   9.155  81.300  1.00  0.00     0.123 A 
ATOM     12  C   UNL     1      59.882   8.083  82.195  1.00  0.00     0.093 A 
BRANCH   3  13
ATOM     13  C   UNL     1      54.566   8.324  78.620  1.00  0.00     0.025 A 
ATOM     14  C   UNL     1      53.421   9.045  79.001  1.00  0.00     0.016 A 
ATOM     15  C   UNL     1      52.436   9.351  78.060  1.00  0.00     0.051 A 
ATOM     16  C   UNL     1      52.571   8.926  76.731  1.00  0.00     0.157 A 
ATOM     17  C   UNL     1      54.687   7.880  77.295  1.00  0.00     0.062 A 
ATOM     18  C   UNL     1      53.700   8.182  76.349  1.00  0.00     0.158 A 
BRANCH  16  19
ATOM     19  O   UNL     1      51.586   9.235  75.793  1.00  0.00    -0.504 OA
ATOM     20  H   UNL     1      50.756   9.757  76.048  1.00  0.00     0.293 HD
ENDBRANCH  16  19
BRANCH  18  21
ATOM     21  O   UNL     1      53.861   7.738  75.037  1.00  0.00    -0.504 OA
ATOM     22  H   UNL     1      53.098   7.744  74.370  1.00  0.00     0.293 HD
ENDBRANCH  18  21
ENDBRANCH   3  13
BRANCH  10  23
ATOM     23  O   UNL     1      58.794   6.153  83.152  1.00  0.00    -0.507 OA
ATOM     24  H   UNL     1      58.335   5.273  82.948  1.00  0.00     0.293 HD
ENDBRANCH  10  23
BRANCH  11  25
ATOM     25  O   UNL     1      61.009  10.003  81.271  1.00  0.00    -0.508 OA
ATOM     26  H   UNL     1      61.073  10.767  80.607  1.00  0.00     0.293 HD
ENDBRANCH  11  25
ENDBRANCH   1   2
BRANCH   1  27
ATOM     27  C   UNL     1      53.813   5.291  79.396  1.00  0.00     0.339 C 
ATOM     28  C   UNL     1      54.661   3.994  79.379  1.00  0.00     0.214 C 
ATOM     29  O   UNL     1      52.454   4.964  79.609  1.00  0.00    -0.332 OA
ATOM     30  C   UNL     1      53.866   2.802  78.784  1.00  0.00     0.180 C 
ATOM     31  C   UNL     1      51.882   4.368  78.449  1.00  0.00     0.179 C 
ATOM     32  C   UNL     1      52.825   3.307  77.775  1.00  0.00     0.177 C 
BRANCH  28  33
ATOM     33  O   UNL     1      55.134   3.668  80.664  1.00  0.00    -0.384 OA
ATOM     34  H   UNL     1      56.127   3.668  80.625  1.00  0.00     0.211 HD
ENDBRANCH  28  33
BRANCH  30  35
ATOM     35  O   UNL     1      54.740   1.907  78.147  1.00  0.00    -0.387 OA
ATOM     36  H   UNL     1      55.125   2.390  77.369  1.00  0.00     0.211 HD
ENDBRANCH  30  35
BRANCH  31  37
ATOM     37  C   UNL     1      50.506   3.798  78.841  1.00  0.00     0.191 C 
BRANCH  37  38
ATOM     38  O   UNL     1      50.642   2.656  79.644  1.00  0.00    -0.394 OA
ATOM     39  H   UNL     1      51.566   2.669  80.006  1.00  0.00     0.210 HD
ENDBRANCH  37  38
ENDBRANCH  31  37
BRANCH  32  40
ATOM     40  O   UNL     1      52.110   2.219  77.246  1.00  0.00    -0.387 OA
ATOM     41  H   UNL     1      52.779   1.608  76.841  1.00  0.00     0.211 HD
ENDBRANCH  32  40
ENDBRANCH   1  27
TORSDOF 12
ENDMDL
