MODEL 1
REMARK VINA RESULT:    -4.162      0.000      0.000
REMARK INTER + INTRA:          -5.399
REMARK INTER:                  -5.866
REMARK INTRA:                   0.466
REMARK UNBOUND:                 0.466
REMARK SMILES CC1=CCC(=C(C)C)C(=O)CC(C)=CCC1
REMARK SMILES IDX 12 1 14 2 13 3 15 4 16 5 2 6 1 7 3 8 11 10 9 11 10 12 5 13
REMARK SMILES IDX 6 14 7 15 8 16 4 17
REMARK H PARENT
REMARK Flexibility Score: 60.00
ROOT
ATOM      1  C   UNL     1       5.890 -13.333  28.259  1.00  0.00    -0.070 C 
ATOM      2  C   UNL     1       5.277 -14.414  28.801  1.00  0.00    -0.027 C 
ATOM      3  C   UNL     1       5.343 -11.973  28.617  1.00  0.00     0.039 C 
ENDROOT
BRANCH   2   4
ATOM      4  C   UNL     1       5.587 -15.860  28.500  1.00  0.00     0.032 C 
BRANCH   4   5
ATOM      5  C   UNL     1       5.013 -16.319  27.146  1.00  0.00     0.034 C 
BRANCH   5   6
ATOM      6  C   UNL     1       6.075 -16.926  26.250  1.00  0.00    -0.077 C 
ATOM      7  C   UNL     1       6.705 -18.231  26.669  1.00  0.00     0.039 C 
ATOM      8  C   UNL     1       6.472 -16.377  25.081  1.00  0.00    -0.023 CG0
ATOM      9  G   UNL     1       5.938 -15.100  24.478  1.00  0.00     0.000 G0
ENDBRANCH   5   6
ENDBRANCH   4   5
ENDBRANCH   2   4
BRANCH   1  10
ATOM     10  C   UNL     1       7.040 -13.422  27.271  1.00  0.00     0.111 C 
BRANCH  10  11
ATOM     11  C   UNL     1       6.604 -13.047  25.876  1.00  0.00     0.163 C 
ATOM     12  O   UNL     1       6.036 -11.934  25.710  1.00  0.00    -0.294 OA
BRANCH  11  13
ATOM     13  C   UNL     1       6.874 -13.931  24.699  1.00  0.00    -0.002 C 
ATOM     14  C   UNL     1       7.890 -13.668  23.821  1.00  0.00    -0.069 C 
ATOM     15  C   UNL     1       8.749 -12.430  23.951  1.00  0.00     0.039 C 
ATOM     16  C   UNL     1       8.180 -14.587  22.654  1.00  0.00     0.039 C 
BRANCH  13  17
ATOM     17  C   UNL     1       5.923 -15.093  24.475  1.00  0.00     0.066 CG0
ATOM     18  G   UNL     1       6.488 -16.345  25.101  1.00  0.00     0.000 G0
ENDBRANCH  13  17
ENDBRANCH  11  13
ENDBRANCH  10  11
ENDBRANCH   1  10
TORSDOF 0
ENDMDL
MODEL 2
REMARK VINA RESULT:    -4.019      9.309     10.948
REMARK INTER + INTRA:          -5.197
REMARK INTER:                  -5.570
REMARK INTRA:                   0.373
REMARK UNBOUND:                 0.466
REMARK SMILES CC1=CCC(=C(C)C)C(=O)CC(C)=CCC1
REMARK SMILES IDX 12 1 14 2 13 3 15 4 16 5 2 6 1 7 3 8 11 10 9 11 10 12 5 13
REMARK SMILES IDX 6 14 7 15 8 16 4 17
REMARK H PARENT
REMARK Flexibility Score: 60.00
ROOT
ATOM      1  C   UNL     1       6.047 -24.386  24.582  1.00  0.00    -0.070 C 
ATOM      2  C   UNL     1       5.536 -24.699  23.367  1.00  0.00    -0.027 C 
ATOM      3  C   UNL     1       7.381 -23.680  24.614  1.00  0.00     0.039 C 
ENDROOT
BRANCH   2   4
ATOM      4  C   UNL     1       4.279 -25.492  23.104  1.00  0.00     0.032 C 
BRANCH   4   5
ATOM      5  C   UNL     1       3.008 -24.622  23.157  1.00  0.00     0.034 C 
BRANCH   5   6
ATOM      6  C   UNL     1       1.992 -25.153  24.148  1.00  0.00    -0.077 C 
ATOM      7  C   UNL     1       1.301 -26.457  23.837  1.00  0.00     0.039 C 
ATOM      8  C   UNL     1       1.686 -24.537  25.312  1.00  0.00    -0.023 CG0
ATOM      9  G   UNL     1       2.292 -23.250  25.815  1.00  0.00     0.000 G0
ENDBRANCH   5   6
ENDBRANCH   4   5
ENDBRANCH   2   4
BRANCH   1  10
ATOM     10  C   UNL     1       5.389 -24.763  25.898  1.00  0.00     0.111 C 
BRANCH  10  11
ATOM     11  C   UNL     1       4.748 -23.569  26.561  1.00  0.00     0.163 C 
ATOM     12  O   UNL     1       5.457 -22.545  26.752  1.00  0.00    -0.294 OA
BRANCH  11  13
ATOM     13  C   UNL     1       3.300 -23.556  26.939  1.00  0.00    -0.002 C 
ATOM     14  C   UNL     1       2.885 -23.871  28.204  1.00  0.00    -0.069 C 
ATOM     15  C   UNL     1       3.860 -24.320  29.269  1.00  0.00     0.039 C 
ATOM     16  C   UNL     1       1.422 -23.819  28.589  1.00  0.00     0.039 C 
BRANCH  13  17
ATOM     17  C   UNL     1       2.301 -23.251  25.837  1.00  0.00     0.066 CG0
ATOM     18  G   UNL     1       1.697 -24.536  25.324  1.00  0.00     0.000 G0
ENDBRANCH  13  17
ENDBRANCH  11  13
ENDBRANCH  10  11
ENDBRANCH   1  10
TORSDOF 0
ENDMDL
MODEL 3
REMARK VINA RESULT:    -3.941      1.394      4.153
REMARK INTER + INTRA:          -5.088
REMARK INTER:                  -5.410
REMARK INTRA:                   0.322
REMARK UNBOUND:                 0.466
REMARK SMILES CC1=CCC(=C(C)C)C(=O)CC(C)=CCC1
REMARK SMILES IDX 12 1 14 2 13 3 15 4 16 5 2 6 1 7 3 8 11 10 9 11 10 12 5 13
REMARK SMILES IDX 6 14 7 15 8 16 4 17
REMARK H PARENT
REMARK Flexibility Score: 60.00
ROOT
ATOM      1  C   UNL     1       8.657 -12.537  23.886  1.00  0.00    -0.070 C 
ATOM      2  C   UNL     1       9.097 -13.212  22.796  1.00  0.00    -0.027 C 
ATOM      3  C   UNL     1       8.465 -11.046  23.749  1.00  0.00     0.039 C 
ENDROOT
BRANCH   2   4
ATOM      4  C   UNL     1       9.456 -14.677  22.738  1.00  0.00     0.032 C 
BRANCH   4   5
ATOM      5  C   UNL     1       8.226 -15.579  22.520  1.00  0.00     0.034 C 
BRANCH   5   6
ATOM      6  C   UNL     1       8.108 -16.652  23.585  1.00  0.00    -0.077 C 
ATOM      7  C   UNL     1       9.139 -17.752  23.612  1.00  0.00     0.039 C 
ATOM      8  C   UNL     1       7.143 -16.665  24.532  1.00  0.00    -0.023 CG0
ATOM      9  G   UNL     1       6.049 -15.638  24.692  1.00  0.00     0.000 G0
ENDBRANCH   5   6
ENDBRANCH   4   5
ENDBRANCH   2   4
BRANCH   1  10
ATOM     10  C   UNL     1       8.413 -13.184  25.239  1.00  0.00     0.111 C 
BRANCH  10  11
ATOM     11  C   UNL     1       6.940 -13.362  25.512  1.00  0.00     0.163 C 
ATOM     12  O   UNL     1       6.189 -12.358  25.394  1.00  0.00    -0.294 OA
BRANCH  11  13
ATOM     13  C   UNL     1       6.356 -14.695  25.861  1.00  0.00    -0.002 C 
ATOM     14  C   UNL     1       6.174 -15.082  27.160  1.00  0.00    -0.069 C 
ATOM     15  C   UNL     1       6.621 -14.214  28.316  1.00  0.00     0.039 C 
ATOM     16  C   UNL     1       5.548 -16.416  27.504  1.00  0.00     0.039 C 
BRANCH  13  17
ATOM     17  C   UNL     1       6.042 -15.635  24.710  1.00  0.00     0.066 CG0
ATOM     18  G   UNL     1       7.159 -16.637  24.548  1.00  0.00     0.000 G0
ENDBRANCH  13  17
ENDBRANCH  11  13
ENDBRANCH  10  11
ENDBRANCH   1  10
TORSDOF 0
ENDMDL
MODEL 4
REMARK VINA RESULT:    -3.888      8.722     10.405
REMARK INTER + INTRA:          -5.013
REMARK INTER:                  -5.397
REMARK INTRA:                   0.384
REMARK UNBOUND:                 0.466
REMARK SMILES CC1=CCC(=C(C)C)C(=O)CC(C)=CCC1
REMARK SMILES IDX 12 1 14 2 13 3 15 4 16 5 2 6 1 7 3 8 11 10 9 11 10 12 5 13
REMARK SMILES IDX 6 14 7 15 8 16 4 17
REMARK H PARENT
REMARK Flexibility Score: 60.00
ROOT
ATOM      1  C   UNL     1      13.239 -19.273  20.138  1.00  0.00    -0.070 C 
ATOM      2  C   UNL     1      14.300 -18.668  19.551  1.00  0.00    -0.027 C 
ATOM      3  C   UNL     1      13.463 -19.914  21.486  1.00  0.00     0.039 C 
ENDROOT
BRANCH   2   4
ATOM      4  C   UNL     1      14.329 -18.061  18.169  1.00  0.00     0.032 C 
BRANCH   4   5
ATOM      5  C   UNL     1      13.550 -16.734  18.089  1.00  0.00     0.034 C 
BRANCH   5   6
ATOM      6  C   UNL     1      12.581 -16.709  16.924  1.00  0.00    -0.077 C 
ATOM      7  C   UNL     1      13.122 -16.950  15.537  1.00  0.00     0.039 C 
ATOM      8  C   UNL     1      11.251 -16.509  17.059  1.00  0.00    -0.023 CG0
ATOM      9  G   UNL     1      10.519 -16.287  18.360  1.00  0.00     0.000 G0
ENDBRANCH   5   6
ENDBRANCH   4   5
ENDBRANCH   2   4
BRANCH   1  10
ATOM     10  C   UNL     1      11.871 -19.396  19.489  1.00  0.00     0.111 C 
BRANCH  10  11
ATOM     11  C   UNL     1      10.949 -18.282  19.922  1.00  0.00     0.163 C 
ATOM     12  O   UNL     1      10.997 -17.906  21.124  1.00  0.00    -0.294 OA
BRANCH  11  13
ATOM     13  C   UNL     1      10.035 -17.593  18.958  1.00  0.00    -0.002 C 
ATOM     14  C   UNL     1       8.846 -18.148  18.573  1.00  0.00    -0.069 C 
ATOM     15  C   UNL     1       8.424 -19.522  19.042  1.00  0.00     0.039 C 
ATOM     16  C   UNL     1       7.910 -17.427  17.627  1.00  0.00     0.039 C 
BRANCH  13  17
ATOM     17  C   UNL     1      10.519 -16.281  18.366  1.00  0.00     0.066 CG0
ATOM     18  G   UNL     1      11.246 -16.542  17.069  1.00  0.00     0.000 G0
ENDBRANCH  13  17
ENDBRANCH  11  13
ENDBRANCH  10  11
ENDBRANCH   1  10
TORSDOF 0
ENDMDL
MODEL 5
REMARK VINA RESULT:    -3.835      7.526      8.768
REMARK INTER + INTRA:          -4.938
REMARK INTER:                  -5.293
REMARK INTRA:                   0.354
REMARK UNBOUND:                 0.466
REMARK SMILES CC1=CCC(=C(C)C)C(=O)CC(C)=CCC1
REMARK SMILES IDX 12 1 14 2 13 3 15 4 16 5 2 6 1 7 3 8 11 10 9 11 10 12 5 13
REMARK SMILES IDX 6 14 7 15 8 16 4 17
REMARK H PARENT
REMARK Flexibility Score: 60.00
ROOT
ATOM      1  C   UNL     1       9.890 -19.391  22.124  1.00  0.00    -0.070 C 
ATOM      2  C   UNL     1      11.106 -18.902  22.466  1.00  0.00    -0.027 C 
ATOM      3  C   UNL     1       9.559 -20.797  22.561  1.00  0.00     0.039 C 
ENDROOT
BRANCH   2   4
ATOM      4  C   UNL     1      11.683 -17.571  22.048  1.00  0.00     0.032 C 
BRANCH   4   5
ATOM      5  C   UNL     1      12.342 -17.623  20.656  1.00  0.00     0.034 C 
BRANCH   5   6
ATOM      6  C   UNL     1      11.884 -16.487  19.763  1.00  0.00    -0.077 C 
ATOM      7  C   UNL     1      12.377 -15.094  20.067  1.00  0.00     0.039 C 
ATOM      8  C   UNL     1      11.078 -16.653  18.691  1.00  0.00    -0.023 CG0
ATOM      9  G   UNL     1      10.514 -17.967  18.207  1.00  0.00     0.000 G0
ENDBRANCH   5   6
ENDBRANCH   4   5
ENDBRANCH   2   4
BRANCH   1  10
ATOM     10  C   UNL     1       8.881 -18.632  21.278  1.00  0.00     0.111 C 
BRANCH  10  11
ATOM     11  C   UNL     1       8.897 -19.099  19.844  1.00  0.00     0.163 C 
ATOM     12  O   UNL     1       8.701 -20.323  19.616  1.00  0.00    -0.294 OA
BRANCH  11  13
ATOM     13  C   UNL     1       9.085 -18.148  18.704  1.00  0.00    -0.002 C 
ATOM     14  C   UNL     1       8.024 -17.526  18.104  1.00  0.00    -0.069 C 
ATOM     15  C   UNL     1       6.598 -17.823  18.512  1.00  0.00     0.039 C 
ATOM     16  C   UNL     1       8.226 -16.537  16.977  1.00  0.00     0.039 C 
BRANCH  13  17
ATOM     17  C   UNL     1      10.501 -17.957  18.189  1.00  0.00     0.066 CG0
ATOM     18  G   UNL     1      11.060 -16.651  18.699  1.00  0.00     0.000 G0
ENDBRANCH  13  17
ENDBRANCH  11  13
ENDBRANCH  10  11
ENDBRANCH   1  10
TORSDOF 0
ENDMDL
MODEL 6
REMARK VINA RESULT:    -3.821      9.685     11.426
REMARK INTER + INTRA:          -4.919
REMARK INTER:                  -5.489
REMARK INTRA:                   0.570
REMARK UNBOUND:                 0.466
REMARK SMILES CC1=CCC(=C(C)C)C(=O)CC(C)=CCC1
REMARK SMILES IDX 12 1 14 2 13 3 15 4 16 5 2 6 1 7 3 8 11 10 9 11 10 12 5 13
REMARK SMILES IDX 6 14 7 15 8 16 4 17
REMARK H PARENT
REMARK Flexibility Score: 60.00
ROOT
ATOM      1  C   UNL     1       3.377 -25.209  23.275  1.00  0.00    -0.070 C 
ATOM      2  C   UNL     1       2.410 -24.757  22.439  1.00  0.00    -0.027 C 
ATOM      3  C   UNL     1       4.756 -25.413  22.696  1.00  0.00     0.039 C 
ENDROOT
BRANCH   2   4
ATOM      4  C   UNL     1       0.949 -24.583  22.775  1.00  0.00     0.032 C 
BRANCH   4   5
ATOM      5  C   UNL     1       0.671 -23.286  23.558  1.00  0.00     0.034 C 
BRANCH   5   6
ATOM      6  C   UNL     1       0.087 -23.559  24.930  1.00  0.00    -0.077 C 
ATOM      7  C   UNL     1      -1.299 -24.147  25.014  1.00  0.00     0.039 C 
ATOM      8  C   UNL     1       0.750 -23.330  26.086  1.00  0.00    -0.023 CG0
ATOM      9  G   UNL     1       2.151 -22.781  26.207  1.00  0.00     0.000 G0
ENDBRANCH   5   6
ENDBRANCH   4   5
ENDBRANCH   2   4
BRANCH   1  10
ATOM     10  C   UNL     1       3.132 -25.580  24.727  1.00  0.00     0.111 C 
BRANCH  10  11
ATOM     11  C   UNL     1       3.839 -24.637  25.668  1.00  0.00     0.163 C 
ATOM     12  O   UNL     1       5.083 -24.483  25.531  1.00  0.00    -0.294 OA
BRANCH  11  13
ATOM     13  C   UNL     1       3.100 -23.853  26.707  1.00  0.00    -0.002 C 
ATOM     14  C   UNL     1       3.215 -24.139  28.040  1.00  0.00    -0.069 C 
ATOM     15  C   UNL     1       4.038 -25.309  28.531  1.00  0.00     0.039 C 
ATOM     16  C   UNL     1       2.494 -23.318  29.087  1.00  0.00     0.039 C 
BRANCH  13  17
ATOM     17  C   UNL     1       2.155 -22.772  26.214  1.00  0.00     0.066 CG0
ATOM     18  G   UNL     1       0.760 -23.332  26.082  1.00  0.00     0.000 G0
ENDBRANCH  13  17
ENDBRANCH  11  13
ENDBRANCH  10  11
ENDBRANCH   1  10
TORSDOF 0
ENDMDL
MODEL 7
REMARK VINA RESULT:    -3.814      2.126      3.851
REMARK INTER + INTRA:          -4.908
REMARK INTER:                  -5.443
REMARK INTRA:                   0.535
REMARK UNBOUND:                 0.466
REMARK SMILES CC1=CCC(=C(C)C)C(=O)CC(C)=CCC1
REMARK SMILES IDX 12 1 14 2 13 3 15 4 16 5 2 6 1 7 3 8 11 10 9 11 10 12 5 13
REMARK SMILES IDX 6 14 7 15 8 16 4 17
REMARK H PARENT
REMARK Flexibility Score: 60.00
ROOT
ATOM      1  C   UNL     1       8.313 -12.128  23.888  1.00  0.00    -0.070 C 
ATOM      2  C   UNL     1       7.145 -11.942  24.548  1.00  0.00    -0.027 C 
ATOM      3  C   UNL     1       8.814 -10.993  23.028  1.00  0.00     0.039 C 
ENDROOT
BRANCH   2   4
ATOM      4  C   UNL     1       6.411 -12.972  25.372  1.00  0.00     0.032 C 
BRANCH   4   5
ATOM      5  C   UNL     1       5.821 -14.107  24.513  1.00  0.00     0.034 C 
BRANCH   5   6
ATOM      6  C   UNL     1       6.104 -15.475  25.100  1.00  0.00    -0.077 C 
ATOM      7  C   UNL     1       5.666 -15.752  26.516  1.00  0.00     0.039 C 
ATOM      8  C   UNL     1       6.706 -16.474  24.416  1.00  0.00    -0.023 CG0
ATOM      9  G   UNL     1       7.182 -16.403  22.986  1.00  0.00     0.000 G0
ENDBRANCH   5   6
ENDBRANCH   4   5
ENDBRANCH   2   4
BRANCH   1  10
ATOM     10  C   UNL     1       9.102 -13.426  23.916  1.00  0.00     0.111 C 
BRANCH  10  11
ATOM     11  C   UNL     1       8.712 -14.336  22.777  1.00  0.00     0.163 C 
ATOM     12  O   UNL     1       8.521 -13.820  21.644  1.00  0.00    -0.294 OA
BRANCH  11  13
ATOM     13  C   UNL     1       8.603 -15.818  22.951  1.00  0.00    -0.002 C 
ATOM     14  C   UNL     1       9.709 -16.621  23.001  1.00  0.00    -0.069 C 
ATOM     15  C   UNL     1      11.102 -16.062  22.809  1.00  0.00     0.039 C 
ATOM     16  C   UNL     1       9.591 -18.114  23.215  1.00  0.00     0.039 C 
BRANCH  13  17
ATOM     17  C   UNL     1       7.203 -16.407  22.995  1.00  0.00     0.066 CG0
ATOM     18  G   UNL     1       6.721 -16.475  24.423  1.00  0.00     0.000 G0
ENDBRANCH  13  17
ENDBRANCH  11  13
ENDBRANCH  10  11
ENDBRANCH   1  10
TORSDOF 0
ENDMDL
MODEL 8
REMARK VINA RESULT:    -3.751      2.108      4.277
REMARK INTER + INTRA:          -4.819
REMARK INTER:                  -5.316
REMARK INTRA:                   0.496
REMARK UNBOUND:                 0.466
REMARK SMILES CC1=CCC(=C(C)C)C(=O)CC(C)=CCC1
REMARK SMILES IDX 12 1 14 2 13 3 15 4 16 5 2 6 1 7 3 8 11 10 9 11 10 12 5 13
REMARK SMILES IDX 6 14 7 15 8 16 4 17
REMARK H PARENT
REMARK Flexibility Score: 60.00
ROOT
ATOM      1  C   UNL     1       8.059 -16.257  23.136  1.00  0.00    -0.070 C 
ATOM      2  C   UNL     1       7.113 -16.853  23.901  1.00  0.00    -0.027 C 
ATOM      3  C   UNL     1       8.399 -16.909  21.818  1.00  0.00     0.039 C 
ENDROOT
BRANCH   2   4
ATOM      4  C   UNL     1       6.695 -16.436  25.291  1.00  0.00     0.032 C 
BRANCH   4   5
ATOM      5  C   UNL     1       5.664 -15.291  25.281  1.00  0.00     0.034 C 
BRANCH   5   6
ATOM      6  C   UNL     1       6.164 -14.064  26.017  1.00  0.00    -0.077 C 
ATOM      7  C   UNL     1       6.322 -14.143  27.515  1.00  0.00     0.039 C 
ATOM      8  C   UNL     1       6.502 -12.908  25.404  1.00  0.00    -0.023 CG0
ATOM      9  G   UNL     1       6.447 -12.647  23.918  1.00  0.00     0.000 G0
ENDBRANCH   5   6
ENDBRANCH   4   5
ENDBRANCH   2   4
BRANCH   1  10
ATOM     10  C   UNL     1       8.833 -15.020  23.560  1.00  0.00     0.111 C 
BRANCH  10  11
ATOM     11  C   UNL     1       8.443 -13.814  22.742  1.00  0.00     0.163 C 
ATOM     12  O   UNL     1       8.554 -13.886  21.489  1.00  0.00    -0.294 OA
BRANCH  11  13
ATOM     13  C   UNL     1       7.887 -12.576  23.374  1.00  0.00    -0.002 C 
ATOM     14  C   UNL     1       8.642 -11.446  23.525  1.00  0.00    -0.069 C 
ATOM     15  C   UNL     1      10.101 -11.408  23.130  1.00  0.00     0.039 C 
ATOM     16  C   UNL     1       8.061 -10.186  24.130  1.00  0.00     0.039 C 
BRANCH  13  17
ATOM     17  C   UNL     1       6.468 -12.652  23.910  1.00  0.00     0.066 CG0
ATOM     18  G   UNL     1       6.496 -12.912  25.396  1.00  0.00     0.000 G0
ENDBRANCH  13  17
ENDBRANCH  11  13
ENDBRANCH  10  11
ENDBRANCH   1  10
TORSDOF 0
ENDMDL
MODEL 9
REMARK VINA RESULT:    -3.728      9.341     11.543
REMARK INTER + INTRA:          -4.787
REMARK INTER:                  -5.208
REMARK INTRA:                   0.422
REMARK UNBOUND:                 0.466
REMARK SMILES CC1=CCC(=C(C)C)C(=O)CC(C)=CCC1
REMARK SMILES IDX 12 1 14 2 13 3 15 4 16 5 2 6 1 7 3 8 11 10 9 11 10 12 5 13
REMARK SMILES IDX 6 14 7 15 8 16 4 17
REMARK H PARENT
REMARK Flexibility Score: 60.00
ROOT
ATOM      1  C   UNL     1       0.245 -23.676  23.619  1.00  0.00    -0.070 C 
ATOM      2  C   UNL     1      -0.846 -24.465  23.763  1.00  0.00    -0.027 C 
ATOM      3  C   UNL     1       0.138 -22.508  22.669  1.00  0.00     0.039 C 
ENDROOT
BRANCH   2   4
ATOM      4  C   UNL     1      -0.928 -25.737  24.572  1.00  0.00     0.032 C 
BRANCH   4   5
ATOM      5  C   UNL     1      -1.136 -25.470  26.076  1.00  0.00     0.034 C 
BRANCH   5   6
ATOM      6  C   UNL     1      -0.042 -26.088  26.923  1.00  0.00    -0.077 C 
ATOM      7  C   UNL     1       0.056 -27.592  26.983  1.00  0.00     0.039 C 
ATOM      8  C   UNL     1       0.872 -25.366  27.611  1.00  0.00    -0.023 CG0
ATOM      9  G   UNL     1       0.961 -23.860  27.648  1.00  0.00     0.000 G0
ENDBRANCH   5   6
ENDBRANCH   4   5
ENDBRANCH   2   4
BRANCH   1  10
ATOM     10  C   UNL     1       1.576 -23.940  24.304  1.00  0.00     0.111 C 
BRANCH  10  11
ATOM     11  C   UNL     1       1.836 -22.949  25.411  1.00  0.00     0.163 C 
ATOM     12  O   UNL     1       1.748 -21.721  25.141  1.00  0.00    -0.294 OA
BRANCH  11  13
ATOM     13  C   UNL     1       2.140 -23.387  26.810  1.00  0.00    -0.002 C 
ATOM     14  C   UNL     1       3.421 -23.437  27.285  1.00  0.00    -0.069 C 
ATOM     15  C   UNL     1       4.607 -23.124  26.401  1.00  0.00     0.039 C 
ATOM     16  C   UNL     1       3.716 -23.845  28.712  1.00  0.00     0.039 C 
BRANCH  13  17
ATOM     17  C   UNL     1       0.968 -23.846  27.659  1.00  0.00     0.066 CG0
ATOM     18  G   UNL     1       0.864 -25.351  27.617  1.00  0.00     0.000 G0
ENDBRANCH  13  17
ENDBRANCH  11  13
ENDBRANCH  10  11
ENDBRANCH   1  10
TORSDOF 0
ENDMDL
