MODEL 1
REMARK VINA RESULT:    -3.642      0.000      0.000
REMARK INTER + INTRA:          -4.302
REMARK INTER:                  -4.280
REMARK INTRA:                  -0.022
REMARK UNBOUND:                -0.022
REMARK SMILES CCCCC(=O)[O-]
REMARK SMILES IDX 4 1 5 2 6 3 7 4 3 5 2 6 1 7
REMARK H PARENT
REMARK Flexibility Score: inf
ROOT
ATOM      1  C   UNL     1     -12.219   1.540  -9.617  1.00  0.00     0.053 C 
ENDROOT
BRANCH   1   2
ATOM      2  C   UNL     1     -11.779   2.860  -9.068  1.00  0.00     0.041 C 
ATOM      3  O   UNL     1     -12.602   3.808  -8.962  1.00  0.00    -0.550 OA
ATOM      4  O   UNL     1     -10.450   3.061  -8.719  1.00  0.00    -0.550 OA
ENDBRANCH   1   2
BRANCH   1   5
ATOM      5  C   UNL     1     -13.751   1.457  -9.648  1.00  0.00     0.006 C 
BRANCH   5   6
ATOM      6  C   UNL     1     -14.263   0.008  -9.646  1.00  0.00    -0.003 C 
ATOM      7  C   UNL     1     -15.551  -0.163  -8.842  1.00  0.00     0.004 C 
ENDBRANCH   5   6
ENDBRANCH   1   5
TORSDOF 3
ENDMDL
MODEL 2
REMARK VINA RESULT:    -3.557      2.583      3.004
REMARK INTER + INTRA:          -4.203
REMARK INTER:                  -4.145
REMARK INTRA:                  -0.058
REMARK UNBOUND:                -0.022
REMARK SMILES CCCCC(=O)[O-]
REMARK SMILES IDX 4 1 5 2 6 3 7 4 3 5 2 6 1 7
REMARK H PARENT
REMARK Flexibility Score: inf
ROOT
ATOM      1  C   UNL     1     -10.960   2.887  -8.799  1.00  0.00     0.053 C 
ENDROOT
BRANCH   1   2
ATOM      2  C   UNL     1     -12.384   3.312  -8.975  1.00  0.00     0.041 C 
ATOM      3  O   UNL     1     -12.834   3.558 -10.125  1.00  0.00    -0.550 OA
ATOM      4  O   UNL     1     -13.202   3.481  -7.865  1.00  0.00    -0.550 OA
ENDBRANCH   1   2
BRANCH   1   5
ATOM      5  C   UNL     1     -10.578   1.844  -9.857  1.00  0.00     0.006 C 
BRANCH   5   6
ATOM      6  C   UNL     1     -11.243   0.481  -9.607  1.00  0.00    -0.003 C 
ATOM      7  C   UNL     1     -10.279  -0.691  -9.793  1.00  0.00     0.004 C 
ENDBRANCH   5   6
ENDBRANCH   1   5
TORSDOF 3
ENDMDL
MODEL 3
REMARK VINA RESULT:    -3.469      3.117      3.586
REMARK INTER + INTRA:          -4.099
REMARK INTER:                  -4.073
REMARK INTRA:                  -0.026
REMARK UNBOUND:                -0.022
REMARK SMILES CCCCC(=O)[O-]
REMARK SMILES IDX 4 1 5 2 6 3 7 4 3 5 2 6 1 7
REMARK H PARENT
REMARK Flexibility Score: inf
ROOT
ATOM      1  C   UNL     1     -10.868   1.266  -9.666  1.00  0.00     0.053 C 
ENDROOT
BRANCH   1   2
ATOM      2  C   UNL     1     -11.118  -0.206  -9.766  1.00  0.00     0.041 C 
ATOM      3  O   UNL     1     -12.289  -0.640  -9.923  1.00  0.00    -0.550 OA
ATOM      4  O   UNL     1     -10.064  -1.101  -9.637  1.00  0.00    -0.550 OA
ENDBRANCH   1   2
BRANCH   1   5
ATOM      5  C   UNL     1     -12.190   2.040  -9.760  1.00  0.00     0.006 C 
BRANCH   5   6
ATOM      6  C   UNL     1     -12.146   3.375  -9.000  1.00  0.00    -0.003 C 
ATOM      7  C   UNL     1     -13.477   3.719  -8.331  1.00  0.00     0.004 C 
ENDBRANCH   5   6
ENDBRANCH   1   5
TORSDOF 3
ENDMDL
MODEL 4
REMARK VINA RESULT:    -3.361     15.855     16.453
REMARK INTER + INTRA:          -3.972
REMARK INTER:                  -3.931
REMARK INTRA:                  -0.041
REMARK UNBOUND:                -0.022
REMARK SMILES CCCCC(=O)[O-]
REMARK SMILES IDX 4 1 5 2 6 3 7 4 3 5 2 6 1 7
REMARK H PARENT
REMARK Flexibility Score: inf
ROOT
ATOM      1  C   UNL     1     -10.481   4.796   6.787  1.00  0.00     0.053 C 
ENDROOT
BRANCH   1   2
ATOM      2  C   UNL     1     -10.498   4.956   5.300  1.00  0.00     0.041 C 
ATOM      3  O   UNL     1      -9.796   5.845   4.750  1.00  0.00    -0.550 OA
ATOM      4  O   UNL     1     -11.325   4.154   4.523  1.00  0.00    -0.550 OA
ENDBRANCH   1   2
BRANCH   1   5
ATOM      5  C   UNL     1     -11.226   3.519   7.196  1.00  0.00     0.006 C 
BRANCH   5   6
ATOM      6  C   UNL     1     -11.802   3.602   8.619  1.00  0.00    -0.003 C 
ATOM      7  C   UNL     1     -11.297   4.821   9.391  1.00  0.00     0.004 C 
ENDBRANCH   5   6
ENDBRANCH   1   5
TORSDOF 3
ENDMDL
MODEL 5
REMARK VINA RESULT:    -3.351     15.177     15.665
REMARK INTER + INTRA:          -3.960
REMARK INTER:                  -3.862
REMARK INTRA:                  -0.098
REMARK UNBOUND:                -0.022
REMARK SMILES CCCCC(=O)[O-]
REMARK SMILES IDX 4 1 5 2 6 3 7 4 3 5 2 6 1 7
REMARK H PARENT
REMARK Flexibility Score: inf
ROOT
ATOM      1  C   UNL     1     -12.029   2.645   5.701  1.00  0.00     0.053 C 
ENDROOT
BRANCH   1   2
ATOM      2  C   UNL     1     -11.967   3.724   4.666  1.00  0.00     0.041 C 
ATOM      3  O   UNL     1     -12.863   3.809   3.785  1.00  0.00    -0.550 OA
ATOM      4  O   UNL     1     -10.895   4.607   4.645  1.00  0.00    -0.550 OA
ENDBRANCH   1   2
BRANCH   1   5
ATOM      5  C   UNL     1     -12.784   3.137   6.942  1.00  0.00     0.006 C 
BRANCH   5   6
ATOM      6  C   UNL     1     -11.897   3.168   8.197  1.00  0.00    -0.003 C 
ATOM      7  C   UNL     1     -11.090   4.460   8.320  1.00  0.00     0.004 C 
ENDBRANCH   5   6
ENDBRANCH   1   5
TORSDOF 3
ENDMDL
MODEL 6
REMARK VINA RESULT:    -3.341     15.832     16.399
REMARK INTER + INTRA:          -3.949
REMARK INTER:                  -3.900
REMARK INTRA:                  -0.049
REMARK UNBOUND:                -0.022
REMARK SMILES CCCCC(=O)[O-]
REMARK SMILES IDX 4 1 5 2 6 3 7 4 3 5 2 6 1 7
REMARK H PARENT
REMARK Flexibility Score: inf
ROOT
ATOM      1  C   UNL     1     -10.544   4.719   6.748  1.00  0.00     0.053 C 
ENDROOT
BRANCH   1   2
ATOM      2  C   UNL     1     -10.698   4.885   5.269  1.00  0.00     0.041 C 
ATOM      3  O   UNL     1     -11.724   4.447   4.686  1.00  0.00    -0.550 OA
ATOM      4  O   UNL     1      -9.686   5.481   4.526  1.00  0.00    -0.550 OA
ENDBRANCH   1   2
BRANCH   1   5
ATOM      5  C   UNL     1     -11.267   3.452   7.222  1.00  0.00     0.006 C 
BRANCH   5   6
ATOM      6  C   UNL     1     -11.828   3.591   8.646  1.00  0.00    -0.003 C 
ATOM      7  C   UNL     1     -11.365   4.871   9.342  1.00  0.00     0.004 C 
ENDBRANCH   5   6
ENDBRANCH   1   5
TORSDOF 3
ENDMDL
MODEL 7
REMARK VINA RESULT:    -3.308     15.513     16.082
REMARK INTER + INTRA:          -3.910
REMARK INTER:                  -3.873
REMARK INTRA:                  -0.037
REMARK UNBOUND:                -0.022
REMARK SMILES CCCCC(=O)[O-]
REMARK SMILES IDX 4 1 5 2 6 3 7 4 3 5 2 6 1 7
REMARK H PARENT
REMARK Flexibility Score: inf
ROOT
ATOM      1  C   UNL     1     -12.337   3.078   6.105  1.00  0.00     0.053 C 
ENDROOT
BRANCH   1   2
ATOM      2  C   UNL     1     -12.012   3.817   4.846  1.00  0.00     0.041 C 
ATOM      3  O   UNL     1     -10.964   4.511   4.770  1.00  0.00    -0.550 OA
ATOM      4  O   UNL     1     -12.892   3.780   3.771  1.00  0.00    -0.550 OA
ENDBRANCH   1   2
BRANCH   1   5
ATOM      5  C   UNL     1     -11.245   3.310   7.158  1.00  0.00     0.006 C 
BRANCH   5   6
ATOM      6  C   UNL     1     -11.823   3.624   8.547  1.00  0.00    -0.003 C 
ATOM      7  C   UNL     1     -11.160   4.835   9.204  1.00  0.00     0.004 C 
ENDBRANCH   5   6
ENDBRANCH   1   5
TORSDOF 3
ENDMDL
MODEL 8
REMARK VINA RESULT:    -3.285      2.705      4.114
REMARK INTER + INTRA:          -3.883
REMARK INTER:                  -3.850
REMARK INTRA:                  -0.033
REMARK UNBOUND:                -0.022
REMARK SMILES CCCCC(=O)[O-]
REMARK SMILES IDX 4 1 5 2 6 3 7 4 3 5 2 6 1 7
REMARK H PARENT
REMARK Flexibility Score: inf
ROOT
ATOM      1  C   UNL     1     -13.339   0.984  -9.746  1.00  0.00     0.053 C 
ENDROOT
BRANCH   1   2
ATOM      2  C   UNL     1     -14.564   0.258  -9.288  1.00  0.00     0.041 C 
ATOM      3  O   UNL     1     -14.798  -0.911  -9.695  1.00  0.00    -0.550 OA
ATOM      4  O   UNL     1     -15.474   0.888  -8.449  1.00  0.00    -0.550 OA
ENDBRANCH   1   2
BRANCH   1   5
ATOM      5  C   UNL     1     -13.420   2.466  -9.358  1.00  0.00     0.006 C 
BRANCH   5   6
ATOM      6  C   UNL     1     -12.108   3.219  -9.631  1.00  0.00    -0.003 C 
ATOM      7  C   UNL     1     -10.877   2.320  -9.522  1.00  0.00     0.004 C 
ENDBRANCH   5   6
ENDBRANCH   1   5
TORSDOF 3
ENDMDL
MODEL 9
REMARK VINA RESULT:    -3.144      8.290      8.904
REMARK INTER + INTRA:          -3.718
REMARK INTER:                  -3.649
REMARK INTRA:                  -0.069
REMARK UNBOUND:                -0.022
REMARK SMILES CCCCC(=O)[O-]
REMARK SMILES IDX 4 1 5 2 6 3 7 4 3 5 2 6 1 7
REMARK H PARENT
REMARK Flexibility Score: inf
ROOT
ATOM      1  C   UNL     1     -10.019  -5.239  -7.923  1.00  0.00     0.053 C 
ENDROOT
BRANCH   1   2
ATOM      2  C   UNL     1      -8.840  -5.778  -8.670  1.00  0.00     0.041 C 
ATOM      3  O   UNL     1      -7.904  -5.010  -9.016  1.00  0.00    -0.550 OA
ATOM      4  O   UNL     1      -8.796  -7.120  -9.026  1.00  0.00    -0.550 OA
ENDBRANCH   1   2
BRANCH   1   5
ATOM      5  C   UNL     1     -11.010  -6.366  -7.604  1.00  0.00     0.006 C 
BRANCH   5   6
ATOM      6  C   UNL     1     -11.374  -6.425  -6.112  1.00  0.00    -0.003 C 
ATOM      7  C   UNL     1     -10.205  -6.049  -5.202  1.00  0.00     0.004 C 
ENDBRANCH   5   6
ENDBRANCH   1   5
TORSDOF 3
ENDMDL
