MODEL 1
REMARK VINA RESULT:    -4.377      0.000      0.000
REMARK INTER + INTRA:          -5.075
REMARK INTER:                  -5.016
REMARK INTRA:                  -0.058
REMARK UNBOUND:                -0.058
REMARK SMILES CC(C)[C@H]([NH3+])C(=O)[O-]
REMARK SMILES IDX 4 1 5 2 6 6 7 7 8 8 2 9 1 10 3 11
REMARK H PARENT 5 3 5 4 5 5
REMARK Flexibility Score: inf
ROOT
ATOM      1  C   UNL     1      20.820  12.601  37.482  1.00  0.00     0.230 C 
ENDROOT
BRANCH   1   2
ATOM      2  N   UNL     1      20.333  11.326  36.932  1.00  0.00    -0.350 N 
ATOM      3  H   UNL     1      21.057  10.582  37.050  1.00  0.00     0.345 HD
ATOM      4  H   UNL     1      20.094  11.427  35.918  1.00  0.00     0.345 HD
ATOM      5  H   UNL     1      19.481  11.012  37.454  1.00  0.00     0.345 HD
ENDBRANCH   1   2
BRANCH   1   6
ATOM      6  C   UNL     1      20.240  12.809  38.860  1.00  0.00     0.099 C 
ATOM      7  O   UNL     1      20.522  12.016  39.797  1.00  0.00    -0.544 OA
ATOM      8  O   UNL     1      19.382  13.874  39.098  1.00  0.00    -0.544 OA
ENDBRANCH   1   6
BRANCH   1   9
ATOM      9  C   UNL     1      20.480  13.804  36.549  1.00  0.00     0.047 C 
ATOM     10  C   UNL     1      21.672  14.771  36.430  1.00  0.00     0.014 C 
ATOM     11  C   UNL     1      20.067  13.339  35.142  1.00  0.00     0.014 C 
ENDBRANCH   1   9
TORSDOF 3
ENDMDL
MODEL 2
REMARK VINA RESULT:    -4.097     20.695     21.394
REMARK INTER + INTRA:          -4.754
REMARK INTER:                  -4.811
REMARK INTRA:                   0.057
REMARK UNBOUND:                -0.058
REMARK SMILES CC(C)[C@H]([NH3+])C(=O)[O-]
REMARK SMILES IDX 4 1 5 2 6 6 7 7 8 8 2 9 1 10 3 11
REMARK H PARENT 5 3 5 4 5 5
REMARK Flexibility Score: inf
ROOT
ATOM      1  C   UNL     1      37.354  26.366  33.736  1.00  0.00     0.230 C 
ENDROOT
BRANCH   1   2
ATOM      2  N   UNL     1      37.045  27.764  33.399  1.00  0.00    -0.350 N 
ATOM      3  H   UNL     1      37.242  28.384  34.216  1.00  0.00     0.345 HD
ATOM      4  H   UNL     1      36.043  27.865  33.115  1.00  0.00     0.345 HD
ATOM      5  H   UNL     1      37.656  28.088  32.612  1.00  0.00     0.345 HD
ENDBRANCH   1   2
BRANCH   1   6
ATOM      6  C   UNL     1      36.308  25.461  33.132  1.00  0.00     0.099 C 
ATOM      7  O   UNL     1      36.574  24.254  32.885  1.00  0.00    -0.544 OA
ATOM      8  O   UNL     1      35.046  25.959  32.836  1.00  0.00    -0.544 OA
ENDBRANCH   1   6
BRANCH   1   9
ATOM      9  C   UNL     1      37.452  26.148  35.277  1.00  0.00     0.047 C 
ATOM     10  C   UNL     1      38.124  27.349  35.967  1.00  0.00     0.014 C 
ATOM     11  C   UNL     1      36.070  25.912  35.912  1.00  0.00     0.014 C 
ENDBRANCH   1   9
TORSDOF 3
ENDMDL
MODEL 3
REMARK VINA RESULT:    -4.037      2.533      3.418
REMARK INTER + INTRA:          -4.686
REMARK INTER:                  -4.618
REMARK INTRA:                  -0.068
REMARK UNBOUND:                -0.058
REMARK SMILES CC(C)[C@H]([NH3+])C(=O)[O-]
REMARK SMILES IDX 4 1 5 2 6 6 7 7 8 8 2 9 1 10 3 11
REMARK H PARENT 5 3 5 4 5 5
REMARK Flexibility Score: inf
ROOT
ATOM      1  C   UNL     1      20.596  13.642  37.913  1.00  0.00     0.230 C 
ENDROOT
BRANCH   1   2
ATOM      2  N   UNL     1      19.209  13.884  38.342  1.00  0.00    -0.350 N 
ATOM      3  H   UNL     1      18.881  13.105  38.956  1.00  0.00     0.345 HD
ATOM      4  H   UNL     1      18.576  13.969  37.514  1.00  0.00     0.345 HD
ATOM      5  H   UNL     1      19.155  14.764  38.905  1.00  0.00     0.345 HD
ENDBRANCH   1   2
BRANCH   1   6
ATOM      6  C   UNL     1      20.772  14.113  36.490  1.00  0.00     0.099 C 
ATOM      7  O   UNL     1      21.576  15.044  36.220  1.00  0.00    -0.544 OA
ATOM      8  O   UNL     1      20.038  13.523  35.469  1.00  0.00    -0.544 OA
ENDBRANCH   1   6
BRANCH   1   9
ATOM      9  C   UNL     1      20.995  12.141  38.055  1.00  0.00     0.047 C 
ATOM     10  C   UNL     1      22.422  11.893  37.534  1.00  0.00     0.014 C 
ATOM     11  C   UNL     1      20.901  11.658  39.513  1.00  0.00     0.014 C 
ENDBRANCH   1   9
TORSDOF 3
ENDMDL
MODEL 4
REMARK VINA RESULT:    -3.913      1.616      2.209
REMARK INTER + INTRA:          -4.543
REMARK INTER:                  -4.494
REMARK INTRA:                  -0.049
REMARK UNBOUND:                -0.058
REMARK SMILES CC(C)[C@H]([NH3+])C(=O)[O-]
REMARK SMILES IDX 4 1 5 2 6 6 7 7 8 8 2 9 1 10 3 11
REMARK H PARENT 5 3 5 4 5 5
REMARK Flexibility Score: inf
ROOT
ATOM      1  C   UNL     1      20.123  13.221  37.722  1.00  0.00     0.230 C 
ENDROOT
BRANCH   1   2
ATOM      2  N   UNL     1      20.167  14.329  38.690  1.00  0.00    -0.350 N 
ATOM      3  H   UNL     1      20.076  15.244  38.194  1.00  0.00     0.345 HD
ATOM      4  H   UNL     1      21.061  14.311  39.233  1.00  0.00     0.345 HD
ATOM      5  H   UNL     1      19.362  14.257  39.355  1.00  0.00     0.345 HD
ENDBRANCH   1   2
BRANCH   1   6
ATOM      6  C   UNL     1      20.611  11.956  38.385  1.00  0.00     0.099 C 
ATOM      7  O   UNL     1      20.824  10.919  37.702  1.00  0.00    -0.544 OA
ATOM      8  O   UNL     1      20.819  11.926  39.757  1.00  0.00    -0.544 OA
ENDBRANCH   1   6
BRANCH   1   9
ATOM      9  C   UNL     1      20.958  13.534  36.442  1.00  0.00     0.047 C 
ATOM     10  C   UNL     1      20.098  13.403  35.172  1.00  0.00     0.014 C 
ATOM     11  C   UNL     1      21.573  14.943  36.490  1.00  0.00     0.014 C 
ENDBRANCH   1   9
TORSDOF 3
ENDMDL
MODEL 5
REMARK VINA RESULT:    -3.885      2.511      3.354
REMARK INTER + INTRA:          -4.511
REMARK INTER:                  -4.651
REMARK INTRA:                   0.140
REMARK UNBOUND:                -0.058
REMARK SMILES CC(C)[C@H]([NH3+])C(=O)[O-]
REMARK SMILES IDX 4 1 5 2 6 6 7 7 8 8 2 9 1 10 3 11
REMARK H PARENT 5 3 5 4 5 5
REMARK Flexibility Score: inf
ROOT
ATOM      1  C   UNL     1      21.294  12.356  36.840  1.00  0.00     0.230 C 
ENDROOT
BRANCH   1   2
ATOM      2  N   UNL     1      22.732  12.329  37.154  1.00  0.00    -0.350 N 
ATOM      3  H   UNL     1      22.905  11.742  38.000  1.00  0.00     0.345 HD
ATOM      4  H   UNL     1      23.093  13.297  37.318  1.00  0.00     0.345 HD
ATOM      5  H   UNL     1      23.264  11.896  36.363  1.00  0.00     0.345 HD
ENDBRANCH   1   2
BRANCH   1   6
ATOM      6  C   UNL     1      20.992  13.553  35.972  1.00  0.00     0.099 C 
ATOM      7  O   UNL     1      21.730  14.574  36.013  1.00  0.00    -0.544 OA
ATOM      8  O   UNL     1      19.890  13.538  35.127  1.00  0.00    -0.544 OA
ENDBRANCH   1   6
BRANCH   1   9
ATOM      9  C   UNL     1      20.418  12.371  38.130  1.00  0.00     0.047 C 
ATOM     10  C   UNL     1      21.136  11.671  39.298  1.00  0.00     0.014 C 
ATOM     11  C   UNL     1      20.047  13.803  38.554  1.00  0.00     0.014 C 
ENDBRANCH   1   9
TORSDOF 3
ENDMDL
MODEL 6
REMARK VINA RESULT:    -3.730      2.288      3.312
REMARK INTER + INTRA:          -4.334
REMARK INTER:                  -4.286
REMARK INTRA:                  -0.048
REMARK UNBOUND:                -0.058
REMARK SMILES CC(C)[C@H]([NH3+])C(=O)[O-]
REMARK SMILES IDX 4 1 5 2 6 6 7 7 8 8 2 9 1 10 3 11
REMARK H PARENT 5 3 5 4 5 5
REMARK Flexibility Score: inf
ROOT
ATOM      1  C   UNL     1      20.943  12.538  37.316  1.00  0.00     0.230 C 
ENDROOT
BRANCH   1   2
ATOM      2  N   UNL     1      22.256  11.880  37.230  1.00  0.00    -0.350 N 
ATOM      3  H   UNL     1      22.169  10.964  36.736  1.00  0.00     0.345 HD
ATOM      4  H   UNL     1      22.657  11.728  38.185  1.00  0.00     0.345 HD
ATOM      5  H   UNL     1      22.918  12.469  36.673  1.00  0.00     0.345 HD
ENDBRANCH   1   2
BRANCH   1   6
ATOM      6  C   UNL     1      20.864  13.639  36.286  1.00  0.00     0.099 C 
ATOM      7  O   UNL     1      21.644  14.626  36.348  1.00  0.00    -0.544 OA
ATOM      8  O   UNL     1      19.923  13.571  35.268  1.00  0.00    -0.544 OA
ENDBRANCH   1   6
BRANCH   1   9
ATOM      9  C   UNL     1      20.664  13.095  38.746  1.00  0.00     0.047 C 
ATOM     10  C   UNL     1      19.349  13.894  38.785  1.00  0.00     0.014 C 
ATOM     11  C   UNL     1      20.601  11.972  39.796  1.00  0.00     0.014 C 
ENDBRANCH   1   9
TORSDOF 3
ENDMDL
MODEL 7
REMARK VINA RESULT:    -3.718     20.365     21.345
REMARK INTER + INTRA:          -4.320
REMARK INTER:                  -4.274
REMARK INTRA:                  -0.046
REMARK UNBOUND:                -0.058
REMARK SMILES CC(C)[C@H]([NH3+])C(=O)[O-]
REMARK SMILES IDX 4 1 5 2 6 6 7 7 8 8 2 9 1 10 3 11
REMARK H PARENT 5 3 5 4 5 5
REMARK Flexibility Score: inf
ROOT
ATOM      1  C   UNL     1      36.985  25.911  35.422  1.00  0.00     0.230 C 
ENDROOT
BRANCH   1   2
ATOM      2  N   UNL     1      35.875  25.072  35.901  1.00  0.00    -0.350 N 
ATOM      3  H   UNL     1      36.060  24.068  35.681  1.00  0.00     0.345 HD
ATOM      4  H   UNL     1      34.972  25.367  35.463  1.00  0.00     0.345 HD
ATOM      5  H   UNL     1      35.789  25.149  36.942  1.00  0.00     0.345 HD
ENDBRANCH   1   2
BRANCH   1   6
ATOM      6  C   UNL     1      37.089  27.146  36.283  1.00  0.00     0.099 C 
ATOM      7  O   UNL     1      38.124  27.863  36.247  1.00  0.00    -0.544 OA
ATOM      8  O   UNL     1      36.043  27.495  37.127  1.00  0.00    -0.544 OA
ENDBRANCH   1   6
BRANCH   1   9
ATOM      9  C   UNL     1      36.816  26.294  33.920  1.00  0.00     0.047 C 
ATOM     10  C   UNL     1      38.122  26.063  33.136  1.00  0.00     0.014 C 
ATOM     11  C   UNL     1      35.681  25.501  33.250  1.00  0.00     0.014 C 
ENDBRANCH   1   9
TORSDOF 3
ENDMDL
MODEL 8
REMARK VINA RESULT:    -3.262      1.964      2.769
REMARK INTER + INTRA:          -3.797
REMARK INTER:                  -3.750
REMARK INTRA:                  -0.046
REMARK UNBOUND:                -0.058
REMARK SMILES CC(C)[C@H]([NH3+])C(=O)[O-]
REMARK SMILES IDX 4 1 5 2 6 6 7 7 8 8 2 9 1 10 3 11
REMARK H PARENT 5 3 5 4 5 5
REMARK Flexibility Score: inf
ROOT
ATOM      1  C   UNL     1      20.303  13.424  37.719  1.00  0.00     0.230 C 
ENDROOT
BRANCH   1   2
ATOM      2  N   UNL     1      21.042  14.434  36.946  1.00  0.00    -0.350 N 
ATOM      3  H   UNL     1      21.755  13.973  36.337  1.00  0.00     0.345 HD
ATOM      4  H   UNL     1      21.515  15.116  37.584  1.00  0.00     0.345 HD
ATOM      5  H   UNL     1      20.388  14.954  36.315  1.00  0.00     0.345 HD
ENDBRANCH   1   2
BRANCH   1   6
ATOM      6  C   UNL     1      19.755  14.055  38.975  1.00  0.00     0.099 C 
ATOM      7  O   UNL     1      19.905  15.287  39.188  1.00  0.00    -0.544 OA
ATOM      8  O   UNL     1      19.087  13.274  39.910  1.00  0.00    -0.544 OA
ENDBRANCH   1   6
BRANCH   1   9
ATOM      9  C   UNL     1      21.192  12.188  38.060  1.00  0.00     0.047 C 
ATOM     10  C   UNL     1      20.500  10.875  37.652  1.00  0.00     0.014 C 
ATOM     11  C   UNL     1      22.567  12.266  37.375  1.00  0.00     0.014 C 
ENDBRANCH   1   9
TORSDOF 3
ENDMDL
