MODEL 1
REMARK VINA RESULT:    -3.740      0.000      0.000
REMARK INTER + INTRA:          -6.166
REMARK INTER:                  -5.708
REMARK INTRA:                  -0.458
REMARK UNBOUND:                -0.458
REMARK SMILES CC1=CCC[C@H](C)C(=O)C[C@@H](C(C)C)C(=O)C1
REMARK SMILES IDX 8 1 9 2 6 3 7 4 5 5 4 6 3 7 2 8 1 9 10 11 11 12 15 13 16 14
REMARK SMILES IDX 17 15 12 17 13 18 14 19
REMARK H PARENT
REMARK Flexibility Score: 70.00
ROOT
ATOM      1  C   UNL     1      18.418  27.060  28.405  1.00  0.00     0.136 C 
ATOM      2  O   UNL     1      17.837  27.680  27.525  1.00  0.00    -0.299 OA
ENDROOT
BRANCH   1   3
ATOM      3  C   UNL     1      18.570  25.555  28.294  1.00  0.00     0.053 C 
ATOM      4  C   UNL     1      17.385  24.980  27.511  1.00  0.00     0.016 C 
BRANCH   3   5
ATOM      5  C   UNL     1      19.900  25.146  27.625  1.00  0.00     0.015 C 
BRANCH   5   6
ATOM      6  C   UNL     1      21.116  25.128  28.566  1.00  0.00     0.028 C 
BRANCH   6   7
ATOM      7  C   UNL     1      22.232  26.063  28.154  1.00  0.00    -0.028 C 
ATOM      8  C   UNL     1      22.484  27.320  28.606  1.00  0.00    -0.070 CG0
ATOM      9  C   UNL     1      23.606  28.070  27.924  1.00  0.00     0.039 C 
ATOM     10  G   UNL     1      21.813  27.993  29.799  1.00  0.00     0.000 G0
ENDBRANCH   6   7
ENDBRANCH   5   6
ENDBRANCH   3   5
ENDBRANCH   1   3
BRANCH   1  11
ATOM     11  C   UNL     1      18.923  27.804  29.615  1.00  0.00     0.087 C 
BRANCH  11  12
ATOM     12  C   UNL     1      19.522  29.197  29.273  1.00  0.00     0.066 C 
BRANCH  12  13
ATOM     13  C   UNL     1      21.025  29.256  29.526  1.00  0.00     0.140 C 
ATOM     14  O   UNL     1      21.560  30.350  29.646  1.00  0.00    -0.299 OA
BRANCH  13  15
ATOM     15  C   UNL     1      21.827  28.013  29.819  1.00  0.00     0.106 CG0
ATOM     16  G   UNL     1      22.474  27.344  28.610  1.00  0.00     0.000 G0
ENDBRANCH  13  15
ENDBRANCH  12  13
BRANCH  12  17
ATOM     17  C   UNL     1      18.799  30.345  30.050  1.00  0.00    -0.006 C 
ATOM     18  C   UNL     1      17.677  29.816  30.962  1.00  0.00     0.008 C 
ATOM     19  C   UNL     1      18.204  31.392  29.089  1.00  0.00     0.008 C 
ENDBRANCH  12  17
ENDBRANCH  11  12
ENDBRANCH   1  11
TORSDOF 1
ENDMDL
MODEL 2
REMARK VINA RESULT:    -3.630      2.980      6.589
REMARK INTER + INTRA:          -5.998
REMARK INTER:                  -5.597
REMARK INTRA:                  -0.400
REMARK UNBOUND:                -0.458
REMARK SMILES CC1=CCC[C@H](C)C(=O)C[C@@H](C(C)C)C(=O)C1
REMARK SMILES IDX 8 1 9 2 6 3 7 4 5 5 4 6 3 7 2 8 1 9 10 11 11 12 15 13 16 14
REMARK SMILES IDX 17 15 12 17 13 18 14 19
REMARK H PARENT
REMARK Flexibility Score: 70.00
ROOT
ATOM      1  C   UNL     1      19.786  31.581  29.987  1.00  0.00     0.136 C 
ATOM      2  O   UNL     1      20.775  31.971  29.381  1.00  0.00    -0.299 OA
ENDROOT
BRANCH   1   3
ATOM      3  C   UNL     1      18.713  32.571  30.398  1.00  0.00     0.053 C 
ATOM      4  C   UNL     1      19.340  33.677  31.251  1.00  0.00     0.016 C 
BRANCH   3   5
ATOM      5  C   UNL     1      17.982  33.183  29.183  1.00  0.00     0.015 C 
BRANCH   5   6
ATOM      6  C   UNL     1      16.533  32.702  28.992  1.00  0.00     0.028 C 
BRANCH   6   7
ATOM      7  C   UNL     1      15.860  32.246  30.268  1.00  0.00    -0.028 C 
ATOM      8  C   UNL     1      15.553  30.978  30.649  1.00  0.00    -0.070 CG0
ATOM      9  C   UNL     1      14.769  30.829  31.933  1.00  0.00     0.039 C 
ATOM     10  G   UNL     1      16.019  29.700  29.958  1.00  0.00     0.000 G0
ENDBRANCH   6   7
ENDBRANCH   5   6
ENDBRANCH   3   5
ENDBRANCH   1   3
BRANCH   1  11
ATOM     11  C   UNL     1      19.684  30.125  30.365  1.00  0.00     0.087 C 
BRANCH  11  12
ATOM     12  C   UNL     1      18.595  29.358  29.564  1.00  0.00     0.066 C 
BRANCH  12  13
ATOM     13  C   UNL     1      17.334  29.119  30.388  1.00  0.00     0.140 C 
ATOM     14  O   UNL     1      17.439  28.599  31.490  1.00  0.00    -0.299 OA
BRANCH  13  15
ATOM     15  C   UNL     1      15.997  29.674  29.965  1.00  0.00     0.106 CG0
ATOM     16  G   UNL     1      15.573  30.969  30.651  1.00  0.00     0.000 G0
ENDBRANCH  13  15
ENDBRANCH  12  13
BRANCH  12  17
ATOM     17  C   UNL     1      19.136  28.004  29.002  1.00  0.00    -0.006 C 
ATOM     18  C   UNL     1      20.675  27.949  28.989  1.00  0.00     0.008 C 
ATOM     19  C   UNL     1      18.619  27.736  27.575  1.00  0.00     0.008 C 
ENDBRANCH  12  17
ENDBRANCH  11  12
ENDBRANCH   1  11
TORSDOF 1
ENDMDL
MODEL 3
REMARK VINA RESULT:    -3.584      1.796      4.356
REMARK INTER + INTRA:          -5.927
REMARK INTER:                  -5.580
REMARK INTRA:                  -0.347
REMARK UNBOUND:                -0.458
REMARK SMILES CC1=CCC[C@H](C)C(=O)C[C@@H](C(C)C)C(=O)C1
REMARK SMILES IDX 8 1 9 2 6 3 7 4 5 5 4 6 3 7 2 8 1 9 10 11 11 12 15 13 16 14
REMARK SMILES IDX 17 15 12 17 13 18 14 19
REMARK H PARENT
REMARK Flexibility Score: 70.00
ROOT
ATOM      1  C   UNL     1      17.295  27.865  29.107  1.00  0.00     0.136 C 
ATOM      2  O   UNL     1      16.749  26.822  29.440  1.00  0.00    -0.299 OA
ENDROOT
BRANCH   1   3
ATOM      3  C   UNL     1      16.737  29.193  29.584  1.00  0.00     0.053 C 
ATOM      4  C   UNL     1      15.208  29.114  29.637  1.00  0.00     0.016 C 
BRANCH   3   5
ATOM      5  C   UNL     1      17.299  29.605  30.962  1.00  0.00     0.015 C 
BRANCH   5   6
ATOM      6  C   UNL     1      18.122  30.905  30.960  1.00  0.00     0.028 C 
BRANCH   6   7
ATOM      7  C   UNL     1      19.561  30.727  31.391  1.00  0.00    -0.028 C 
ATOM      8  C   UNL     1      20.591  30.195  30.681  1.00  0.00    -0.070 CG0
ATOM      9  C   UNL     1      21.904  30.033  31.413  1.00  0.00     0.039 C 
ATOM     10  G   UNL     1      20.568  29.850  29.195  1.00  0.00     0.000 G0
ENDBRANCH   6   7
ENDBRANCH   5   6
ENDBRANCH   3   5
ENDBRANCH   1   3
BRANCH   1  11
ATOM     11  C   UNL     1      18.480  27.810  28.178  1.00  0.00     0.087 C 
BRANCH  11  12
ATOM     12  C   UNL     1      19.784  27.329  28.874  1.00  0.00     0.066 C 
BRANCH  12  13
ATOM     13  C   UNL     1      20.872  28.398  28.860  1.00  0.00     0.140 C 
ATOM     14  O   UNL     1      21.977  28.109  28.421  1.00  0.00    -0.299 OA
BRANCH  13  15
ATOM     15  C   UNL     1      20.571  29.837  29.194  1.00  0.00     0.106 CG0
ATOM     16  G   UNL     1      20.622  30.197  30.676  1.00  0.00     0.000 G0
ENDBRANCH  13  15
ENDBRANCH  12  13
BRANCH  12  17
ATOM     17  C   UNL     1      20.322  26.004  28.245  1.00  0.00    -0.006 C 
ATOM     18  C   UNL     1      19.223  25.222  27.502  1.00  0.00     0.008 C 
ATOM     19  C   UNL     1      20.950  25.085  29.311  1.00  0.00     0.008 C 
ENDBRANCH  12  17
ENDBRANCH  11  12
ENDBRANCH   1  11
TORSDOF 1
ENDMDL
MODEL 4
REMARK VINA RESULT:    -3.522      2.071      2.774
REMARK INTER + INTRA:          -5.833
REMARK INTER:                  -5.533
REMARK INTRA:                  -0.300
REMARK UNBOUND:                -0.458
REMARK SMILES CC1=CCC[C@H](C)C(=O)C[C@@H](C(C)C)C(=O)C1
REMARK SMILES IDX 8 1 9 2 6 3 7 4 5 5 4 6 3 7 2 8 1 9 10 11 11 12 15 13 16 14
REMARK SMILES IDX 17 15 12 17 13 18 14 19
REMARK H PARENT
REMARK Flexibility Score: 70.00
ROOT
ATOM      1  C   UNL     1      16.508  28.757  29.746  1.00  0.00     0.136 C 
ATOM      2  O   UNL     1      15.361  28.959  29.371  1.00  0.00    -0.299 OA
ENDROOT
BRANCH   1   3
ATOM      3  C   UNL     1      17.187  27.440  29.420  1.00  0.00     0.053 C 
ATOM      4  C   UNL     1      16.146  26.316  29.422  1.00  0.00     0.016 C 
BRANCH   3   5
ATOM      5  C   UNL     1      17.927  27.479  28.066  1.00  0.00     0.015 C 
BRANCH   5   6
ATOM      6  C   UNL     1      19.399  27.034  28.123  1.00  0.00     0.028 C 
BRANCH   6   7
ATOM      7  C   UNL     1      20.117  27.431  29.395  1.00  0.00    -0.028 C 
ATOM      8  C   UNL     1      20.548  28.666  29.766  1.00  0.00    -0.070 CG0
ATOM      9  C   UNL     1      21.346  28.745  31.048  1.00  0.00     0.039 C 
ATOM     10  G   UNL     1      20.211  29.978  29.066  1.00  0.00     0.000 G0
ENDBRANCH   6   7
ENDBRANCH   5   6
ENDBRANCH   3   5
ENDBRANCH   1   3
BRANCH   1  11
ATOM     11  C   UNL     1      17.204  29.804  30.578  1.00  0.00     0.087 C 
BRANCH  11  12
ATOM     12  C   UNL     1      17.834  30.943  29.729  1.00  0.00     0.066 C 
BRANCH  12  13
ATOM     13  C   UNL     1      19.356  30.965  29.833  1.00  0.00     0.140 C 
ATOM     14  O   UNL     1      19.879  31.683  30.674  1.00  0.00    -0.299 OA
BRANCH  13  15
ATOM     15  C   UNL     1      20.214  29.993  29.063  1.00  0.00     0.106 CG0
ATOM     16  G   UNL     1      20.545  28.689  29.784  1.00  0.00     0.000 G0
ENDBRANCH  13  15
ENDBRANCH  12  13
BRANCH  12  17
ATOM     17  C   UNL     1      17.248  32.341  30.109  1.00  0.00    -0.006 C 
ATOM     18  C   UNL     1      16.489  32.312  31.449  1.00  0.00     0.008 C 
ATOM     19  C   UNL     1      16.302  32.875  29.017  1.00  0.00     0.008 C 
ENDBRANCH  12  17
ENDBRANCH  11  12
ENDBRANCH   1  11
TORSDOF 1
ENDMDL
MODEL 5
REMARK VINA RESULT:    -3.520      1.814      2.727
REMARK INTER + INTRA:          -5.829
REMARK INTER:                  -5.620
REMARK INTRA:                  -0.209
REMARK UNBOUND:                -0.458
REMARK SMILES CC1=CCC[C@H](C)C(=O)C[C@@H](C(C)C)C(=O)C1
REMARK SMILES IDX 8 1 9 2 6 3 7 4 5 5 4 6 3 7 2 8 1 9 10 11 11 12 15 13 16 14
REMARK SMILES IDX 17 15 12 17 13 18 14 19
REMARK H PARENT
REMARK Flexibility Score: 70.00
ROOT
ATOM      1  C   UNL     1      18.908  27.940  28.731  1.00  0.00     0.136 C 
ATOM      2  O   UNL     1      18.638  28.200  27.566  1.00  0.00    -0.299 OA
ENDROOT
BRANCH   1   3
ATOM      3  C   UNL     1      19.907  26.842  29.046  1.00  0.00     0.053 C 
ATOM      4  C   UNL     1      19.527  25.572  28.277  1.00  0.00     0.016 C 
BRANCH   3   5
ATOM      5  C   UNL     1      21.357  27.253  28.714  1.00  0.00     0.015 C 
BRANCH   5   6
ATOM      6  C   UNL     1      21.644  28.760  28.833  1.00  0.00     0.028 C 
BRANCH   6   7
ATOM      7  C   UNL     1      22.348  29.157  30.112  1.00  0.00    -0.028 C 
ATOM      8  C   UNL     1      21.797  29.613  31.268  1.00  0.00    -0.070 CG0
ATOM      9  C   UNL     1      22.760  30.048  32.349  1.00  0.00     0.039 C 
ATOM     10  G   UNL     1      20.310  29.626  31.606  1.00  0.00     0.000 G0
ENDBRANCH   6   7
ENDBRANCH   5   6
ENDBRANCH   3   5
ENDBRANCH   1   3
BRANCH   1  11
ATOM     11  C   UNL     1      18.196  28.680  29.833  1.00  0.00     0.087 C 
BRANCH  11  12
ATOM     12  C   UNL     1      18.457  30.212  29.812  1.00  0.00     0.066 C 
BRANCH  12  13
ATOM     13  C   UNL     1      19.464  30.641  30.874  1.00  0.00     0.140 C 
ATOM     14  O   UNL     1      19.477  31.809  31.238  1.00  0.00    -0.299 OA
BRANCH  13  15
ATOM     15  C   UNL     1      20.305  29.633  31.617  1.00  0.00     0.106 CG0
ATOM     16  G   UNL     1      21.787  29.616  31.256  1.00  0.00     0.000 G0
ENDBRANCH  13  15
ENDBRANCH  12  13
BRANCH  12  17
ATOM     17  C   UNL     1      17.132  31.028  29.965  1.00  0.00    -0.006 C 
ATOM     18  C   UNL     1      15.882  30.161  29.730  1.00  0.00     0.008 C 
ATOM     19  C   UNL     1      17.091  32.228  29.000  1.00  0.00     0.008 C 
ENDBRANCH  12  17
ENDBRANCH  11  12
ENDBRANCH   1  11
TORSDOF 1
ENDMDL
MODEL 6
REMARK VINA RESULT:    -3.501      2.649      4.226
REMARK INTER + INTRA:          -5.800
REMARK INTER:                  -5.525
REMARK INTRA:                  -0.275
REMARK UNBOUND:                -0.458
REMARK SMILES CC1=CCC[C@H](C)C(=O)C[C@@H](C(C)C)C(=O)C1
REMARK SMILES IDX 8 1 9 2 6 3 7 4 5 5 4 6 3 7 2 8 1 9 10 11 11 12 15 13 16 14
REMARK SMILES IDX 17 15 12 17 13 18 14 19
REMARK H PARENT
REMARK Flexibility Score: 70.00
ROOT
ATOM      1  C   UNL     1      17.848  28.139  29.348  1.00  0.00     0.136 C 
ATOM      2  O   UNL     1      17.052  27.518  28.657  1.00  0.00    -0.299 OA
ENDROOT
BRANCH   1   3
ATOM      3  C   UNL     1      19.317  27.759  29.333  1.00  0.00     0.053 C 
ATOM      4  C   UNL     1      19.531  26.593  28.362  1.00  0.00     0.016 C 
BRANCH   3   5
ATOM      5  C   UNL     1      20.227  28.946  28.951  1.00  0.00     0.015 C 
BRANCH   5   6
ATOM      6  C   UNL     1      20.884  29.664  30.142  1.00  0.00     0.028 C 
BRANCH   6   7
ATOM      7  C   UNL     1      21.029  31.159  29.959  1.00  0.00    -0.028 C 
ATOM      8  C   UNL     1      20.061  32.112  30.023  1.00  0.00    -0.070 CG0
ATOM      9  C   UNL     1      20.479  33.523  29.679  1.00  0.00     0.039 C 
ATOM     10  G   UNL     1      18.630  31.901  30.508  1.00  0.00     0.000 G0
ENDBRANCH   6   7
ENDBRANCH   5   6
ENDBRANCH   3   5
ENDBRANCH   1   3
BRANCH   1  11
ATOM     11  C   UNL     1      17.339  29.235  30.248  1.00  0.00     0.087 C 
BRANCH  11  12
ATOM     12  C   UNL     1      16.686  30.412  29.472  1.00  0.00     0.066 C 
BRANCH  12  13
ATOM     13  C   UNL     1      17.577  31.650  29.444  1.00  0.00     0.140 C 
ATOM     14  O   UNL     1      17.343  32.528  28.626  1.00  0.00    -0.299 OA
BRANCH  13  15
ATOM     15  C   UNL     1      18.611  31.903  30.513  1.00  0.00     0.106 CG0
ATOM     16  G   UNL     1      20.038  32.112  30.016  1.00  0.00     0.000 G0
ENDBRANCH  13  15
ENDBRANCH  12  13
BRANCH  12  17
ATOM     17  C   UNL     1      15.278  30.775  30.046  1.00  0.00    -0.006 C 
ATOM     18  C   UNL     1      15.302  30.965  31.574  1.00  0.00     0.008 C 
ATOM     19  C   UNL     1      14.230  29.702  29.696  1.00  0.00     0.008 C 
ENDBRANCH  12  17
ENDBRANCH  11  12
ENDBRANCH   1  11
TORSDOF 1
ENDMDL
MODEL 7
REMARK VINA RESULT:    -3.501      1.868      4.601
REMARK INTER + INTRA:          -5.800
REMARK INTER:                  -5.632
REMARK INTRA:                  -0.168
REMARK UNBOUND:                -0.458
REMARK SMILES CC1=CCC[C@H](C)C(=O)C[C@@H](C(C)C)C(=O)C1
REMARK SMILES IDX 8 1 9 2 6 3 7 4 5 5 4 6 3 7 2 8 1 9 10 11 11 12 15 13 16 14
REMARK SMILES IDX 17 15 12 17 13 18 14 19
REMARK H PARENT
REMARK Flexibility Score: 70.00
ROOT
ATOM      1  C   UNL     1      18.191  30.271  29.378  1.00  0.00     0.136 C 
ATOM      2  O   UNL     1      17.333  29.666  30.007  1.00  0.00    -0.299 OA
ENDROOT
BRANCH   1   3
ATOM      3  C   UNL     1      18.267  31.784  29.470  1.00  0.00     0.053 C 
ATOM      4  C   UNL     1      16.896  32.384  29.142  1.00  0.00     0.016 C 
BRANCH   3   5
ATOM      5  C   UNL     1      18.743  32.265  30.857  1.00  0.00     0.015 C 
BRANCH   5   6
ATOM      6  C   UNL     1      19.643  31.270  31.611  1.00  0.00     0.028 C 
BRANCH   6   7
ATOM      7  C   UNL     1      21.113  31.390  31.278  1.00  0.00    -0.028 C 
ATOM      8  C   UNL     1      22.008  30.392  31.051  1.00  0.00    -0.070 CG0
ATOM      9  C   UNL     1      23.448  30.807  30.856  1.00  0.00     0.039 C 
ATOM     10  G   UNL     1      21.672  28.914  30.874  1.00  0.00     0.000 G0
ENDBRANCH   6   7
ENDBRANCH   5   6
ENDBRANCH   3   5
ENDBRANCH   1   3
BRANCH   1  11
ATOM     11  C   UNL     1      19.119  29.501  28.474  1.00  0.00     0.087 C 
BRANCH  11  12
ATOM     12  C   UNL     1      19.753  28.259  29.162  1.00  0.00     0.066 C 
BRANCH  12  13
ATOM     13  C   UNL     1      21.227  28.472  29.489  1.00  0.00     0.140 C 
ATOM     14  O   UNL     1      22.044  28.444  28.579  1.00  0.00    -0.299 OA
BRANCH  13  15
ATOM     15  C   UNL     1      21.677  28.899  30.864  1.00  0.00     0.106 CG0
ATOM     16  G   UNL     1      22.008  30.380  31.020  1.00  0.00     0.000 G0
ENDBRANCH  13  15
ENDBRANCH  12  13
BRANCH  12  17
ATOM     17  C   UNL     1      19.573  26.966  28.303  1.00  0.00    -0.006 C 
ATOM     18  C   UNL     1      18.091  26.610  28.086  1.00  0.00     0.008 C 
ATOM     19  C   UNL     1      20.284  25.757  28.942  1.00  0.00     0.008 C 
ENDBRANCH  12  17
ENDBRANCH  11  12
ENDBRANCH   1  11
TORSDOF 1
ENDMDL
MODEL 8
REMARK VINA RESULT:    -3.464      2.819      4.914
REMARK INTER + INTRA:          -5.744
REMARK INTER:                  -5.511
REMARK INTRA:                  -0.233
REMARK UNBOUND:                -0.458
REMARK SMILES CC1=CCC[C@H](C)C(=O)C[C@@H](C(C)C)C(=O)C1
REMARK SMILES IDX 8 1 9 2 6 3 7 4 5 5 4 6 3 7 2 8 1 9 10 11 11 12 15 13 16 14
REMARK SMILES IDX 17 15 12 17 13 18 14 19
REMARK H PARENT
REMARK Flexibility Score: 70.00
ROOT
ATOM      1  C   UNL     1      19.476  29.316  29.815  1.00  0.00     0.136 C 
ATOM      2  O   UNL     1      20.085  29.386  30.873  1.00  0.00    -0.299 OA
ENDROOT
BRANCH   1   3
ATOM      3  C   UNL     1      19.989  28.416  28.707  1.00  0.00     0.053 C 
ATOM      4  C   UNL     1      21.507  28.255  28.844  1.00  0.00     0.016 C 
BRANCH   3   5
ATOM      5  C   UNL     1      19.303  27.033  28.707  1.00  0.00     0.015 C 
BRANCH   5   6
ATOM      6  C   UNL     1      18.106  26.907  27.749  1.00  0.00     0.028 C 
BRANCH   6   7
ATOM      7  C   UNL     1      16.909  26.200  28.345  1.00  0.00    -0.028 C 
ATOM      8  C   UNL     1      15.963  26.707  29.180  1.00  0.00    -0.070 CG0
ATOM      9  C   UNL     1      14.941  25.730  29.715  1.00  0.00     0.039 C 
ATOM     10  G   UNL     1      15.781  28.179  29.536  1.00  0.00     0.000 G0
ENDBRANCH   6   7
ENDBRANCH   5   6
ENDBRANCH   3   5
ENDBRANCH   1   3
BRANCH   1  11
ATOM     11  C   UNL     1      18.253  30.175  29.613  1.00  0.00     0.087 C 
BRANCH  11  12
ATOM     12  C   UNL     1      17.214  30.042  30.761  1.00  0.00     0.066 C 
BRANCH  12  13
ATOM     13  C   UNL     1      16.515  28.687  30.751  1.00  0.00     0.140 C 
ATOM     14  O   UNL     1      16.430  28.059  31.798  1.00  0.00    -0.299 OA
BRANCH  13  15
ATOM     15  C   UNL     1      15.766  28.192  29.539  1.00  0.00     0.106 CG0
ATOM     16  G   UNL     1      15.973  26.722  29.188  1.00  0.00     0.000 G0
ENDBRANCH  13  15
ENDBRANCH  12  13
BRANCH  12  17
ATOM     17  C   UNL     1      16.158  31.193  30.723  1.00  0.00    -0.006 C 
ATOM     18  C   UNL     1      16.160  31.943  29.378  1.00  0.00     0.008 C 
ATOM     19  C   UNL     1      16.387  32.211  31.857  1.00  0.00     0.008 C 
ENDBRANCH  12  17
ENDBRANCH  11  12
ENDBRANCH   1  11
TORSDOF 1
ENDMDL
MODEL 9
REMARK VINA RESULT:    -3.287      2.404      3.355
REMARK INTER + INTRA:          -5.474
REMARK INTER:                  -5.901
REMARK INTRA:                   0.427
REMARK UNBOUND:                -0.458
REMARK SMILES CC1=CCC[C@H](C)C(=O)C[C@@H](C(C)C)C(=O)C1
REMARK SMILES IDX 8 1 9 2 6 3 7 4 5 5 4 6 3 7 2 8 1 9 10 11 11 12 15 13 16 14
REMARK SMILES IDX 17 15 12 17 13 18 14 19
REMARK H PARENT
REMARK Flexibility Score: 70.00
ROOT
ATOM      1  C   UNL     1      17.550  28.753  30.270  1.00  0.00     0.136 C 
ATOM      2  O   UNL     1      17.407  28.481  31.454  1.00  0.00    -0.299 OA
ENDROOT
BRANCH   1   3
ATOM      3  C   UNL     1      18.291  27.791  29.360  1.00  0.00     0.053 C 
ATOM      4  C   UNL     1      17.281  26.902  28.627  1.00  0.00     0.016 C 
BRANCH   3   5
ATOM      5  C   UNL     1      19.196  28.521  28.344  1.00  0.00     0.015 C 
BRANCH   5   6
ATOM      6  C   UNL     1      20.699  28.477  28.670  1.00  0.00     0.028 C 
BRANCH   6   7
ATOM      7  C   UNL     1      21.015  28.573  30.146  1.00  0.00    -0.028 C 
ATOM      8  C   UNL     1      21.056  29.686  30.926  1.00  0.00    -0.070 CG0
ATOM      9  C   UNL     1      21.520  29.495  32.352  1.00  0.00     0.039 C 
ATOM     10  G   UNL     1      20.578  31.078  30.523  1.00  0.00     0.000 G0
ENDBRANCH   6   7
ENDBRANCH   5   6
ENDBRANCH   3   5
ENDBRANCH   1   3
BRANCH   1  11
ATOM     11  C   UNL     1      17.035  30.071  29.751  1.00  0.00     0.087 C 
BRANCH  11  12
ATOM     12  C   UNL     1      18.165  31.090  29.436  1.00  0.00     0.066 C 
BRANCH  12  13
ATOM     13  C   UNL     1      19.085  31.319  30.631  1.00  0.00     0.140 C 
ATOM     14  O   UNL     1      18.586  31.549  31.724  1.00  0.00    -0.299 OA
BRANCH  13  15
ATOM     15  C   UNL     1      20.572  31.084  30.540  1.00  0.00     0.106 CG0
ATOM     16  G   UNL     1      21.045  29.685  30.923  1.00  0.00     0.000 G0
ENDBRANCH  13  15
ENDBRANCH  12  13
BRANCH  12  17
ATOM     17  C   UNL     1      17.592  32.452  28.928  1.00  0.00    -0.006 C 
ATOM     18  C   UNL     1      18.413  33.654  29.431  1.00  0.00     0.008 C 
ATOM     19  C   UNL     1      16.123  32.643  29.353  1.00  0.00     0.008 C 
ENDBRANCH  12  17
ENDBRANCH  11  12
ENDBRANCH   1  11
TORSDOF 1
ENDMDL
