MODEL 1
REMARK VINA RESULT:    -7.208      0.000      0.000
REMARK INTER + INTRA:         -14.810
REMARK INTER:                 -13.108
REMARK INTRA:                  -1.702
REMARK UNBOUND:                -1.702
REMARK SMILES CCCCCCCCCCCCCC[C@@H](C)C(=O)[O-]
REMARK SMILES IDX 9 1 10 2 11 3 12 4 13 5 14 6 15 7 16 8 17 9 18 10 19 11 8 12
REMARK SMILES IDX 7 13 6 14 5 15 4 16 3 17 2 18 1 19
REMARK H PARENT
REMARK Flexibility Score: inf
ROOT
ATOM      1  C   UNL     1      -7.706  -2.908 -19.501  1.00  0.00     0.000 C 
ENDROOT
BRANCH   1   2
ATOM      2  C   UNL     1      -7.324  -2.656 -20.965  1.00  0.00     0.000 C 
BRANCH   2   3
ATOM      3  C   UNL     1      -5.983  -3.322 -21.307  1.00  0.00     0.000 C 
BRANCH   3   4
ATOM      4  C   UNL     1      -4.796  -2.349 -21.213  1.00  0.00     0.000 C 
BRANCH   4   5
ATOM      5  C   UNL     1      -3.779  -2.762 -20.135  1.00  0.00     0.001 C 
BRANCH   5   6
ATOM      6  C   UNL     1      -3.958  -1.994 -18.812  1.00  0.00     0.009 C 
BRANCH   6   7
ATOM      7  C   UNL     1      -4.269  -0.486 -18.965  1.00  0.00     0.032 C 
ATOM      8  C   UNL     1      -5.634  -0.106 -18.379  1.00  0.00     0.014 C 
BRANCH   7   9
ATOM      9  C   UNL     1      -3.189   0.317 -18.292  1.00  0.00     0.044 C 
ATOM     10  O   UNL     1      -3.169   1.571 -18.407  1.00  0.00    -0.550 OA
ATOM     11  O   UNL     1      -2.198  -0.319 -17.553  1.00  0.00    -0.550 OA
ENDBRANCH   7   9
ENDBRANCH   6   7
ENDBRANCH   5   6
ENDBRANCH   4   5
ENDBRANCH   3   4
ENDBRANCH   2   3
ENDBRANCH   1   2
BRANCH   1  12
ATOM     12  C   UNL     1      -6.924  -4.099 -18.926  1.00  0.00     0.000 C 
BRANCH  12  13
ATOM     13  C   UNL     1      -7.841  -5.194 -18.357  1.00  0.00    -0.000 C 
BRANCH  13  14
ATOM     14  C   UNL     1      -9.156  -5.330 -19.144  1.00  0.00    -0.000 C 
BRANCH  14  15
ATOM     15  C   UNL     1      -9.121  -6.488 -20.156  1.00  0.00    -0.000 C 
BRANCH  15  16
ATOM     16  C   UNL     1      -8.004  -7.503 -19.855  1.00  0.00    -0.000 C 
BRANCH  16  17
ATOM     17  C   UNL     1      -8.552  -8.853 -19.366  1.00  0.00    -0.000 C 
BRANCH  17  18
ATOM     18  C   UNL     1      -7.986 -10.041 -20.158  1.00  0.00    -0.003 C 
ATOM     19  C   UNL     1      -8.157  -9.831 -21.660  1.00  0.00     0.004 C 
ENDBRANCH  17  18
ENDBRANCH  16  17
ENDBRANCH  15  16
ENDBRANCH  14  15
ENDBRANCH  13  14
ENDBRANCH  12  13
ENDBRANCH   1  12
TORSDOF 14
ENDMDL
MODEL 2
REMARK VINA RESULT:    -6.949      3.005      7.757
REMARK INTER + INTRA:         -14.338
REMARK INTER:                 -12.963
REMARK INTRA:                  -1.375
REMARK UNBOUND:                -1.702
REMARK SMILES CCCCCCCCCCCCCC[C@@H](C)C(=O)[O-]
REMARK SMILES IDX 9 1 10 2 11 3 12 4 13 5 14 6 15 7 16 8 17 9 18 10 19 11 8 12
REMARK SMILES IDX 7 13 6 14 5 15 4 16 3 17 2 18 1 19
REMARK H PARENT
REMARK Flexibility Score: inf
ROOT
ATOM      1  C   UNL     1      -7.193  -0.488 -19.388  1.00  0.00     0.000 C 
ENDROOT
BRANCH   1   2
ATOM      2  C   UNL     1      -7.565  -1.942 -19.706  1.00  0.00     0.000 C 
BRANCH   2   3
ATOM      3  C   UNL     1      -7.348  -2.253 -21.195  1.00  0.00     0.000 C 
BRANCH   3   4
ATOM      4  C   UNL     1      -6.701  -3.628 -21.426  1.00  0.00     0.000 C 
BRANCH   4   5
ATOM      5  C   UNL     1      -6.513  -4.419 -20.121  1.00  0.00     0.001 C 
BRANCH   5   6
ATOM      6  C   UNL     1      -6.877  -5.909 -20.261  1.00  0.00     0.009 C 
BRANCH   6   7
ATOM      7  C   UNL     1      -8.323  -6.273 -19.849  1.00  0.00     0.032 C 
ATOM      8  C   UNL     1      -8.478  -7.759 -19.500  1.00  0.00     0.014 C 
BRANCH   7   9
ATOM      9  C   UNL     1      -8.734  -5.432 -18.671  1.00  0.00     0.044 C 
ATOM     10  O   UNL     1      -9.792  -4.749 -18.719  1.00  0.00    -0.550 OA
ATOM     11  O   UNL     1      -7.944  -5.389 -17.529  1.00  0.00    -0.550 OA
ENDBRANCH   7   9
ENDBRANCH   6   7
ENDBRANCH   5   6
ENDBRANCH   4   5
ENDBRANCH   3   4
ENDBRANCH   2   3
ENDBRANCH   1   2
BRANCH   1  12
ATOM     12  C   UNL     1      -5.815  -0.408 -18.713  1.00  0.00     0.000 C 
BRANCH  12  13
ATOM     13  C   UNL     1      -5.291  -1.783 -18.267  1.00  0.00    -0.000 C 
BRANCH  13  14
ATOM     14  C   UNL     1      -3.883  -2.082 -18.810  1.00  0.00    -0.000 C 
BRANCH  14  15
ATOM     15  C   UNL     1      -3.042  -0.809 -19.003  1.00  0.00    -0.000 C 
BRANCH  15  16
ATOM     16  C   UNL     1      -2.142  -0.504 -17.792  1.00  0.00    -0.000 C 
BRANCH  16  17
ATOM     17  C   UNL     1      -2.479   0.841 -17.130  1.00  0.00    -0.000 C 
BRANCH  17  18
ATOM     18  C   UNL     1      -2.531   1.998 -18.139  1.00  0.00    -0.003 C 
ATOM     19  C   UNL     1      -2.716   3.337 -17.429  1.00  0.00     0.004 C 
ENDBRANCH  17  18
ENDBRANCH  16  17
ENDBRANCH  15  16
ENDBRANCH  14  15
ENDBRANCH  13  14
ENDBRANCH  12  13
ENDBRANCH   1  12
TORSDOF 14
ENDMDL
MODEL 3
REMARK VINA RESULT:    -6.342      4.470      9.992
REMARK INTER + INTRA:         -13.234
REMARK INTER:                 -12.626
REMARK INTRA:                  -0.609
REMARK UNBOUND:                -1.702
REMARK SMILES CCCCCCCCCCCCCC[C@@H](C)C(=O)[O-]
REMARK SMILES IDX 9 1 10 2 11 3 12 4 13 5 14 6 15 7 16 8 17 9 18 10 19 11 8 12
REMARK SMILES IDX 7 13 6 14 5 15 4 16 3 17 2 18 1 19
REMARK H PARENT
REMARK Flexibility Score: inf
ROOT
ATOM      1  C   UNL     1      -2.566   0.898 -18.553  1.00  0.00     0.000 C 
ENDROOT
BRANCH   1   2
ATOM      2  C   UNL     1      -3.534  -0.131 -17.955  1.00  0.00     0.000 C 
BRANCH   2   3
ATOM      3  C   UNL     1      -4.139  -1.020 -19.052  1.00  0.00     0.000 C 
BRANCH   3   4
ATOM      4  C   UNL     1      -3.939  -2.520 -18.778  1.00  0.00     0.000 C 
BRANCH   4   5
ATOM      5  C   UNL     1      -5.269  -3.290 -18.714  1.00  0.00     0.001 C 
BRANCH   5   6
ATOM      6  C   UNL     1      -6.465  -2.473 -19.233  1.00  0.00     0.009 C 
BRANCH   6   7
ATOM      7  C   UNL     1      -7.445  -3.248 -20.145  1.00  0.00     0.032 C 
ATOM      8  C   UNL     1      -7.017  -3.229 -21.618  1.00  0.00     0.014 C 
BRANCH   7   9
ATOM      9  C   UNL     1      -7.551  -4.671 -19.668  1.00  0.00     0.044 C 
ATOM     10  O   UNL     1      -6.979  -5.596 -20.305  1.00  0.00    -0.550 OA
ATOM     11  O   UNL     1      -8.291  -4.978 -18.533  1.00  0.00    -0.550 OA
ENDBRANCH   7   9
ENDBRANCH   6   7
ENDBRANCH   5   6
ENDBRANCH   4   5
ENDBRANCH   3   4
ENDBRANCH   2   3
ENDBRANCH   1   2
BRANCH   1  12
ATOM     12  C   UNL     1      -2.094   1.895 -17.484  1.00  0.00     0.000 C 
BRANCH  12  13
ATOM     13  C   UNL     1      -2.904   3.202 -17.491  1.00  0.00    -0.000 C 
BRANCH  13  14
ATOM     14  C   UNL     1      -2.018   4.445 -17.683  1.00  0.00    -0.000 C 
BRANCH  14  15
ATOM     15  C   UNL     1      -2.607   5.698 -17.012  1.00  0.00    -0.000 C 
BRANCH  15  16
ATOM     16  C   UNL     1      -4.121   5.583 -16.767  1.00  0.00    -0.000 C 
BRANCH  16  17
ATOM     17  C   UNL     1      -4.585   6.394 -15.548  1.00  0.00    -0.000 C 
BRANCH  17  18
ATOM     18  C   UNL     1      -5.701   5.691 -14.761  1.00  0.00    -0.003 C 
ATOM     19  C   UNL     1      -5.696   6.123 -13.297  1.00  0.00     0.004 C 
ENDBRANCH  17  18
ENDBRANCH  16  17
ENDBRANCH  15  16
ENDBRANCH  14  15
ENDBRANCH  13  14
ENDBRANCH  12  13
ENDBRANCH   1  12
TORSDOF 14
ENDMDL
MODEL 4
REMARK VINA RESULT:    -6.322      3.247      5.325
REMARK INTER + INTRA:         -13.198
REMARK INTER:                 -12.454
REMARK INTRA:                  -0.744
REMARK UNBOUND:                -1.702
REMARK SMILES CCCCCCCCCCCCCC[C@@H](C)C(=O)[O-]
REMARK SMILES IDX 9 1 10 2 11 3 12 4 13 5 14 6 15 7 16 8 17 9 18 10 19 11 8 12
REMARK SMILES IDX 7 13 6 14 5 15 4 16 3 17 2 18 1 19
REMARK H PARENT
REMARK Flexibility Score: inf
ROOT
ATOM      1  C   UNL     1      -4.677  -0.418 -18.365  1.00  0.00     0.000 C 
ENDROOT
BRANCH   1   2
ATOM      2  C   UNL     1      -4.059  -0.000 -17.024  1.00  0.00     0.000 C 
BRANCH   2   3
ATOM      3  C   UNL     1      -2.591   0.416 -17.200  1.00  0.00     0.000 C 
BRANCH   3   4
ATOM      4  C   UNL     1      -2.417   1.575 -18.194  1.00  0.00     0.000 C 
BRANCH   4   5
ATOM      5  C   UNL     1      -1.989   2.883 -17.507  1.00  0.00     0.001 C 
BRANCH   5   6
ATOM      6  C   UNL     1      -3.124   3.921 -17.428  1.00  0.00     0.009 C 
BRANCH   6   7
ATOM      7  C   UNL     1      -2.668   5.375 -17.163  1.00  0.00     0.032 C 
ATOM      8  C   UNL     1      -2.339   6.131 -18.456  1.00  0.00     0.014 C 
BRANCH   7   9
ATOM      9  C   UNL     1      -3.745   6.107 -16.410  1.00  0.00     0.044 C 
ATOM     10  O   UNL     1      -4.934   6.083 -16.823  1.00  0.00    -0.550 OA
ATOM     11  O   UNL     1      -3.433   6.827 -15.263  1.00  0.00    -0.550 OA
ENDBRANCH   7   9
ENDBRANCH   6   7
ENDBRANCH   5   6
ENDBRANCH   4   5
ENDBRANCH   3   4
ENDBRANCH   2   3
ENDBRANCH   1   2
BRANCH   1  12
ATOM     12  C   UNL     1      -3.918  -1.607 -18.973  1.00  0.00     0.000 C 
BRANCH  12  13
ATOM     13  C   UNL     1      -4.810  -2.490 -19.861  1.00  0.00    -0.000 C 
BRANCH  13  14
ATOM     14  C   UNL     1      -6.301  -2.126 -19.748  1.00  0.00    -0.000 C 
BRANCH  14  15
ATOM     15  C   UNL     1      -7.162  -2.832 -20.809  1.00  0.00    -0.000 C 
BRANCH  15  16
ATOM     16  C   UNL     1      -6.898  -4.347 -20.874  1.00  0.00    -0.000 C 
BRANCH  16  17
ATOM     17  C   UNL     1      -7.356  -5.081 -19.604  1.00  0.00    -0.000 C 
BRANCH  17  18
ATOM     18  C   UNL     1      -8.606  -5.942 -19.839  1.00  0.00    -0.003 C 
ATOM     19  C   UNL     1      -8.300  -7.422 -19.629  1.00  0.00     0.004 C 
ENDBRANCH  17  18
ENDBRANCH  16  17
ENDBRANCH  15  16
ENDBRANCH  14  15
ENDBRANCH  13  14
ENDBRANCH  12  13
ENDBRANCH   1  12
TORSDOF 14
ENDMDL
MODEL 5
REMARK VINA RESULT:    -6.320      4.791     10.110
REMARK INTER + INTRA:         -13.195
REMARK INTER:                 -12.328
REMARK INTRA:                  -0.868
REMARK UNBOUND:                -1.702
REMARK SMILES CCCCCCCCCCCCCC[C@@H](C)C(=O)[O-]
REMARK SMILES IDX 9 1 10 2 11 3 12 4 13 5 14 6 15 7 16 8 17 9 18 10 19 11 8 12
REMARK SMILES IDX 7 13 6 14 5 15 4 16 3 17 2 18 1 19
REMARK H PARENT
REMARK Flexibility Score: inf
ROOT
ATOM      1  C   UNL     1      -2.936   2.573 -17.547  1.00  0.00     0.000 C 
ENDROOT
BRANCH   1   2
ATOM      2  C   UNL     1      -2.359   1.276 -18.127  1.00  0.00     0.000 C 
BRANCH   2   3
ATOM      3  C   UNL     1      -3.480   0.304 -18.524  1.00  0.00     0.000 C 
BRANCH   3   4
ATOM      4  C   UNL     1      -3.139  -1.160 -18.200  1.00  0.00     0.000 C 
BRANCH   4   5
ATOM      5  C   UNL     1      -4.190  -2.144 -18.741  1.00  0.00     0.001 C 
BRANCH   5   6
ATOM      6  C   UNL     1      -5.189  -1.487 -19.711  1.00  0.00     0.009 C 
BRANCH   6   7
ATOM      7  C   UNL     1      -6.676  -1.601 -19.301  1.00  0.00     0.032 C 
ATOM      8  C   UNL     1      -7.429  -0.272 -19.450  1.00  0.00     0.014 C 
BRANCH   7   9
ATOM      9  C   UNL     1      -7.345  -2.657 -20.137  1.00  0.00     0.044 C 
ATOM     10  O   UNL     1      -7.442  -2.509 -21.385  1.00  0.00    -0.550 OA
ATOM     11  O   UNL     1      -7.875  -3.794 -19.540  1.00  0.00    -0.550 OA
ENDBRANCH   7   9
ENDBRANCH   6   7
ENDBRANCH   5   6
ENDBRANCH   4   5
ENDBRANCH   3   4
ENDBRANCH   2   3
ENDBRANCH   1   2
BRANCH   1  12
ATOM     12  C   UNL     1      -1.875   3.684 -17.522  1.00  0.00     0.000 C 
BRANCH  12  13
ATOM     13  C   UNL     1      -2.462   5.059 -17.164  1.00  0.00    -0.000 C 
BRANCH  13  14
ATOM     14  C   UNL     1      -3.738   5.383 -17.960  1.00  0.00    -0.000 C 
BRANCH  14  15
ATOM     15  C   UNL     1      -4.824   6.040 -17.092  1.00  0.00    -0.000 C 
BRANCH  15  16
ATOM     16  C   UNL     1      -4.456   6.062 -15.598  1.00  0.00    -0.000 C 
BRANCH  16  17
ATOM     17  C   UNL     1      -5.566   5.483 -14.708  1.00  0.00    -0.000 C 
BRANCH  17  18
ATOM     18  C   UNL     1      -6.493   6.568 -14.139  1.00  0.00    -0.003 C 
ATOM     19  C   UNL     1      -6.919   6.234 -12.712  1.00  0.00     0.004 C 
ENDBRANCH  17  18
ENDBRANCH  16  17
ENDBRANCH  15  16
ENDBRANCH  14  15
ENDBRANCH  13  14
ENDBRANCH  12  13
ENDBRANCH   1  12
TORSDOF 14
ENDMDL
MODEL 6
REMARK VINA RESULT:    -6.262      4.084      9.486
REMARK INTER + INTRA:         -13.088
REMARK INTER:                 -12.213
REMARK INTRA:                  -0.875
REMARK UNBOUND:                -1.702
REMARK SMILES CCCCCCCCCCCCCC[C@@H](C)C(=O)[O-]
REMARK SMILES IDX 9 1 10 2 11 3 12 4 13 5 14 6 15 7 16 8 17 9 18 10 19 11 8 12
REMARK SMILES IDX 7 13 6 14 5 15 4 16 3 17 2 18 1 19
REMARK H PARENT
REMARK Flexibility Score: inf
ROOT
ATOM      1  C   UNL     1      -4.572  -0.282 -18.031  1.00  0.00     0.000 C 
ENDROOT
BRANCH   1   2
ATOM      2  C   UNL     1      -5.367  -1.178 -18.989  1.00  0.00     0.000 C 
BRANCH   2   3
ATOM      3  C   UNL     1      -4.452  -1.787 -20.061  1.00  0.00     0.000 C 
BRANCH   3   4
ATOM      4  C   UNL     1      -5.233  -2.524 -21.161  1.00  0.00     0.000 C 
BRANCH   4   5
ATOM      5  C   UNL     1      -6.724  -2.686 -20.819  1.00  0.00     0.001 C 
BRANCH   5   6
ATOM      6  C   UNL     1      -7.240  -4.120 -21.040  1.00  0.00     0.009 C 
BRANCH   6   7
ATOM      7  C   UNL     1      -6.993  -5.095 -19.865  1.00  0.00     0.032 C 
ATOM      8  C   UNL     1      -6.766  -4.366 -18.534  1.00  0.00     0.014 C 
BRANCH   7   9
ATOM      9  C   UNL     1      -8.167  -6.028 -19.735  1.00  0.00     0.044 C 
ATOM     10  O   UNL     1      -8.019  -7.263 -19.935  1.00  0.00    -0.550 OA
ATOM     11  O   UNL     1      -9.424  -5.533 -19.411  1.00  0.00    -0.550 OA
ENDBRANCH   7   9
ENDBRANCH   6   7
ENDBRANCH   5   6
ENDBRANCH   4   5
ENDBRANCH   3   4
ENDBRANCH   2   3
ENDBRANCH   1   2
BRANCH   1  12
ATOM     12  C   UNL     1      -3.067  -0.355 -18.331  1.00  0.00     0.000 C 
BRANCH  12  13
ATOM     13  C   UNL     1      -2.228   0.512 -17.379  1.00  0.00    -0.000 C 
BRANCH  13  14
ATOM     14  C   UNL     1      -1.875   1.882 -17.983  1.00  0.00    -0.000 C 
BRANCH  14  15
ATOM     15  C   UNL     1      -2.688   3.029 -17.359  1.00  0.00    -0.000 C 
BRANCH  15  16
ATOM     16  C   UNL     1      -2.093   4.414 -17.668  1.00  0.00    -0.000 C 
BRANCH  16  17
ATOM     17  C   UNL     1      -3.173   5.488 -17.869  1.00  0.00    -0.000 C 
BRANCH  17  18
ATOM     18  C   UNL     1      -3.528   6.218 -16.565  1.00  0.00    -0.003 C 
ATOM     19  C   UNL     1      -4.899   5.787 -16.050  1.00  0.00     0.004 C 
ENDBRANCH  17  18
ENDBRANCH  16  17
ENDBRANCH  15  16
ENDBRANCH  14  15
ENDBRANCH  13  14
ENDBRANCH  12  13
ENDBRANCH   1  12
TORSDOF 14
ENDMDL
MODEL 7
REMARK VINA RESULT:    -6.177      4.038      6.654
REMARK INTER + INTRA:         -12.935
REMARK INTER:                 -11.955
REMARK INTRA:                  -0.980
REMARK UNBOUND:                -1.702
REMARK SMILES CCCCCCCCCCCCCC[C@@H](C)C(=O)[O-]
REMARK SMILES IDX 9 1 10 2 11 3 12 4 13 5 14 6 15 7 16 8 17 9 18 10 19 11 8 12
REMARK SMILES IDX 7 13 6 14 5 15 4 16 3 17 2 18 1 19
REMARK H PARENT
REMARK Flexibility Score: inf
ROOT
ATOM      1  C   UNL     1      -3.175   0.098 -17.697  1.00  0.00     0.000 C 
ENDROOT
BRANCH   1   2
ATOM      2  C   UNL     1      -2.123   1.020 -18.326  1.00  0.00     0.000 C 
BRANCH   2   3
ATOM      3  C   UNL     1      -1.972   2.317 -17.516  1.00  0.00     0.000 C 
BRANCH   3   4
ATOM      4  C   UNL     1      -3.216   3.216 -17.599  1.00  0.00     0.000 C 
BRANCH   4   5
ATOM      5  C   UNL     1      -2.900   4.691 -17.298  1.00  0.00     0.001 C 
BRANCH   5   6
ATOM      6  C   UNL     1      -4.045   5.644 -17.687  1.00  0.00     0.009 C 
BRANCH   6   7
ATOM      7  C   UNL     1      -4.703   6.395 -16.505  1.00  0.00     0.032 C 
ATOM      8  C   UNL     1      -5.119   5.453 -15.369  1.00  0.00     0.014 C 
BRANCH   7   9
ATOM      9  C   UNL     1      -3.749   7.432 -15.978  1.00  0.00     0.044 C 
ATOM     10  O   UNL     1      -3.220   7.286 -14.844  1.00  0.00    -0.550 OA
ATOM     11  O   UNL     1      -3.456   8.563 -16.730  1.00  0.00    -0.550 OA
ENDBRANCH   7   9
ENDBRANCH   6   7
ENDBRANCH   5   6
ENDBRANCH   4   5
ENDBRANCH   3   4
ENDBRANCH   2   3
ENDBRANCH   1   2
BRANCH   1  12
ATOM     12  C   UNL     1      -4.285  -0.238 -18.705  1.00  0.00     0.000 C 
BRANCH  12  13
ATOM     13  C   UNL     1      -4.251  -1.707 -19.159  1.00  0.00    -0.000 C 
BRANCH  13  14
ATOM     14  C   UNL     1      -4.829  -2.665 -18.104  1.00  0.00    -0.000 C 
BRANCH  14  15
ATOM     15  C   UNL     1      -5.357  -3.971 -18.720  1.00  0.00    -0.000 C 
BRANCH  15  16
ATOM     16  C   UNL     1      -6.860  -3.908 -19.043  1.00  0.00    -0.000 C 
BRANCH  16  17
ATOM     17  C   UNL     1      -7.168  -4.298 -20.498  1.00  0.00    -0.000 C 
BRANCH  17  18
ATOM     18  C   UNL     1      -6.909  -3.150 -21.484  1.00  0.00    -0.003 C 
ATOM     19  C   UNL     1      -7.411  -1.821 -20.923  1.00  0.00     0.004 C 
ENDBRANCH  17  18
ENDBRANCH  16  17
ENDBRANCH  15  16
ENDBRANCH  14  15
ENDBRANCH  13  14
ENDBRANCH  12  13
ENDBRANCH   1  12
TORSDOF 14
ENDMDL
MODEL 8
REMARK VINA RESULT:    -6.076      4.179      6.537
REMARK INTER + INTRA:         -12.750
REMARK INTER:                 -12.167
REMARK INTRA:                  -0.584
REMARK UNBOUND:                -1.702
REMARK SMILES CCCCCCCCCCCCCC[C@@H](C)C(=O)[O-]
REMARK SMILES IDX 9 1 10 2 11 3 12 4 13 5 14 6 15 7 16 8 17 9 18 10 19 11 8 12
REMARK SMILES IDX 7 13 6 14 5 15 4 16 3 17 2 18 1 19
REMARK H PARENT
REMARK Flexibility Score: inf
ROOT
ATOM      1  C   UNL     1      -3.367   0.276 -17.441  1.00  0.00     0.000 C 
ENDROOT
BRANCH   1   2
ATOM      2  C   UNL     1      -2.426   1.395 -17.907  1.00  0.00     0.000 C 
BRANCH   2   3
ATOM      3  C   UNL     1      -2.963   2.774 -17.495  1.00  0.00     0.000 C 
BRANCH   3   4
ATOM      4  C   UNL     1      -1.876   3.860 -17.498  1.00  0.00     0.000 C 
BRANCH   4   5
ATOM      5  C   UNL     1      -2.456   5.276 -17.653  1.00  0.00     0.001 C 
BRANCH   5   6
ATOM      6  C   UNL     1      -3.774   5.475 -16.882  1.00  0.00     0.009 C 
BRANCH   6   7
ATOM      7  C   UNL     1      -3.733   6.559 -15.779  1.00  0.00     0.032 C 
ATOM      8  C   UNL     1      -3.815   7.981 -16.350  1.00  0.00     0.014 C 
BRANCH   7   9
ATOM      9  C   UNL     1      -4.867   6.335 -14.816  1.00  0.00     0.044 C 
ATOM     10  O   UNL     1      -5.160   7.219 -13.968  1.00  0.00    -0.550 OA
ATOM     11  O   UNL     1      -5.588   5.148 -14.845  1.00  0.00    -0.550 OA
ENDBRANCH   7   9
ENDBRANCH   6   7
ENDBRANCH   5   6
ENDBRANCH   4   5
ENDBRANCH   3   4
ENDBRANCH   2   3
ENDBRANCH   1   2
BRANCH   1  12
ATOM     12  C   UNL     1      -4.062  -0.392 -18.637  1.00  0.00     0.000 C 
BRANCH  12  13
ATOM     13  C   UNL     1      -3.924  -1.923 -18.625  1.00  0.00    -0.000 C 
BRANCH  13  14
ATOM     14  C   UNL     1      -4.971  -2.617 -19.514  1.00  0.00    -0.000 C 
BRANCH  14  15
ATOM     15  C   UNL     1      -6.346  -1.932 -19.451  1.00  0.00    -0.000 C 
BRANCH  15  16
ATOM     16  C   UNL     1      -7.505  -2.901 -19.742  1.00  0.00    -0.000 C 
BRANCH  16  17
ATOM     17  C   UNL     1      -7.308  -4.273 -19.077  1.00  0.00    -0.000 C 
BRANCH  17  18
ATOM     18  C   UNL     1      -8.578  -5.135 -19.117  1.00  0.00    -0.003 C 
ATOM     19  C   UNL     1      -8.252  -6.574 -19.512  1.00  0.00     0.004 C 
ENDBRANCH  17  18
ENDBRANCH  16  17
ENDBRANCH  15  16
ENDBRANCH  14  15
ENDBRANCH  13  14
ENDBRANCH  12  13
ENDBRANCH   1  12
TORSDOF 14
ENDMDL
MODEL 9
REMARK VINA RESULT:    -6.027      4.878      7.857
REMARK INTER + INTRA:         -12.662
REMARK INTER:                 -11.845
REMARK INTRA:                  -0.817
REMARK UNBOUND:                -1.702
REMARK SMILES CCCCCCCCCCCCCC[C@@H](C)C(=O)[O-]
REMARK SMILES IDX 9 1 10 2 11 3 12 4 13 5 14 6 15 7 16 8 17 9 18 10 19 11 8 12
REMARK SMILES IDX 7 13 6 14 5 15 4 16 3 17 2 18 1 19
REMARK H PARENT
REMARK Flexibility Score: inf
ROOT
ATOM      1  C   UNL     1      -1.875   1.990 -17.867  1.00  0.00     0.000 C 
ENDROOT
BRANCH   1   2
ATOM      2  C   UNL     1      -2.976   3.001 -17.521  1.00  0.00     0.000 C 
BRANCH   2   3
ATOM      3  C   UNL     1      -2.431   4.437 -17.543  1.00  0.00     0.000 C 
BRANCH   3   4
ATOM      4  C   UNL     1      -3.526   5.483 -17.810  1.00  0.00     0.000 C 
BRANCH   4   5
ATOM      5  C   UNL     1      -3.841   6.337 -16.570  1.00  0.00     0.001 C 
BRANCH   5   6
ATOM      6  C   UNL     1      -4.870   5.679 -15.631  1.00  0.00     0.009 C 
BRANCH   6   7
ATOM      7  C   UNL     1      -5.593   6.649 -14.667  1.00  0.00     0.032 C 
ATOM      8  C   UNL     1      -6.929   6.088 -14.163  1.00  0.00     0.014 C 
BRANCH   7   9
ATOM      9  C   UNL     1      -4.698   6.949 -13.496  1.00  0.00     0.044 C 
ATOM     10  O   UNL     1      -4.031   8.018 -13.467  1.00  0.00    -0.550 OA
ATOM     11  O   UNL     1      -4.587   6.045 -12.446  1.00  0.00    -0.550 OA
ENDBRANCH   7   9
ENDBRANCH   6   7
ENDBRANCH   5   6
ENDBRANCH   4   5
ENDBRANCH   3   4
ENDBRANCH   2   3
ENDBRANCH   1   2
BRANCH   1  12
ATOM     12  C   UNL     1      -2.469   0.597 -18.127  1.00  0.00     0.000 C 
BRANCH  12  13
ATOM     13  C   UNL     1      -3.788   0.363 -17.372  1.00  0.00    -0.000 C 
BRANCH  13  14
ATOM     14  C   UNL     1      -4.699  -0.658 -18.076  1.00  0.00    -0.000 C 
BRANCH  14  15
ATOM     15  C   UNL     1      -4.062  -1.234 -19.352  1.00  0.00    -0.000 C 
BRANCH  15  16
ATOM     16  C   UNL     1      -4.690  -2.575 -19.773  1.00  0.00    -0.000 C 
BRANCH  16  17
ATOM     17  C   UNL     1      -5.206  -2.555 -21.220  1.00  0.00    -0.000 C 
BRANCH  17  18
ATOM     18  C   UNL     1      -6.691  -2.935 -21.321  1.00  0.00    -0.003 C 
ATOM     19  C   UNL     1      -7.422  -2.647 -20.012  1.00  0.00     0.004 C 
ENDBRANCH  17  18
ENDBRANCH  16  17
ENDBRANCH  15  16
ENDBRANCH  14  15
ENDBRANCH  13  14
ENDBRANCH  12  13
ENDBRANCH   1  12
TORSDOF 14
ENDMDL
