MODEL 1
REMARK VINA RESULT:    -2.480      0.000      0.000
REMARK INTER + INTRA:         -10.797
REMARK INTER:                  -5.670
REMARK INTRA:                  -5.127
REMARK UNBOUND:                -5.127
REMARK SMILES CCCCCCCCCCCCCCCCCCCCCCCC(=O)[O-]
REMARK SMILES IDX 13 1 14 2 15 3 16 4 17 5 18 6 19 7 20 8 21 9 22 10 23 11
REMARK SMILES IDX 24 12 25 13 26 14 12 15 11 16 10 17 9 18 8 19 7 20 6 21 5 22
REMARK SMILES IDX 4 23 3 24 2 25 1 26
REMARK H PARENT
REMARK Flexibility Score: inf
ROOT
ATOM      1  C   UNL     1       8.889 -17.530  22.451  1.00  0.00     0.000 C 
ENDROOT
BRANCH   1   2
ATOM      2  C   UNL     1       7.371 -17.723  22.284  1.00  0.00     0.000 C 
BRANCH   2   3
ATOM      3  C   UNL     1       6.956 -19.204  22.272  1.00  0.00     0.000 C 
BRANCH   3   4
ATOM      4  C   UNL     1       6.747 -19.748  20.849  1.00  0.00     0.000 C 
BRANCH   4   5
ATOM      5  C   UNL     1       7.862 -20.710  20.411  1.00  0.00     0.000 C 
BRANCH   5   6
ATOM      6  C   UNL     1       8.403 -20.335  19.024  1.00  0.00     0.000 C 
BRANCH   6   7
ATOM      7  C   UNL     1       7.758 -19.057  18.453  1.00  0.00     0.000 C 
BRANCH   7   8
ATOM      8  C   UNL     1       8.732 -17.886  18.234  1.00  0.00     0.000 C 
BRANCH   8   9
ATOM      9  C   UNL     1       8.015 -16.574  17.875  1.00  0.00     0.000 C 
BRANCH   9  10
ATOM     10  C   UNL     1       7.281 -15.967  19.082  1.00  0.00     0.006 C 
BRANCH  10  11
ATOM     11  C   UNL     1       7.094 -14.450  18.946  1.00  0.00     0.053 C 
BRANCH  11  12
ATOM     12  C   UNL     1       7.626 -13.742  20.151  1.00  0.00     0.041 C 
ATOM     13  O   UNL     1       8.385 -12.744  20.020  1.00  0.00    -0.550 OA
ATOM     14  O   UNL     1       7.300 -14.196  21.425  1.00  0.00    -0.550 OA
ENDBRANCH  11  12
ENDBRANCH  10  11
ENDBRANCH   9  10
ENDBRANCH   8   9
ENDBRANCH   7   8
ENDBRANCH   6   7
ENDBRANCH   5   6
ENDBRANCH   4   5
ENDBRANCH   3   4
ENDBRANCH   2   3
ENDBRANCH   1   2
BRANCH   1  15
ATOM     15  C   UNL     1       9.624 -18.685  23.160  1.00  0.00     0.000 C 
BRANCH  15  16
ATOM     16  C   UNL     1      10.768 -19.325  22.354  1.00  0.00     0.000 C 
BRANCH  16  17
ATOM     17  C   UNL     1      10.928 -18.712  20.956  1.00  0.00     0.000 C 
BRANCH  17  18
ATOM     18  C   UNL     1      12.380 -18.810  20.475  1.00  0.00    -0.000 C 
BRANCH  18  19
ATOM     19  C   UNL     1      13.353 -18.791  21.665  1.00  0.00    -0.000 C 
BRANCH  19  20
ATOM     20  C   UNL     1      14.139 -17.472  21.768  1.00  0.00    -0.000 C 
BRANCH  20  21
ATOM     21  C   UNL     1      13.850 -16.635  23.031  1.00  0.00    -0.000 C 
BRANCH  21  22
ATOM     22  C   UNL     1      12.437 -16.027  23.108  1.00  0.00    -0.000 C 
BRANCH  22  23
ATOM     23  C   UNL     1      12.249 -14.835  22.156  1.00  0.00    -0.000 C 
BRANCH  23  24
ATOM     24  C   UNL     1      10.915 -14.886  21.393  1.00  0.00    -0.000 C 
BRANCH  24  25
ATOM     25  C   UNL     1      11.072 -15.237  19.898  1.00  0.00    -0.003 C 
ATOM     26  C   UNL     1      12.512 -15.069  19.416  1.00  0.00     0.004 C 
ENDBRANCH  24  25
ENDBRANCH  23  24
ENDBRANCH  22  23
ENDBRANCH  21  22
ENDBRANCH  20  21
ENDBRANCH  19  20
ENDBRANCH  18  19
ENDBRANCH  17  18
ENDBRANCH  16  17
ENDBRANCH  15  16
ENDBRANCH   1  15
TORSDOF 22
ENDMDL
MODEL 2
REMARK VINA RESULT:    -2.383      1.541      2.317
REMARK INTER + INTRA:         -10.574
REMARK INTER:                  -5.994
REMARK INTRA:                  -4.580
REMARK UNBOUND:                -5.127
REMARK SMILES CCCCCCCCCCCCCCCCCCCCCCCC(=O)[O-]
REMARK SMILES IDX 13 1 14 2 15 3 16 4 17 5 18 6 19 7 20 8 21 9 22 10 23 11
REMARK SMILES IDX 24 12 25 13 26 14 12 15 11 16 10 17 9 18 8 19 7 20 6 21 5 22
REMARK SMILES IDX 4 23 3 24 2 25 1 26
REMARK H PARENT
REMARK Flexibility Score: inf
ROOT
ATOM      1  C   UNL     1       7.674 -19.031  22.514  1.00  0.00     0.000 C 
ENDROOT
BRANCH   1   2
ATOM      2  C   UNL     1       7.087 -19.670  21.242  1.00  0.00     0.000 C 
BRANCH   2   3
ATOM      3  C   UNL     1       6.942 -18.667  20.084  1.00  0.00     0.000 C 
BRANCH   3   4
ATOM      4  C   UNL     1       7.554 -19.186  18.773  1.00  0.00     0.000 C 
BRANCH   4   5
ATOM      5  C   UNL     1       8.859 -19.965  18.994  1.00  0.00     0.000 C 
BRANCH   5   6
ATOM      6  C   UNL     1      10.056 -19.227  18.376  1.00  0.00     0.000 C 
BRANCH   6   7
ATOM      7  C   UNL     1      11.142 -18.873  19.411  1.00  0.00     0.000 C 
BRANCH   7   8
ATOM      8  C   UNL     1      11.204 -17.384  19.795  1.00  0.00     0.000 C 
BRANCH   8   9
ATOM      9  C   UNL     1      10.278 -17.032  20.971  1.00  0.00     0.000 C 
BRANCH   9  10
ATOM     10  C   UNL     1       9.425 -15.786  20.683  1.00  0.00     0.006 C 
BRANCH  10  11
ATOM     11  C   UNL     1       8.887 -15.769  19.247  1.00  0.00     0.053 C 
BRANCH  11  12
ATOM     12  C   UNL     1       7.653 -14.928  19.155  1.00  0.00     0.041 C 
ATOM     13  O   UNL     1       7.525 -13.903  19.878  1.00  0.00    -0.550 OA
ATOM     14  O   UNL     1       6.631 -15.286  18.282  1.00  0.00    -0.550 OA
ENDBRANCH  11  12
ENDBRANCH  10  11
ENDBRANCH   9  10
ENDBRANCH   8   9
ENDBRANCH   7   8
ENDBRANCH   6   7
ENDBRANCH   5   6
ENDBRANCH   4   5
ENDBRANCH   3   4
ENDBRANCH   2   3
ENDBRANCH   1   2
BRANCH   1  15
ATOM     15  C   UNL     1       8.657 -19.921  23.301  1.00  0.00     0.000 C 
BRANCH  15  16
ATOM     16  C   UNL     1       9.988 -20.215  22.585  1.00  0.00     0.000 C 
BRANCH  16  17
ATOM     17  C   UNL     1      11.211 -19.994  23.485  1.00  0.00     0.000 C 
BRANCH  17  18
ATOM     18  C   UNL     1      12.420 -20.785  22.973  1.00  0.00    -0.000 C 
BRANCH  18  19
ATOM     19  C   UNL     1      13.695 -19.930  23.022  1.00  0.00    -0.000 C 
BRANCH  19  20
ATOM     20  C   UNL     1      13.757 -18.890  21.889  1.00  0.00    -0.000 C 
BRANCH  20  21
ATOM     21  C   UNL     1      14.177 -17.471  22.327  1.00  0.00    -0.000 C 
BRANCH  21  22
ATOM     22  C   UNL     1      13.108 -16.677  23.100  1.00  0.00    -0.000 C 
BRANCH  22  23
ATOM     23  C   UNL     1      13.060 -15.194  22.698  1.00  0.00    -0.000 C 
BRANCH  23  24
ATOM     24  C   UNL     1      13.581 -14.945  21.273  1.00  0.00    -0.000 C 
BRANCH  24  25
ATOM     25  C   UNL     1      13.215 -13.551  20.718  1.00  0.00    -0.003 C 
ATOM     26  C   UNL     1      12.305 -13.640  19.494  1.00  0.00     0.004 C 
ENDBRANCH  24  25
ENDBRANCH  23  24
ENDBRANCH  22  23
ENDBRANCH  21  22
ENDBRANCH  20  21
ENDBRANCH  19  20
ENDBRANCH  18  19
ENDBRANCH  17  18
ENDBRANCH  16  17
ENDBRANCH  15  16
ENDBRANCH   1  15
TORSDOF 22
ENDMDL
MODEL 3
REMARK VINA RESULT:    -2.355      1.805      2.026
REMARK INTER + INTRA:         -10.510
REMARK INTER:                  -5.708
REMARK INTRA:                  -4.801
REMARK UNBOUND:                -5.127
REMARK SMILES CCCCCCCCCCCCCCCCCCCCCCCC(=O)[O-]
REMARK SMILES IDX 13 1 14 2 15 3 16 4 17 5 18 6 19 7 20 8 21 9 22 10 23 11
REMARK SMILES IDX 24 12 25 13 26 14 12 15 11 16 10 17 9 18 8 19 7 20 6 21 5 22
REMARK SMILES IDX 4 23 3 24 2 25 1 26
REMARK H PARENT
REMARK Flexibility Score: inf
ROOT
ATOM      1  C   UNL     1       8.861 -17.658  22.430  1.00  0.00     0.000 C 
ENDROOT
BRANCH   1   2
ATOM      2  C   UNL     1       7.364 -17.840  22.121  1.00  0.00     0.000 C 
BRANCH   2   3
ATOM      3  C   UNL     1       6.939 -19.318  22.078  1.00  0.00     0.000 C 
BRANCH   3   4
ATOM      4  C   UNL     1       6.775 -19.845  20.643  1.00  0.00     0.000 C 
BRANCH   4   5
ATOM      5  C   UNL     1       7.973 -20.687  20.180  1.00  0.00     0.000 C 
BRANCH   5   6
ATOM      6  C   UNL     1       8.478 -20.223  18.806  1.00  0.00     0.000 C 
BRANCH   6   7
ATOM      7  C   UNL     1       7.796 -18.929  18.322  1.00  0.00     0.000 C 
BRANCH   7   8
ATOM      8  C   UNL     1       8.664 -17.662  18.435  1.00  0.00     0.000 C 
BRANCH   8   9
ATOM      9  C   UNL     1       7.901 -16.381  18.057  1.00  0.00     0.000 C 
BRANCH   9  10
ATOM     10  C   UNL     1       6.649 -16.176  18.926  1.00  0.00     0.006 C 
BRANCH  10  11
ATOM     11  C   UNL     1       5.388 -15.947  18.083  1.00  0.00     0.053 C 
BRANCH  11  12
ATOM     12  C   UNL     1       4.269 -16.819  18.559  1.00  0.00     0.041 C 
ATOM     13  O   UNL     1       4.410 -18.071  18.598  1.00  0.00    -0.550 OA
ATOM     14  O   UNL     1       3.059 -16.250  18.942  1.00  0.00    -0.550 OA
ENDBRANCH  11  12
ENDBRANCH  10  11
ENDBRANCH   9  10
ENDBRANCH   8   9
ENDBRANCH   7   8
ENDBRANCH   6   7
ENDBRANCH   5   6
ENDBRANCH   4   5
ENDBRANCH   3   4
ENDBRANCH   2   3
ENDBRANCH   1   2
BRANCH   1  15
ATOM     15  C   UNL     1       9.548 -18.871  23.089  1.00  0.00     0.000 C 
BRANCH  15  16
ATOM     16  C   UNL     1      10.777 -19.415  22.338  1.00  0.00     0.000 C 
BRANCH  16  17
ATOM     17  C   UNL     1      11.010 -18.715  20.992  1.00  0.00     0.000 C 
BRANCH  17  18
ATOM     18  C   UNL     1      12.476 -18.833  20.559  1.00  0.00    -0.000 C 
BRANCH  18  19
ATOM     19  C   UNL     1      13.420 -18.476  21.717  1.00  0.00    -0.000 C 
BRANCH  19  20
ATOM     20  C   UNL     1      13.934 -17.027  21.640  1.00  0.00    -0.000 C 
BRANCH  20  21
ATOM     21  C   UNL     1      13.583 -16.144  22.856  1.00  0.00    -0.000 C 
BRANCH  21  22
ATOM     22  C   UNL     1      12.089 -15.809  23.016  1.00  0.00    -0.000 C 
BRANCH  22  23
ATOM     23  C   UNL     1      11.650 -14.614  22.155  1.00  0.00    -0.000 C 
BRANCH  23  24
ATOM     24  C   UNL     1      10.599 -14.994  21.098  1.00  0.00    -0.000 C 
BRANCH  24  25
ATOM     25  C   UNL     1      11.201 -15.283  19.706  1.00  0.00    -0.003 C 
ATOM     26  C   UNL     1      12.445 -14.441  19.431  1.00  0.00     0.004 C 
ENDBRANCH  24  25
ENDBRANCH  23  24
ENDBRANCH  22  23
ENDBRANCH  21  22
ENDBRANCH  20  21
ENDBRANCH  19  20
ENDBRANCH  18  19
ENDBRANCH  17  18
ENDBRANCH  16  17
ENDBRANCH  15  16
ENDBRANCH   1  15
TORSDOF 22
ENDMDL
MODEL 4
REMARK VINA RESULT:    -2.336      2.486      3.452
REMARK INTER + INTRA:         -10.466
REMARK INTER:                  -6.167
REMARK INTRA:                  -4.299
REMARK UNBOUND:                -5.127
REMARK SMILES CCCCCCCCCCCCCCCCCCCCCCCC(=O)[O-]
REMARK SMILES IDX 13 1 14 2 15 3 16 4 17 5 18 6 19 7 20 8 21 9 22 10 23 11
REMARK SMILES IDX 24 12 25 13 26 14 12 15 11 16 10 17 9 18 8 19 7 20 6 21 5 22
REMARK SMILES IDX 4 23 3 24 2 25 1 26
REMARK H PARENT
REMARK Flexibility Score: inf
ROOT
ATOM      1  C   UNL     1       9.612 -16.661  21.354  1.00  0.00     0.000 C 
ENDROOT
BRANCH   1   2
ATOM      2  C   UNL     1      10.112 -16.805  19.904  1.00  0.00     0.000 C 
BRANCH   2   3
ATOM      3  C   UNL     1       9.076 -16.339  18.867  1.00  0.00     0.000 C 
BRANCH   3   4
ATOM      4  C   UNL     1       8.637 -17.468  17.921  1.00  0.00     0.000 C 
BRANCH   4   5
ATOM      5  C   UNL     1       9.397 -18.780  18.169  1.00  0.00     0.000 C 
BRANCH   5   6
ATOM      6  C   UNL     1       8.454 -19.876  18.688  1.00  0.00     0.000 C 
BRANCH   6   7
ATOM      7  C   UNL     1       7.073 -19.333  19.102  1.00  0.00     0.000 C 
BRANCH   7   8
ATOM      8  C   UNL     1       6.824 -19.294  20.621  1.00  0.00     0.000 C 
BRANCH   8   9
ATOM      9  C   UNL     1       6.096 -18.017  21.073  1.00  0.00     0.000 C 
BRANCH   9  10
ATOM     10  C   UNL     1       5.550 -17.211  19.883  1.00  0.00     0.006 C 
BRANCH  10  11
ATOM     11  C   UNL     1       4.024 -17.062  19.934  1.00  0.00     0.053 C 
BRANCH  11  12
ATOM     12  C   UNL     1       3.374 -17.921  18.895  1.00  0.00     0.041 C 
ATOM     13  O   UNL     1       3.512 -19.174  18.928  1.00  0.00    -0.550 OA
ATOM     14  O   UNL     1       2.632 -17.336  17.875  1.00  0.00    -0.550 OA
ENDBRANCH  11  12
ENDBRANCH  10  11
ENDBRANCH   9  10
ENDBRANCH   8   9
ENDBRANCH   7   8
ENDBRANCH   6   7
ENDBRANCH   5   6
ENDBRANCH   4   5
ENDBRANCH   3   4
ENDBRANCH   2   3
ENDBRANCH   1   2
BRANCH   1  15
ATOM     15  C   UNL     1       9.861 -17.884  22.259  1.00  0.00     0.000 C 
BRANCH  15  16
ATOM     16  C   UNL     1      10.700 -19.008  21.623  1.00  0.00     0.000 C 
BRANCH  16  17
ATOM     17  C   UNL     1      11.272 -19.984  22.660  1.00  0.00     0.000 C 
BRANCH  17  18
ATOM     18  C   UNL     1      12.788 -20.138  22.491  1.00  0.00    -0.000 C 
BRANCH  18  19
ATOM     19  C   UNL     1      13.380 -18.935  21.741  1.00  0.00    -0.000 C 
BRANCH  19  20
ATOM     20  C   UNL     1      14.276 -18.059  22.636  1.00  0.00    -0.000 C 
BRANCH  20  21
ATOM     21  C   UNL     1      13.946 -16.552  22.617  1.00  0.00    -0.000 C 
BRANCH  21  22
ATOM     22  C   UNL     1      13.674 -15.956  21.224  1.00  0.00    -0.000 C 
BRANCH  22  23
ATOM     23  C   UNL     1      12.786 -14.703  21.275  1.00  0.00    -0.000 C 
BRANCH  23  24
ATOM     24  C   UNL     1      12.535 -14.092  19.886  1.00  0.00    -0.000 C 
BRANCH  24  25
ATOM     25  C   UNL     1      11.465 -12.979  19.886  1.00  0.00    -0.003 C 
ATOM     26  C   UNL     1      10.582 -13.030  21.132  1.00  0.00     0.004 C 
ENDBRANCH  24  25
ENDBRANCH  23  24
ENDBRANCH  22  23
ENDBRANCH  21  22
ENDBRANCH  20  21
ENDBRANCH  19  20
ENDBRANCH  18  19
ENDBRANCH  17  18
ENDBRANCH  16  17
ENDBRANCH  15  16
ENDBRANCH   1  15
TORSDOF 22
ENDMDL
MODEL 5
REMARK VINA RESULT:    -2.319      2.333      5.759
REMARK INTER + INTRA:         -10.428
REMARK INTER:                  -6.034
REMARK INTRA:                  -4.394
REMARK UNBOUND:                -5.127
REMARK SMILES CCCCCCCCCCCCCCCCCCCCCCCC(=O)[O-]
REMARK SMILES IDX 13 1 14 2 15 3 16 4 17 5 18 6 19 7 20 8 21 9 22 10 23 11
REMARK SMILES IDX 24 12 25 13 26 14 12 15 11 16 10 17 9 18 8 19 7 20 6 21 5 22
REMARK SMILES IDX 4 23 3 24 2 25 1 26
REMARK H PARENT
REMARK Flexibility Score: inf
ROOT
ATOM      1  C   UNL     1       6.507 -18.192  20.641  1.00  0.00     0.000 C 
ENDROOT
BRANCH   1   2
ATOM      2  C   UNL     1       7.762 -19.070  20.801  1.00  0.00     0.000 C 
BRANCH   2   3
ATOM      3  C   UNL     1       7.995 -20.002  19.599  1.00  0.00     0.000 C 
BRANCH   3   4
ATOM      4  C   UNL     1       8.010 -19.247  18.260  1.00  0.00     0.000 C 
BRANCH   4   5
ATOM      5  C   UNL     1       9.375 -18.614  17.951  1.00  0.00     0.000 C 
BRANCH   5   6
ATOM      6  C   UNL     1      10.521 -19.585  18.268  1.00  0.00     0.000 C 
BRANCH   6   7
ATOM      7  C   UNL     1      11.695 -18.910  19.000  1.00  0.00     0.000 C 
BRANCH   7   8
ATOM      8  C   UNL     1      11.559 -18.865  20.533  1.00  0.00     0.000 C 
BRANCH   8   9
ATOM      9  C   UNL     1      11.143 -17.479  21.054  1.00  0.00     0.000 C 
BRANCH   9  10
ATOM     10  C   UNL     1      11.853 -16.341  20.304  1.00  0.00     0.006 C 
BRANCH  10  11
ATOM     11  C   UNL     1      12.335 -15.234  21.249  1.00  0.00     0.053 C 
BRANCH  11  12
ATOM     12  C   UNL     1      12.890 -14.081  20.474  1.00  0.00     0.041 C 
ATOM     13  O   UNL     1      12.375 -13.748  19.372  1.00  0.00    -0.550 OA
ATOM     14  O   UNL     1      13.992 -13.384  20.958  1.00  0.00    -0.550 OA
ENDBRANCH  11  12
ENDBRANCH  10  11
ENDBRANCH   9  10
ENDBRANCH   8   9
ENDBRANCH   7   8
ENDBRANCH   6   7
ENDBRANCH   5   6
ENDBRANCH   4   5
ENDBRANCH   3   4
ENDBRANCH   2   3
ENDBRANCH   1   2
BRANCH   1  15
ATOM     15  C   UNL     1       5.166 -18.910  20.900  1.00  0.00     0.000 C 
BRANCH  15  16
ATOM     16  C   UNL     1       4.169 -18.875  19.728  1.00  0.00     0.000 C 
BRANCH  16  17
ATOM     17  C   UNL     1       4.574 -17.882  18.630  1.00  0.00     0.000 C 
BRANCH  17  18
ATOM     18  C   UNL     1       3.439 -16.894  18.338  1.00  0.00    -0.000 C 
BRANCH  18  19
ATOM     19  C   UNL     1       3.995 -15.491  18.051  1.00  0.00    -0.000 C 
BRANCH  19  20
ATOM     20  C   UNL     1       4.943 -14.989  19.155  1.00  0.00    -0.000 C 
BRANCH  20  21
ATOM     21  C   UNL     1       6.285 -14.416  18.654  1.00  0.00    -0.000 C 
BRANCH  21  22
ATOM     22  C   UNL     1       7.385 -15.458  18.381  1.00  0.00    -0.000 C 
BRANCH  22  23
ATOM     23  C   UNL     1       8.553 -15.367  19.375  1.00  0.00    -0.000 C 
BRANCH  23  24
ATOM     24  C   UNL     1       8.603 -14.020  20.116  1.00  0.00    -0.000 C 
BRANCH  24  25
ATOM     25  C   UNL     1       8.881 -14.158  21.628  1.00  0.00    -0.003 C 
ATOM     26  C   UNL     1       8.059 -15.277  22.265  1.00  0.00     0.004 C 
ENDBRANCH  24  25
ENDBRANCH  23  24
ENDBRANCH  22  23
ENDBRANCH  21  22
ENDBRANCH  20  21
ENDBRANCH  19  20
ENDBRANCH  18  19
ENDBRANCH  17  18
ENDBRANCH  16  17
ENDBRANCH  15  16
ENDBRANCH   1  15
TORSDOF 22
ENDMDL
MODEL 6
REMARK VINA RESULT:    -2.270      2.494      5.988
REMARK INTER + INTRA:         -10.316
REMARK INTER:                  -5.988
REMARK INTRA:                  -4.327
REMARK UNBOUND:                -5.127
REMARK SMILES CCCCCCCCCCCCCCCCCCCCCCCC(=O)[O-]
REMARK SMILES IDX 13 1 14 2 15 3 16 4 17 5 18 6 19 7 20 8 21 9 22 10 23 11
REMARK SMILES IDX 24 12 25 13 26 14 12 15 11 16 10 17 9 18 8 19 7 20 6 21 5 22
REMARK SMILES IDX 4 23 3 24 2 25 1 26
REMARK H PARENT
REMARK Flexibility Score: inf
ROOT
ATOM      1  C   UNL     1      10.344 -16.453  22.920  1.00  0.00     0.000 C 
ENDROOT
BRANCH   1   2
ATOM      2  C   UNL     1       9.924 -15.751  21.615  1.00  0.00     0.000 C 
BRANCH   2   3
ATOM      3  C   UNL     1      10.920 -14.665  21.175  1.00  0.00     0.000 C 
BRANCH   3   4
ATOM      4  C   UNL     1      11.470 -14.906  19.760  1.00  0.00     0.000 C 
BRANCH   4   5
ATOM      5  C   UNL     1      12.889 -15.496  19.767  1.00  0.00     0.000 C 
BRANCH   5   6
ATOM      6  C   UNL     1      13.518 -15.410  21.165  1.00  0.00     0.000 C 
BRANCH   6   7
ATOM      7  C   UNL     1      14.483 -14.219  21.316  1.00  0.00     0.000 C 
BRANCH   7   8
ATOM      8  C   UNL     1      14.213 -13.321  22.538  1.00  0.00     0.000 C 
BRANCH   8   9
ATOM      9  C   UNL     1      13.367 -12.085  22.194  1.00  0.00     0.000 C 
BRANCH   9  10
ATOM     10  C   UNL     1      13.745 -11.486  20.829  1.00  0.00     0.006 C 
BRANCH  10  11
ATOM     11  C   UNL     1      12.525 -11.299  19.918  1.00  0.00     0.053 C 
BRANCH  11  12
ATOM     12  C   UNL     1      12.213  -9.846  19.745  1.00  0.00     0.041 C 
ATOM     13  O   UNL     1      12.592  -9.233  18.710  1.00  0.00    -0.550 OA
ATOM     14  O   UNL     1      11.521  -9.160  20.737  1.00  0.00    -0.550 OA
ENDBRANCH  11  12
ENDBRANCH  10  11
ENDBRANCH   9  10
ENDBRANCH   8   9
ENDBRANCH   7   8
ENDBRANCH   6   7
ENDBRANCH   5   6
ENDBRANCH   4   5
ENDBRANCH   3   4
ENDBRANCH   2   3
ENDBRANCH   1   2
BRANCH   1  15
ATOM     15  C   UNL     1      11.144 -17.758  22.735  1.00  0.00     0.000 C 
BRANCH  15  16
ATOM     16  C   UNL     1      10.728 -18.615  21.526  1.00  0.00     0.000 C 
BRANCH  16  17
ATOM     17  C   UNL     1      11.897 -18.919  20.580  1.00  0.00     0.000 C 
BRANCH  17  18
ATOM     18  C   UNL     1      11.415 -19.028  19.128  1.00  0.00    -0.000 C 
BRANCH  18  19
ATOM     19  C   UNL     1      10.115 -18.236  18.922  1.00  0.00    -0.000 C 
BRANCH  19  20
ATOM     20  C   UNL     1       9.030 -19.053  18.198  1.00  0.00    -0.000 C 
BRANCH  20  21
ATOM     21  C   UNL     1       8.363 -20.153  19.049  1.00  0.00    -0.000 C 
BRANCH  21  22
ATOM     22  C   UNL     1       7.388 -19.650  20.129  1.00  0.00    -0.000 C 
BRANCH  22  23
ATOM     23  C   UNL     1       6.549 -18.449  19.661  1.00  0.00    -0.000 C 
BRANCH  23  24
ATOM     24  C   UNL     1       6.792 -17.187  20.505  1.00  0.00    -0.000 C 
BRANCH  24  25
ATOM     25  C   UNL     1       6.539 -15.873  19.736  1.00  0.00    -0.003 C 
ATOM     26  C   UNL     1       7.595 -15.624  18.659  1.00  0.00     0.004 C 
ENDBRANCH  24  25
ENDBRANCH  23  24
ENDBRANCH  22  23
ENDBRANCH  21  22
ENDBRANCH  20  21
ENDBRANCH  19  20
ENDBRANCH  18  19
ENDBRANCH  17  18
ENDBRANCH  16  17
ENDBRANCH  15  16
ENDBRANCH   1  15
TORSDOF 22
ENDMDL
MODEL 7
REMARK VINA RESULT:    -2.258      2.363      6.536
REMARK INTER + INTRA:         -10.290
REMARK INTER:                  -6.004
REMARK INTRA:                  -4.285
REMARK UNBOUND:                -5.127
REMARK SMILES CCCCCCCCCCCCCCCCCCCCCCCC(=O)[O-]
REMARK SMILES IDX 13 1 14 2 15 3 16 4 17 5 18 6 19 7 20 8 21 9 22 10 23 11
REMARK SMILES IDX 24 12 25 13 26 14 12 15 11 16 10 17 9 18 8 19 7 20 6 21 5 22
REMARK SMILES IDX 4 23 3 24 2 25 1 26
REMARK H PARENT
REMARK Flexibility Score: inf
ROOT
ATOM      1  C   UNL     1       9.130 -15.015  21.274  1.00  0.00     0.000 C 
ENDROOT
BRANCH   1   2
ATOM      2  C   UNL     1       9.454 -13.924  20.237  1.00  0.00     0.000 C 
BRANCH   2   3
ATOM      3  C   UNL     1      10.644 -13.041  20.651  1.00  0.00     0.000 C 
BRANCH   3   4
ATOM      4  C   UNL     1      11.859 -13.213  19.725  1.00  0.00     0.000 C 
BRANCH   4   5
ATOM      5  C   UNL     1      12.823 -14.308  20.206  1.00  0.00     0.000 C 
BRANCH   5   6
ATOM      6  C   UNL     1      12.841 -14.394  21.739  1.00  0.00     0.000 C 
BRANCH   6   7
ATOM      7  C   UNL     1      12.749 -15.841  22.261  1.00  0.00     0.000 C 
BRANCH   7   8
ATOM      8  C   UNL     1      13.029 -16.926  21.205  1.00  0.00     0.000 C 
BRANCH   8   9
ATOM      9  C   UNL     1      14.034 -17.984  21.689  1.00  0.00     0.000 C 
BRANCH   9  10
ATOM     10  C   UNL     1      13.335 -19.257  22.193  1.00  0.00     0.006 C 
BRANCH  10  11
ATOM     11  C   UNL     1      11.914 -19.401  21.633  1.00  0.00     0.053 C 
BRANCH  11  12
ATOM     12  C   UNL     1      10.922 -19.555  22.742  1.00  0.00     0.041 C 
ATOM     13  O   UNL     1      10.556 -18.552  23.412  1.00  0.00    -0.550 OA
ATOM     14  O   UNL     1      10.414 -20.813  23.050  1.00  0.00    -0.550 OA
ENDBRANCH  11  12
ENDBRANCH  10  11
ENDBRANCH   9  10
ENDBRANCH   8   9
ENDBRANCH   7   8
ENDBRANCH   6   7
ENDBRANCH   5   6
ENDBRANCH   4   5
ENDBRANCH   3   4
ENDBRANCH   2   3
ENDBRANCH   1   2
BRANCH   1  15
ATOM     15  C   UNL     1       9.287 -16.464  20.773  1.00  0.00     0.000 C 
BRANCH  15  16
ATOM     16  C   UNL     1       9.857 -16.606  19.350  1.00  0.00     0.000 C 
BRANCH  16  17
ATOM     17  C   UNL     1       9.099 -17.639  18.505  1.00  0.00     0.000 C 
BRANCH  17  18
ATOM     18  C   UNL     1       9.538 -19.065  18.856  1.00  0.00    -0.000 C 
BRANCH  18  19
ATOM     19  C   UNL     1       8.335 -20.020  18.870  1.00  0.00    -0.000 C 
BRANCH  19  20
ATOM     20  C   UNL     1       8.042 -20.588  20.271  1.00  0.00    -0.000 C 
BRANCH  20  21
ATOM     21  C   UNL     1       7.440 -19.579  21.272  1.00  0.00    -0.000 C 
BRANCH  21  22
ATOM     22  C   UNL     1       5.949 -19.257  21.065  1.00  0.00    -0.000 C 
BRANCH  22  23
ATOM     23  C   UNL     1       5.720 -17.869  20.444  1.00  0.00    -0.000 C 
BRANCH  23  24
ATOM     24  C   UNL     1       5.098 -17.939  19.039  1.00  0.00    -0.000 C 
BRANCH  24  25
ATOM     25  C   UNL     1       5.870 -17.123  17.982  1.00  0.00    -0.003 C 
ATOM     26  C   UNL     1       5.772 -15.618  18.231  1.00  0.00     0.004 C 
ENDBRANCH  24  25
ENDBRANCH  23  24
ENDBRANCH  22  23
ENDBRANCH  21  22
ENDBRANCH  20  21
ENDBRANCH  19  20
ENDBRANCH  18  19
ENDBRANCH  17  18
ENDBRANCH  16  17
ENDBRANCH  15  16
ENDBRANCH   1  15
TORSDOF 22
ENDMDL
MODEL 8
REMARK VINA RESULT:    -2.255      2.608      4.839
REMARK INTER + INTRA:         -10.281
REMARK INTER:                  -5.163
REMARK INTRA:                  -5.118
REMARK UNBOUND:                -5.127
REMARK SMILES CCCCCCCCCCCCCCCCCCCCCCCC(=O)[O-]
REMARK SMILES IDX 13 1 14 2 15 3 16 4 17 5 18 6 19 7 20 8 21 9 22 10 23 11
REMARK SMILES IDX 24 12 25 13 26 14 12 15 11 16 10 17 9 18 8 19 7 20 6 21 5 22
REMARK SMILES IDX 4 23 3 24 2 25 1 26
REMARK H PARENT
REMARK Flexibility Score: inf
ROOT
ATOM      1  C   UNL     1       7.393 -19.486  22.595  1.00  0.00     0.000 C 
ENDROOT
BRANCH   1   2
ATOM      2  C   UNL     1       7.041 -19.775  21.124  1.00  0.00     0.000 C 
BRANCH   2   3
ATOM      3  C   UNL     1       7.986 -20.801  20.475  1.00  0.00     0.000 C 
BRANCH   3   4
ATOM      4  C   UNL     1       8.334 -20.447  19.020  1.00  0.00     0.000 C 
BRANCH   4   5
ATOM      5  C   UNL     1       8.114 -18.961  18.701  1.00  0.00     0.000 C 
BRANCH   5   6
ATOM      6  C   UNL     1       9.446 -18.197  18.678  1.00  0.00     0.000 C 
BRANCH   6   7
ATOM      7  C   UNL     1      10.670 -19.127  18.577  1.00  0.00     0.000 C 
BRANCH   7   8
ATOM      8  C   UNL     1      11.733 -18.916  19.670  1.00  0.00     0.000 C 
BRANCH   8   9
ATOM      9  C   UNL     1      11.122 -18.749  21.071  1.00  0.00     0.000 C 
BRANCH   9  10
ATOM     10  C   UNL     1      11.839 -19.613  22.122  1.00  0.00     0.006 C 
BRANCH  10  11
ATOM     11  C   UNL     1      10.855 -20.405  22.993  1.00  0.00     0.053 C 
BRANCH  11  12
ATOM     12  C   UNL     1      10.981 -20.006  24.429  1.00  0.00     0.041 C 
ATOM     13  O   UNL     1      12.097 -19.646  24.894  1.00  0.00    -0.550 OA
ATOM     14  O   UNL     1       9.869 -20.050  25.263  1.00  0.00    -0.550 OA
ENDBRANCH  11  12
ENDBRANCH  10  11
ENDBRANCH   9  10
ENDBRANCH   8   9
ENDBRANCH   7   8
ENDBRANCH   6   7
ENDBRANCH   5   6
ENDBRANCH   4   5
ENDBRANCH   3   4
ENDBRANCH   2   3
ENDBRANCH   1   2
BRANCH   1  15
ATOM     15  C   UNL     1       7.718 -18.013  22.915  1.00  0.00     0.000 C 
BRANCH  15  16
ATOM     16  C   UNL     1       7.520 -17.031  21.746  1.00  0.00     0.000 C 
BRANCH  16  17
ATOM     17  C   UNL     1       8.687 -16.046  21.591  1.00  0.00     0.000 C 
BRANCH  17  18
ATOM     18  C   UNL     1       8.262 -14.814  20.783  1.00  0.00    -0.000 C 
BRANCH  18  19
ATOM     19  C   UNL     1       9.468 -14.183  20.072  1.00  0.00    -0.000 C 
BRANCH  19  20
ATOM     20  C   UNL     1      10.814 -14.638  20.666  1.00  0.00    -0.000 C 
BRANCH  20  21
ATOM     21  C   UNL     1      11.795 -15.267  19.655  1.00  0.00    -0.000 C 
BRANCH  21  22
ATOM     22  C   UNL     1      13.197 -15.583  20.208  1.00  0.00    -0.000 C 
BRANCH  22  23
ATOM     23  C   UNL     1      13.372 -15.149  21.672  1.00  0.00    -0.000 C 
BRANCH  23  24
ATOM     24  C   UNL     1      13.532 -16.340  22.632  1.00  0.00    -0.000 C 
BRANCH  24  25
ATOM     25  C   UNL     1      12.854 -16.123  24.002  1.00  0.00    -0.003 C 
ATOM     26  C   UNL     1      11.344 -16.346  23.938  1.00  0.00     0.004 C 
ENDBRANCH  24  25
ENDBRANCH  23  24
ENDBRANCH  22  23
ENDBRANCH  21  22
ENDBRANCH  20  21
ENDBRANCH  19  20
ENDBRANCH  18  19
ENDBRANCH  17  18
ENDBRANCH  16  17
ENDBRANCH  15  16
ENDBRANCH   1  15
TORSDOF 22
ENDMDL
MODEL 9
REMARK VINA RESULT:    -2.246      2.088      5.606
REMARK INTER + INTRA:         -10.261
REMARK INTER:                  -5.250
REMARK INTRA:                  -5.011
REMARK UNBOUND:                -5.127
REMARK SMILES CCCCCCCCCCCCCCCCCCCCCCCC(=O)[O-]
REMARK SMILES IDX 13 1 14 2 15 3 16 4 17 5 18 6 19 7 20 8 21 9 22 10 23 11
REMARK SMILES IDX 24 12 25 13 26 14 12 15 11 16 10 17 9 18 8 19 7 20 6 21 5 22
REMARK SMILES IDX 4 23 3 24 2 25 1 26
REMARK H PARENT
REMARK Flexibility Score: inf
ROOT
ATOM      1  C   UNL     1       8.660 -15.702  23.061  1.00  0.00     0.000 C 
ENDROOT
BRANCH   1   2
ATOM      2  C   UNL     1       9.596 -16.917  22.924  1.00  0.00     0.000 C 
BRANCH   2   3
ATOM      3  C   UNL     1      10.557 -17.066  24.116  1.00  0.00     0.000 C 
BRANCH   3   4
ATOM      4  C   UNL     1      11.524 -18.249  23.951  1.00  0.00     0.000 C 
BRANCH   4   5
ATOM      5  C   UNL     1      10.992 -19.321  22.987  1.00  0.00     0.000 C 
BRANCH   5   6
ATOM      6  C   UNL     1      12.124 -19.903  22.127  1.00  0.00     0.000 C 
BRANCH   6   7
ATOM      7  C   UNL     1      12.783 -18.853  21.212  1.00  0.00     0.000 C 
BRANCH   7   8
ATOM      8  C   UNL     1      11.836 -18.209  20.183  1.00  0.00     0.000 C 
BRANCH   8   9
ATOM      9  C   UNL     1      12.086 -16.702  20.005  1.00  0.00     0.000 C 
BRANCH   9  10
ATOM     10  C   UNL     1      12.840 -16.095  21.199  1.00  0.00     0.006 C 
BRANCH  10  11
ATOM     11  C   UNL     1      12.318 -14.700  21.567  1.00  0.00     0.053 C 
BRANCH  11  12
ATOM     12  C   UNL     1      13.117 -13.639  20.879  1.00  0.00     0.041 C 
ATOM     13  O   UNL     1      12.794 -13.248  19.725  1.00  0.00    -0.550 OA
ATOM     14  O   UNL     1      14.233 -13.093  21.504  1.00  0.00    -0.550 OA
ENDBRANCH  11  12
ENDBRANCH  10  11
ENDBRANCH   9  10
ENDBRANCH   8   9
ENDBRANCH   7   8
ENDBRANCH   6   7
ENDBRANCH   5   6
ENDBRANCH   4   5
ENDBRANCH   3   4
ENDBRANCH   2   3
ENDBRANCH   1   2
BRANCH   1  15
ATOM     15  C   UNL     1       7.944 -15.276  21.763  1.00  0.00     0.000 C 
BRANCH  15  16
ATOM     16  C   UNL     1       8.453 -15.959  20.481  1.00  0.00     0.000 C 
BRANCH  16  17
ATOM     17  C   UNL     1       7.699 -15.504  19.224  1.00  0.00     0.000 C 
BRANCH  17  18
ATOM     18  C   UNL     1       7.683 -16.611  18.163  1.00  0.00    -0.000 C 
BRANCH  18  19
ATOM     19  C   UNL     1       8.849 -17.589  18.374  1.00  0.00    -0.000 C 
BRANCH  19  20
ATOM     20  C   UNL     1       8.530 -19.010  17.875  1.00  0.00    -0.000 C 
BRANCH  20  21
ATOM     21  C   UNL     1       8.336 -20.064  18.985  1.00  0.00    -0.000 C 
BRANCH  21  22
ATOM     22  C   UNL     1       8.395 -19.522  20.425  1.00  0.00    -0.000 C 
BRANCH  22  23
ATOM     23  C   UNL     1       7.074 -19.711  21.188  1.00  0.00    -0.000 C 
BRANCH  23  24
ATOM     24  C   UNL     1       5.909 -18.921  20.569  1.00  0.00    -0.000 C 
BRANCH  24  25
ATOM     25  C   UNL     1       5.349 -17.821  21.496  1.00  0.00    -0.003 C 
ATOM     26  C   UNL     1       4.503 -16.802  20.735  1.00  0.00     0.004 C 
ENDBRANCH  24  25
ENDBRANCH  23  24
ENDBRANCH  22  23
ENDBRANCH  21  22
ENDBRANCH  20  21
ENDBRANCH  19  20
ENDBRANCH  18  19
ENDBRANCH  17  18
ENDBRANCH  16  17
ENDBRANCH  15  16
ENDBRANCH   1  15
TORSDOF 22
ENDMDL
