MODEL 1
REMARK VINA RESULT:    -4.625      0.000      0.000
REMARK INTER + INTRA:          -9.403
REMARK INTER:                  -7.870
REMARK INTRA:                  -1.533
REMARK UNBOUND:                -1.533
REMARK SMILES CCCCCCCCCCCCCC(=O)[O-]
REMARK SMILES IDX 8 1 9 2 10 3 11 4 12 5 13 6 14 7 15 8 16 9 7 10 6 11 5 12
REMARK SMILES IDX 4 13 3 14 2 15 1 16
REMARK H PARENT
REMARK Flexibility Score: inf
ROOT
ATOM      1  C   UNL     1      86.613  78.055  69.822  1.00  0.00     0.000 C 
ENDROOT
BRANCH   1   2
ATOM      2  C   UNL     1      86.799  76.892  70.809  1.00  0.00     0.000 C 
BRANCH   2   3
ATOM      3  C   UNL     1      85.740  75.793  70.632  1.00  0.00     0.000 C 
BRANCH   3   4
ATOM      4  C   UNL     1      86.326  74.376  70.772  1.00  0.00     0.000 C 
BRANCH   4   5
ATOM      5  C   UNL     1      87.827  74.385  71.111  1.00  0.00     0.006 C 
BRANCH   5   6
ATOM      6  C   UNL     1      88.170  73.752  72.469  1.00  0.00     0.053 C 
BRANCH   6   7
ATOM      7  C   UNL     1      89.202  72.674  72.344  1.00  0.00     0.041 C 
ATOM      8  O   UNL     1      89.614  72.068  73.367  1.00  0.00    -0.550 OA
ATOM      9  O   UNL     1      89.681  72.313  71.090  1.00  0.00    -0.550 OA
ENDBRANCH   6   7
ENDBRANCH   5   6
ENDBRANCH   4   5
ENDBRANCH   3   4
ENDBRANCH   2   3
ENDBRANCH   1   2
BRANCH   1  10
ATOM     10  C   UNL     1      86.154  77.542  68.450  1.00  0.00     0.000 C 
BRANCH  10  11
ATOM     11  C   UNL     1      87.282  77.551  67.407  1.00  0.00    -0.000 C 
BRANCH  11  12
ATOM     12  C   UNL     1      88.651  77.194  68.014  1.00  0.00    -0.000 C 
BRANCH  12  13
ATOM     13  C   UNL     1      89.004  75.709  67.837  1.00  0.00    -0.000 C 
BRANCH  13  14
ATOM     14  C   UNL     1      87.865  74.906  67.182  1.00  0.00    -0.000 C 
BRANCH  14  15
ATOM     15  C   UNL     1      87.901  73.418  67.562  1.00  0.00    -0.003 C 
ATOM     16  C   UNL     1      86.609  72.686  67.195  1.00  0.00     0.004 C 
ENDBRANCH  14  15
ENDBRANCH  13  14
ENDBRANCH  12  13
ENDBRANCH  11  12
ENDBRANCH  10  11
ENDBRANCH   1  10
TORSDOF 12
ENDMDL
MODEL 2
REMARK VINA RESULT:    -4.004     14.024     15.395
REMARK INTER + INTRA:          -8.347
REMARK INTER:                  -6.920
REMARK INTRA:                  -1.427
REMARK UNBOUND:                -1.533
REMARK SMILES CCCCCCCCCCCCCC(=O)[O-]
REMARK SMILES IDX 8 1 9 2 10 3 11 4 12 5 13 6 14 7 15 8 16 9 7 10 6 11 5 12
REMARK SMILES IDX 4 13 3 14 2 15 1 16
REMARK H PARENT
REMARK Flexibility Score: inf
ROOT
ATOM      1  C   UNL     1      95.956  85.255  78.567  1.00  0.00     0.000 C 
ENDROOT
BRANCH   1   2
ATOM      2  C   UNL     1      96.230  83.814  78.111  1.00  0.00     0.000 C 
BRANCH   2   3
ATOM      3  C   UNL     1      95.583  82.770  79.034  1.00  0.00     0.000 C 
BRANCH   3   4
ATOM      4  C   UNL     1      96.586  81.713  79.530  1.00  0.00     0.000 C 
BRANCH   4   5
ATOM      5  C   UNL     1      98.040  82.055  79.160  1.00  0.00     0.006 C 
BRANCH   5   6
ATOM      6  C   UNL     1      99.007  82.070  80.355  1.00  0.00     0.053 C 
BRANCH   6   7
ATOM      7  C   UNL     1      99.573  83.434  80.604  1.00  0.00     0.041 C 
ATOM      8  O   UNL     1      98.829  84.448  80.561  1.00  0.00    -0.550 OA
ATOM      9  O   UNL     1     100.918  83.580  80.924  1.00  0.00    -0.550 OA
ENDBRANCH   6   7
ENDBRANCH   5   6
ENDBRANCH   4   5
ENDBRANCH   3   4
ENDBRANCH   2   3
ENDBRANCH   1   2
BRANCH   1  10
ATOM     10  C   UNL     1      94.930  85.936  77.650  1.00  0.00     0.000 C 
BRANCH  10  11
ATOM     11  C   UNL     1      94.382  84.989  76.570  1.00  0.00    -0.000 C 
BRANCH  11  12
ATOM     12  C   UNL     1      92.869  84.743  76.713  1.00  0.00    -0.000 C 
BRANCH  12  13
ATOM     13  C   UNL     1      92.535  83.264  76.962  1.00  0.00    -0.000 C 
BRANCH  13  14
ATOM     14  C   UNL     1      91.780  83.045  78.285  1.00  0.00    -0.000 C 
BRANCH  14  15
ATOM     15  C   UNL     1      92.072  84.145  79.318  1.00  0.00    -0.003 C 
ATOM     16  C   UNL     1      90.845  84.506  80.157  1.00  0.00     0.004 C 
ENDBRANCH  14  15
ENDBRANCH  13  14
ENDBRANCH  12  13
ENDBRANCH  11  12
ENDBRANCH  10  11
ENDBRANCH   1  10
TORSDOF 12
ENDMDL
MODEL 3
REMARK VINA RESULT:    -3.940     15.105     16.506
REMARK INTER + INTRA:          -8.237
REMARK INTER:                  -7.006
REMARK INTRA:                  -1.231
REMARK UNBOUND:                -1.533
REMARK SMILES CCCCCCCCCCCCCC(=O)[O-]
REMARK SMILES IDX 8 1 9 2 10 3 11 4 12 5 13 6 14 7 15 8 16 9 7 10 6 11 5 12
REMARK SMILES IDX 4 13 3 14 2 15 1 16
REMARK H PARENT
REMARK Flexibility Score: inf
ROOT
ATOM      1  C   UNL     1      96.629  81.627  79.381  1.00  0.00     0.000 C 
ENDROOT
BRANCH   1   2
ATOM      2  C   UNL     1      98.099  81.983  79.113  1.00  0.00     0.000 C 
BRANCH   2   3
ATOM      3  C   UNL     1      98.891  82.230  80.406  1.00  0.00     0.000 C 
BRANCH   3   4
ATOM      4  C   UNL     1      99.219  83.718  80.626  1.00  0.00     0.000 C 
BRANCH   4   5
ATOM      5  C   UNL     1      99.047  84.153  82.093  1.00  0.00     0.006 C 
BRANCH   5   6
ATOM      6  C   UNL     1      98.071  83.282  82.899  1.00  0.00     0.053 C 
BRANCH   6   7
ATOM      7  C   UNL     1      98.758  82.540  84.004  1.00  0.00     0.041 C 
ATOM      8  O   UNL     1      99.365  81.464  83.763  1.00  0.00    -0.550 OA
ATOM      9  O   UNL     1      98.761  83.059  85.293  1.00  0.00    -0.550 OA
ENDBRANCH   6   7
ENDBRANCH   5   6
ENDBRANCH   4   5
ENDBRANCH   3   4
ENDBRANCH   2   3
ENDBRANCH   1   2
BRANCH   1  10
ATOM     10  C   UNL     1      95.720  82.844  79.161  1.00  0.00     0.000 C 
BRANCH  10  11
ATOM     11  C   UNL     1      96.270  83.809  78.099  1.00  0.00    -0.000 C 
BRANCH  11  12
ATOM     12  C   UNL     1      95.703  85.233  78.242  1.00  0.00    -0.000 C 
BRANCH  12  13
ATOM     13  C   UNL     1      94.176  85.278  78.071  1.00  0.00    -0.000 C 
BRANCH  13  14
ATOM     14  C   UNL     1      93.713  84.652  76.744  1.00  0.00    -0.000 C 
BRANCH  14  15
ATOM     15  C   UNL     1      92.696  83.520  76.952  1.00  0.00    -0.003 C 
ATOM     16  C   UNL     1      92.095  83.519  78.358  1.00  0.00     0.004 C 
ENDBRANCH  14  15
ENDBRANCH  13  14
ENDBRANCH  12  13
ENDBRANCH  11  12
ENDBRANCH  10  11
ENDBRANCH   1  10
TORSDOF 12
ENDMDL
MODEL 4
REMARK VINA RESULT:    -3.877     14.216     15.595
REMARK INTER + INTRA:          -8.130
REMARK INTER:                  -7.266
REMARK INTRA:                  -0.864
REMARK UNBOUND:                -1.533
REMARK SMILES CCCCCCCCCCCCCC(=O)[O-]
REMARK SMILES IDX 8 1 9 2 10 3 11 4 12 5 13 6 14 7 15 8 16 9 7 10 6 11 5 12
REMARK SMILES IDX 4 13 3 14 2 15 1 16
REMARK H PARENT
REMARK Flexibility Score: inf
ROOT
ATOM      1  C   UNL     1      95.868  84.031  78.937  1.00  0.00     0.000 C 
ENDROOT
BRANCH   1   2
ATOM      2  C   UNL     1      95.680  82.508  79.030  1.00  0.00     0.000 C 
BRANCH   2   3
ATOM      3  C   UNL     1      96.961  81.781  79.466  1.00  0.00     0.000 C 
BRANCH   3   4
ATOM      4  C   UNL     1      98.072  82.750  79.908  1.00  0.00     0.000 C 
BRANCH   4   5
ATOM      5  C   UNL     1      99.418  82.042  80.147  1.00  0.00     0.006 C 
BRANCH   5   6
ATOM      6  C   UNL     1     100.446  82.886  80.917  1.00  0.00     0.053 C 
BRANCH   6   7
ATOM      7  C   UNL     1     100.044  83.098  82.345  1.00  0.00     0.041 C 
ATOM      8  O   UNL     1      99.994  84.261  82.823  1.00  0.00    -0.550 OA
ATOM      9  O   UNL     1      99.687  82.012  83.135  1.00  0.00    -0.550 OA
ENDBRANCH   6   7
ENDBRANCH   5   6
ENDBRANCH   4   5
ENDBRANCH   3   4
ENDBRANCH   2   3
ENDBRANCH   1   2
BRANCH   1  10
ATOM     10  C   UNL     1      95.274  84.579  77.632  1.00  0.00     0.000 C 
BRANCH  10  11
ATOM     11  C   UNL     1      93.809  85.014  77.785  1.00  0.00    -0.000 C 
BRANCH  11  12
ATOM     12  C   UNL     1      92.938  84.591  76.588  1.00  0.00    -0.000 C 
BRANCH  12  13
ATOM     13  C   UNL     1      92.169  83.287  76.851  1.00  0.00    -0.000 C 
BRANCH  13  14
ATOM     14  C   UNL     1      91.791  83.113  78.333  1.00  0.00    -0.000 C 
BRANCH  14  15
ATOM     15  C   UNL     1      90.322  83.466  78.610  1.00  0.00    -0.003 C 
ATOM     16  C   UNL     1      89.510  83.657  77.329  1.00  0.00     0.004 C 
ENDBRANCH  14  15
ENDBRANCH  13  14
ENDBRANCH  12  13
ENDBRANCH  11  12
ENDBRANCH  10  11
ENDBRANCH   1  10
TORSDOF 12
ENDMDL
MODEL 5
REMARK VINA RESULT:    -3.868     14.103     15.874
REMARK INTER + INTRA:          -8.114
REMARK INTER:                  -6.620
REMARK INTRA:                  -1.494
REMARK UNBOUND:                -1.533
REMARK SMILES CCCCCCCCCCCCCC(=O)[O-]
REMARK SMILES IDX 8 1 9 2 10 3 11 4 12 5 13 6 14 7 15 8 16 9 7 10 6 11 5 12
REMARK SMILES IDX 4 13 3 14 2 15 1 16
REMARK H PARENT
REMARK Flexibility Score: inf
ROOT
ATOM      1  C   UNL     1      95.663  82.743  78.889  1.00  0.00     0.000 C 
ENDROOT
BRANCH   1   2
ATOM      2  C   UNL     1      96.417  83.863  78.156  1.00  0.00     0.000 C 
BRANCH   2   3
ATOM      3  C   UNL     1      95.493  85.012  77.724  1.00  0.00     0.000 C 
BRANCH   3   4
ATOM      4  C   UNL     1      94.020  84.758  78.090  1.00  0.00     0.000 C 
BRANCH   4   5
ATOM      5  C   UNL     1      93.131  84.531  76.853  1.00  0.00     0.006 C 
BRANCH   5   6
ATOM      6  C   UNL     1      92.164  83.343  76.982  1.00  0.00     0.053 C 
BRANCH   6   7
ATOM      7  C   UNL     1      90.804  83.773  77.441  1.00  0.00     0.041 C 
ATOM      8  O   UNL     1      90.635  84.199  78.613  1.00  0.00    -0.550 OA
ATOM      9  O   UNL     1      89.730  83.737  76.559  1.00  0.00    -0.550 OA
ENDBRANCH   6   7
ENDBRANCH   5   6
ENDBRANCH   4   5
ENDBRANCH   3   4
ENDBRANCH   2   3
ENDBRANCH   1   2
BRANCH   1  10
ATOM     10  C   UNL     1      96.616  81.605  79.282  1.00  0.00     0.000 C 
BRANCH  10  11
ATOM     11  C   UNL     1      98.095  81.994  79.132  1.00  0.00    -0.000 C 
BRANCH  11  12
ATOM     12  C   UNL     1      98.812  82.130  80.487  1.00  0.00    -0.000 C 
BRANCH  12  13
ATOM     13  C   UNL     1      99.089  83.595  80.862  1.00  0.00    -0.000 C 
BRANCH  13  14
ATOM     14  C   UNL     1      98.463  83.986  82.213  1.00  0.00    -0.000 C 
BRANCH  14  15
ATOM     15  C   UNL     1      96.928  83.921  82.190  1.00  0.00    -0.003 C 
ATOM     16  C   UNL     1      96.293  85.195  81.631  1.00  0.00     0.004 C 
ENDBRANCH  14  15
ENDBRANCH  13  14
ENDBRANCH  12  13
ENDBRANCH  11  12
ENDBRANCH  10  11
ENDBRANCH   1  10
TORSDOF 12
ENDMDL
MODEL 6
REMARK VINA RESULT:    -3.834     14.633     15.995
REMARK INTER + INTRA:          -8.058
REMARK INTER:                  -6.701
REMARK INTRA:                  -1.356
REMARK UNBOUND:                -1.533
REMARK SMILES CCCCCCCCCCCCCC(=O)[O-]
REMARK SMILES IDX 8 1 9 2 10 3 11 4 12 5 13 6 14 7 15 8 16 9 7 10 6 11 5 12
REMARK SMILES IDX 4 13 3 14 2 15 1 16
REMARK H PARENT
REMARK Flexibility Score: inf
ROOT
ATOM      1  C   UNL     1      95.806  83.143  79.194  1.00  0.00     0.000 C 
ENDROOT
BRANCH   1   2
ATOM      2  C   UNL     1      96.565  81.807  79.222  1.00  0.00     0.000 C 
BRANCH   2   3
ATOM      3  C   UNL     1      98.089  81.993  79.156  1.00  0.00     0.000 C 
BRANCH   3   4
ATOM      4  C   UNL     1      98.745  82.023  80.548  1.00  0.00     0.000 C 
BRANCH   4   5
ATOM      5  C   UNL     1      99.864  83.074  80.656  1.00  0.00     0.006 C 
BRANCH   5   6
ATOM      6  C   UNL     1      99.365  84.528  80.646  1.00  0.00     0.053 C 
BRANCH   6   7
ATOM      7  C   UNL     1      98.411  84.803  81.768  1.00  0.00     0.041 C 
ATOM      8  O   UNL     1      97.256  85.241  81.526  1.00  0.00    -0.550 OA
ATOM      9  O   UNL     1      98.785  84.538  83.080  1.00  0.00    -0.550 OA
ENDBRANCH   6   7
ENDBRANCH   5   6
ENDBRANCH   4   5
ENDBRANCH   3   4
ENDBRANCH   2   3
ENDBRANCH   1   2
BRANCH   1  10
ATOM     10  C   UNL     1      96.370  84.073  78.111  1.00  0.00     0.000 C 
BRANCH  10  11
ATOM     11  C   UNL     1      95.553  85.365  77.956  1.00  0.00    -0.000 C 
BRANCH  11  12
ATOM     12  C   UNL     1      94.035  85.109  77.961  1.00  0.00    -0.000 C 
BRANCH  12  13
ATOM     13  C   UNL     1      93.533  84.519  76.634  1.00  0.00    -0.000 C 
BRANCH  13  14
ATOM     14  C   UNL     1      92.492  83.404  76.841  1.00  0.00    -0.000 C 
BRANCH  14  15
ATOM     15  C   UNL     1      92.167  83.172  78.325  1.00  0.00    -0.003 C 
ATOM     16  C   UNL     1      90.664  83.097  78.593  1.00  0.00     0.004 C 
ENDBRANCH  14  15
ENDBRANCH  13  14
ENDBRANCH  12  13
ENDBRANCH  11  12
ENDBRANCH  10  11
ENDBRANCH   1  10
TORSDOF 12
ENDMDL
MODEL 7
REMARK VINA RESULT:    -3.743     13.829     15.496
REMARK INTER + INTRA:          -7.901
REMARK INTER:                  -6.968
REMARK INTRA:                  -0.934
REMARK UNBOUND:                -1.533
REMARK SMILES CCCCCCCCCCCCCC(=O)[O-]
REMARK SMILES IDX 8 1 9 2 10 3 11 4 12 5 13 6 14 7 15 8 16 9 7 10 6 11 5 12
REMARK SMILES IDX 4 13 3 14 2 15 1 16
REMARK H PARENT
REMARK Flexibility Score: inf
ROOT
ATOM      1  C   UNL     1      95.681  85.278  78.522  1.00  0.00     0.000 C 
ENDROOT
BRANCH   1   2
ATOM      2  C   UNL     1      94.259  85.497  77.983  1.00  0.00     0.000 C 
BRANCH   2   3
ATOM      3  C   UNL     1      93.967  84.656  76.731  1.00  0.00     0.000 C 
BRANCH   3   4
ATOM      4  C   UNL     1      92.786  83.689  76.928  1.00  0.00     0.000 C 
BRANCH   4   5
ATOM      5  C   UNL     1      92.278  83.660  78.381  1.00  0.00     0.006 C 
BRANCH   5   6
ATOM      6  C   UNL     1      90.822  83.191  78.530  1.00  0.00     0.053 C 
BRANCH   6   7
ATOM      7  C   UNL     1      90.220  83.627  79.831  1.00  0.00     0.041 C 
ATOM      8  O   UNL     1      88.981  83.520  80.024  1.00  0.00    -0.550 OA
ATOM      9  O   UNL     1      91.036  84.115  80.845  1.00  0.00    -0.550 OA
ENDBRANCH   6   7
ENDBRANCH   5   6
ENDBRANCH   4   5
ENDBRANCH   3   4
ENDBRANCH   2   3
ENDBRANCH   1   2
BRANCH   1  10
ATOM     10  C   UNL     1      96.199  83.880  78.153  1.00  0.00     0.000 C 
BRANCH  10  11
ATOM     11  C   UNL     1      95.882  82.829  79.228  1.00  0.00    -0.000 C 
BRANCH  11  12
ATOM     12  C   UNL     1      96.840  81.625  79.179  1.00  0.00    -0.000 C 
BRANCH  12  13
ATOM     13  C   UNL     1      98.245  81.969  79.698  1.00  0.00    -0.000 C 
BRANCH  13  14
ATOM     14  C   UNL     1      98.211  82.698  81.054  1.00  0.00    -0.000 C 
BRANCH  14  15
ATOM     15  C   UNL     1      99.616  82.965  81.613  1.00  0.00    -0.003 C 
ATOM     16  C   UNL     1     100.703  82.885  80.539  1.00  0.00     0.004 C 
ENDBRANCH  14  15
ENDBRANCH  13  14
ENDBRANCH  12  13
ENDBRANCH  11  12
ENDBRANCH  10  11
ENDBRANCH   1  10
TORSDOF 12
ENDMDL
MODEL 8
REMARK VINA RESULT:    -3.697     17.223     18.623
REMARK INTER + INTRA:          -7.824
REMARK INTER:                  -5.737
REMARK INTRA:                  -2.087
REMARK UNBOUND:                -1.533
REMARK SMILES CCCCCCCCCCCCCC(=O)[O-]
REMARK SMILES IDX 8 1 9 2 10 3 11 4 12 5 13 6 14 7 15 8 16 9 7 10 6 11 5 12
REMARK SMILES IDX 4 13 3 14 2 15 1 16
REMARK H PARENT
REMARK Flexibility Score: inf
ROOT
ATOM      1  C   UNL     1      97.944  82.029  79.266  1.00  0.00     0.000 C 
ENDROOT
BRANCH   1   2
ATOM      2  C   UNL     1      98.771  81.987  80.561  1.00  0.00     0.000 C 
BRANCH   2   3
ATOM      3  C   UNL     1     100.096  82.755  80.439  1.00  0.00     0.000 C 
BRANCH   3   4
ATOM      4  C   UNL     1     100.482  83.481  81.741  1.00  0.00     0.000 C 
BRANCH   4   5
ATOM      5  C   UNL     1     101.527  84.589  81.515  1.00  0.00     0.006 C 
BRANCH   5   6
ATOM      6  C   UNL     1     101.613  85.087  80.063  1.00  0.00     0.053 C 
BRANCH   6   7
ATOM      7  C   UNL     1     101.781  86.574  79.988  1.00  0.00     0.041 C 
ATOM      8  O   UNL     1     102.316  87.101  78.977  1.00  0.00    -0.550 OA
ATOM      9  O   UNL     1     101.312  87.380  81.018  1.00  0.00    -0.550 OA
ENDBRANCH   6   7
ENDBRANCH   5   6
ENDBRANCH   4   5
ENDBRANCH   3   4
ENDBRANCH   2   3
ENDBRANCH   1   2
BRANCH   1  10
ATOM     10  C   UNL     1      96.441  81.984  79.573  1.00  0.00     0.000 C 
BRANCH  10  11
ATOM     11  C   UNL     1      95.651  83.065  78.818  1.00  0.00    -0.000 C 
BRANCH  11  12
ATOM     12  C   UNL     1      96.564  84.045  78.060  1.00  0.00    -0.000 C 
BRANCH  12  13
ATOM     13  C   UNL     1      96.644  85.421  78.738  1.00  0.00    -0.000 C 
BRANCH  13  14
ATOM     14  C   UNL     1      98.049  85.728  79.287  1.00  0.00    -0.000 C 
BRANCH  14  15
ATOM     15  C   UNL     1      98.031  86.086  80.781  1.00  0.00    -0.003 C 
ATOM     16  C   UNL     1      97.102  85.182  81.592  1.00  0.00     0.004 C 
ENDBRANCH  14  15
ENDBRANCH  13  14
ENDBRANCH  12  13
ENDBRANCH  11  12
ENDBRANCH  10  11
ENDBRANCH   1  10
TORSDOF 12
ENDMDL
