MODEL 1
REMARK VINA RESULT:   -10.660      0.000      0.000
REMARK INTER + INTRA:         -11.418
REMARK INTER:                 -11.595
REMARK INTRA:                   0.177
REMARK UNBOUND:                 0.177
REMARK SMILES C=C(C)[C@H]1CC[C@@]2(C)CC[C@]3(C)[C@@H](CC[C@H]4[C@@]5(C)CC[C@H](O)C(C)(C)[C@H]5CC[C@]43C)[C@@H]12
REMARK SMILES IDX 4 1 5 2 6 3 7 4 31 5 13 6 14 7 15 8 16 9 17 10 19 11 20 12
REMARK SMILES IDX 21 13 23 14 26 15 27 16 28 17 29 18 11 19 10 20 9 21 12 22
REMARK SMILES IDX 30 23 24 24 25 25 18 26 8 27 2 28 3 29 1 30 22 31
REMARK H PARENT 22 32
REMARK Flexibility Score: inf
ROOT
ATOM      1  C   UNL     1     -32.647  41.717  42.238  1.00  0.00     0.018 C 
ATOM      2  C   UNL     1     -31.470  41.074  41.479  1.00  0.00     0.009 C 
ATOM      3  C   UNL     1     -32.051  39.984  40.593  1.00  0.00     0.008 C 
ATOM      4  C   UNL     1     -33.548  40.308  40.382  1.00  0.00    -0.029 C 
ATOM      5  C   UNL     1     -33.956  41.109  41.649  1.00  0.00     0.006 C 
ATOM      6  C   UNL     1     -34.921  40.329  42.609  1.00  0.00    -0.000 C 
ATOM      7  C   UNL     1     -34.242  39.181  43.409  1.00  0.00     0.005 C 
ATOM      8  C   UNL     1     -34.950  37.817  43.381  1.00  0.00     0.005 C 
ATOM      9  C   UNL     1     -36.493  37.855  43.577  1.00  0.00     0.002 C 
ATOM     10  C   UNL     1     -36.978  37.393  45.060  1.00  0.00    -0.026 C 
ATOM     11  C   UNL     1     -36.013  37.793  46.255  1.00  0.00     0.010 C 
ATOM     12  C   UNL     1     -36.530  38.861  47.237  1.00  0.00     0.033 C 
ATOM     13  C   UNL     1     -37.910  38.558  47.865  1.00  0.00     0.120 C 
ATOM     14  C   UNL     1     -38.866  37.723  46.932  1.00  0.00    -0.006 C 
ATOM     15  C   UNL     1     -38.445  37.903  45.407  1.00  0.00     0.003 C 
ATOM     16  C   UNL     1     -38.706  39.383  44.959  1.00  0.00     0.005 C 
ATOM     17  C   UNL     1     -37.666  40.018  44.036  1.00  0.00     0.008 C 
ATOM     18  C   UNL     1     -37.205  39.091  42.891  1.00  0.00    -0.024 C 
ATOM     19  C   UNL     1     -36.230  39.880  41.866  1.00  0.00    -0.024 C 
ATOM     20  C   UNL     1     -35.849  39.016  40.598  1.00  0.00     0.008 C 
ATOM     21  C   UNL     1     -34.359  38.994  40.169  1.00  0.00     0.007 C 
ATOM     22  C   UNL     1     -36.963  41.162  41.329  1.00  0.00     0.012 C 
ATOM     23  C   UNL     1     -38.494  38.610  42.126  1.00  0.00     0.012 C 
ATOM     24  C   UNL     1     -40.335  38.207  47.135  1.00  0.00     0.014 C 
ATOM     25  C   UNL     1     -38.877  36.228  47.363  1.00  0.00     0.014 C 
ATOM     26  C   UNL     1     -36.968  35.824  44.964  1.00  0.00     0.012 C 
ATOM     27  C   UNL     1     -33.689  41.201  39.122  1.00  0.00     0.011 C 
ENDROOT
BRANCH   1  28
ATOM     28  C   UNL     1     -32.535  41.742  43.762  1.00  0.00    -0.077 C 
ATOM     29  C   UNL     1     -33.719  42.200  44.578  1.00  0.00     0.039 C 
ATOM     30  C   UNL     1     -31.409  41.368  44.392  1.00  0.00     0.008 C 
ENDBRANCH   1  28
BRANCH  13  31
ATOM     31  O   UNL     1     -37.722  37.940  49.116  1.00  0.00    -0.393 OA
ATOM     32  H   UNL     1     -37.784  38.653  49.804  1.00  0.00     0.210 HD
ENDBRANCH  13  31
TORSDOF 2
ENDMDL
MODEL 2
REMARK VINA RESULT:   -10.237      2.823      7.306
REMARK INTER + INTRA:         -10.958
REMARK INTER:                 -11.162
REMARK INTRA:                   0.204
REMARK UNBOUND:                 0.177
REMARK SMILES C=C(C)[C@H]1CC[C@@]2(C)CC[C@]3(C)[C@@H](CC[C@H]4[C@@]5(C)CC[C@H](O)C(C)(C)[C@H]5CC[C@]43C)[C@@H]12
REMARK SMILES IDX 4 1 5 2 6 3 7 4 31 5 13 6 14 7 15 8 16 9 17 10 19 11 20 12
REMARK SMILES IDX 21 13 23 14 26 15 27 16 28 17 29 18 11 19 10 20 9 21 12 22
REMARK SMILES IDX 30 23 24 24 25 25 18 26 8 27 2 28 3 29 1 30 22 31
REMARK H PARENT 22 32
REMARK Flexibility Score: inf
ROOT
ATOM      1  C   UNL     1     -37.130  36.662  44.955  1.00  0.00     0.018 C 
ATOM      2  C   UNL     1     -36.342  35.552  45.677  1.00  0.00     0.009 C 
ATOM      3  C   UNL     1     -35.301  36.238  46.547  1.00  0.00     0.008 C 
ATOM      4  C   UNL     1     -35.783  37.686  46.793  1.00  0.00    -0.029 C 
ATOM      5  C   UNL     1     -36.656  38.021  45.553  1.00  0.00     0.006 C 
ATOM      6  C   UNL     1     -36.013  39.082  44.592  1.00  0.00    -0.000 C 
ATOM      7  C   UNL     1     -34.818  38.546  43.752  1.00  0.00     0.005 C 
ATOM      8  C   UNL     1     -33.540  39.401  43.761  1.00  0.00     0.005 C 
ATOM      9  C   UNL     1     -33.754  40.933  43.593  1.00  0.00     0.002 C 
ATOM     10  C   UNL     1     -33.388  41.489  42.109  1.00  0.00    -0.026 C 
ATOM     11  C   UNL     1     -33.708  40.504  40.906  1.00  0.00     0.010 C 
ATOM     12  C   UNL     1     -34.852  40.913  39.959  1.00  0.00     0.033 C 
ATOM     13  C   UNL     1     -34.720  42.329  39.349  1.00  0.00     0.120 C 
ATOM     14  C   UNL     1     -33.972  43.357  40.279  1.00  0.00    -0.006 C 
ATOM     15  C   UNL     1     -34.065  42.896  41.800  1.00  0.00     0.003 C 
ATOM     16  C   UNL     1     -35.553  42.983  42.288  1.00  0.00     0.005 C 
ATOM     17  C   UNL     1     -36.045  41.866  43.207  1.00  0.00     0.008 C 
ATOM     18  C   UNL     1     -35.044  41.493  44.321  1.00  0.00    -0.024 C 
ATOM     19  C   UNL     1     -35.693  40.421  45.347  1.00  0.00    -0.024 C 
ATOM     20  C   UNL     1     -34.759  40.119  46.587  1.00  0.00     0.008 C 
ATOM     21  C   UNL     1     -34.562  38.634  46.989  1.00  0.00     0.007 C 
ATOM     22  C   UNL     1     -37.034  40.998  45.927  1.00  0.00     0.012 C 
ATOM     23  C   UNL     1     -34.688  42.816  45.098  1.00  0.00     0.012 C 
ATOM     24  C   UNL     1     -34.621  44.766  40.114  1.00  0.00     0.014 C 
ATOM     25  C   UNL     1     -32.499  43.541  39.813  1.00  0.00     0.014 C 
ATOM     26  C   UNL     1     -31.824  41.652  42.167  1.00  0.00     0.012 C 
ATOM     27  C   UNL     1     -36.653  37.707  48.076  1.00  0.00     0.011 C 
ENDROOT
BRANCH   1  28
ATOM     28  C   UNL     1     -37.182  36.571  43.430  1.00  0.00    -0.077 C 
ATOM     29  C   UNL     1     -37.774  37.716  42.646  1.00  0.00     0.039 C 
ATOM     30  C   UNL     1     -36.715  35.497  42.772  1.00  0.00     0.008 C 
ENDBRANCH   1  28
BRANCH  13  31
ATOM     31  O   UNL     1     -34.117  42.229  38.081  1.00  0.00    -0.393 OA
ATOM     32  H   UNL     1     -34.107  41.266  37.840  1.00  0.00     0.210 HD
ENDBRANCH  13  31
TORSDOF 2
ENDMDL
MODEL 3
REMARK VINA RESULT:    -9.873      1.763      2.576
REMARK INTER + INTRA:         -10.562
REMARK INTER:                 -10.376
REMARK INTRA:                  -0.186
REMARK UNBOUND:                 0.177
REMARK SMILES C=C(C)[C@H]1CC[C@@]2(C)CC[C@]3(C)[C@@H](CC[C@H]4[C@@]5(C)CC[C@H](O)C(C)(C)[C@H]5CC[C@]43C)[C@@H]12
REMARK SMILES IDX 4 1 5 2 6 3 7 4 31 5 13 6 14 7 15 8 16 9 17 10 19 11 20 12
REMARK SMILES IDX 21 13 23 14 26 15 27 16 28 17 29 18 11 19 10 20 9 21 12 22
REMARK SMILES IDX 30 23 24 24 25 25 18 26 8 27 2 28 3 29 1 30 22 31
REMARK H PARENT 22 32
REMARK Flexibility Score: inf
ROOT
ATOM      1  C   UNL     1     -32.652  42.126  41.912  1.00  0.00     0.018 C 
ATOM      2  C   UNL     1     -32.332  42.281  40.413  1.00  0.00     0.009 C 
ATOM      3  C   UNL     1     -33.640  42.111  39.657  1.00  0.00     0.008 C 
ATOM      4  C   UNL     1     -34.789  42.403  40.649  1.00  0.00    -0.029 C 
ATOM      5  C   UNL     1     -34.203  42.042  42.041  1.00  0.00     0.006 C 
ATOM      6  C   UNL     1     -34.836  40.758  42.683  1.00  0.00    -0.000 C 
ATOM      7  C   UNL     1     -34.391  39.422  42.020  1.00  0.00     0.005 C 
ATOM      8  C   UNL     1     -35.513  38.445  41.636  1.00  0.00     0.005 C 
ATOM      9  C   UNL     1     -36.626  38.243  42.705  1.00  0.00     0.002 C 
ATOM     10  C   UNL     1     -36.509  36.839  43.518  1.00  0.00    -0.026 C 
ATOM     11  C   UNL     1     -35.033  36.327  43.798  1.00  0.00     0.010 C 
ATOM     12  C   UNL     1     -34.557  36.350  45.263  1.00  0.00     0.033 C 
ATOM     13  C   UNL     1     -35.479  35.612  46.262  1.00  0.00     0.120 C 
ATOM     14  C   UNL     1     -37.001  35.633  45.859  1.00  0.00    -0.006 C 
ATOM     15  C   UNL     1     -37.302  36.866  44.898  1.00  0.00     0.003 C 
ATOM     16  C   UNL     1     -37.119  38.208  45.688  1.00  0.00     0.005 C 
ATOM     17  C   UNL     1     -36.469  39.369  44.936  1.00  0.00     0.008 C 
ATOM     18  C   UNL     1     -37.008  39.557  43.501  1.00  0.00    -0.024 C 
ATOM     19  C   UNL     1     -36.394  40.895  42.824  1.00  0.00    -0.024 C 
ATOM     20  C   UNL     1     -37.028  41.210  41.410  1.00  0.00     0.008 C 
ATOM     21  C   UNL     1     -36.058  41.585  40.259  1.00  0.00     0.007 C 
ATOM     22  C   UNL     1     -36.704  42.133  43.739  1.00  0.00     0.012 C 
ATOM     23  C   UNL     1     -38.574  39.688  43.598  1.00  0.00     0.012 C 
ATOM     24  C   UNL     1     -37.873  35.744  47.148  1.00  0.00     0.014 C 
ATOM     25  C   UNL     1     -37.413  34.277  45.218  1.00  0.00     0.014 C 
ATOM     26  C   UNL     1     -37.178  35.805  42.539  1.00  0.00     0.012 C 
ATOM     27  C   UNL     1     -35.124  43.916  40.589  1.00  0.00     0.011 C 
ENDROOT
BRANCH   1  28
ATOM     28  C   UNL     1     -31.849  41.068  42.668  1.00  0.00    -0.077 C 
ATOM     29  C   UNL     1     -31.218  39.935  41.897  1.00  0.00     0.039 C 
ATOM     30  C   UNL     1     -31.693  41.122  44.001  1.00  0.00     0.008 C 
ENDBRANCH   1  28
BRANCH  13  31
ATOM     31  O   UNL     1     -35.001  34.301  46.448  1.00  0.00    -0.393 OA
ATOM     32  H   UNL     1     -35.352  33.986  47.322  1.00  0.00     0.210 HD
ENDBRANCH  13  31
TORSDOF 2
ENDMDL
MODEL 4
REMARK VINA RESULT:    -9.854      2.547      7.262
REMARK INTER + INTRA:         -10.542
REMARK INTER:                 -10.361
REMARK INTRA:                  -0.181
REMARK UNBOUND:                 0.177
REMARK SMILES C=C(C)[C@H]1CC[C@@]2(C)CC[C@]3(C)[C@@H](CC[C@H]4[C@@]5(C)CC[C@H](O)C(C)(C)[C@H]5CC[C@]43C)[C@@H]12
REMARK SMILES IDX 4 1 5 2 6 3 7 4 31 5 13 6 14 7 15 8 16 9 17 10 19 11 20 12
REMARK SMILES IDX 21 13 23 14 26 15 27 16 28 17 29 18 11 19 10 20 9 21 12 22
REMARK SMILES IDX 30 23 24 24 25 25 18 26 8 27 2 28 3 29 1 30 22 31
REMARK H PARENT 22 32
REMARK Flexibility Score: inf
ROOT
ATOM      1  C   UNL     1     -37.538  36.557  45.125  1.00  0.00     0.018 C 
ATOM      2  C   UNL     1     -37.666  36.211  46.621  1.00  0.00     0.009 C 
ATOM      3  C   UNL     1     -37.652  37.525  47.387  1.00  0.00     0.008 C 
ATOM      4  C   UNL     1     -38.065  38.641  46.399  1.00  0.00    -0.029 C 
ATOM      5  C   UNL     1     -37.630  38.109  45.006  1.00  0.00     0.006 C 
ATOM      6  C   UNL     1     -36.421  38.888  44.379  1.00  0.00    -0.000 C 
ATOM      7  C   UNL     1     -35.049  38.594  45.050  1.00  0.00     0.005 C 
ATOM      8  C   UNL     1     -34.208  39.817  45.448  1.00  0.00     0.005 C 
ATOM      9  C   UNL     1     -34.126  40.952  44.387  1.00  0.00     0.002 C 
ATOM     10  C   UNL     1     -32.713  41.002  43.585  1.00  0.00    -0.026 C 
ATOM     11  C   UNL     1     -32.034  39.596  43.299  1.00  0.00     0.010 C 
ATOM     12  C   UNL     1     -31.992  39.130  41.832  1.00  0.00     0.033 C 
ATOM     13  C   UNL     1     -31.357  40.137  40.844  1.00  0.00     0.120 C 
ATOM     14  C   UNL     1     -31.553  41.644  41.256  1.00  0.00    -0.006 C 
ATOM     15  C   UNL     1     -32.820  41.797  42.210  1.00  0.00     0.003 C 
ATOM     16  C   UNL     1     -34.126  41.467  41.408  1.00  0.00     0.005 C 
ATOM     17  C   UNL     1     -35.211  40.684  42.147  1.00  0.00     0.008 C 
ATOM     18  C   UNL     1     -35.470  41.188  43.584  1.00  0.00    -0.024 C 
ATOM     19  C   UNL     1     -36.734  40.421  44.246  1.00  0.00    -0.024 C 
ATOM     20  C   UNL     1     -37.129  41.005  45.661  1.00  0.00     0.008 C 
ATOM     21  C   UNL     1     -37.399  39.991  46.803  1.00  0.00     0.007 C 
ATOM     22  C   UNL     1     -37.993  40.596  43.323  1.00  0.00     0.012 C 
ATOM     23  C   UNL     1     -35.777  42.730  43.495  1.00  0.00     0.012 C 
ATOM     24  C   UNL     1     -31.754  42.507  39.972  1.00  0.00     0.014 C 
ATOM     25  C   UNL     1     -30.258  42.203  41.911  1.00  0.00     0.014 C 
ATOM     26  C   UNL     1     -31.769  41.777  44.576  1.00  0.00     0.012 C 
ATOM     27  C   UNL     1     -39.606  38.800  46.450  1.00  0.00     0.011 C 
ENDROOT
BRANCH   1  28
ATOM     28  C   UNL     1     -36.390  35.885  44.372  1.00  0.00    -0.077 C 
ATOM     29  C   UNL     1     -35.197  35.384  45.148  1.00  0.00     0.039 C 
ATOM     30  C   UNL     1     -36.417  35.731  43.038  1.00  0.00     0.008 C 
ENDBRANCH   1  28
BRANCH  13  31
ATOM     31  O   UNL     1     -29.999  39.812  40.665  1.00  0.00    -0.393 OA
ATOM     32  H   UNL     1     -29.864  39.657  39.694  1.00  0.00     0.210 HD
ENDBRANCH  13  31
TORSDOF 2
ENDMDL
