MODEL 1
REMARK VINA RESULT:    -4.592      0.000      0.000
REMARK INTER + INTRA:          -6.772
REMARK INTER:                  -6.203
REMARK INTRA:                  -0.569
REMARK UNBOUND:                -0.569
REMARK SMILES CC(=O)CCC=C(C)CCC=C(C)C
REMARK SMILES IDX 7 1 6 2 8 3 9 4 10 5 11 6 13 7 12 8 14 9 5 10 4 11 2 12 3 13
REMARK SMILES IDX 1 14
REMARK H PARENT
REMARK Flexibility Score: inf
ROOT
ATOM      1  C   UNL     1      -8.083 -13.163  -3.040  1.00  0.00    -0.077 C 
ATOM      2  C   UNL     1      -8.904 -12.088  -3.058  1.00  0.00    -0.028 C 
ATOM      3  C   UNL     1      -7.442 -13.700  -4.300  1.00  0.00     0.039 C 
ENDROOT
BRANCH   1   4
ATOM      4  C   UNL     1      -7.792 -13.840  -1.719  1.00  0.00     0.034 C 
BRANCH   4   5
ATOM      5  C   UNL     1      -8.551 -15.166  -1.606  1.00  0.00     0.032 C 
BRANCH   5   6
ATOM      6  C   UNL     1      -8.402 -15.752  -0.224  1.00  0.00    -0.028 C 
ATOM      7  C   UNL     1      -9.094 -16.916   1.827  1.00  0.00     0.039 C 
ATOM      8  C   UNL     1      -9.402 -16.341   0.468  1.00  0.00    -0.080 C 
ATOM      9  C   UNL     1     -10.811 -16.421  -0.073  1.00  0.00     0.039 C 
ENDBRANCH   5   6
ENDBRANCH   4   5
ENDBRANCH   1   4
BRANCH   2  10
ATOM     10  C   UNL     1      -9.316 -11.345  -4.307  1.00  0.00     0.035 C 
BRANCH  10  11
ATOM     11  C   UNL     1     -10.577 -11.948  -4.938  1.00  0.00     0.079 C 
BRANCH  11  12
ATOM     12  C   UNL     1     -10.317 -12.437  -6.338  1.00  0.00     0.130 C 
ATOM     13  O   UNL     1      -9.687 -11.737  -7.116  1.00  0.00    -0.300 OA
ATOM     14  C   UNL     1     -10.784 -13.791  -6.782  1.00  0.00     0.087 C 
ENDBRANCH  11  12
ENDBRANCH  10  11
ENDBRANCH   2  10
TORSDOF 6
ENDMDL
MODEL 2
REMARK VINA RESULT:    -4.421      3.092      6.789
REMARK INTER + INTRA:          -6.541
REMARK INTER:                  -5.786
REMARK INTRA:                  -0.755
REMARK UNBOUND:                -0.569
REMARK SMILES CC(=O)CCC=C(C)CCC=C(C)C
REMARK SMILES IDX 7 1 6 2 8 3 9 4 10 5 11 6 13 7 12 8 14 9 5 10 4 11 2 12 3 13
REMARK SMILES IDX 1 14
REMARK H PARENT
REMARK Flexibility Score: inf
ROOT
ATOM      1  C   UNL     1      -8.390 -16.127  -1.768  1.00  0.00    -0.077 C 
ATOM      2  C   UNL     1      -9.179 -15.634  -0.786  1.00  0.00    -0.028 C 
ATOM      3  C   UNL     1      -8.395 -17.593  -2.136  1.00  0.00     0.039 C 
ENDROOT
BRANCH   1   4
ATOM      4  C   UNL     1      -7.484 -15.180  -2.524  1.00  0.00     0.034 C 
BRANCH   4   5
ATOM      5  C   UNL     1      -8.079 -13.768  -2.560  1.00  0.00     0.032 C 
BRANCH   5   6
ATOM      6  C   UNL     1      -8.787 -13.519  -3.868  1.00  0.00    -0.028 C 
ATOM      7  C   UNL     1     -10.069 -12.257  -5.542  1.00  0.00     0.039 C 
ATOM      8  C   UNL     1      -9.438 -12.376  -4.179  1.00  0.00    -0.080 C 
ATOM      9  C   UNL     1      -9.563 -11.234  -3.197  1.00  0.00     0.039 C 
ENDBRANCH   5   6
ENDBRANCH   4   5
ENDBRANCH   1   4
BRANCH   2  10
ATOM     10  C   UNL     1     -10.095 -16.468   0.078  1.00  0.00     0.035 C 
BRANCH  10  11
ATOM     11  C   UNL     1      -9.608 -16.529   1.531  1.00  0.00     0.079 C 
BRANCH  11  12
ATOM     12  C   UNL     1      -8.432 -17.457   1.684  1.00  0.00     0.130 C 
ATOM     13  O   UNL     1      -7.307 -16.993   1.794  1.00  0.00    -0.300 OA
ATOM     14  C   UNL     1      -8.623 -18.943   1.745  1.00  0.00     0.087 C 
ENDBRANCH  11  12
ENDBRANCH  10  11
ENDBRANCH   2  10
TORSDOF 6
ENDMDL
MODEL 3
REMARK VINA RESULT:    -4.413      1.092      1.312
REMARK INTER + INTRA:          -6.529
REMARK INTER:                  -5.931
REMARK INTRA:                  -0.598
REMARK UNBOUND:                -0.569
REMARK SMILES CC(=O)CCC=C(C)CCC=C(C)C
REMARK SMILES IDX 7 1 6 2 8 3 9 4 10 5 11 6 13 7 12 8 14 9 5 10 4 11 2 12 3 13
REMARK SMILES IDX 1 14
REMARK H PARENT
REMARK Flexibility Score: inf
ROOT
ATOM      1  C   UNL     1      -8.488 -13.340  -3.130  1.00  0.00    -0.077 C 
ATOM      2  C   UNL     1      -9.009 -12.093  -3.194  1.00  0.00    -0.028 C 
ATOM      3  C   UNL     1      -8.430 -14.244  -4.340  1.00  0.00     0.039 C 
ENDROOT
BRANCH   1   4
ATOM      4  C   UNL     1      -7.940 -13.837  -1.811  1.00  0.00     0.034 C 
BRANCH   4   5
ATOM      5  C   UNL     1      -8.268 -15.320  -1.607  1.00  0.00     0.032 C 
BRANCH   5   6
ATOM      6  C   UNL     1      -8.306 -15.662  -0.138  1.00  0.00    -0.028 C 
ATOM      7  C   UNL     1      -9.240 -16.549   1.955  1.00  0.00     0.039 C 
ATOM      8  C   UNL     1      -9.361 -16.229   0.487  1.00  0.00    -0.080 C 
ATOM      9  C   UNL     1     -10.653 -16.532  -0.237  1.00  0.00     0.039 C 
ENDBRANCH   5   6
ENDBRANCH   4   5
ENDBRANCH   1   4
BRANCH   2  10
ATOM     10  C   UNL     1      -9.630 -11.486  -4.429  1.00  0.00     0.035 C 
BRANCH  10  11
ATOM     11  C   UNL     1      -8.647 -10.569  -5.169  1.00  0.00     0.079 C 
BRANCH  11  12
ATOM     12  C   UNL     1      -8.621 -10.861  -6.646  1.00  0.00     0.130 C 
ATOM     13  O   UNL     1      -7.903 -10.198  -7.380  1.00  0.00    -0.300 OA
ATOM     14  C   UNL     1      -9.431 -11.981  -7.227  1.00  0.00     0.087 C 
ENDBRANCH  11  12
ENDBRANCH  10  11
ENDBRANCH   2  10
TORSDOF 6
ENDMDL
MODEL 4
REMARK VINA RESULT:    -4.357     13.203     15.028
REMARK INTER + INTRA:          -6.454
REMARK INTER:                  -5.584
REMARK INTRA:                  -0.870
REMARK UNBOUND:                -0.569
REMARK SMILES CC(=O)CCC=C(C)CCC=C(C)C
REMARK SMILES IDX 7 1 6 2 8 3 9 4 10 5 11 6 13 7 12 8 14 9 5 10 4 11 2 12 3 13
REMARK SMILES IDX 1 14
REMARK H PARENT
REMARK Flexibility Score: inf
ROOT
ATOM      1  C   UNL     1     -22.369  -9.955  -8.796  1.00  0.00    -0.077 C 
ATOM      2  C   UNL     1     -22.717  -9.887  -7.490  1.00  0.00    -0.028 C 
ATOM      3  C   UNL     1     -23.041  -9.101  -9.846  1.00  0.00     0.039 C 
ENDROOT
BRANCH   1   4
ATOM      4  C   UNL     1     -21.271 -10.908  -9.212  1.00  0.00     0.034 C 
BRANCH   4   5
ATOM      5  C   UNL     1     -20.612 -11.551  -7.987  1.00  0.00     0.032 C 
BRANCH   5   6
ATOM      6  C   UNL     1     -20.424 -13.033  -8.197  1.00  0.00    -0.028 C 
ATOM      7  C   UNL     1     -21.063 -15.404  -8.286  1.00  0.00     0.039 C 
ATOM      8  C   UNL     1     -21.386 -13.961  -7.999  1.00  0.00    -0.080 C 
ATOM      9  C   UNL     1     -22.759 -13.593  -7.484  1.00  0.00     0.039 C 
ENDBRANCH   5   6
ENDBRANCH   4   5
ENDBRANCH   1   4
BRANCH   2  10
ATOM     10  C   UNL     1     -23.823  -9.017  -6.941  1.00  0.00     0.035 C 
BRANCH  10  11
ATOM     11  C   UNL     1     -24.896  -9.846  -6.225  1.00  0.00     0.079 C 
BRANCH  11  12
ATOM     12  C   UNL     1     -24.508 -10.146  -4.801  1.00  0.00     0.130 C 
ATOM     13  O   UNL     1     -24.582  -9.266  -3.956  1.00  0.00    -0.300 OA
ATOM     14  C   UNL     1     -24.069 -11.520  -4.394  1.00  0.00     0.087 C 
ENDBRANCH  11  12
ENDBRANCH  10  11
ENDBRANCH   2  10
TORSDOF 6
ENDMDL
MODEL 5
REMARK VINA RESULT:    -4.312      2.509      6.349
REMARK INTER + INTRA:          -6.393
REMARK INTER:                  -5.714
REMARK INTRA:                  -0.679
REMARK UNBOUND:                -0.569
REMARK SMILES CC(=O)CCC=C(C)CCC=C(C)C
REMARK SMILES IDX 7 1 6 2 8 3 9 4 10 5 11 6 13 7 12 8 14 9 5 10 4 11 2 12 3 13
REMARK SMILES IDX 1 14
REMARK H PARENT
REMARK Flexibility Score: inf
ROOT
ATOM      1  C   UNL     1      -8.013 -14.045  -1.980  1.00  0.00    -0.077 C 
ATOM      2  C   UNL     1      -8.356 -15.322  -2.265  1.00  0.00    -0.028 C 
ATOM      3  C   UNL     1      -7.019 -13.708  -0.892  1.00  0.00     0.039 C 
ENDROOT
BRANCH   1   4
ATOM      4  C   UNL     1      -8.637 -12.924  -2.781  1.00  0.00     0.034 C 
BRANCH   4   5
ATOM      5  C   UNL     1      -8.085 -12.901  -4.211  1.00  0.00     0.032 C 
BRANCH   5   6
ATOM      6  C   UNL     1      -9.050 -13.555  -5.168  1.00  0.00    -0.028 C 
ATOM      7  C   UNL     1     -10.886 -13.679  -6.797  1.00  0.00     0.039 C 
ATOM      8  C   UNL     1     -10.018 -12.897  -5.845  1.00  0.00    -0.080 C 
ATOM      9  C   UNL     1     -10.259 -11.417  -5.660  1.00  0.00     0.039 C 
ENDBRANCH   5   6
ENDBRANCH   4   5
ENDBRANCH   1   4
BRANCH   2  10
ATOM     10  C   UNL     1      -7.848 -16.533  -1.518  1.00  0.00     0.035 C 
BRANCH  10  11
ATOM     11  C   UNL     1      -8.994 -17.337  -0.890  1.00  0.00     0.079 C 
BRANCH  11  12
ATOM     12  C   UNL     1      -9.649 -16.583   0.236  1.00  0.00     0.130 C 
ATOM     13  O   UNL     1     -10.810 -16.220   0.126  1.00  0.00    -0.300 OA
ATOM     14  C   UNL     1      -8.910 -16.304   1.511  1.00  0.00     0.087 C 
ENDBRANCH  11  12
ENDBRANCH  10  11
ENDBRANCH   2  10
TORSDOF 6
ENDMDL
MODEL 6
REMARK VINA RESULT:    -4.261      1.301      2.019
REMARK INTER + INTRA:          -6.325
REMARK INTER:                  -5.549
REMARK INTRA:                  -0.776
REMARK UNBOUND:                -0.569
REMARK SMILES CC(=O)CCC=C(C)CCC=C(C)C
REMARK SMILES IDX 7 1 6 2 8 3 9 4 10 5 11 6 13 7 12 8 14 9 5 10 4 11 2 12 3 13
REMARK SMILES IDX 1 14
REMARK H PARENT
REMARK Flexibility Score: inf
ROOT
ATOM      1  C   UNL     1      -7.592 -14.842  -1.924  1.00  0.00    -0.077 C 
ATOM      2  C   UNL     1      -7.957 -13.574  -2.226  1.00  0.00    -0.028 C 
ATOM      3  C   UNL     1      -8.012 -16.017  -2.776  1.00  0.00     0.039 C 
ENDROOT
BRANCH   1   4
ATOM      4  C   UNL     1      -6.733 -15.085  -0.703  1.00  0.00     0.034 C 
BRANCH   4   5
ATOM      5  C   UNL     1      -7.520 -14.809   0.583  1.00  0.00     0.032 C 
BRANCH   5   6
ATOM      6  C   UNL     1      -7.893 -16.100   1.268  1.00  0.00    -0.028 C 
ATOM      7  C   UNL     1      -9.301 -18.029   1.848  1.00  0.00     0.039 C 
ATOM      8  C   UNL     1      -9.085 -16.723   1.129  1.00  0.00    -0.080 C 
ATOM      9  C   UNL     1     -10.200 -16.138   0.293  1.00  0.00     0.039 C 
ENDBRANCH   5   6
ENDBRANCH   4   5
ENDBRANCH   1   4
BRANCH   2  10
ATOM     10  C   UNL     1      -8.847 -13.191  -3.384  1.00  0.00     0.035 C 
BRANCH  10  11
ATOM     11  C   UNL     1      -9.146 -11.686  -3.399  1.00  0.00     0.079 C 
BRANCH  11  12
ATOM     12  C   UNL     1      -9.349 -11.175  -4.800  1.00  0.00     0.130 C 
ATOM     13  O   UNL     1      -8.628 -10.287  -5.230  1.00  0.00    -0.300 OA
ATOM     14  C   UNL     1     -10.400 -11.765  -5.693  1.00  0.00     0.087 C 
ENDBRANCH  11  12
ENDBRANCH  10  11
ENDBRANCH   2  10
TORSDOF 6
ENDMDL
MODEL 7
REMARK VINA RESULT:    -4.260     12.955     14.959
REMARK INTER + INTRA:          -6.322
REMARK INTER:                  -5.225
REMARK INTRA:                  -1.098
REMARK UNBOUND:                -0.569
REMARK SMILES CC(=O)CCC=C(C)CCC=C(C)C
REMARK SMILES IDX 7 1 6 2 8 3 9 4 10 5 11 6 13 7 12 8 14 9 5 10 4 11 2 12 3 13
REMARK SMILES IDX 1 14
REMARK H PARENT
REMARK Flexibility Score: inf
ROOT
ATOM      1  C   UNL     1     -21.976 -10.389  -8.626  1.00  0.00    -0.077 C 
ATOM      2  C   UNL     1     -21.315 -11.215  -7.782  1.00  0.00    -0.028 C 
ATOM      3  C   UNL     1     -21.794 -10.466 -10.124  1.00  0.00     0.039 C 
ENDROOT
BRANCH   1   4
ATOM      4  C   UNL     1     -22.929  -9.366  -8.050  1.00  0.00     0.034 C 
BRANCH   4   5
ATOM      5  C   UNL     1     -24.205 -10.038  -7.532  1.00  0.00     0.032 C 
BRANCH   5   6
ATOM      6  C   UNL     1     -24.509  -9.594  -6.123  1.00  0.00    -0.028 C 
ATOM      7  C   UNL     1     -24.608  -9.753  -3.672  1.00  0.00     0.039 C 
ATOM      8  C   UNL     1     -24.288 -10.345  -5.020  1.00  0.00    -0.080 C 
ATOM      9  C   UNL     1     -23.751 -11.755  -5.107  1.00  0.00     0.039 C 
ENDBRANCH   5   6
ENDBRANCH   4   5
ENDBRANCH   1   4
BRANCH   2  10
ATOM     10  C   UNL     1     -20.303 -12.250  -8.214  1.00  0.00     0.035 C 
BRANCH  10  11
ATOM     11  C   UNL     1     -20.807 -13.678  -7.966  1.00  0.00     0.079 C 
BRANCH  11  12
ATOM     12  C   UNL     1     -21.994 -14.005  -8.831  1.00  0.00     0.130 C 
ATOM     13  O   UNL     1     -21.839 -14.175 -10.031  1.00  0.00    -0.300 OA
ATOM     14  C   UNL     1     -23.361 -14.167  -8.237  1.00  0.00     0.087 C 
ENDBRANCH  11  12
ENDBRANCH  10  11
ENDBRANCH   2  10
TORSDOF 6
ENDMDL
MODEL 8
REMARK VINA RESULT:    -4.221     13.784     16.120
REMARK INTER + INTRA:          -6.270
REMARK INTER:                  -5.531
REMARK INTRA:                  -0.739
REMARK UNBOUND:                -0.569
REMARK SMILES CC(=O)CCC=C(C)CCC=C(C)C
REMARK SMILES IDX 7 1 6 2 8 3 9 4 10 5 11 6 13 7 12 8 14 9 5 10 4 11 2 12 3 13
REMARK SMILES IDX 1 14
REMARK H PARENT
REMARK Flexibility Score: inf
ROOT
ATOM      1  C   UNL     1     -24.405 -10.185  -4.835  1.00  0.00    -0.077 C 
ATOM      2  C   UNL     1     -24.342  -9.323  -5.875  1.00  0.00    -0.028 C 
ATOM      3  C   UNL     1     -24.956  -9.773  -3.489  1.00  0.00     0.039 C 
ENDROOT
BRANCH   1   4
ATOM      4  C   UNL     1     -23.918 -11.604  -5.030  1.00  0.00     0.034 C 
BRANCH   4   5
ATOM      5  C   UNL     1     -23.746 -11.923  -6.519  1.00  0.00     0.032 C 
BRANCH   5   6
ATOM      6  C   UNL     1     -22.306 -12.245  -6.833  1.00  0.00    -0.028 C 
ATOM      7  C   UNL     1     -20.093 -11.944  -7.859  1.00  0.00     0.039 C 
ATOM      8  C   UNL     1     -21.527 -11.522  -7.669  1.00  0.00    -0.080 C 
ATOM      9  C   UNL     1     -22.058 -10.326  -8.425  1.00  0.00     0.039 C 
ENDBRANCH   5   6
ENDBRANCH   4   5
ENDBRANCH   1   4
BRANCH   2  10
ATOM     10  C   UNL     1     -24.749  -7.870  -5.811  1.00  0.00     0.035 C 
BRANCH  10  11
ATOM     11  C   UNL     1     -24.745  -7.215  -7.198  1.00  0.00     0.079 C 
BRANCH  11  12
ATOM     12  C   UNL     1     -24.744  -5.712  -7.103  1.00  0.00     0.130 C 
ATOM     13  O   UNL     1     -24.398  -5.046  -8.066  1.00  0.00    -0.300 OA
ATOM     14  C   UNL     1     -25.201  -5.017  -5.855  1.00  0.00     0.087 C 
ENDBRANCH  11  12
ENDBRANCH  10  11
ENDBRANCH   2  10
TORSDOF 6
ENDMDL
MODEL 9
REMARK VINA RESULT:    -4.189      1.439      2.036
REMARK INTER + INTRA:          -6.226
REMARK INTER:                  -5.738
REMARK INTRA:                  -0.489
REMARK UNBOUND:                -0.569
REMARK SMILES CC(=O)CCC=C(C)CCC=C(C)C
REMARK SMILES IDX 7 1 6 2 8 3 9 4 10 5 11 6 13 7 12 8 14 9 5 10 4 11 2 12 3 13
REMARK SMILES IDX 1 14
REMARK H PARENT
REMARK Flexibility Score: inf
ROOT
ATOM      1  C   UNL     1      -8.965 -12.575  -3.560  1.00  0.00    -0.077 C 
ATOM      2  C   UNL     1      -9.281 -13.147  -4.744  1.00  0.00    -0.028 C 
ATOM      3  C   UNL     1      -9.558 -11.253  -3.128  1.00  0.00     0.039 C 
ENDROOT
BRANCH   1   4
ATOM      4  C   UNL     1      -7.996 -13.284  -2.640  1.00  0.00     0.034 C 
BRANCH   4   5
ATOM      5  C   UNL     1      -8.522 -14.673  -2.259  1.00  0.00     0.032 C 
BRANCH   5   6
ATOM      6  C   UNL     1      -8.028 -15.075  -0.892  1.00  0.00    -0.028 C 
ATOM      7  C   UNL     1      -8.090 -16.188   1.298  1.00  0.00     0.039 C 
ATOM      8  C   UNL     1      -8.728 -15.835  -0.020  1.00  0.00    -0.080 C 
ATOM      9  C   UNL     1     -10.127 -16.318  -0.324  1.00  0.00     0.039 C 
ENDBRANCH   5   6
ENDBRANCH   4   5
ENDBRANCH   1   4
BRANCH   2  10
ATOM     10  C   UNL     1     -10.195 -12.531  -5.777  1.00  0.00     0.035 C 
BRANCH  10  11
ATOM     11  C   UNL     1     -10.070 -13.231  -7.137  1.00  0.00     0.079 C 
BRANCH  11  12
ATOM     12  C   UNL     1     -10.853 -14.517  -7.173  1.00  0.00     0.130 C 
ATOM     13  O   UNL     1     -12.074 -14.482  -7.154  1.00  0.00    -0.300 OA
ATOM     14  C   UNL     1     -10.157 -15.841  -7.274  1.00  0.00     0.087 C 
ENDBRANCH  11  12
ENDBRANCH  10  11
ENDBRANCH   2  10
TORSDOF 6
ENDMDL
