MODEL 1
REMARK VINA RESULT:    -7.450      0.000      0.000
REMARK INTER + INTRA:         -10.169
REMARK INTER:                  -9.410
REMARK INTRA:                  -0.759
REMARK UNBOUND:                -0.759
REMARK SMILES O=C(C=Cc1ccc(O)cc1)c1ccc(O)cc1O
REMARK SMILES IDX 4 1 3 2 5 3 6 4 7 5 8 6 11 7 10 8 9 9 2 11 1 12 12 13 18 14
REMARK SMILES IDX 13 15 17 16 14 17 15 18 19 19 16 21
REMARK H PARENT 9 10 19 20 16 22
REMARK Flexibility Score: inf
ROOT
ATOM      1  C   UNL     1      60.474 -17.487  -0.579  1.00  0.00     0.012 C 
ATOM      2  C   UNL     1      59.142 -17.595  -0.460  1.00  0.00     0.053 C 
ENDROOT
BRANCH   1   3
ATOM      3  C   UNL     1      61.157 -16.288  -1.123  1.00  0.00    -0.025 A 
ATOM      4  C   UNL     1      60.398 -15.350  -1.843  1.00  0.00     0.012 A 
ATOM      5  C   UNL     1      60.998 -14.200  -2.365  1.00  0.00     0.047 A 
ATOM      6  C   UNL     1      62.365 -13.967  -2.166  1.00  0.00     0.115 A 
ATOM      7  C   UNL     1      62.529 -16.038  -0.915  1.00  0.00     0.012 A 
ATOM      8  C   UNL     1      63.125 -14.886  -1.439  1.00  0.00     0.047 A 
BRANCH   6   9
ATOM      9  O   UNL     1      62.973 -12.825  -2.682  1.00  0.00    -0.508 OA
ATOM     10  H   UNL     1      63.971 -12.790  -2.858  1.00  0.00     0.293 HD
ENDBRANCH   6   9
ENDBRANCH   1   3
BRANCH   2  11
ATOM     11  C   UNL     1      58.497 -18.801   0.105  1.00  0.00     0.189 C 
ATOM     12  O   UNL     1      57.431 -19.238  -0.410  1.00  0.00    -0.289 OA
BRANCH  11  13
ATOM     13  C   UNL     1      59.090 -19.513   1.265  1.00  0.00     0.064 A 
ATOM     14  C   UNL     1      59.591 -20.828   1.131  1.00  0.00     0.130 A 
ATOM     15  C   UNL     1      59.141 -18.890   2.528  1.00  0.00     0.020 A 
ATOM     16  C   UNL     1      60.132 -21.488   2.244  1.00  0.00     0.093 A 
ATOM     17  C   UNL     1      59.684 -19.557   3.629  1.00  0.00     0.047 A 
ATOM     18  C   UNL     1      60.181 -20.855   3.491  1.00  0.00     0.119 A 
BRANCH  14  19
ATOM     19  O   UNL     1      59.566 -21.471  -0.107  1.00  0.00    -0.507 OA
ATOM     20  H   UNL     1      58.771 -21.396  -0.730  1.00  0.00     0.293 HD
ENDBRANCH  14  19
BRANCH  18  21
ATOM     21  O   UNL     1      60.718 -21.506   4.600  1.00  0.00    -0.508 OA
ATOM     22  H   UNL     1      60.815 -22.514   4.625  1.00  0.00     0.293 HD
ENDBRANCH  18  21
ENDBRANCH  11  13
ENDBRANCH   2  11
TORSDOF 6
ENDMDL
MODEL 2
REMARK VINA RESULT:    -7.424      1.805      2.394
REMARK INTER + INTRA:         -10.136
REMARK INTER:                  -9.614
REMARK INTRA:                  -0.521
REMARK UNBOUND:                -0.759
REMARK SMILES O=C(C=Cc1ccc(O)cc1)c1ccc(O)cc1O
REMARK SMILES IDX 4 1 3 2 5 3 6 4 7 5 8 6 11 7 10 8 9 9 2 11 1 12 12 13 18 14
REMARK SMILES IDX 13 15 17 16 14 17 15 18 19 19 16 21
REMARK H PARENT 9 10 19 20 16 22
REMARK Flexibility Score: inf
ROOT
ATOM      1  C   UNL     1      61.158 -17.171   0.035  1.00  0.00     0.012 C 
ATOM      2  C   UNL     1      61.956 -18.212   0.318  1.00  0.00     0.053 C 
ENDROOT
BRANCH   1   3
ATOM      3  C   UNL     1      61.659 -15.814  -0.290  1.00  0.00    -0.025 A 
ATOM      4  C   UNL     1      62.585 -15.672  -1.337  1.00  0.00     0.012 A 
ATOM      5  C   UNL     1      63.076 -14.411  -1.686  1.00  0.00     0.047 A 
ATOM      6  C   UNL     1      62.641 -13.271  -0.998  1.00  0.00     0.115 A 
ATOM      7  C   UNL     1      61.215 -14.660   0.386  1.00  0.00     0.012 A 
ATOM      8  C   UNL     1      61.709 -13.400   0.034  1.00  0.00     0.047 A 
BRANCH   6   9
ATOM      9  O   UNL     1      63.125 -12.009  -1.336  1.00  0.00    -0.508 OA
ATOM     10  H   UNL     1      64.115 -11.840  -1.470  1.00  0.00     0.293 HD
ENDBRANCH   6   9
ENDBRANCH   1   3
BRANCH   2  11
ATOM     11  C   UNL     1      61.419 -19.558   0.620  1.00  0.00     0.189 C 
ATOM     12  O   UNL     1      61.449 -20.456  -0.265  1.00  0.00    -0.289 OA
BRANCH  11  13
ATOM     13  C   UNL     1      60.852 -19.872   1.957  1.00  0.00     0.064 A 
ATOM     14  C   UNL     1      61.661 -20.419   2.977  1.00  0.00     0.130 A 
ATOM     15  C   UNL     1      59.486 -19.647   2.217  1.00  0.00     0.020 A 
ATOM     16  C   UNL     1      61.102 -20.724   4.227  1.00  0.00     0.093 A 
ATOM     17  C   UNL     1      58.940 -19.952   3.467  1.00  0.00     0.047 A 
ATOM     18  C   UNL     1      59.744 -20.490   4.473  1.00  0.00     0.119 A 
BRANCH  14  19
ATOM     19  O   UNL     1      63.020 -20.644   2.758  1.00  0.00    -0.507 OA
ATOM     20  H   UNL     1      63.346 -21.384   2.147  1.00  0.00     0.293 HD
ENDBRANCH  14  19
BRANCH  18  21
ATOM     21  O   UNL     1      59.183 -20.789   5.713  1.00  0.00    -0.508 OA
ATOM     22  H   UNL     1      59.543 -20.383   6.569  1.00  0.00     0.293 HD
ENDBRANCH  18  21
ENDBRANCH  11  13
ENDBRANCH   2  11
TORSDOF 6
ENDMDL
MODEL 3
REMARK VINA RESULT:    -7.293      1.389      1.906
REMARK INTER + INTRA:          -9.971
REMARK INTER:                  -9.239
REMARK INTRA:                  -0.733
REMARK UNBOUND:                -0.759
REMARK SMILES O=C(C=Cc1ccc(O)cc1)c1ccc(O)cc1O
REMARK SMILES IDX 4 1 3 2 5 3 6 4 7 5 8 6 11 7 10 8 9 9 2 11 1 12 12 13 18 14
REMARK SMILES IDX 13 15 17 16 14 17 15 18 19 19 16 21
REMARK H PARENT 9 10 19 20 16 22
REMARK Flexibility Score: inf
ROOT
ATOM      1  C   UNL     1      60.256 -16.245   0.015  1.00  0.00     0.012 C 
ATOM      2  C   UNL     1      59.914 -17.411  -0.552  1.00  0.00     0.053 C 
ENDROOT
BRANCH   1   3
ATOM      3  C   UNL     1      60.975 -15.162  -0.699  1.00  0.00    -0.025 A 
ATOM      4  C   UNL     1      61.475 -14.081   0.047  1.00  0.00     0.012 A 
ATOM      5  C   UNL     1      62.168 -13.043  -0.583  1.00  0.00     0.047 A 
ATOM      6  C   UNL     1      62.380 -13.076  -1.967  1.00  0.00     0.115 A 
ATOM      7  C   UNL     1      61.206 -15.194  -2.089  1.00  0.00     0.012 A 
ATOM      8  C   UNL     1      61.900 -14.153  -2.715  1.00  0.00     0.047 A 
BRANCH   6   9
ATOM      9  O   UNL     1      63.068 -12.046  -2.605  1.00  0.00    -0.508 OA
ATOM     10  H   UNL     1      63.950 -11.697  -2.247  1.00  0.00     0.293 HD
ENDBRANCH   6   9
ENDBRANCH   1   3
BRANCH   2  11
ATOM     11  C   UNL     1      59.180 -18.463   0.188  1.00  0.00     0.189 C 
ATOM     12  O   UNL     1      58.033 -18.816  -0.202  1.00  0.00    -0.289 OA
BRANCH  11  13
ATOM     13  C   UNL     1      59.778 -19.117   1.380  1.00  0.00     0.064 A 
ATOM     14  C   UNL     1      59.051 -19.230   2.586  1.00  0.00     0.130 A 
ATOM     15  C   UNL     1      61.093 -19.618   1.327  1.00  0.00     0.020 A 
ATOM     16  C   UNL     1      59.641 -19.837   3.705  1.00  0.00     0.093 A 
ATOM     17  C   UNL     1      61.670 -20.223   2.447  1.00  0.00     0.047 A 
ATOM     18  C   UNL     1      60.947 -20.335   3.636  1.00  0.00     0.119 A 
BRANCH  14  19
ATOM     19  O   UNL     1      57.743 -18.754   2.671  1.00  0.00    -0.507 OA
ATOM     20  H   UNL     1      57.132 -19.008   3.438  1.00  0.00     0.293 HD
ENDBRANCH  14  19
BRANCH  18  21
ATOM     21  O   UNL     1      61.538 -20.940   4.744  1.00  0.00    -0.508 OA
ATOM     22  H   UNL     1      61.456 -21.936   4.908  1.00  0.00     0.293 HD
ENDBRANCH  18  21
ENDBRANCH  11  13
ENDBRANCH   2  11
TORSDOF 6
ENDMDL
MODEL 4
REMARK VINA RESULT:    -7.191      2.118      2.870
REMARK INTER + INTRA:          -9.841
REMARK INTER:                  -9.259
REMARK INTRA:                  -0.582
REMARK UNBOUND:                -0.759
REMARK SMILES O=C(C=Cc1ccc(O)cc1)c1ccc(O)cc1O
REMARK SMILES IDX 4 1 3 2 5 3 6 4 7 5 8 6 11 7 10 8 9 9 2 11 1 12 12 13 18 14
REMARK SMILES IDX 13 15 17 16 14 17 15 18 19 19 16 21
REMARK H PARENT 9 10 19 20 16 22
REMARK Flexibility Score: inf
ROOT
ATOM      1  C   UNL     1      61.820 -18.282   0.505  1.00  0.00     0.012 C 
ATOM      2  C   UNL     1      61.074 -18.629   1.563  1.00  0.00     0.053 C 
ENDROOT
BRANCH   1   3
ATOM      3  C   UNL     1      61.979 -16.884   0.032  1.00  0.00    -0.025 A 
ATOM      4  C   UNL     1      61.268 -15.867   0.690  1.00  0.00     0.012 A 
ATOM      5  C   UNL     1      61.395 -14.535   0.286  1.00  0.00     0.047 A 
ATOM      6  C   UNL     1      62.243 -14.199  -0.777  1.00  0.00     0.115 A 
ATOM      7  C   UNL     1      62.841 -16.536  -1.027  1.00  0.00     0.012 A 
ATOM      8  C   UNL     1      62.966 -15.202  -1.428  1.00  0.00     0.047 A 
BRANCH   6   9
ATOM      9  O   UNL     1      62.377 -12.876  -1.190  1.00  0.00    -0.508 OA
ATOM     10  H   UNL     1      63.214 -12.548  -1.657  1.00  0.00     0.293 HD
ENDBRANCH   6   9
ENDBRANCH   1   3
BRANCH   2  11
ATOM     11  C   UNL     1      60.954 -20.033   2.016  1.00  0.00     0.189 C 
ATOM     12  O   UNL     1      61.762 -20.901   1.584  1.00  0.00    -0.289 OA
BRANCH  11  13
ATOM     13  C   UNL     1      59.900 -20.437   2.983  1.00  0.00     0.064 A 
ATOM     14  C   UNL     1      60.230 -20.782   4.313  1.00  0.00     0.130 A 
ATOM     15  C   UNL     1      58.553 -20.502   2.575  1.00  0.00     0.020 A 
ATOM     16  C   UNL     1      59.222 -21.177   5.204  1.00  0.00     0.093 A 
ATOM     17  C   UNL     1      57.557 -20.895   3.473  1.00  0.00     0.047 A 
ATOM     18  C   UNL     1      57.887 -21.232   4.787  1.00  0.00     0.119 A 
BRANCH  14  19
ATOM     19  O   UNL     1      61.552 -20.718   4.753  1.00  0.00    -0.507 OA
ATOM     20  H   UNL     1      61.792 -20.349   5.665  1.00  0.00     0.293 HD
ENDBRANCH  14  19
BRANCH  18  21
ATOM     21  O   UNL     1      56.881 -21.622   5.669  1.00  0.00    -0.508 OA
ATOM     22  H   UNL     1      56.407 -20.950   6.262  1.00  0.00     0.293 HD
ENDBRANCH  18  21
ENDBRANCH  11  13
ENDBRANCH   2  11
TORSDOF 6
ENDMDL
MODEL 5
REMARK VINA RESULT:    -7.082      2.465      3.692
REMARK INTER + INTRA:          -9.704
REMARK INTER:                  -8.982
REMARK INTRA:                  -0.722
REMARK UNBOUND:                -0.759
REMARK SMILES O=C(C=Cc1ccc(O)cc1)c1ccc(O)cc1O
REMARK SMILES IDX 4 1 3 2 5 3 6 4 7 5 8 6 11 7 10 8 9 9 2 11 1 12 12 13 18 14
REMARK SMILES IDX 13 15 17 16 14 17 15 18 19 19 16 21
REMARK H PARENT 9 10 19 20 16 22
REMARK Flexibility Score: inf
ROOT
ATOM      1  C   UNL     1      61.088 -15.336  -2.159  1.00  0.00     0.012 C 
ATOM      2  C   UNL     1      60.537 -15.075  -0.964  1.00  0.00     0.053 C 
ENDROOT
BRANCH   1   3
ATOM      3  C   UNL     1      60.992 -14.425  -3.326  1.00  0.00    -0.025 A 
ATOM      4  C   UNL     1      59.720 -14.115  -3.834  1.00  0.00     0.012 A 
ATOM      5  C   UNL     1      59.581 -13.252  -4.925  1.00  0.00     0.047 A 
ATOM      6  C   UNL     1      60.713 -12.680  -5.519  1.00  0.00     0.115 A 
ATOM      7  C   UNL     1      62.125 -13.832  -3.920  1.00  0.00     0.012 A 
ATOM      8  C   UNL     1      61.981 -12.971  -5.011  1.00  0.00     0.047 A 
BRANCH   6   9
ATOM      9  O   UNL     1      60.587 -11.821  -6.608  1.00  0.00    -0.508 OA
ATOM     10  H   UNL     1      60.399 -12.171  -7.540  1.00  0.00     0.293 HD
ENDBRANCH   6   9
ENDBRANCH   1   3
BRANCH   2  11
ATOM     11  C   UNL     1      60.669 -16.001   0.184  1.00  0.00     0.189 C 
ATOM     12  O   UNL     1      61.378 -15.671   1.174  1.00  0.00    -0.289 OA
BRANCH  11  13
ATOM     13  C   UNL     1      59.970 -17.311   0.193  1.00  0.00     0.064 A 
ATOM     14  C   UNL     1      60.654 -18.495   0.553  1.00  0.00     0.130 A 
ATOM     15  C   UNL     1      58.615 -17.394  -0.179  1.00  0.00     0.020 A 
ATOM     16  C   UNL     1      59.979 -19.725   0.539  1.00  0.00     0.093 A 
ATOM     17  C   UNL     1      57.952 -18.624  -0.188  1.00  0.00     0.047 A 
ATOM     18  C   UNL     1      58.630 -19.791   0.171  1.00  0.00     0.119 A 
BRANCH  14  19
ATOM     19  O   UNL     1      61.994 -18.449   0.938  1.00  0.00    -0.507 OA
ATOM     20  H   UNL     1      62.377 -17.657   1.440  1.00  0.00     0.293 HD
ENDBRANCH  14  19
BRANCH  18  21
ATOM     21  O   UNL     1      57.955 -21.010   0.157  1.00  0.00    -0.508 OA
ATOM     22  H   UNL     1      57.014 -21.097   0.522  1.00  0.00     0.293 HD
ENDBRANCH  18  21
ENDBRANCH  11  13
ENDBRANCH   2  11
TORSDOF 6
ENDMDL
MODEL 6
REMARK VINA RESULT:    -6.910      2.545      3.664
REMARK INTER + INTRA:          -9.487
REMARK INTER:                  -8.817
REMARK INTRA:                  -0.670
REMARK UNBOUND:                -0.759
REMARK SMILES O=C(C=Cc1ccc(O)cc1)c1ccc(O)cc1O
REMARK SMILES IDX 4 1 3 2 5 3 6 4 7 5 8 6 11 7 10 8 9 9 2 11 1 12 12 13 18 14
REMARK SMILES IDX 13 15 17 16 14 17 15 18 19 19 16 21
REMARK H PARENT 9 10 19 20 16 22
REMARK Flexibility Score: inf
ROOT
ATOM      1  C   UNL     1      61.519 -14.876  -1.760  1.00  0.00     0.012 C 
ATOM      2  C   UNL     1      60.648 -15.439  -0.910  1.00  0.00     0.053 C 
ENDROOT
BRANCH   1   3
ATOM      3  C   UNL     1      61.130 -14.262  -3.053  1.00  0.00    -0.025 A 
ATOM      4  C   UNL     1      59.775 -14.283  -3.426  1.00  0.00     0.012 A 
ATOM      5  C   UNL     1      59.361 -13.708  -4.631  1.00  0.00     0.047 A 
ATOM      6  C   UNL     1      60.294 -13.094  -5.476  1.00  0.00     0.115 A 
ATOM      7  C   UNL     1      62.060 -13.629  -3.902  1.00  0.00     0.012 A 
ATOM      8  C   UNL     1      61.640 -13.054  -5.106  1.00  0.00     0.047 A 
BRANCH   6   9
ATOM      9  O   UNL     1      59.893 -12.518  -6.679  1.00  0.00    -0.508 OA
ATOM     10  H   UNL     1      59.759 -13.076  -7.515  1.00  0.00     0.293 HD
ENDBRANCH   6   9
ENDBRANCH   1   3
BRANCH   2  11
ATOM     11  C   UNL     1      61.072 -16.026   0.381  1.00  0.00     0.189 C 
ATOM     12  O   UNL     1      61.607 -15.290   1.255  1.00  0.00    -0.289 OA
BRANCH  11  13
ATOM     13  C   UNL     1      60.868 -17.469   0.668  1.00  0.00     0.064 A 
ATOM     14  C   UNL     1      60.061 -17.886   1.750  1.00  0.00     0.130 A 
ATOM     15  C   UNL     1      61.501 -18.445  -0.127  1.00  0.00     0.020 A 
ATOM     16  C   UNL     1      59.895 -19.253   2.014  1.00  0.00     0.093 A 
ATOM     17  C   UNL     1      61.327 -19.805   0.145  1.00  0.00     0.047 A 
ATOM     18  C   UNL     1      60.525 -20.212   1.213  1.00  0.00     0.119 A 
BRANCH  14  19
ATOM     19  O   UNL     1      59.411 -16.946   2.551  1.00  0.00    -0.507 OA
ATOM     20  H   UNL     1      58.751 -16.282   2.164  1.00  0.00     0.293 HD
ENDBRANCH  14  19
BRANCH  18  21
ATOM     21  O   UNL     1      60.364 -21.573   1.469  1.00  0.00    -0.508 OA
ATOM     22  H   UNL     1      59.925 -22.189   0.796  1.00  0.00     0.293 HD
ENDBRANCH  18  21
ENDBRANCH  11  13
ENDBRANCH   2  11
TORSDOF 6
ENDMDL
MODEL 7
REMARK VINA RESULT:    -6.897      2.124      7.772
REMARK INTER + INTRA:          -9.471
REMARK INTER:                  -8.872
REMARK INTRA:                  -0.599
REMARK UNBOUND:                -0.759
REMARK SMILES O=C(C=Cc1ccc(O)cc1)c1ccc(O)cc1O
REMARK SMILES IDX 4 1 3 2 5 3 6 4 7 5 8 6 11 7 10 8 9 9 2 11 1 12 12 13 18 14
REMARK SMILES IDX 13 15 17 16 14 17 15 18 19 19 16 21
REMARK H PARENT 9 10 19 20 16 22
REMARK Flexibility Score: inf
ROOT
ATOM      1  C   UNL     1      60.175 -16.821   1.127  1.00  0.00     0.012 C 
ATOM      2  C   UNL     1      61.084 -16.184   0.374  1.00  0.00     0.053 C 
ENDROOT
BRANCH   1   3
ATOM      3  C   UNL     1      60.360 -18.197   1.652  1.00  0.00    -0.025 A 
ATOM      4  C   UNL     1      59.489 -18.656   2.653  1.00  0.00     0.012 A 
ATOM      5  C   UNL     1      59.619 -19.949   3.170  1.00  0.00     0.047 A 
ATOM      6  C   UNL     1      60.616 -20.804   2.685  1.00  0.00     0.115 A 
ATOM      7  C   UNL     1      61.351 -19.069   1.159  1.00  0.00     0.012 A 
ATOM      8  C   UNL     1      61.478 -20.361   1.678  1.00  0.00     0.047 A 
BRANCH   6   9
ATOM      9  O   UNL     1      60.756 -22.094   3.193  1.00  0.00    -0.508 OA
ATOM     10  H   UNL     1      61.402 -22.758   2.782  1.00  0.00     0.293 HD
ENDBRANCH   6   9
ENDBRANCH   1   3
BRANCH   2  11
ATOM     11  C   UNL     1      60.872 -14.803  -0.117  1.00  0.00     0.189 C 
ATOM     12  O   UNL     1      60.222 -13.983   0.587  1.00  0.00    -0.289 OA
BRANCH  11  13
ATOM     13  C   UNL     1      61.423 -14.364  -1.425  1.00  0.00     0.064 A 
ATOM     14  C   UNL     1      62.475 -13.424  -1.490  1.00  0.00     0.130 A 
ATOM     15  C   UNL     1      60.883 -14.867  -2.625  1.00  0.00     0.020 A 
ATOM     16  C   UNL     1      62.969 -13.010  -2.736  1.00  0.00     0.093 A 
ATOM     17  C   UNL     1      61.385 -14.449  -3.861  1.00  0.00     0.047 A 
ATOM     18  C   UNL     1      62.427 -13.522  -3.920  1.00  0.00     0.119 A 
BRANCH  14  19
ATOM     19  O   UNL     1      63.040 -12.913  -0.321  1.00  0.00    -0.507 OA
ATOM     20  H   UNL     1      62.836 -13.311   0.588  1.00  0.00     0.293 HD
ENDBRANCH  14  19
BRANCH  18  21
ATOM     21  O   UNL     1      62.915 -13.116  -5.160  1.00  0.00    -0.508 OA
ATOM     22  H   UNL     1      63.366 -13.768  -5.791  1.00  0.00     0.293 HD
ENDBRANCH  18  21
ENDBRANCH  11  13
ENDBRANCH   2  11
TORSDOF 6
ENDMDL
MODEL 8
REMARK VINA RESULT:    -6.823      3.858      8.803
REMARK INTER + INTRA:          -9.377
REMARK INTER:                  -8.838
REMARK INTRA:                  -0.539
REMARK UNBOUND:                -0.759
REMARK SMILES O=C(C=Cc1ccc(O)cc1)c1ccc(O)cc1O
REMARK SMILES IDX 4 1 3 2 5 3 6 4 7 5 8 6 11 7 10 8 9 9 2 11 1 12 12 13 18 14
REMARK SMILES IDX 13 15 17 16 14 17 15 18 19 19 16 21
REMARK H PARENT 9 10 19 20 16 22
REMARK Flexibility Score: inf
ROOT
ATOM      1  C   UNL     1      60.859 -14.330  -2.466  1.00  0.00     0.012 C 
ATOM      2  C   UNL     1      61.008 -14.345  -3.799  1.00  0.00     0.053 C 
ENDROOT
BRANCH   1   3
ATOM      3  C   UNL     1      61.130 -15.499  -1.594  1.00  0.00    -0.025 A 
ATOM      4  C   UNL     1      62.465 -15.877  -1.373  1.00  0.00     0.012 A 
ATOM      5  C   UNL     1      62.768 -16.965  -0.549  1.00  0.00     0.047 A 
ATOM      6  C   UNL     1      61.741 -17.686   0.072  1.00  0.00     0.115 A 
ATOM      7  C   UNL     1      60.103 -16.220  -0.953  1.00  0.00     0.012 A 
ATOM      8  C   UNL     1      60.411 -17.309  -0.130  1.00  0.00     0.047 A 
BRANCH   6   9
ATOM      9  O   UNL     1      62.031 -18.773   0.893  1.00  0.00    -0.508 OA
ATOM     10  H   UNL     1      62.705 -18.703   1.647  1.00  0.00     0.293 HD
ENDBRANCH   6   9
ENDBRANCH   1   3
BRANCH   2  11
ATOM     11  C   UNL     1      60.745 -13.152  -4.635  1.00  0.00     0.189 C 
ATOM     12  O   UNL     1      61.649 -12.286  -4.791  1.00  0.00    -0.289 OA
BRANCH  11  13
ATOM     13  C   UNL     1      59.433 -12.963  -5.305  1.00  0.00     0.064 A 
ATOM     14  C   UNL     1      59.329 -12.214  -6.499  1.00  0.00     0.130 A 
ATOM     15  C   UNL     1      58.265 -13.513  -4.743  1.00  0.00     0.020 A 
ATOM     16  C   UNL     1      58.078 -12.034  -7.106  1.00  0.00     0.093 A 
ATOM     17  C   UNL     1      57.023 -13.329  -5.357  1.00  0.00     0.047 A 
ATOM     18  C   UNL     1      56.926 -12.591  -6.539  1.00  0.00     0.119 A 
BRANCH  14  19
ATOM     19  O   UNL     1      60.467 -11.664  -7.090  1.00  0.00    -0.507 OA
ATOM     20  H   UNL     1      61.184 -11.206  -6.540  1.00  0.00     0.293 HD
ENDBRANCH  14  19
BRANCH  18  21
ATOM     21  O   UNL     1      55.681 -12.416  -7.138  1.00  0.00    -0.508 OA
ATOM     22  H   UNL     1      55.440 -11.555  -7.616  1.00  0.00     0.293 HD
ENDBRANCH  18  21
ENDBRANCH  11  13
ENDBRANCH   2  11
TORSDOF 6
ENDMDL
MODEL 9
REMARK VINA RESULT:    -6.722      3.324      4.466
REMARK INTER + INTRA:          -9.250
REMARK INTER:                  -8.636
REMARK INTRA:                  -0.614
REMARK UNBOUND:                -0.759
REMARK SMILES O=C(C=Cc1ccc(O)cc1)c1ccc(O)cc1O
REMARK SMILES IDX 4 1 3 2 5 3 6 4 7 5 8 6 11 7 10 8 9 9 2 11 1 12 12 13 18 14
REMARK SMILES IDX 13 15 17 16 14 17 15 18 19 19 16 21
REMARK H PARENT 9 10 19 20 16 22
REMARK Flexibility Score: inf
ROOT
ATOM      1  C   UNL     1      60.644 -14.942  -2.380  1.00  0.00     0.012 C 
ATOM      2  C   UNL     1      61.629 -15.749  -1.960  1.00  0.00     0.053 C 
ENDROOT
BRANCH   1   3
ATOM      3  C   UNL     1      60.781 -13.996  -3.514  1.00  0.00    -0.025 A 
ATOM      4  C   UNL     1      59.633 -13.331  -3.978  1.00  0.00     0.012 A 
ATOM      5  C   UNL     1      59.717 -12.423  -5.037  1.00  0.00     0.047 A 
ATOM      6  C   UNL     1      60.953 -12.159  -5.642  1.00  0.00     0.115 A 
ATOM      7  C   UNL     1      62.022 -13.713  -4.119  1.00  0.00     0.012 A 
ATOM      8  C   UNL     1      62.102 -12.804  -5.178  1.00  0.00     0.047 A 
BRANCH   6   9
ATOM      9  O   UNL     1      61.048 -11.257  -6.699  1.00  0.00    -0.508 OA
ATOM     10  H   UNL     1      60.984 -10.257  -6.549  1.00  0.00     0.293 HD
ENDBRANCH   6   9
ENDBRANCH   1   3
BRANCH   2  11
ATOM     11  C   UNL     1      61.449 -16.694  -0.835  1.00  0.00     0.189 C 
ATOM     12  O   UNL     1      62.402 -17.449  -0.494  1.00  0.00    -0.289 OA
BRANCH  11  13
ATOM     13  C   UNL     1      60.166 -16.761  -0.090  1.00  0.00     0.064 A 
ATOM     14  C   UNL     1      60.009 -16.095   1.146  1.00  0.00     0.130 A 
ATOM     15  C   UNL     1      59.089 -17.512  -0.602  1.00  0.00     0.020 A 
ATOM     16  C   UNL     1      58.793 -16.186   1.841  1.00  0.00     0.093 A 
ATOM     17  C   UNL     1      57.882 -17.593   0.097  1.00  0.00     0.047 A 
ATOM     18  C   UNL     1      57.730 -16.931   1.318  1.00  0.00     0.119 A 
BRANCH  14  19
ATOM     19  O   UNL     1      61.050 -15.334   1.677  1.00  0.00    -0.507 OA
ATOM     20  H   UNL     1      61.305 -14.435   1.287  1.00  0.00     0.293 HD
ENDBRANCH  14  19
BRANCH  18  21
ATOM     21  O   UNL     1      56.520 -17.023   2.002  1.00  0.00    -0.508 OA
ATOM     22  H   UNL     1      55.698 -17.428   1.571  1.00  0.00     0.293 HD
ENDBRANCH  18  21
ENDBRANCH  11  13
ENDBRANCH   2  11
TORSDOF 6
ENDMDL
