MODEL 1
REMARK VINA RESULT:    -3.253      0.000      0.000
REMARK INTER + INTRA:          -4.494
REMARK INTER:                  -4.965
REMARK INTRA:                   0.472
REMARK UNBOUND:                 0.472
REMARK SMILES CC1=CCC[C@H](C)C(=O)C[C@H](C(C)C)C(=O)C1
REMARK SMILES IDX 8 1 9 2 6 3 7 4 5 5 4 6 3 7 2 8 1 9 10 11 11 12 15 13 16 14
REMARK SMILES IDX 17 15 12 17 13 18 14 19
REMARK H PARENT
REMARK Flexibility Score: 70.00
ROOT
ATOM      1  C   UNL     1       2.022  15.683  -8.859  1.00  0.00     0.136 C 
ATOM      2  O   UNL     1       0.848  15.466  -9.122  1.00  0.00    -0.299 OA
ENDROOT
BRANCH   1   3
ATOM      3  C   UNL     1       2.922  14.510  -8.520  1.00  0.00     0.053 C 
ATOM      4  C   UNL     1       2.378  13.211  -9.124  1.00  0.00     0.016 C 
BRANCH   3   5
ATOM      5  C   UNL     1       4.375  14.762  -8.966  1.00  0.00     0.015 C 
BRANCH   5   6
ATOM      6  C   UNL     1       5.275  15.179  -7.789  1.00  0.00     0.028 C 
BRANCH   6   7
ATOM      7  C   UNL     1       4.656  14.777  -6.475  1.00  0.00    -0.028 C 
ATOM      8  C   UNL     1       3.998  15.622  -5.647  1.00  0.00    -0.070 CG0
ATOM      9  C   UNL     1       3.489  15.075  -4.337  1.00  0.00     0.039 C 
ATOM     10  G   UNL     1       3.739  17.081  -5.989  1.00  0.00     0.000 G0
ENDBRANCH   6   7
ENDBRANCH   5   6
ENDBRANCH   3   5
ENDBRANCH   1   3
BRANCH   1  11
ATOM     11  C   UNL     1       2.527  17.108  -8.915  1.00  0.00     0.087 C 
BRANCH  11  12
ATOM     12  C   UNL     1       1.969  17.976  -7.753  1.00  0.00     0.066 C 
BRANCH  12  13
ATOM     13  C   UNL     1       2.317  17.375  -6.399  1.00  0.00     0.140 C 
ATOM     14  O   UNL     1       1.424  17.045  -5.632  1.00  0.00    -0.299 OA
BRANCH  13  15
ATOM     15  C   UNL     1       3.750  17.100  -6.013  1.00  0.00     0.106 CG0
ATOM     16  G   UNL     1       3.979  15.641  -5.650  1.00  0.00     0.000 G0
ENDBRANCH  13  15
ENDBRANCH  12  13
BRANCH  12  17
ATOM     17  C   UNL     1       2.419  19.471  -7.821  1.00  0.00    -0.006 C 
ATOM     18  C   UNL     1       1.349  20.354  -8.482  1.00  0.00     0.008 C 
ATOM     19  C   UNL     1       3.778  19.687  -8.513  1.00  0.00     0.008 C 
ENDBRANCH  12  17
ENDBRANCH  11  12
ENDBRANCH   1  11
TORSDOF 1
ENDMDL
MODEL 2
REMARK VINA RESULT:    -3.184      1.871      4.250
REMARK INTER + INTRA:          -4.387
REMARK INTER:                  -5.178
REMARK INTRA:                   0.791
REMARK UNBOUND:                 0.472
REMARK SMILES CC1=CCC[C@H](C)C(=O)C[C@H](C(C)C)C(=O)C1
REMARK SMILES IDX 8 1 9 2 6 3 7 4 5 5 4 6 3 7 2 8 1 9 10 11 11 12 15 13 16 14
REMARK SMILES IDX 17 15 12 17 13 18 14 19
REMARK H PARENT
REMARK Flexibility Score: 70.00
ROOT
ATOM      1  C   UNL     1       4.087  16.922  -8.821  1.00  0.00     0.136 C 
ATOM      2  O   UNL     1       5.295  16.957  -9.007  1.00  0.00    -0.299 OA
ENDROOT
BRANCH   1   3
ATOM      3  C   UNL     1       3.292  18.208  -8.947  1.00  0.00     0.053 C 
ATOM      4  C   UNL     1       1.792  17.942  -8.775  1.00  0.00     0.016 C 
BRANCH   3   5
ATOM      5  C   UNL     1       3.783  19.278  -7.953  1.00  0.00     0.015 C 
BRANCH   5   6
ATOM      6  C   UNL     1       3.948  18.712  -6.531  1.00  0.00     0.028 C 
BRANCH   6   7
ATOM      7  C   UNL     1       2.638  18.174  -6.015  1.00  0.00    -0.028 C 
ATOM      8  C   UNL     1       2.475  16.945  -5.471  1.00  0.00    -0.070 CG0
ATOM      9  C   UNL     1       1.084  16.534  -5.058  1.00  0.00     0.039 C 
ATOM     10  G   UNL     1       3.628  15.980  -5.247  1.00  0.00     0.000 G0
ENDBRANCH   6   7
ENDBRANCH   5   6
ENDBRANCH   3   5
ENDBRANCH   1   3
BRANCH   1  11
ATOM     11  C   UNL     1       3.440  15.592  -8.502  1.00  0.00     0.087 C 
BRANCH  11  12
ATOM     12  C   UNL     1       4.265  14.768  -7.475  1.00  0.00     0.066 C 
BRANCH  12  13
ATOM     13  C   UNL     1       3.597  14.762  -6.108  1.00  0.00     0.140 C 
ATOM     14  O   UNL     1       3.073  13.739  -5.691  1.00  0.00    -0.299 OA
BRANCH  13  15
ATOM     15  C   UNL     1       3.637  15.979  -5.216  1.00  0.00     0.106 CG0
ATOM     16  G   UNL     1       2.476  16.925  -5.480  1.00  0.00     0.000 G0
ENDBRANCH  13  15
ENDBRANCH  12  13
BRANCH  12  17
ATOM     17  C   UNL     1       4.563  13.307  -7.945  1.00  0.00    -0.006 C 
ATOM     18  C   UNL     1       5.940  13.200  -8.619  1.00  0.00     0.008 C 
ATOM     19  C   UNL     1       3.481  12.710  -8.864  1.00  0.00     0.008 C 
ENDBRANCH  12  17
ENDBRANCH  11  12
ENDBRANCH   1  11
TORSDOF 1
ENDMDL
MODEL 3
REMARK VINA RESULT:    -3.006      1.953      3.491
REMARK INTER + INTRA:          -4.116
REMARK INTER:                  -4.837
REMARK INTRA:                   0.720
REMARK UNBOUND:                 0.472
REMARK SMILES CC1=CCC[C@H](C)C(=O)C[C@H](C(C)C)C(=O)C1
REMARK SMILES IDX 8 1 9 2 6 3 7 4 5 5 4 6 3 7 2 8 1 9 10 11 11 12 15 13 16 14
REMARK SMILES IDX 17 15 12 17 13 18 14 19
REMARK H PARENT
REMARK Flexibility Score: 70.00
ROOT
ATOM      1  C   UNL     1       3.063  16.206  -5.764  1.00  0.00     0.136 C 
ATOM      2  O   UNL     1       3.714  17.074  -5.202  1.00  0.00    -0.299 OA
ENDROOT
BRANCH   1   3
ATOM      3  C   UNL     1       3.373  14.752  -5.462  1.00  0.00     0.053 C 
ATOM      4  C   UNL     1       3.562  14.535  -3.956  1.00  0.00     0.016 C 
BRANCH   3   5
ATOM      5  C   UNL     1       2.289  13.812  -6.024  1.00  0.00     0.015 C 
BRANCH   5   6
ATOM      6  C   UNL     1       2.739  13.127  -7.327  1.00  0.00     0.028 C 
BRANCH   6   7
ATOM      7  C   UNL     1       4.141  13.543  -7.692  1.00  0.00    -0.028 C 
ATOM      8  C   UNL     1       4.446  14.570  -8.520  1.00  0.00    -0.070 CG0
ATOM      9  C   UNL     1       5.900  14.819  -8.833  1.00  0.00     0.039 C 
ATOM     10  G   UNL     1       3.392  15.482  -9.129  1.00  0.00     0.000 G0
ENDBRANCH   6   7
ENDBRANCH   5   6
ENDBRANCH   3   5
ENDBRANCH   1   3
BRANCH   1  11
ATOM     11  C   UNL     1       1.961  16.624  -6.713  1.00  0.00     0.087 C 
BRANCH  11  12
ATOM     12  C   UNL     1       2.471  17.592  -7.817  1.00  0.00     0.066 C 
BRANCH  12  13
ATOM     13  C   UNL     1       3.523  16.927  -8.692  1.00  0.00     0.140 C 
ATOM     14  O   UNL     1       4.534  17.540  -9.000  1.00  0.00    -0.299 OA
BRANCH  13  15
ATOM     15  C   UNL     1       3.381  15.488  -9.124  1.00  0.00     0.106 CG0
ATOM     16  G   UNL     1       4.436  14.591  -8.495  1.00  0.00     0.000 G0
ENDBRANCH  13  15
ENDBRANCH  12  13
BRANCH  12  17
ATOM     17  C   UNL     1       1.326  18.191  -8.696  1.00  0.00    -0.006 C 
ATOM     18  C   UNL     1       1.333  19.728  -8.662  1.00  0.00     0.008 C 
ATOM     19  C   UNL     1      -0.078  17.665  -8.343  1.00  0.00     0.008 C 
ENDBRANCH  12  17
ENDBRANCH  11  12
ENDBRANCH   1  11
TORSDOF 1
ENDMDL
MODEL 4
REMARK VINA RESULT:    -2.914      1.405      2.067
REMARK INTER + INTRA:          -3.976
REMARK INTER:                  -4.800
REMARK INTRA:                   0.824
REMARK UNBOUND:                 0.472
REMARK SMILES CC1=CCC[C@H](C)C(=O)C[C@H](C(C)C)C(=O)C1
REMARK SMILES IDX 8 1 9 2 6 3 7 4 5 5 4 6 3 7 2 8 1 9 10 11 11 12 15 13 16 14
REMARK SMILES IDX 17 15 12 17 13 18 14 19
REMARK H PARENT
REMARK Flexibility Score: 70.00
ROOT
ATOM      1  C   UNL     1       3.241  15.095  -8.321  1.00  0.00     0.136 C 
ATOM      2  O   UNL     1       2.391  14.609  -9.052  1.00  0.00    -0.299 OA
ENDROOT
BRANCH   1   3
ATOM      3  C   UNL     1       3.806  14.248  -7.196  1.00  0.00     0.053 C 
ATOM      4  C   UNL     1       4.183  12.851  -7.699  1.00  0.00     0.016 C 
BRANCH   3   5
ATOM      5  C   UNL     1       5.006  14.935  -6.516  1.00  0.00     0.015 C 
BRANCH   5   6
ATOM      6  C   UNL     1       4.566  16.090  -5.599  1.00  0.00     0.028 C 
BRANCH   6   7
ATOM      7  C   UNL     1       3.195  15.827  -5.029  1.00  0.00    -0.028 C 
ATOM      8  C   UNL     1       2.108  16.599  -5.258  1.00  0.00    -0.070 CG0
ATOM      9  C   UNL     1       0.821  16.234  -4.563  1.00  0.00     0.039 C 
ATOM     10  G   UNL     1       2.128  17.800  -6.192  1.00  0.00     0.000 G0
ENDBRANCH   6   7
ENDBRANCH   5   6
ENDBRANCH   3   5
ENDBRANCH   1   3
BRANCH   1  11
ATOM     11  C   UNL     1       3.712  16.507  -8.593  1.00  0.00     0.087 C 
BRANCH  11  12
ATOM     12  C   UNL     1       2.527  17.495  -8.779  1.00  0.00     0.066 C 
BRANCH  12  13
ATOM     13  C   UNL     1       1.599  17.479  -7.573  1.00  0.00     0.140 C 
ATOM     14  O   UNL     1       0.435  17.131  -7.706  1.00  0.00    -0.299 OA
BRANCH  13  15
ATOM     15  C   UNL     1       2.110  17.808  -6.192  1.00  0.00     0.106 CG0
ATOM     16  G   UNL     1       2.097  16.599  -5.270  1.00  0.00     0.000 G0
ENDBRANCH  13  15
ENDBRANCH  12  13
BRANCH  12  17
ATOM     17  C   UNL     1       2.980  18.956  -9.102  1.00  0.00    -0.006 C 
ATOM     18  C   UNL     1       4.174  19.382  -8.232  1.00  0.00     0.008 C 
ATOM     19  C   UNL     1       1.854  20.001  -8.994  1.00  0.00     0.008 C 
ENDBRANCH  12  17
ENDBRANCH  11  12
ENDBRANCH   1  11
TORSDOF 1
ENDMDL
MODEL 5
REMARK VINA RESULT:    -2.912      2.000      3.643
REMARK INTER + INTRA:          -3.973
REMARK INTER:                  -4.606
REMARK INTRA:                   0.633
REMARK UNBOUND:                 0.472
REMARK SMILES CC1=CCC[C@H](C)C(=O)C[C@H](C(C)C)C(=O)C1
REMARK SMILES IDX 8 1 9 2 6 3 7 4 5 5 4 6 3 7 2 8 1 9 10 11 11 12 15 13 16 14
REMARK SMILES IDX 17 15 12 17 13 18 14 19
REMARK H PARENT
REMARK Flexibility Score: 70.00
ROOT
ATOM      1  C   UNL     1       3.902  15.047  -6.065  1.00  0.00     0.136 C 
ATOM      2  O   UNL     1       3.500  14.213  -5.267  1.00  0.00    -0.299 OA
ENDROOT
BRANCH   1   3
ATOM      3  C   UNL     1       4.017  14.661  -7.528  1.00  0.00     0.053 C 
ATOM      4  C   UNL     1       3.324  13.320  -7.795  1.00  0.00     0.016 C 
BRANCH   3   5
ATOM      5  C   UNL     1       3.462  15.764  -8.450  1.00  0.00     0.015 C 
BRANCH   5   6
ATOM      6  C   UNL     1       4.535  16.808  -8.809  1.00  0.00     0.028 C 
BRANCH   6   7
ATOM      7  C   UNL     1       3.901  18.139  -9.124  1.00  0.00    -0.028 C 
ATOM      8  C   UNL     1       3.712  19.131  -8.223  1.00  0.00    -0.070 CG0
ATOM      9  C   UNL     1       3.006  20.381  -8.684  1.00  0.00     0.039 C 
ATOM     10  G   UNL     1       4.194  19.043  -6.783  1.00  0.00     0.000 G0
ENDBRANCH   6   7
ENDBRANCH   5   6
ENDBRANCH   3   5
ENDBRANCH   1   3
BRANCH   1  11
ATOM     11  C   UNL     1       4.239  16.433  -5.559  1.00  0.00     0.087 C 
BRANCH  11  12
ATOM     12  C   UNL     1       2.968  17.276  -5.263  1.00  0.00     0.066 C 
BRANCH  12  13
ATOM     13  C   UNL     1       3.110  18.694  -5.795  1.00  0.00     0.140 C 
ATOM     14  O   UNL     1       2.373  19.577  -5.379  1.00  0.00    -0.299 OA
BRANCH  13  15
ATOM     15  C   UNL     1       4.202  19.055  -6.772  1.00  0.00     0.106 CG0
ATOM     16  G   UNL     1       3.688  19.151  -8.200  1.00  0.00     0.000 G0
ENDBRANCH  13  15
ENDBRANCH  12  13
BRANCH  12  17
ATOM     17  C   UNL     1       1.651  16.622  -5.793  1.00  0.00    -0.006 C 
ATOM     18  C   UNL     1       0.974  17.498  -6.860  1.00  0.00     0.008 C 
ATOM     19  C   UNL     1       0.638  16.266  -4.688  1.00  0.00     0.008 C 
ENDBRANCH  12  17
ENDBRANCH  11  12
ENDBRANCH   1  11
TORSDOF 1
ENDMDL
MODEL 6
REMARK VINA RESULT:    -2.904      1.265      1.837
REMARK INTER + INTRA:          -3.961
REMARK INTER:                  -5.686
REMARK INTRA:                   1.725
REMARK UNBOUND:                 0.472
REMARK SMILES CC1=CCC[C@H](C)C(=O)C[C@H](C(C)C)C(=O)C1
REMARK SMILES IDX 8 1 9 2 6 3 7 4 5 5 4 6 3 7 2 8 1 9 10 11 11 12 15 13 16 14
REMARK SMILES IDX 17 15 12 17 13 18 14 19
REMARK H PARENT
REMARK Flexibility Score: 70.00
ROOT
ATOM      1  C   UNL     1       3.221  15.016  -8.948  1.00  0.00     0.136 C 
ATOM      2  O   UNL     1       2.071  14.641  -9.120  1.00  0.00    -0.299 OA
ENDROOT
BRANCH   1   3
ATOM      3  C   UNL     1       4.335  13.987  -8.968  1.00  0.00     0.053 C 
ATOM      4  C   UNL     1       5.701  14.656  -8.774  1.00  0.00     0.016 C 
BRANCH   3   5
ATOM      5  C   UNL     1       4.106  12.882  -7.918  1.00  0.00     0.015 C 
BRANCH   5   6
ATOM      6  C   UNL     1       3.213  13.364  -6.761  1.00  0.00     0.028 C 
BRANCH   6   7
ATOM      7  C   UNL     1       3.984  14.263  -5.829  1.00  0.00    -0.028 C 
ATOM      8  C   UNL     1       3.563  15.481  -5.415  1.00  0.00    -0.070 CG0
ATOM      9  C   UNL     1       4.483  16.284  -4.530  1.00  0.00     0.039 C 
ATOM     10  G   UNL     1       2.207  16.059  -5.789  1.00  0.00     0.000 G0
ENDBRANCH   6   7
ENDBRANCH   5   6
ENDBRANCH   3   5
ENDBRANCH   1   3
BRANCH   1  11
ATOM     11  C   UNL     1       3.481  16.495  -8.754  1.00  0.00     0.087 C 
BRANCH  11  12
ATOM     12  C   UNL     1       2.250  17.235  -8.161  1.00  0.00     0.066 C 
BRANCH  12  13
ATOM     13  C   UNL     1       2.332  17.315  -6.644  1.00  0.00     0.140 C 
ATOM     14  O   UNL     1       2.437  18.404  -6.097  1.00  0.00    -0.299 OA
BRANCH  13  15
ATOM     15  C   UNL     1       2.207  16.077  -5.790  1.00  0.00     0.106 CG0
ATOM     16  G   UNL     1       3.562  15.500  -5.410  1.00  0.00     0.000 G0
ENDBRANCH  13  15
ENDBRANCH  12  13
BRANCH  12  17
ATOM     17  C   UNL     1       2.024  18.655  -8.773  1.00  0.00    -0.006 C 
ATOM     18  C   UNL     1       3.350  19.417  -8.938  1.00  0.00     0.008 C 
ATOM     19  C   UNL     1       1.015  19.521  -7.996  1.00  0.00     0.008 C 
ENDBRANCH  12  17
ENDBRANCH  11  12
ENDBRANCH   1  11
TORSDOF 1
ENDMDL
MODEL 7
REMARK VINA RESULT:    -2.861      1.564      4.064
REMARK INTER + INTRA:          -3.894
REMARK INTER:                  -5.296
REMARK INTRA:                   1.402
REMARK UNBOUND:                 0.472
REMARK SMILES CC1=CCC[C@H](C)C(=O)C[C@H](C(C)C)C(=O)C1
REMARK SMILES IDX 8 1 9 2 6 3 7 4 5 5 4 6 3 7 2 8 1 9 10 11 11 12 15 13 16 14
REMARK SMILES IDX 17 15 12 17 13 18 14 19
REMARK H PARENT
REMARK Flexibility Score: 70.00
ROOT
ATOM      1  C   UNL     1       3.105  18.814  -8.656  1.00  0.00     0.136 C 
ATOM      2  O   UNL     1       1.969  18.777  -9.105  1.00  0.00    -0.299 OA
ENDROOT
BRANCH   1   3
ATOM      3  C   UNL     1       3.459  19.896  -7.654  1.00  0.00     0.053 C 
ATOM      4  C   UNL     1       2.243  20.777  -7.349  1.00  0.00     0.016 C 
BRANCH   3   5
ATOM      5  C   UNL     1       4.051  19.302  -6.362  1.00  0.00     0.015 C 
BRANCH   5   6
ATOM      6  C   UNL     1       2.981  18.600  -5.508  1.00  0.00     0.028 C 
BRANCH   6   7
ATOM      7  C   UNL     1       3.416  17.202  -5.150  1.00  0.00    -0.028 C 
ATOM      8  C   UNL     1       2.881  16.074  -5.675  1.00  0.00    -0.070 CG0
ATOM      9  C   UNL     1       3.387  14.748  -5.165  1.00  0.00     0.039 C 
ATOM     10  G   UNL     1       1.814  16.092  -6.759  1.00  0.00     0.000 G0
ENDBRANCH   6   7
ENDBRANCH   5   6
ENDBRANCH   3   5
ENDBRANCH   1   3
BRANCH   1  11
ATOM     11  C   UNL     1       4.095  17.759  -9.100  1.00  0.00     0.087 C 
BRANCH  11  12
ATOM     12  C   UNL     1       3.867  16.400  -8.381  1.00  0.00     0.066 C 
BRANCH  12  13
ATOM     13  C   UNL     1       2.386  16.139  -8.150  1.00  0.00     0.140 C 
ATOM     14  O   UNL     1       1.656  15.899  -9.101  1.00  0.00    -0.299 OA
BRANCH  13  15
ATOM     15  C   UNL     1       1.811  16.090  -6.756  1.00  0.00     0.106 CG0
ATOM     16  G   UNL     1       2.892  16.054  -5.688  1.00  0.00     0.000 G0
ENDBRANCH  13  15
ENDBRANCH  12  13
BRANCH  12  17
ATOM     17  C   UNL     1       4.529  15.189  -9.115  1.00  0.00    -0.006 C 
ATOM     18  C   UNL     1       4.005  13.847  -8.578  1.00  0.00     0.008 C 
ATOM     19  C   UNL     1       6.069  15.201  -9.083  1.00  0.00     0.008 C 
ENDBRANCH  12  17
ENDBRANCH  11  12
ENDBRANCH   1  11
TORSDOF 1
ENDMDL
MODEL 8
REMARK VINA RESULT:    -2.778      1.916      4.965
REMARK INTER + INTRA:          -3.767
REMARK INTER:                  -4.394
REMARK INTRA:                   0.627
REMARK UNBOUND:                 0.472
REMARK SMILES CC1=CCC[C@H](C)C(=O)C[C@H](C(C)C)C(=O)C1
REMARK SMILES IDX 8 1 9 2 6 3 7 4 5 5 4 6 3 7 2 8 1 9 10 11 11 12 15 13 16 14
REMARK SMILES IDX 17 15 12 17 13 18 14 19
REMARK H PARENT
REMARK Flexibility Score: 70.00
ROOT
ATOM      1  C   UNL     1       4.125  18.028  -6.227  1.00  0.00     0.136 C 
ATOM      2  O   UNL     1       4.000  18.160  -5.019  1.00  0.00    -0.299 OA
ENDROOT
BRANCH   1   3
ATOM      3  C   UNL     1       4.115  19.268  -7.102  1.00  0.00     0.053 C 
ATOM      4  C   UNL     1       4.533  18.928  -8.537  1.00  0.00     0.016 C 
BRANCH   3   5
ATOM      5  C   UNL     1       2.744  19.970  -7.076  1.00  0.00     0.015 C 
BRANCH   5   6
ATOM      6  C   UNL     1       2.085  19.998  -8.466  1.00  0.00     0.028 C 
BRANCH   6   7
ATOM      7  C   UNL     1       0.683  19.450  -8.404  1.00  0.00    -0.028 C 
ATOM      8  C   UNL     1       0.375  18.132  -8.374  1.00  0.00    -0.070 CG0
ATOM      9  C   UNL     1      -1.082  17.745  -8.374  1.00  0.00     0.039 C 
ATOM     10  G   UNL     1       1.430  17.037  -8.325  1.00  0.00     0.000 G0
ENDBRANCH   6   7
ENDBRANCH   5   6
ENDBRANCH   3   5
ENDBRANCH   1   3
BRANCH   1  11
ATOM     11  C   UNL     1       4.312  16.636  -6.790  1.00  0.00     0.087 C 
BRANCH  11  12
ATOM     12  C   UNL     1       3.029  15.770  -6.657  1.00  0.00     0.066 C 
BRANCH  12  13
ATOM     13  C   UNL     1       1.778  16.591  -6.937  1.00  0.00     0.140 C 
ATOM     14  O   UNL     1       1.090  16.986  -6.006  1.00  0.00    -0.299 OA
BRANCH  13  15
ATOM     15  C   UNL     1       1.411  16.999  -8.342  1.00  0.00     0.106 CG0
ATOM     16  G   UNL     1       0.380  18.116  -8.367  1.00  0.00     0.000 G0
ENDBRANCH  13  15
ENDBRANCH  12  13
BRANCH  12  17
ATOM     17  C   UNL     1       3.050  14.485  -7.547  1.00  0.00    -0.006 C 
ATOM     18  C   UNL     1       3.486  13.249  -6.743  1.00  0.00     0.008 C 
ATOM     19  C   UNL     1       3.911  14.615  -8.817  1.00  0.00     0.008 C 
ENDBRANCH  12  17
ENDBRANCH  11  12
ENDBRANCH   1  11
TORSDOF 1
ENDMDL
MODEL 9
REMARK VINA RESULT:    -2.646      1.824      4.852
REMARK INTER + INTRA:          -3.566
REMARK INTER:                  -5.212
REMARK INTRA:                   1.646
REMARK UNBOUND:                 0.472
REMARK SMILES CC1=CCC[C@H](C)C(=O)C[C@H](C(C)C)C(=O)C1
REMARK SMILES IDX 8 1 9 2 6 3 7 4 5 5 4 6 3 7 2 8 1 9 10 11 11 12 15 13 16 14
REMARK SMILES IDX 17 15 12 17 13 18 14 19
REMARK H PARENT
REMARK Flexibility Score: 70.00
ROOT
ATOM      1  C   UNL     1       3.633  16.993  -5.727  1.00  0.00     0.136 C 
ATOM      2  O   UNL     1       4.670  16.896  -5.087  1.00  0.00    -0.299 OA
ENDROOT
BRANCH   1   3
ATOM      3  C   UNL     1       3.283  18.330  -6.352  1.00  0.00     0.053 C 
ATOM      4  C   UNL     1       3.334  19.451  -5.308  1.00  0.00     0.016 C 
BRANCH   3   5
ATOM      5  C   UNL     1       4.192  18.650  -7.554  1.00  0.00     0.015 C 
BRANCH   5   6
ATOM      6  C   UNL     1       3.380  18.990  -8.816  1.00  0.00     0.028 C 
BRANCH   6   7
ATOM      7  C   UNL     1       2.020  18.342  -8.767  1.00  0.00    -0.028 C 
ATOM      8  C   UNL     1       1.794  17.019  -8.941  1.00  0.00    -0.070 CG0
ATOM      9  C   UNL     1       0.366  16.537  -8.923  1.00  0.00     0.039 C 
ATOM     10  G   UNL     1       2.913  16.007  -9.136  1.00  0.00     0.000 G0
ENDBRANCH   6   7
ENDBRANCH   5   6
ENDBRANCH   3   5
ENDBRANCH   1   3
BRANCH   1  11
ATOM     11  C   UNL     1       2.764  15.764  -5.890  1.00  0.00     0.087 C 
BRANCH  11  12
ATOM     12  C   UNL     1       3.392  14.724  -6.858  1.00  0.00     0.066 C 
BRANCH  12  13
ATOM     13  C   UNL     1       2.747  14.792  -8.235  1.00  0.00     0.140 C 
ATOM     14  O   UNL     1       2.018  13.885  -8.610  1.00  0.00    -0.299 OA
BRANCH  13  15
ATOM     15  C   UNL     1       2.926  16.000  -9.121  1.00  0.00     0.106 CG0
ATOM     16  G   UNL     1       1.795  17.004  -8.961  1.00  0.00     0.000 G0
ENDBRANCH  13  15
ENDBRANCH  12  13
BRANCH  12  17
ATOM     17  C   UNL     1       4.947  14.842  -6.975  1.00  0.00    -0.006 C 
ATOM     18  C   UNL     1       5.408  14.799  -8.441  1.00  0.00     0.008 C 
ATOM     19  C   UNL     1       5.719  13.795  -6.151  1.00  0.00     0.008 C 
ENDBRANCH  12  17
ENDBRANCH  11  12
ENDBRANCH   1  11
TORSDOF 1
ENDMDL
