MODEL 1
REMARK VINA RESULT:    -2.744      0.000      0.000
REMARK INTER + INTRA:          -3.537
REMARK INTER:                  -3.466
REMARK INTRA:                  -0.071
REMARK UNBOUND:                -0.071
REMARK SMILES CCCCCCO
REMARK SMILES IDX 4 1 3 2 2 3 1 4 5 5 6 6 7 7
REMARK H PARENT 7 8
REMARK Flexibility Score: inf
ROOT
ATOM      1  C   UNL     1     116.120 114.509 112.872  1.00  0.00     0.002 C 
ENDROOT
BRANCH   1   2
ATOM      2  C   UNL     1     114.852 114.736 112.030  1.00  0.00    -0.000 C 
BRANCH   2   3
ATOM      3  C   UNL     1     113.569 114.689 112.874  1.00  0.00    -0.003 C 
ATOM      4  C   UNL     1     113.833 114.886 114.366  1.00  0.00     0.004 C 
ENDBRANCH   2   3
ENDBRANCH   1   2
BRANCH   1   5
ATOM      5  C   UNL     1     117.166 113.650 112.143  1.00  0.00     0.028 C 
BRANCH   5   6
ATOM      6  C   UNL     1     118.598 113.925 112.618  1.00  0.00     0.156 C 
BRANCH   6   7
ATOM      7  O   UNL     1     118.985 112.965 113.564  1.00  0.00    -0.396 OA
ATOM      8  H   UNL     1     118.149 112.572 113.928  1.00  0.00     0.210 HD
ENDBRANCH   6   7
ENDBRANCH   5   6
ENDBRANCH   1   5
TORSDOF 5
ENDMDL
MODEL 2
REMARK VINA RESULT:    -2.723      3.876      4.796
REMARK INTER + INTRA:          -3.510
REMARK INTER:                  -3.384
REMARK INTRA:                  -0.126
REMARK UNBOUND:                -0.071
REMARK SMILES CCCCCCO
REMARK SMILES IDX 4 1 3 2 2 3 1 4 5 5 6 6 7 7
REMARK H PARENT 7 8
REMARK Flexibility Score: inf
ROOT
ATOM      1  C   UNL     1     119.053 116.322 111.875  1.00  0.00     0.002 C 
ENDROOT
BRANCH   1   2
ATOM      2  C   UNL     1     118.088 116.169 113.064  1.00  0.00    -0.000 C 
BRANCH   2   3
ATOM      3  C   UNL     1     118.403 114.934 113.923  1.00  0.00    -0.003 C 
ATOM      4  C   UNL     1     118.624 113.673 113.090  1.00  0.00     0.004 C 
ENDBRANCH   2   3
ENDBRANCH   1   2
BRANCH   1   5
ATOM      5  C   UNL     1     119.779 117.676 111.876  1.00  0.00     0.028 C 
BRANCH   5   6
ATOM      6  C   UNL     1     119.224 118.648 112.926  1.00  0.00     0.156 C 
BRANCH   6   7
ATOM      7  O   UNL     1     120.231 119.001 113.835  1.00  0.00    -0.396 OA
ATOM      8  H   UNL     1     120.963 119.411 113.303  1.00  0.00     0.210 HD
ENDBRANCH   6   7
ENDBRANCH   5   6
ENDBRANCH   1   5
TORSDOF 5
ENDMDL
MODEL 3
REMARK VINA RESULT:    -2.696      3.548      4.225
REMARK INTER + INTRA:          -3.476
REMARK INTER:                  -3.410
REMARK INTRA:                  -0.066
REMARK UNBOUND:                -0.071
REMARK SMILES CCCCCCO
REMARK SMILES IDX 4 1 3 2 2 3 1 4 5 5 6 6 7 7
REMARK H PARENT 7 8
REMARK Flexibility Score: inf
ROOT
ATOM      1  C   UNL     1     114.537 117.158 112.892  1.00  0.00     0.002 C 
ENDROOT
BRANCH   1   2
ATOM      2  C   UNL     1     114.729 118.508 112.180  1.00  0.00    -0.000 C 
BRANCH   2   3
ATOM      3  C   UNL     1     114.623 119.701 113.144  1.00  0.00    -0.003 C 
ATOM      4  C   UNL     1     115.009 119.341 114.578  1.00  0.00     0.004 C 
ENDBRANCH   2   3
ENDBRANCH   1   2
BRANCH   1   5
ATOM      5  C   UNL     1     113.951 116.081 111.965  1.00  0.00     0.028 C 
BRANCH   5   6
ATOM      6  C   UNL     1     114.197 114.656 112.478  1.00  0.00     0.156 C 
BRANCH   6   7
ATOM      7  O   UNL     1     115.351 114.124 111.886  1.00  0.00    -0.396 OA
ATOM      8  H   UNL     1     116.114 114.384 112.466  1.00  0.00     0.210 HD
ENDBRANCH   6   7
ENDBRANCH   5   6
ENDBRANCH   1   5
TORSDOF 5
ENDMDL
MODEL 4
REMARK VINA RESULT:    -2.681      2.758      4.306
REMARK INTER + INTRA:          -3.457
REMARK INTER:                  -3.389
REMARK INTRA:                  -0.068
REMARK UNBOUND:                -0.071
REMARK SMILES CCCCCCO
REMARK SMILES IDX 4 1 3 2 2 3 1 4 5 5 6 6 7 7
REMARK H PARENT 7 8
REMARK Flexibility Score: inf
ROOT
ATOM      1  C   UNL     1     118.597 115.957 113.420  1.00  0.00     0.002 C 
ENDROOT
BRANCH   1   2
ATOM      2  C   UNL     1     118.897 116.460 111.997  1.00  0.00    -0.000 C 
BRANCH   2   3
ATOM      3  C   UNL     1     119.847 117.668 111.988  1.00  0.00    -0.003 C 
ATOM      4  C   UNL     1     119.690 118.555 113.222  1.00  0.00     0.004 C 
ENDBRANCH   2   3
ENDBRANCH   1   2
BRANCH   1   5
ATOM      5  C   UNL     1     117.765 114.664 113.425  1.00  0.00     0.028 C 
BRANCH   5   6
ATOM      6  C   UNL     1     118.571 113.436 112.982  1.00  0.00     0.156 C 
BRANCH   6   7
ATOM      7  O   UNL     1     118.945 112.678 114.100  1.00  0.00    -0.396 OA
ATOM      8  H   UNL     1     119.810 112.246 113.875  1.00  0.00     0.210 HD
ENDBRANCH   6   7
ENDBRANCH   5   6
ENDBRANCH   1   5
TORSDOF 5
ENDMDL
MODEL 5
REMARK VINA RESULT:    -2.665      4.684      4.800
REMARK INTER + INTRA:          -3.437
REMARK INTER:                  -3.346
REMARK INTRA:                  -0.091
REMARK UNBOUND:                -0.071
REMARK SMILES CCCCCCO
REMARK SMILES IDX 4 1 3 2 2 3 1 4 5 5 6 6 7 7
REMARK H PARENT 7 8
REMARK Flexibility Score: inf
ROOT
ATOM      1  C   UNL     1     116.957 117.642 112.528  1.00  0.00     0.002 C 
ENDROOT
BRANCH   1   2
ATOM      2  C   UNL     1     116.628 119.061 112.030  1.00  0.00    -0.000 C 
BRANCH   2   3
ATOM      3  C   UNL     1     115.121 119.362 112.065  1.00  0.00    -0.003 C 
ATOM      4  C   UNL     1     114.650 119.874 113.425  1.00  0.00     0.004 C 
ENDBRANCH   2   3
ENDBRANCH   1   2
BRANCH   1   5
ATOM      5  C   UNL     1     118.290 117.580 113.291  1.00  0.00     0.028 C 
BRANCH   5   6
ATOM      6  C   UNL     1     119.325 118.581 112.762  1.00  0.00     0.156 C 
BRANCH   6   7
ATOM      7  O   UNL     1     120.217 118.936 113.783  1.00  0.00    -0.396 OA
ATOM      8  H   UNL     1     119.850 118.559 114.625  1.00  0.00     0.210 HD
ENDBRANCH   6   7
ENDBRANCH   5   6
ENDBRANCH   1   5
TORSDOF 5
ENDMDL
MODEL 6
REMARK VINA RESULT:    -2.656      7.020      8.058
REMARK INTER + INTRA:          -3.425
REMARK INTER:                  -3.355
REMARK INTRA:                  -0.070
REMARK UNBOUND:                -0.071
REMARK SMILES CCCCCCO
REMARK SMILES IDX 4 1 3 2 2 3 1 4 5 5 6 6 7 7
REMARK H PARENT 7 8
REMARK Flexibility Score: inf
ROOT
ATOM      1  C   UNL     1     115.152 120.139 115.835  1.00  0.00     0.002 C 
ENDROOT
BRANCH   1   2
ATOM      2  C   UNL     1     114.715 120.339 114.373  1.00  0.00    -0.000 C 
BRANCH   2   3
ATOM      3  C   UNL     1     114.750 119.032 113.565  1.00  0.00    -0.003 C 
ATOM      4  C   UNL     1     114.912 119.266 112.064  1.00  0.00     0.004 C 
ENDBRANCH   2   3
ENDBRANCH   1   2
BRANCH   1   5
ATOM      5  C   UNL     1     114.422 121.084 116.802  1.00  0.00     0.028 C 
BRANCH   5   6
ATOM      6  C   UNL     1     113.935 122.371 116.123  1.00  0.00     0.156 C 
BRANCH   6   7
ATOM      7  O   UNL     1     112.550 122.510 116.289  1.00  0.00    -0.396 OA
ATOM      8  H   UNL     1     112.128 121.762 115.790  1.00  0.00     0.210 HD
ENDBRANCH   6   7
ENDBRANCH   5   6
ENDBRANCH   1   5
TORSDOF 5
ENDMDL
MODEL 7
REMARK VINA RESULT:    -2.655      2.549      4.314
REMARK INTER + INTRA:          -3.424
REMARK INTER:                  -3.364
REMARK INTRA:                  -0.060
REMARK UNBOUND:                -0.071
REMARK SMILES CCCCCCO
REMARK SMILES IDX 4 1 3 2 2 3 1 4 5 5 6 6 7 7
REMARK H PARENT 7 8
REMARK Flexibility Score: inf
ROOT
ATOM      1  C   UNL     1     114.975 114.690 111.875  1.00  0.00     0.002 C 
ENDROOT
BRANCH   1   2
ATOM      2  C   UNL     1     116.147 114.458 112.845  1.00  0.00    -0.000 C 
BRANCH   2   3
ATOM      3  C   UNL     1     117.304 113.682 112.195  1.00  0.00    -0.003 C 
ATOM      4  C   UNL     1     118.416 113.336 113.184  1.00  0.00     0.004 C 
ENDBRANCH   2   3
ENDBRANCH   1   2
BRANCH   1   5
ATOM      5  C   UNL     1     113.659 115.001 112.605  1.00  0.00     0.028 C 
BRANCH   5   6
ATOM      6  C   UNL     1     113.731 114.712 114.110  1.00  0.00     0.156 C 
BRANCH   6   7
ATOM      7  O   UNL     1     112.509 114.193 114.560  1.00  0.00    -0.396 OA
ATOM      8  H   UNL     1     112.668 113.843 115.476  1.00  0.00     0.210 HD
ENDBRANCH   6   7
ENDBRANCH   5   6
ENDBRANCH   1   5
TORSDOF 5
ENDMDL
MODEL 8
REMARK VINA RESULT:    -2.653      5.399      6.437
REMARK INTER + INTRA:          -3.422
REMARK INTER:                  -3.310
REMARK INTRA:                  -0.112
REMARK UNBOUND:                -0.071
REMARK SMILES CCCCCCO
REMARK SMILES IDX 4 1 3 2 2 3 1 4 5 5 6 6 7 7
REMARK H PARENT 7 8
REMARK Flexibility Score: inf
ROOT
ATOM      1  C   UNL     1     116.904 118.867 112.038  1.00  0.00     0.002 C 
ENDROOT
BRANCH   1   2
ATOM      2  C   UNL     1     117.428 118.555 113.451  1.00  0.00    -0.000 C 
BRANCH   2   3
ATOM      3  C   UNL     1     118.934 118.250 113.466  1.00  0.00    -0.003 C 
ATOM      4  C   UNL     1     119.536 118.166 112.064  1.00  0.00     0.004 C 
ENDBRANCH   2   3
ENDBRANCH   1   2
BRANCH   1   5
ATOM      5  C   UNL     1     115.451 119.368 112.046  1.00  0.00     0.028 C 
BRANCH   5   6
ATOM      6  C   UNL     1     114.756 119.158 113.398  1.00  0.00     0.156 C 
BRANCH   6   7
ATOM      7  O   UNL     1     114.207 120.365 113.850  1.00  0.00    -0.396 OA
ATOM      8  H   UNL     1     114.086 120.273 114.832  1.00  0.00     0.210 HD
ENDBRANCH   6   7
ENDBRANCH   5   6
ENDBRANCH   1   5
TORSDOF 5
ENDMDL
MODEL 9
REMARK VINA RESULT:    -2.652      3.888      4.476
REMARK INTER + INTRA:          -3.420
REMARK INTER:                  -3.297
REMARK INTRA:                  -0.123
REMARK UNBOUND:                -0.071
REMARK SMILES CCCCCCO
REMARK SMILES IDX 4 1 3 2 2 3 1 4 5 5 6 6 7 7
REMARK H PARENT 7 8
REMARK Flexibility Score: inf
ROOT
ATOM      1  C   UNL     1     114.763 117.079 113.306  1.00  0.00     0.002 C 
ENDROOT
BRANCH   1   2
ATOM      2  C   UNL     1     114.443 116.582 111.885  1.00  0.00    -0.000 C 
BRANCH   2   3
ATOM      3  C   UNL     1     113.483 115.381 111.885  1.00  0.00    -0.003 C 
ATOM      4  C   UNL     1     113.285 114.779 113.275  1.00  0.00     0.004 C 
ENDBRANCH   2   3
ENDBRANCH   1   2
BRANCH   1   5
ATOM      5  C   UNL     1     114.868 118.610 113.385  1.00  0.00     0.028 C 
BRANCH   5   6
ATOM      6  C   UNL     1     115.121 119.260 112.018  1.00  0.00     0.156 C 
BRANCH   6   7
ATOM      7  O   UNL     1     116.481 119.569 111.876  1.00  0.00    -0.396 OA
ATOM      8  H   UNL     1     116.732 119.326 110.946  1.00  0.00     0.210 HD
ENDBRANCH   6   7
ENDBRANCH   5   6
ENDBRANCH   1   5
TORSDOF 5
ENDMDL
