MODEL 1
REMARK VINA RESULT:    -3.989      0.000      0.000
REMARK INTER + INTRA:          -4.541
REMARK INTER:                  -4.455
REMARK INTRA:                  -0.086
REMARK UNBOUND:                -0.086
REMARK SMILES CCc1ccc(O)cc1O
REMARK SMILES IDX 3 1 9 2 8 3 6 4 5 5 4 6 2 7 1 8 10 9 7 11
REMARK H PARENT 10 10 7 12
REMARK Flexibility Score: inf
ROOT
ATOM      1  C   UNL     1      23.186  36.190  86.123  1.00  0.00    -0.006 A 
ATOM      2  C   UNL     1      23.772  36.268  87.402  1.00  0.00     0.122 A 
ATOM      3  C   UNL     1      23.721  37.470  88.123  1.00  0.00     0.092 A 
ATOM      4  C   UNL     1      23.101  38.598  87.575  1.00  0.00     0.119 A 
ATOM      5  C   UNL     1      22.531  38.526  86.297  1.00  0.00     0.047 A 
ATOM      6  C   UNL     1      22.578  37.332  85.574  1.00  0.00     0.011 A 
ENDROOT
BRANCH   1   7
ATOM      7  C   UNL     1      23.253  34.920  85.313  1.00  0.00     0.036 C 
ATOM      8  C   UNL     1      21.982  34.736  84.488  1.00  0.00     0.009 C 
ENDBRANCH   1   7
BRANCH   2   9
ATOM      9  O   UNL     1      24.404  35.152  87.952  1.00  0.00    -0.508 OA
ATOM     10  H   UNL     1      25.402  35.144  88.134  1.00  0.00     0.293 HD
ENDBRANCH   2   9
BRANCH   4  11
ATOM     11  O   UNL     1      23.061  39.783  88.306  1.00  0.00    -0.508 OA
ATOM     12  H   UNL     1      23.908  40.224  88.645  1.00  0.00     0.293 HD
ENDBRANCH   4  11
TORSDOF 3
ENDMDL
MODEL 2
REMARK VINA RESULT:    -3.895     15.564     16.308
REMARK INTER + INTRA:          -4.436
REMARK INTER:                  -4.350
REMARK INTRA:                  -0.086
REMARK UNBOUND:                -0.086
REMARK SMILES CCc1ccc(O)cc1O
REMARK SMILES IDX 3 1 9 2 8 3 6 4 5 5 4 6 2 7 1 8 10 9 7 11
REMARK H PARENT 10 10 7 12
REMARK Flexibility Score: inf
ROOT
ATOM      1  C   UNL     1      30.448  38.461  73.422  1.00  0.00    -0.006 A 
ATOM      2  C   UNL     1      31.645  38.987  73.949  1.00  0.00     0.122 A 
ATOM      3  C   UNL     1      32.845  38.842  73.238  1.00  0.00     0.092 A 
ATOM      4  C   UNL     1      32.865  38.166  72.013  1.00  0.00     0.119 A 
ATOM      5  C   UNL     1      31.679  37.630  71.496  1.00  0.00     0.047 A 
ATOM      6  C   UNL     1      30.480  37.771  72.199  1.00  0.00     0.011 A 
ENDROOT
BRANCH   1   7
ATOM      7  C   UNL     1      29.150  38.576  74.180  1.00  0.00     0.036 C 
ATOM      8  C   UNL     1      27.990  38.856  73.228  1.00  0.00     0.009 C 
ENDBRANCH   1   7
BRANCH   2   9
ATOM      9  O   UNL     1      31.639  39.651  75.176  1.00  0.00    -0.508 OA
ATOM     10  H   UNL     1      30.984  39.405  75.909  1.00  0.00     0.293 HD
ENDBRANCH   2   9
BRANCH   4  11
ATOM     11  O   UNL     1      34.067  38.031  71.322  1.00  0.00    -0.508 OA
ATOM     12  H   UNL     1      34.722  37.290  71.541  1.00  0.00     0.293 HD
ENDBRANCH   4  11
TORSDOF 3
ENDMDL
MODEL 3
REMARK VINA RESULT:    -3.864     15.182     15.986
REMARK INTER + INTRA:          -4.402
REMARK INTER:                  -4.316
REMARK INTRA:                  -0.086
REMARK UNBOUND:                -0.086
REMARK SMILES CCc1ccc(O)cc1O
REMARK SMILES IDX 3 1 9 2 8 3 6 4 5 5 4 6 2 7 1 8 10 9 7 11
REMARK H PARENT 10 10 7 12
REMARK Flexibility Score: inf
ROOT
ATOM      1  C   UNL     1      27.785  30.934  73.190  1.00  0.00    -0.006 A 
ATOM      2  C   UNL     1      27.677  32.298  72.853  1.00  0.00     0.122 A 
ATOM      3  C   UNL     1      28.820  33.015  72.468  1.00  0.00     0.092 A 
ATOM      4  C   UNL     1      30.069  32.387  72.427  1.00  0.00     0.119 A 
ATOM      5  C   UNL     1      30.179  31.034  72.776  1.00  0.00     0.047 A 
ATOM      6  C   UNL     1      29.045  30.315  73.160  1.00  0.00     0.011 A 
ENDROOT
BRANCH   1   7
ATOM      7  C   UNL     1      26.578  30.147  73.637  1.00  0.00     0.036 C 
ATOM      8  C   UNL     1      26.995  28.796  74.211  1.00  0.00     0.009 C 
ENDBRANCH   1   7
BRANCH   2   9
ATOM      9  O   UNL     1      26.439  32.938  72.903  1.00  0.00    -0.508 OA
ATOM     10  H   UNL     1      26.217  33.608  73.630  1.00  0.00     0.293 HD
ENDBRANCH   2   9
BRANCH   4  11
ATOM     11  O   UNL     1      31.192  33.115  72.042  1.00  0.00    -0.508 OA
ATOM     12  H   UNL     1      31.991  33.219  72.657  1.00  0.00     0.293 HD
ENDBRANCH   4  11
TORSDOF 3
ENDMDL
MODEL 4
REMARK VINA RESULT:    -3.809     15.582     16.086
REMARK INTER + INTRA:          -4.341
REMARK INTER:                  -4.240
REMARK INTRA:                  -0.101
REMARK UNBOUND:                -0.086
REMARK SMILES CCc1ccc(O)cc1O
REMARK SMILES IDX 3 1 9 2 8 3 6 4 5 5 4 6 2 7 1 8 10 9 7 11
REMARK H PARENT 10 10 7 12
REMARK Flexibility Score: inf
ROOT
ATOM      1  C   UNL     1      27.848  30.566  73.359  1.00  0.00    -0.006 A 
ATOM      2  C   UNL     1      29.149  30.057  73.171  1.00  0.00     0.122 A 
ATOM      3  C   UNL     1      30.180  30.912  72.756  1.00  0.00     0.092 A 
ATOM      4  C   UNL     1      29.924  32.265  72.514  1.00  0.00     0.119 A 
ATOM      5  C   UNL     1      28.629  32.769  72.686  1.00  0.00     0.047 A 
ATOM      6  C   UNL     1      27.596  31.923  73.100  1.00  0.00     0.011 A 
ENDROOT
BRANCH   1   7
ATOM      7  C   UNL     1      26.713  29.664  73.776  1.00  0.00     0.036 C 
ATOM      8  C   UNL     1      25.680  29.543  72.659  1.00  0.00     0.009 C 
ENDBRANCH   1   7
BRANCH   2   9
ATOM      9  O   UNL     1      29.412  28.705  73.397  1.00  0.00    -0.508 OA
ATOM     10  H   UNL     1      28.668  28.045  73.590  1.00  0.00     0.293 HD
ENDBRANCH   2   9
BRANCH   4  11
ATOM     11  O   UNL     1      30.962  33.097  72.101  1.00  0.00    -0.508 OA
ATOM     12  H   UNL     1      31.871  32.725  71.854  1.00  0.00     0.293 HD
ENDBRANCH   4  11
TORSDOF 3
ENDMDL
MODEL 5
REMARK VINA RESULT:    -3.790     15.809     16.567
REMARK INTER + INTRA:          -4.318
REMARK INTER:                  -4.215
REMARK INTRA:                  -0.103
REMARK UNBOUND:                -0.086
REMARK SMILES CCc1ccc(O)cc1O
REMARK SMILES IDX 3 1 9 2 8 3 6 4 5 5 4 6 2 7 1 8 10 9 7 11
REMARK H PARENT 10 10 7 12
REMARK Flexibility Score: inf
ROOT
ATOM      1  C   UNL     1      32.221  39.169  73.496  1.00  0.00    -0.006 A 
ATOM      2  C   UNL     1      32.196  38.344  72.353  1.00  0.00     0.122 A 
ATOM      3  C   UNL     1      31.033  37.627  72.035  1.00  0.00     0.092 A 
ATOM      4  C   UNL     1      29.901  37.715  72.851  1.00  0.00     0.119 A 
ATOM      5  C   UNL     1      29.930  38.524  73.994  1.00  0.00     0.047 A 
ATOM      6  C   UNL     1      31.084  39.241  74.318  1.00  0.00     0.011 A 
ENDROOT
BRANCH   1   7
ATOM      7  C   UNL     1      33.467  39.927  73.879  1.00  0.00     0.036 C 
ATOM      8  C   UNL     1      33.436  41.343  73.310  1.00  0.00     0.009 C 
ENDBRANCH   1   7
BRANCH   2   9
ATOM      9  O   UNL     1      33.324  38.238  71.539  1.00  0.00    -0.508 OA
ATOM     10  H   UNL     1      33.585  38.975  70.895  1.00  0.00     0.293 HD
ENDBRANCH   2   9
BRANCH   4  11
ATOM     11  O   UNL     1      28.756  36.995  72.518  1.00  0.00    -0.508 OA
ATOM     12  H   UNL     1      28.553  36.098  72.944  1.00  0.00     0.293 HD
ENDBRANCH   4  11
TORSDOF 3
ENDMDL
MODEL 6
REMARK VINA RESULT:    -3.775     15.838     16.333
REMARK INTER + INTRA:          -4.302
REMARK INTER:                  -4.217
REMARK INTRA:                  -0.085
REMARK UNBOUND:                -0.086
REMARK SMILES CCc1ccc(O)cc1O
REMARK SMILES IDX 3 1 9 2 8 3 6 4 5 5 4 6 2 7 1 8 10 9 7 11
REMARK H PARENT 10 10 7 12
REMARK Flexibility Score: inf
ROOT
ATOM      1  C   UNL     1      31.460  38.001  72.491  1.00  0.00    -0.006 A 
ATOM      2  C   UNL     1      32.740  38.589  72.438  1.00  0.00     0.122 A 
ATOM      3  C   UNL     1      33.080  39.606  73.343  1.00  0.00     0.092 A 
ATOM      4  C   UNL     1      32.152  40.049  74.291  1.00  0.00     0.119 A 
ATOM      5  C   UNL     1      30.875  39.475  74.335  1.00  0.00     0.047 A 
ATOM      6  C   UNL     1      30.530  38.462  73.437  1.00  0.00     0.011 A 
ENDROOT
BRANCH   1   7
ATOM      7  C   UNL     1      31.057  36.929  71.510  1.00  0.00     0.036 C 
ATOM      8  C   UNL     1      29.823  36.179  72.005  1.00  0.00     0.009 C 
ENDBRANCH   1   7
BRANCH   2   9
ATOM      9  O   UNL     1      33.668  38.165  71.487  1.00  0.00    -0.508 OA
ATOM     10  H   UNL     1      34.660  38.121  71.695  1.00  0.00     0.293 HD
ENDBRANCH   2   9
BRANCH   4  11
ATOM     11  O   UNL     1      32.509  41.059  75.181  1.00  0.00    -0.508 OA
ATOM     12  H   UNL     1      33.000  40.854  76.043  1.00  0.00     0.293 HD
ENDBRANCH   4  11
TORSDOF 3
ENDMDL
MODEL 7
REMARK VINA RESULT:    -3.773     15.411     15.954
REMARK INTER + INTRA:          -4.300
REMARK INTER:                  -4.215
REMARK INTRA:                  -0.085
REMARK UNBOUND:                -0.086
REMARK SMILES CCc1ccc(O)cc1O
REMARK SMILES IDX 3 1 9 2 8 3 6 4 5 5 4 6 2 7 1 8 10 9 7 11
REMARK H PARENT 10 10 7 12
REMARK Flexibility Score: inf
ROOT
ATOM      1  C   UNL     1      28.800  30.452  73.219  1.00  0.00    -0.006 A 
ATOM      2  C   UNL     1      29.967  31.175  72.900  1.00  0.00     0.122 A 
ATOM      3  C   UNL     1      29.879  32.537  72.577  1.00  0.00     0.092 A 
ATOM      4  C   UNL     1      28.638  33.181  72.558  1.00  0.00     0.119 A 
ATOM      5  C   UNL     1      27.476  32.460  72.861  1.00  0.00     0.047 A 
ATOM      6  C   UNL     1      27.556  31.103  73.184  1.00  0.00     0.011 A 
ENDROOT
BRANCH   1   7
ATOM      7  C   UNL     1      28.861  28.980  73.540  1.00  0.00     0.036 C 
ATOM      8  C   UNL     1      27.565  28.514  74.197  1.00  0.00     0.009 C 
ENDBRANCH   1   7
BRANCH   2   9
ATOM      9  O   UNL     1      31.209  30.538  72.903  1.00  0.00    -0.508 OA
ATOM     10  H   UNL     1      31.800  30.531  73.727  1.00  0.00     0.293 HD
ENDBRANCH   2   9
BRANCH   4  11
ATOM     11  O   UNL     1      28.572  34.534  72.235  1.00  0.00    -0.508 OA
ATOM     12  H   UNL     1      29.117  35.225  72.737  1.00  0.00     0.293 HD
ENDBRANCH   4  11
TORSDOF 3
ENDMDL
MODEL 8
REMARK VINA RESULT:    -3.687      1.738      3.685
REMARK INTER + INTRA:          -4.204
REMARK INTER:                  -4.117
REMARK INTRA:                  -0.087
REMARK UNBOUND:                -0.086
REMARK SMILES CCc1ccc(O)cc1O
REMARK SMILES IDX 3 1 9 2 8 3 6 4 5 5 4 6 2 7 1 8 10 9 7 11
REMARK H PARENT 10 10 7 12
REMARK Flexibility Score: inf
ROOT
ATOM      1  C   UNL     1      23.334  37.075  87.241  1.00  0.00    -0.006 A 
ATOM      2  C   UNL     1      23.702  35.714  87.220  1.00  0.00     0.122 A 
ATOM      3  C   UNL     1      23.265  34.888  86.174  1.00  0.00     0.092 A 
ATOM      4  C   UNL     1      22.457  35.403  85.155  1.00  0.00     0.119 A 
ATOM      5  C   UNL     1      22.080  36.752  85.182  1.00  0.00     0.047 A 
ATOM      6  C   UNL     1      22.511  37.580  86.221  1.00  0.00     0.011 A 
ENDROOT
BRANCH   1   7
ATOM      7  C   UNL     1      23.764  37.978  88.369  1.00  0.00     0.036 C 
ATOM      8  C   UNL     1      22.792  39.144  88.529  1.00  0.00     0.009 C 
ENDBRANCH   1   7
BRANCH   2   9
ATOM      9  O   UNL     1      24.496  35.187  88.239  1.00  0.00    -0.508 OA
ATOM     10  H   UNL     1      24.099  34.632  88.989  1.00  0.00     0.293 HD
ENDBRANCH   2   9
BRANCH   4  11
ATOM     11  O   UNL     1      22.034  34.567  84.125  1.00  0.00    -0.508 OA
ATOM     12  H   UNL     1      22.291  33.587  84.101  1.00  0.00     0.293 HD
ENDBRANCH   4  11
TORSDOF 3
ENDMDL
