MODEL 1
REMARK VINA RESULT:    -1.911      0.000      0.000
REMARK INTER + INTRA:          -3.045
REMARK INTER:                  -2.581
REMARK INTRA:                  -0.465
REMARK UNBOUND:                -0.465
REMARK SMILES CCCCCCCC(C)=O
REMARK SMILES IDX 5 1 4 2 3 3 2 4 1 5 6 6 7 7 8 8 10 9 9 10
REMARK H PARENT
REMARK Flexibility Score: inf
ROOT
ATOM      1  C   UNL     1     126.320 111.080 136.748  1.00  0.00     0.000 C 
ENDROOT
BRANCH   1   2
ATOM      2  C   UNL     1     126.423 110.705 138.236  1.00  0.00     0.000 C 
BRANCH   2   3
ATOM      3  C   UNL     1     125.742 109.364 138.555  1.00  0.00    -0.000 C 
BRANCH   3   4
ATOM      4  C   UNL     1     126.722 108.326 139.124  1.00  0.00    -0.003 C 
ATOM      5  C   UNL     1     126.752 107.031 138.311  1.00  0.00     0.004 C 
ENDBRANCH   3   4
ENDBRANCH   2   3
ENDBRANCH   1   2
BRANCH   1   6
ATOM      6  C   UNL     1     126.028 109.868 135.850  1.00  0.00     0.008 C 
BRANCH   6   7
ATOM      7  C   UNL     1     126.722 110.016 134.487  1.00  0.00     0.075 C 
BRANCH   7   8
ATOM      8  C   UNL     1     126.803 108.717 133.720  1.00  0.00     0.129 C 
ATOM      9  O   UNL     1     127.125 108.701 132.541  1.00  0.00    -0.300 OA
ATOM     10  C   UNL     1     126.503 107.421 134.411  1.00  0.00     0.087 C 
ENDBRANCH   7   8
ENDBRANCH   6   7
ENDBRANCH   1   6
TORSDOF 6
ENDMDL
MODEL 2
REMARK VINA RESULT:    -1.798      1.954      3.060
REMARK INTER + INTRA:          -2.894
REMARK INTER:                  -2.445
REMARK INTRA:                  -0.449
REMARK UNBOUND:                -0.465
REMARK SMILES CCCCCCCC(C)=O
REMARK SMILES IDX 5 1 4 2 3 3 2 4 1 5 6 6 7 7 8 8 10 9 9 10
REMARK H PARENT
REMARK Flexibility Score: inf
ROOT
ATOM      1  C   UNL     1     126.415 108.246 134.534  1.00  0.00     0.000 C 
ENDROOT
BRANCH   1   2
ATOM      2  C   UNL     1     125.732 108.985 135.696  1.00  0.00     0.000 C 
BRANCH   2   3
ATOM      3  C   UNL     1     125.672 108.140 136.980  1.00  0.00    -0.000 C 
BRANCH   3   4
ATOM      4  C   UNL     1     126.223 108.888 138.204  1.00  0.00    -0.003 C 
ATOM      5  C   UNL     1     126.282 110.402 137.996  1.00  0.00     0.004 C 
ENDBRANCH   3   4
ENDBRANCH   2   3
ENDBRANCH   1   2
BRANCH   1   6
ATOM      6  C   UNL     1     127.125 109.200 133.560  1.00  0.00     0.008 C 
BRANCH   6   7
ATOM      7  C   UNL     1     126.971 110.661 134.012  1.00  0.00     0.075 C 
BRANCH   7   8
ATOM      8  C   UNL     1     126.530 111.581 132.899  1.00  0.00     0.129 C 
ATOM      9  O   UNL     1     126.934 112.733 132.838  1.00  0.00    -0.300 OA
ATOM     10  C   UNL     1     125.597 111.080 131.839  1.00  0.00     0.087 C 
ENDBRANCH   7   8
ENDBRANCH   6   7
ENDBRANCH   1   6
TORSDOF 6
ENDMDL
MODEL 3
REMARK VINA RESULT:    -1.792      2.014      4.269
REMARK INTER + INTRA:          -2.886
REMARK INTER:                  -2.435
REMARK INTRA:                  -0.451
REMARK UNBOUND:                -0.465
REMARK SMILES CCCCCCCC(C)=O
REMARK SMILES IDX 5 1 4 2 3 3 2 4 1 5 6 6 7 7 8 8 10 9 9 10
REMARK H PARENT
REMARK Flexibility Score: inf
ROOT
ATOM      1  C   UNL     1     125.447 110.234 135.700  1.00  0.00     0.000 C 
ENDROOT
BRANCH   1   2
ATOM      2  C   UNL     1     126.481 110.890 134.770  1.00  0.00     0.000 C 
BRANCH   2   3
ATOM      3  C   UNL     1     127.125 109.886 133.800  1.00  0.00    -0.000 C 
BRANCH   3   4
ATOM      4  C   UNL     1     126.781 108.429 134.146  1.00  0.00    -0.003 C 
ATOM      5  C   UNL     1     127.051 107.466 132.990  1.00  0.00     0.004 C 
ENDBRANCH   3   4
ENDBRANCH   2   3
ENDBRANCH   1   2
BRANCH   1   6
ATOM      6  C   UNL     1     125.550 110.735 137.149  1.00  0.00     0.008 C 
BRANCH   6   7
ATOM      7  C   UNL     1     126.416 109.790 137.997  1.00  0.00     0.075 C 
BRANCH   7   8
ATOM      8  C   UNL     1     125.816 108.413 138.148  1.00  0.00     0.129 C 
ATOM      9  O   UNL     1     126.451 107.412 137.848  1.00  0.00    -0.300 OA
ATOM     10  C   UNL     1     124.426 108.258 138.688  1.00  0.00     0.087 C 
ENDBRANCH   7   8
ENDBRANCH   6   7
ENDBRANCH   1   6
TORSDOF 6
ENDMDL
MODEL 4
REMARK VINA RESULT:    -1.761      2.730      4.104
REMARK INTER + INTRA:          -2.843
REMARK INTER:                  -2.093
REMARK INTRA:                  -0.750
REMARK UNBOUND:                -0.465
REMARK SMILES CCCCCCCC(C)=O
REMARK SMILES IDX 5 1 4 2 3 3 2 4 1 5 6 6 7 7 8 8 10 9 9 10
REMARK H PARENT
REMARK Flexibility Score: inf
ROOT
ATOM      1  C   UNL     1     126.437 110.684 134.068  1.00  0.00     0.000 C 
ENDROOT
BRANCH   1   2
ATOM      2  C   UNL     1     126.806 109.201 134.231  1.00  0.00     0.000 C 
BRANCH   2   3
ATOM      3  C   UNL     1     125.671 108.375 134.861  1.00  0.00    -0.000 C 
BRANCH   3   4
ATOM      4  C   UNL     1     125.964 107.988 136.319  1.00  0.00    -0.003 C 
ATOM      5  C   UNL     1     124.740 108.118 137.225  1.00  0.00     0.004 C 
ENDBRANCH   3   4
ENDBRANCH   2   3
ENDBRANCH   1   2
BRANCH   1   6
ATOM      6  C   UNL     1     126.780 111.521 135.310  1.00  0.00     0.008 C 
BRANCH   6   7
ATOM      7  C   UNL     1     125.508 111.904 136.082  1.00  0.00     0.075 C 
BRANCH   7   8
ATOM      8  C   UNL     1     125.614 111.641 137.565  1.00  0.00     0.129 C 
ATOM      9  O   UNL     1     124.650 111.790 138.302  1.00  0.00    -0.300 OA
ATOM     10  C   UNL     1     126.912 111.175 138.151  1.00  0.00     0.087 C 
ENDBRANCH   7   8
ENDBRANCH   6   7
ENDBRANCH   1   6
TORSDOF 6
ENDMDL
MODEL 5
REMARK VINA RESULT:    -1.723      2.239      4.470
REMARK INTER + INTRA:          -2.792
REMARK INTER:                  -2.284
REMARK INTRA:                  -0.508
REMARK UNBOUND:                -0.465
REMARK SMILES CCCCCCCC(C)=O
REMARK SMILES IDX 5 1 4 2 3 3 2 4 1 5 6 6 7 7 8 8 10 9 9 10
REMARK H PARENT
REMARK Flexibility Score: inf
ROOT
ATOM      1  C   UNL     1     126.770 108.699 134.276  1.00  0.00     0.000 C 
ENDROOT
BRANCH   1   2
ATOM      2  C   UNL     1     126.070 110.050 134.055  1.00  0.00     0.000 C 
BRANCH   2   3
ATOM      3  C   UNL     1     127.051 111.234 134.073  1.00  0.00    -0.000 C 
BRANCH   3   4
ATOM      4  C   UNL     1     126.645 112.320 135.082  1.00  0.00    -0.003 C 
ATOM      5  C   UNL     1     127.122 112.018 136.502  1.00  0.00     0.004 C 
ENDBRANCH   3   4
ENDBRANCH   2   3
ENDBRANCH   1   2
BRANCH   1   6
ATOM      6  C   UNL     1     125.937 107.733 135.134  1.00  0.00     0.008 C 
BRANCH   6   7
ATOM      7  C   UNL     1     125.315 108.463 136.335  1.00  0.00     0.075 C 
BRANCH   7   8
ATOM      8  C   UNL     1     125.947 108.081 137.652  1.00  0.00     0.129 C 
ATOM      9  O   UNL     1     125.945 106.921 138.038  1.00  0.00    -0.300 OA
ATOM     10  C   UNL     1     126.603 109.129 138.498  1.00  0.00     0.087 C 
ENDBRANCH   7   8
ENDBRANCH   6   7
ENDBRANCH   1   6
TORSDOF 6
ENDMDL
MODEL 6
REMARK VINA RESULT:    -1.713      2.317      5.084
REMARK INTER + INTRA:          -2.779
REMARK INTER:                  -2.464
REMARK INTRA:                  -0.315
REMARK UNBOUND:                -0.465
REMARK SMILES CCCCCCCC(C)=O
REMARK SMILES IDX 5 1 4 2 3 3 2 4 1 5 6 6 7 7 8 8 10 9 9 10
REMARK H PARENT
REMARK Flexibility Score: inf
ROOT
ATOM      1  C   UNL     1     127.125 109.526 133.491  1.00  0.00     0.000 C 
ENDROOT
BRANCH   1   2
ATOM      2  C   UNL     1     126.862 108.112 134.034  1.00  0.00     0.000 C 
BRANCH   2   3
ATOM      3  C   UNL     1     127.123 107.017 132.986  1.00  0.00    -0.000 C 
BRANCH   3   4
ATOM      4  C   UNL     1     126.452 107.322 131.638  1.00  0.00    -0.003 C 
ATOM      5  C   UNL     1     124.955 107.012 131.637  1.00  0.00     0.004 C 
ENDBRANCH   3   4
ENDBRANCH   2   3
ENDBRANCH   1   2
BRANCH   1   6
ATOM      6  C   UNL     1     126.737 110.627 134.490  1.00  0.00     0.008 C 
BRANCH   6   7
ATOM      7  C   UNL     1     125.998 110.035 135.701  1.00  0.00     0.075 C 
BRANCH   7   8
ATOM      8  C   UNL     1     125.964 110.967 136.888  1.00  0.00     0.129 C 
ATOM      9  O   UNL     1     125.517 112.100 136.786  1.00  0.00    -0.300 OA
ATOM     10  C   UNL     1     126.469 110.502 138.220  1.00  0.00     0.087 C 
ENDBRANCH   7   8
ENDBRANCH   6   7
ENDBRANCH   1   6
TORSDOF 6
ENDMDL
MODEL 7
REMARK VINA RESULT:    -1.698      2.694      4.637
REMARK INTER + INTRA:          -2.758
REMARK INTER:                  -2.066
REMARK INTRA:                  -0.692
REMARK UNBOUND:                -0.465
REMARK SMILES CCCCCCCC(C)=O
REMARK SMILES IDX 5 1 4 2 3 3 2 4 1 5 6 6 7 7 8 8 10 9 9 10
REMARK H PARENT
REMARK Flexibility Score: inf
ROOT
ATOM      1  C   UNL     1     125.401 108.494 137.252  1.00  0.00     0.000 C 
ENDROOT
BRANCH   1   2
ATOM      2  C   UNL     1     124.449 109.221 136.289  1.00  0.00     0.000 C 
BRANCH   2   3
ATOM      3  C   UNL     1     124.899 109.119 134.822  1.00  0.00    -0.000 C 
BRANCH   3   4
ATOM      4  C   UNL     1     126.393 108.789 134.686  1.00  0.00    -0.003 C 
ATOM      5  C   UNL     1     127.124 109.730 133.729  1.00  0.00     0.004 C 
ENDBRANCH   3   4
ENDBRANCH   2   3
ENDBRANCH   1   2
BRANCH   1   6
ATOM      6  C   UNL     1     125.956 109.418 138.348  1.00  0.00     0.008 C 
BRANCH   6   7
ATOM      7  C   UNL     1     125.381 110.837 138.213  1.00  0.00     0.075 C 
BRANCH   7   8
ATOM      8  C   UNL     1     126.443 111.888 137.999  1.00  0.00     0.129 C 
ATOM      9  O   UNL     1     126.855 112.566 138.929  1.00  0.00    -0.300 OA
ATOM     10  C   UNL     1     127.021 112.101 136.633  1.00  0.00     0.087 C 
ENDBRANCH   7   8
ENDBRANCH   6   7
ENDBRANCH   1   6
TORSDOF 6
ENDMDL
MODEL 8
REMARK VINA RESULT:    -1.694      1.840      3.150
REMARK INTER + INTRA:          -2.753
REMARK INTER:                  -2.189
REMARK INTRA:                  -0.564
REMARK UNBOUND:                -0.465
REMARK SMILES CCCCCCCC(C)=O
REMARK SMILES IDX 5 1 4 2 3 3 2 4 1 5 6 6 7 7 8 8 10 9 9 10
REMARK H PARENT
REMARK Flexibility Score: inf
ROOT
ATOM      1  C   UNL     1     125.969 111.419 133.060  1.00  0.00     0.000 C 
ENDROOT
BRANCH   1   2
ATOM      2  C   UNL     1     126.994 111.840 134.126  1.00  0.00     0.000 C 
BRANCH   2   3
ATOM      3  C   UNL     1     126.331 112.424 135.385  1.00  0.00    -0.000 C 
BRANCH   3   4
ATOM      4  C   UNL     1     126.772 111.704 136.669  1.00  0.00    -0.003 C 
ATOM      5  C   UNL     1     125.943 110.453 136.961  1.00  0.00     0.004 C 
ENDBRANCH   3   4
ENDBRANCH   2   3
ENDBRANCH   1   2
BRANCH   1   6
ATOM      6  C   UNL     1     125.984 109.907 132.789  1.00  0.00     0.008 C 
BRANCH   6   7
ATOM      7  C   UNL     1     127.065 109.208 133.629  1.00  0.00     0.075 C 
BRANCH   7   8
ATOM      8  C   UNL     1     126.839 107.722 133.766  1.00  0.00     0.129 C 
ATOM      9  O   UNL     1     127.071 106.961 132.838  1.00  0.00    -0.300 OA
ATOM     10  C   UNL     1     126.338 107.158 135.061  1.00  0.00     0.087 C 
ENDBRANCH   7   8
ENDBRANCH   6   7
ENDBRANCH   1   6
TORSDOF 6
ENDMDL
MODEL 9
REMARK VINA RESULT:     0.383      7.016      9.084
REMARK INTER + INTRA:           0.052
REMARK INTER:                   0.000
REMARK INTRA:                   0.052
REMARK UNBOUND:                -0.465
REMARK SMILES CCCCCCCC(C)=O
REMARK SMILES IDX 5 1 4 2 3 3 2 4 1 5 6 6 7 7 8 8 10 9 9 10
REMARK H PARENT
REMARK Flexibility Score: inf
ROOT
ATOM      1  C   UNL     1     122.158 111.940 131.254  1.00  0.00     0.000 C 
ENDROOT
BRANCH   1   2
ATOM      2  C   UNL     1     122.818 110.862 130.379  1.00  0.00     0.000 C 
BRANCH   2   3
ATOM      3  C   UNL     1     122.859 111.251 128.892  1.00  0.00    -0.000 C 
BRANCH   3   4
ATOM      4  C   UNL     1     123.079 110.040 127.972  1.00  0.00    -0.003 C 
ATOM      5  C   UNL     1     124.126 110.302 126.888  1.00  0.00     0.004 C 
ENDBRANCH   3   4
ENDBRANCH   2   3
ENDBRANCH   1   2
BRANCH   1   6
ATOM      6  C   UNL     1     121.972 111.488 132.711  1.00  0.00     0.008 C 
BRANCH   6   7
ATOM      7  C   UNL     1     120.482 111.412 133.077  1.00  0.00     0.075 C 
BRANCH   7   8
ATOM      8  C   UNL     1     119.607 112.248 132.174  1.00  0.00     0.129 C 
ATOM      9  O   UNL     1     119.078 111.763 131.185  1.00  0.00    -0.300 OA
ATOM     10  C   UNL     1     119.364 113.692 132.495  1.00  0.00     0.087 C 
ENDBRANCH   7   8
ENDBRANCH   6   7
ENDBRANCH   1   6
TORSDOF 6
ENDMDL
