MODEL 1
REMARK VINA RESULT:    -0.225      0.000      0.000
REMARK INTER + INTRA:          -1.347
REMARK INTER:                  -0.344
REMARK INTRA:                  -1.003
REMARK UNBOUND:                -1.003
REMARK SMILES OC[C@H]1O[C@@H](O[C@@]2(CO)O[C@H](CO)[C@H](O)[C@H]2O)[C@H](O)[C@@H](O)[C@H]1O
REMARK SMILES IDX 6 1 5 2 3 3 22 4 4 5 20 6 18 7 2 8 1 9 23 11 21 13 19 15
REMARK SMILES IDX 7 17 16 18 10 19 14 20 11 21 8 22 9 23 17 25 15 27 12 29
REMARK SMILES IDX 13 30
REMARK H PARENT 1 10 23 12 21 14 19 16 9 24 17 26 15 28 13 31
REMARK Flexibility Score: inf
ROOT
ATOM      1  O   UNL     1      25.198   6.244  15.780  1.00  0.00    -0.313 OA
ENDROOT
BRANCH   1   2
ATOM      2  C   UNL     1      24.352   5.353  15.060  1.00  0.00     0.285 C 
ATOM      3  C   UNL     1      22.346   6.640  15.288  1.00  0.00     0.178 C 
ATOM      4  C   UNL     1      21.749   5.619  16.295  1.00  0.00     0.177 C 
ATOM      5  O   UNL     1      23.304   6.060  14.408  1.00  0.00    -0.341 OA
ATOM      6  C   UNL     1      22.836   4.808  17.018  1.00  0.00     0.179 C 
ATOM      7  C   UNL     1      23.828   4.245  15.991  1.00  0.00     0.202 C 
BRANCH   3   8
ATOM      8  C   UNL     1      22.854   7.958  15.917  1.00  0.00     0.191 C 
BRANCH   8   9
ATOM      9  O   UNL     1      23.726   8.628  15.048  1.00  0.00    -0.394 OA
ATOM     10  H   UNL     1      23.582   8.244  14.143  1.00  0.00     0.210 HD
ENDBRANCH   8   9
ENDBRANCH   3   8
BRANCH   4  11
ATOM     11  O   UNL     1      20.917   6.250  17.235  1.00  0.00    -0.387 OA
ATOM     12  H   UNL     1      20.322   5.549  17.608  1.00  0.00     0.211 HD
ENDBRANCH   4  11
BRANCH   6  13
ATOM     13  O   UNL     1      23.524   5.590  17.960  1.00  0.00    -0.387 OA
ATOM     14  H   UNL     1      23.127   5.392  18.849  1.00  0.00     0.211 HD
ENDBRANCH   6  13
BRANCH   7  15
ATOM     15  O   UNL     1      23.207   3.249  15.218  1.00  0.00    -0.385 OA
ATOM     16  H   UNL     1      22.342   3.624  14.905  1.00  0.00     0.211 HD
ENDBRANCH   7  15
ENDBRANCH   1   2
BRANCH   1  17
ATOM     17  C   UNL     1      26.490   6.421  15.197  1.00  0.00     0.224 C 
ATOM     18  C   UNL     1      27.538   5.649  16.044  1.00  0.00     0.208 C 
ATOM     19  O   UNL     1      26.858   7.793  15.172  1.00  0.00    -0.337 OA
ATOM     20  C   UNL     1      28.633   6.666  16.282  1.00  0.00     0.180 C 
ATOM     21  C   UNL     1      27.890   7.985  16.107  1.00  0.00     0.179 C 
BRANCH  17  22
ATOM     22  C   UNL     1      26.478   5.873  13.751  1.00  0.00     0.225 C 
BRANCH  22  23
ATOM     23  O   UNL     1      25.884   6.797  12.879  1.00  0.00    -0.391 OA
ATOM     24  H   UNL     1      25.403   7.449  13.453  1.00  0.00     0.210 HD
ENDBRANCH  22  23
ENDBRANCH  17  22
BRANCH  18  25
ATOM     25  O   UNL     1      26.993   5.243  17.275  1.00  0.00    -0.385 OA
ATOM     26  H   UNL     1      27.038   6.025  17.883  1.00  0.00     0.211 HD
ENDBRANCH  18  25
BRANCH  20  27
ATOM     27  O   UNL     1      29.648   6.517  15.321  1.00  0.00    -0.387 OA
ATOM     28  H   UNL     1      29.690   7.373  14.819  1.00  0.00     0.211 HD
ENDBRANCH  20  27
BRANCH  21  29
ATOM     29  C   UNL     1      28.784   9.158  15.685  1.00  0.00     0.191 C 
BRANCH  29  30
ATOM     30  O   UNL     1      28.122   9.973  14.758  1.00  0.00    -0.394 OA
ATOM     31  H   UNL     1      27.393  10.425  15.258  1.00  0.00     0.210 HD
ENDBRANCH  29  30
ENDBRANCH  21  29
ENDBRANCH   1  17
TORSDOF 13
ENDMDL
MODEL 2
REMARK VINA RESULT:    -0.016      1.480      5.984
REMARK INTER + INTRA:          -1.027
REMARK INTER:                  -0.291
REMARK INTRA:                  -0.736
REMARK UNBOUND:                -1.003
REMARK SMILES OC[C@H]1O[C@@H](O[C@@]2(CO)O[C@H](CO)[C@H](O)[C@H]2O)[C@H](O)[C@@H](O)[C@H]1O
REMARK SMILES IDX 6 1 5 2 3 3 22 4 4 5 20 6 18 7 2 8 1 9 23 11 21 13 19 15
REMARK SMILES IDX 7 17 16 18 10 19 14 20 11 21 8 22 9 23 17 25 15 27 12 29
REMARK SMILES IDX 13 30
REMARK H PARENT 1 10 23 12 21 14 19 16 9 24 17 26 15 28 13 31
REMARK Flexibility Score: inf
ROOT
ATOM      1  O   UNL     1      24.156   6.206  15.898  1.00  0.00    -0.313 OA
ENDROOT
BRANCH   1   2
ATOM      2  C   UNL     1      24.903   5.698  14.797  1.00  0.00     0.285 C 
ATOM      3  C   UNL     1      26.992   5.509  15.951  1.00  0.00     0.178 C 
ATOM      4  C   UNL     1      27.586   6.715  15.172  1.00  0.00     0.177 C 
ATOM      5  O   UNL     1      25.951   4.845  15.242  1.00  0.00    -0.341 OA
ATOM      6  C   UNL     1      26.497   7.664  14.648  1.00  0.00     0.179 C 
ATOM      7  C   UNL     1      25.415   6.856  13.921  1.00  0.00     0.202 C 
BRANCH   3   8
ATOM      8  C   UNL     1      26.601   5.806  17.417  1.00  0.00     0.191 C 
BRANCH   8   9
ATOM      9  O   UNL     1      27.210   4.898  18.296  1.00  0.00    -0.394 OA
ATOM     10  H   UNL     1      28.191   5.010  18.189  1.00  0.00     0.210 HD
ENDBRANCH   8   9
ENDBRANCH   3   8
BRANCH   4  11
ATOM     11  O   UNL     1      28.508   7.429  15.956  1.00  0.00    -0.387 OA
ATOM     12  H   UNL     1      28.168   7.408  16.889  1.00  0.00     0.211 HD
ENDBRANCH   4  11
BRANCH   6  13
ATOM     13  O   UNL     1      25.914   8.407  15.688  1.00  0.00    -0.387 OA
ATOM     14  H   UNL     1      26.112   7.928  16.536  1.00  0.00     0.211 HD
ENDBRANCH   6  13
BRANCH   7  15
ATOM     15  O   UNL     1      25.929   6.334  12.721  1.00  0.00    -0.385 OA
ATOM     16  H   UNL     1      26.113   5.372  12.882  1.00  0.00     0.211 HD
ENDBRANCH   7  15
ENDBRANCH   1   2
BRANCH   1  17
ATOM     17  C   UNL     1      22.875   5.595  16.064  1.00  0.00     0.224 C 
ATOM     18  C   UNL     1      21.771   6.644  15.765  1.00  0.00     0.208 C 
ATOM     19  O   UNL     1      22.699   5.127  17.394  1.00  0.00    -0.337 OA
ATOM     20  C   UNL     1      20.838   6.540  16.952  1.00  0.00     0.180 C 
ATOM     21  C   UNL     1      21.747   5.948  18.023  1.00  0.00     0.179 C 
BRANCH  17  22
ATOM     22  C   UNL     1      22.745   4.404  15.086  1.00  0.00     0.225 C 
BRANCH  22  23
ATOM     23  O   UNL     1      23.216   3.225  15.682  1.00  0.00    -0.391 OA
ATOM     24  H   UNL     1      23.295   2.558  14.951  1.00  0.00     0.210 HD
ENDBRANCH  22  23
ENDBRANCH  17  22
BRANCH  18  25
ATOM     25  O   UNL     1      22.311   7.941  15.700  1.00  0.00    -0.385 OA
ATOM     26  H   UNL     1      23.040   7.918  15.028  1.00  0.00     0.211 HD
ENDBRANCH  18  25
BRANCH  20  27
ATOM     27  O   UNL     1      19.769   5.677  16.652  1.00  0.00    -0.387 OA
ATOM     28  H   UNL     1      19.517   5.856  15.710  1.00  0.00     0.211 HD
ENDBRANCH  20  27
BRANCH  21  29
ATOM     29  C   UNL     1      21.004   5.168  19.116  1.00  0.00     0.191 C 
BRANCH  29  30
ATOM     30  O   UNL     1      21.458   3.844  19.170  1.00  0.00    -0.394 OA
ATOM     31  H   UNL     1      22.118   3.748  18.433  1.00  0.00     0.210 HD
ENDBRANCH  29  30
ENDBRANCH  21  29
ENDBRANCH   1  17
TORSDOF 13
ENDMDL
MODEL 3
REMARK VINA RESULT:     1.453      3.077      5.212
REMARK INTER + INTRA:           1.215
REMARK INTER:                   1.698
REMARK INTRA:                  -0.483
REMARK UNBOUND:                -1.003
REMARK SMILES OC[C@H]1O[C@@H](O[C@@]2(CO)O[C@H](CO)[C@H](O)[C@H]2O)[C@H](O)[C@@H](O)[C@H]1O
REMARK SMILES IDX 6 1 5 2 3 3 22 4 4 5 20 6 18 7 2 8 1 9 23 11 21 13 19 15
REMARK SMILES IDX 7 17 16 18 10 19 14 20 11 21 8 22 9 23 17 25 15 27 12 29
REMARK SMILES IDX 13 30
REMARK H PARENT 1 10 23 12 21 14 19 16 9 24 17 26 15 28 13 31
REMARK Flexibility Score: inf
ROOT
ATOM      1  O   UNL     1      26.172   6.587  12.560  1.00  0.00    -0.313 OA
ENDROOT
BRANCH   1   2
ATOM      2  C   UNL     1      25.420   7.399  13.456  1.00  0.00     0.285 C 
ATOM      3  C   UNL     1      26.567   6.734  15.450  1.00  0.00     0.178 C 
ATOM      4  C   UNL     1      25.342   5.911  15.937  1.00  0.00     0.177 C 
ATOM      5  O   UNL     1      26.212   7.796  14.570  1.00  0.00    -0.341 OA
ATOM      6  C   UNL     1      24.437   5.471  14.776  1.00  0.00     0.179 C 
ATOM      7  C   UNL     1      24.129   6.674  13.877  1.00  0.00     0.202 C 
BRANCH   3   8
ATOM      8  C   UNL     1      27.744   5.893  14.904  1.00  0.00     0.191 C 
BRANCH   8   9
ATOM      9  O   UNL     1      28.731   5.710  15.883  1.00  0.00    -0.394 OA
ATOM     10  H   UNL     1      28.772   6.551  16.410  1.00  0.00     0.210 HD
ENDBRANCH   8   9
ENDBRANCH   3   8
BRANCH   4  11
ATOM     11  O   UNL     1      25.740   4.792  16.687  1.00  0.00    -0.387 OA
ATOM     12  H   UNL     1      25.512   4.985  17.633  1.00  0.00     0.211 HD
ENDBRANCH   4  11
BRANCH   6  13
ATOM     13  O   UNL     1      25.031   4.451  14.014  1.00  0.00    -0.387 OA
ATOM     14  H   UNL     1      25.950   4.754  13.788  1.00  0.00     0.211 HD
ENDBRANCH   6  13
BRANCH   7  15
ATOM     15  O   UNL     1      23.292   7.580  14.553  1.00  0.00    -0.385 OA
ATOM     16  H   UNL     1      22.930   7.102  15.343  1.00  0.00     0.211 HD
ENDBRANCH   7  15
ENDBRANCH   1   2
BRANCH   1  17
ATOM     17  C   UNL     1      25.744   6.670  11.200  1.00  0.00     0.224 C 
ATOM     18  C   UNL     1      26.057   5.328  10.487  1.00  0.00     0.208 C 
ATOM     19  O   UNL     1      26.423   7.711  10.511  1.00  0.00    -0.337 OA
ATOM     20  C   UNL     1      26.768   5.746   9.218  1.00  0.00     0.180 C 
ATOM     21  C   UNL     1      27.307   7.121   9.591  1.00  0.00     0.179 C 
BRANCH  17  22
ATOM     22  C   UNL     1      24.222   6.944  11.158  1.00  0.00     0.225 C 
BRANCH  22  23
ATOM     23  O   UNL     1      23.712   6.694   9.876  1.00  0.00    -0.391 OA
ATOM     24  H   UNL     1      22.727   6.629   9.978  1.00  0.00     0.210 HD
ENDBRANCH  22  23
ENDBRANCH  17  22
BRANCH  18  25
ATOM     25  O   UNL     1      26.911   4.528  11.267  1.00  0.00    -0.385 OA
ATOM     26  H   UNL     1      26.734   3.585  11.016  1.00  0.00     0.211 HD
ENDBRANCH  18  25
BRANCH  20  27
ATOM     27  O   UNL     1      25.852   5.826   8.154  1.00  0.00    -0.387 OA
ATOM     28  H   UNL     1      25.334   4.980   8.162  1.00  0.00     0.211 HD
ENDBRANCH  20  27
BRANCH  21  29
ATOM     29  C   UNL     1      27.537   8.052   8.393  1.00  0.00     0.191 C 
BRANCH  29  30
ATOM     30  O   UNL     1      28.109   7.348   7.326  1.00  0.00    -0.394 OA
ATOM     31  H   UNL     1      27.351   7.022   6.773  1.00  0.00     0.210 HD
ENDBRANCH  29  30
ENDBRANCH  21  29
ENDBRANCH   1  17
TORSDOF 13
ENDMDL
MODEL 4
REMARK VINA RESULT:     1.533      1.468      2.136
REMARK INTER + INTRA:           1.337
REMARK INTER:                   1.239
REMARK INTRA:                   0.099
REMARK UNBOUND:                -1.003
REMARK SMILES OC[C@H]1O[C@@H](O[C@@]2(CO)O[C@H](CO)[C@H](O)[C@H]2O)[C@H](O)[C@@H](O)[C@H]1O
REMARK SMILES IDX 6 1 5 2 3 3 22 4 4 5 20 6 18 7 2 8 1 9 23 11 21 13 19 15
REMARK SMILES IDX 7 17 16 18 10 19 14 20 11 21 8 22 9 23 17 25 15 27 12 29
REMARK SMILES IDX 13 30
REMARK H PARENT 1 10 23 12 21 14 19 16 9 24 17 26 15 28 13 31
REMARK Flexibility Score: inf
ROOT
ATOM      1  O   UNL     1      25.286   5.836  15.612  1.00  0.00    -0.313 OA
ENDROOT
BRANCH   1   2
ATOM      2  C   UNL     1      24.416   4.873  15.025  1.00  0.00     0.285 C 
ATOM      3  C   UNL     1      22.384   5.752  15.939  1.00  0.00     0.178 C 
ATOM      4  C   UNL     1      22.253   4.555  16.922  1.00  0.00     0.177 C 
ATOM      5  O   UNL     1      23.133   5.434  14.770  1.00  0.00    -0.341 OA
ATOM      6  C   UNL     1      23.608   3.894  17.220  1.00  0.00     0.179 C 
ATOM      7  C   UNL     1      24.345   3.612  15.905  1.00  0.00     0.202 C 
BRANCH   3   8
ATOM      8  C   UNL     1      22.845   7.080  16.584  1.00  0.00     0.191 C 
BRANCH   8   9
ATOM      9  O   UNL     1      22.196   8.176  16.000  1.00  0.00    -0.394 OA
ATOM     10  H   UNL     1      21.913   8.772  16.743  1.00  0.00     0.210 HD
ENDBRANCH   8   9
ENDBRANCH   3   8
BRANCH   4  11
ATOM     11  O   UNL     1      21.633   4.942  18.122  1.00  0.00    -0.387 OA
ATOM     12  H   UNL     1      20.952   5.625  17.885  1.00  0.00     0.211 HD
ENDBRANCH   4  11
BRANCH   6  13
ATOM     13  O   UNL     1      24.407   4.702  18.046  1.00  0.00    -0.387 OA
ATOM     14  H   UNL     1      23.815   5.401  18.432  1.00  0.00     0.211 HD
ENDBRANCH   6  13
BRANCH   7  15
ATOM     15  O   UNL     1      23.688   2.591  15.195  1.00  0.00    -0.385 OA
ATOM     16  H   UNL     1      24.117   2.541  14.301  1.00  0.00     0.211 HD
ENDBRANCH   7  15
ENDBRANCH   1   2
BRANCH   1  17
ATOM     17  C   UNL     1      25.601   6.935  14.756  1.00  0.00     0.224 C 
ATOM     18  C   UNL     1      27.063   7.382  15.022  1.00  0.00     0.208 C 
ATOM     19  O   UNL     1      24.743   8.040  15.005  1.00  0.00    -0.337 OA
ATOM     20  C   UNL     1      26.959   8.880  15.207  1.00  0.00     0.180 C 
ATOM     21  C   UNL     1      25.502   9.051  15.620  1.00  0.00     0.179 C 
BRANCH  17  22
ATOM     22  C   UNL     1      25.446   6.495  13.281  1.00  0.00     0.225 C 
BRANCH  22  23
ATOM     23  O   UNL     1      24.340   7.125  12.693  1.00  0.00    -0.391 OA
ATOM     24  H   UNL     1      23.651   7.193  13.404  1.00  0.00     0.210 HD
ENDBRANCH  22  23
ENDBRANCH  17  22
BRANCH  18  25
ATOM     25  O   UNL     1      27.566   6.794  16.197  1.00  0.00    -0.385 OA
ATOM     26  H   UNL     1      28.219   6.102  15.917  1.00  0.00     0.211 HD
ENDBRANCH  18  25
BRANCH  20  27
ATOM     27  O   UNL     1      27.228   9.537  13.993  1.00  0.00    -0.387 OA
ATOM     28  H   UNL     1      27.010   8.894  13.269  1.00  0.00     0.211 HD
ENDBRANCH  20  27
BRANCH  21  29
ATOM     29  C   UNL     1      24.916  10.433  15.299  1.00  0.00     0.191 C 
BRANCH  29  30
ATOM     30  O   UNL     1      23.533  10.344  15.091  1.00  0.00    -0.394 OA
ATOM     31  H   UNL     1      23.282  11.146  14.563  1.00  0.00     0.210 HD
ENDBRANCH  29  30
ENDBRANCH  21  29
ENDBRANCH   1  17
TORSDOF 13
ENDMDL
MODEL 5
REMARK VINA RESULT:     1.664      1.669      5.354
REMARK INTER + INTRA:           1.536
REMARK INTER:                   1.754
REMARK INTRA:                  -0.218
REMARK UNBOUND:                -1.003
REMARK SMILES OC[C@H]1O[C@@H](O[C@@]2(CO)O[C@H](CO)[C@H](O)[C@H]2O)[C@H](O)[C@@H](O)[C@H]1O
REMARK SMILES IDX 6 1 5 2 3 3 22 4 4 5 20 6 18 7 2 8 1 9 23 11 21 13 19 15
REMARK SMILES IDX 7 17 16 18 10 19 14 20 11 21 8 22 9 23 17 25 15 27 12 29
REMARK SMILES IDX 13 30
REMARK H PARENT 1 10 23 12 21 14 19 16 9 24 17 26 15 28 13 31
REMARK Flexibility Score: inf
ROOT
ATOM      1  O   UNL     1      23.790   6.112  15.635  1.00  0.00    -0.313 OA
ENDROOT
BRANCH   1   2
ATOM      2  C   UNL     1      24.364   5.780  14.374  1.00  0.00     0.285 C 
ATOM      3  C   UNL     1      26.646   6.106  15.022  1.00  0.00     0.178 C 
ATOM      4  C   UNL     1      26.749   7.408  14.180  1.00  0.00     0.177 C 
ATOM      5  O   UNL     1      25.655   5.205  14.538  1.00  0.00    -0.341 OA
ATOM      6  C   UNL     1      25.379   8.065  13.952  1.00  0.00     0.179 C 
ATOM      7  C   UNL     1      24.379   7.015  13.454  1.00  0.00     0.202 C 
BRANCH   3   8
ATOM      8  C   UNL     1      26.541   6.323  16.550  1.00  0.00     0.191 C 
BRANCH   8   9
ATOM      9  O   UNL     1      27.143   5.269  17.251  1.00  0.00    -0.394 OA
ATOM     10  H   UNL     1      26.507   4.998  17.965  1.00  0.00     0.210 HD
ENDBRANCH   8   9
ENDBRANCH   3   8
BRANCH   4  11
ATOM     11  O   UNL     1      27.633   8.330  14.765  1.00  0.00    -0.387 OA
ATOM     12  H   UNL     1      28.495   7.856  14.897  1.00  0.00     0.211 HD
ENDBRANCH   4  11
BRANCH   6  13
ATOM     13  O   UNL     1      24.891   8.663  15.126  1.00  0.00    -0.387 OA
ATOM     14  H   UNL     1      24.418   7.956  15.639  1.00  0.00     0.211 HD
ENDBRANCH   6  13
BRANCH   7  15
ATOM     15  O   UNL     1      24.713   6.611  12.149  1.00  0.00    -0.385 OA
ATOM     16  H   UNL     1      25.655   6.301  12.176  1.00  0.00     0.211 HD
ENDBRANCH   7  15
ENDBRANCH   1   2
BRANCH   1  17
ATOM     17  C   UNL     1      23.495   4.981  16.456  1.00  0.00     0.224 C 
ATOM     18  C   UNL     1      22.096   5.173  17.100  1.00  0.00     0.208 C 
ATOM     19  O   UNL     1      24.451   4.841  17.498  1.00  0.00    -0.337 OA
ATOM     20  C   UNL     1      22.329   4.892  18.568  1.00  0.00     0.180 C 
ATOM     21  C   UNL     1      23.822   5.160  18.714  1.00  0.00     0.179 C 
BRANCH  17  22
ATOM     22  C   UNL     1      23.502   3.702  15.587  1.00  0.00     0.225 C 
BRANCH  22  23
ATOM     23  O   UNL     1      24.586   2.880  15.929  1.00  0.00    -0.391 OA
ATOM     24  H   UNL     1      24.517   2.077  15.351  1.00  0.00     0.210 HD
ENDBRANCH  22  23
ENDBRANCH  17  22
BRANCH  18  25
ATOM     25  O   UNL     1      21.642   6.494  16.938  1.00  0.00    -0.385 OA
ATOM     26  H   UNL     1      21.551   6.650  15.962  1.00  0.00     0.211 HD
ENDBRANCH  18  25
BRANCH  20  27
ATOM     27  O   UNL     1      22.019   3.552  18.860  1.00  0.00    -0.387 OA
ATOM     28  H   UNL     1      21.822   3.512  19.831  1.00  0.00     0.211 HD
ENDBRANCH  20  27
BRANCH  21  29
ATOM     29  C   UNL     1      24.486   4.409  19.876  1.00  0.00     0.191 C 
BRANCH  29  30
ATOM     30  O   UNL     1      25.875   4.368  19.704  1.00  0.00    -0.394 OA
ATOM     31  H   UNL     1      26.031   4.296  18.726  1.00  0.00     0.210 HD
ENDBRANCH  29  30
ENDBRANCH  21  29
ENDBRANCH   1  17
TORSDOF 13
ENDMDL
MODEL 6
REMARK VINA RESULT:     1.821      1.721      3.047
REMARK INTER + INTRA:           1.776
REMARK INTER:                   3.166
REMARK INTRA:                  -1.390
REMARK UNBOUND:                -1.003
REMARK SMILES OC[C@H]1O[C@@H](O[C@@]2(CO)O[C@H](CO)[C@H](O)[C@H]2O)[C@H](O)[C@@H](O)[C@H]1O
REMARK SMILES IDX 6 1 5 2 3 3 22 4 4 5 20 6 18 7 2 8 1 9 23 11 21 13 19 15
REMARK SMILES IDX 7 17 16 18 10 19 14 20 11 21 8 22 9 23 17 25 15 27 12 29
REMARK SMILES IDX 13 30
REMARK H PARENT 1 10 23 12 21 14 19 16 9 24 17 26 15 28 13 31
REMARK Flexibility Score: inf
ROOT
ATOM      1  O   UNL     1      24.382   6.202  15.654  1.00  0.00    -0.313 OA
ENDROOT
BRANCH   1   2
ATOM      2  C   UNL     1      23.483   5.144  15.338  1.00  0.00     0.285 C 
ATOM      3  C   UNL     1      21.597   6.032  16.517  1.00  0.00     0.178 C 
ATOM      4  C   UNL     1      21.717   4.948  17.623  1.00  0.00     0.177 C 
ATOM      5  O   UNL     1      22.143   5.618  15.269  1.00  0.00    -0.341 OA
ATOM      6  C   UNL     1      23.142   4.382  17.732  1.00  0.00     0.179 C 
ATOM      7  C   UNL     1      23.648   3.987  16.340  1.00  0.00     0.202 C 
BRANCH   3   8
ATOM      8  C   UNL     1      22.082   7.442  16.927  1.00  0.00     0.191 C 
BRANCH   8   9
ATOM      9  O   UNL     1      22.107   8.308  15.825  1.00  0.00    -0.394 OA
ATOM     10  H   UNL     1      22.025   9.231  16.183  1.00  0.00     0.210 HD
ENDBRANCH   8   9
ENDBRANCH   3   8
BRANCH   4  11
ATOM     11  O   UNL     1      21.299   5.439  18.871  1.00  0.00    -0.387 OA
ATOM     12  H   UNL     1      21.928   5.075  19.548  1.00  0.00     0.211 HD
ENDBRANCH   4  11
BRANCH   6  13
ATOM     13  O   UNL     1      24.025   5.310  18.310  1.00  0.00    -0.387 OA
ATOM     14  H   UNL     1      24.947   5.009  18.094  1.00  0.00     0.211 HD
ENDBRANCH   6  13
BRANCH   7  15
ATOM     15  O   UNL     1      22.940   2.867  15.870  1.00  0.00    -0.385 OA
ATOM     16  H   UNL     1      22.075   3.201  15.515  1.00  0.00     0.211 HD
ENDBRANCH   7  15
ENDBRANCH   1   2
BRANCH   1  17
ATOM     17  C   UNL     1      25.467   6.339  14.734  1.00  0.00     0.224 C 
ATOM     18  C   UNL     1      25.694   7.845  14.438  1.00  0.00     0.208 C 
ATOM     19  O   UNL     1      25.184   5.680  13.508  1.00  0.00    -0.337 OA
ATOM     20  C   UNL     1      25.747   7.916  12.928  1.00  0.00     0.180 C 
ATOM     21  C   UNL     1      24.984   6.661  12.521  1.00  0.00     0.179 C 
BRANCH  17  22
ATOM     22  C   UNL     1      26.744   5.727  15.356  1.00  0.00     0.225 C 
BRANCH  22  23
ATOM     23  O   UNL     1      27.710   6.721  15.573  1.00  0.00    -0.391 OA
ATOM     24  H   UNL     1      28.244   6.421  16.353  1.00  0.00     0.210 HD
ENDBRANCH  22  23
ENDBRANCH  17  22
BRANCH  18  25
ATOM     25  O   UNL     1      24.621   8.621  14.911  1.00  0.00    -0.385 OA
ATOM     26  H   UNL     1      23.813   8.046  14.881  1.00  0.00     0.211 HD
ENDBRANCH  18  25
BRANCH  20  27
ATOM     27  O   UNL     1      27.081   7.870  12.488  1.00  0.00    -0.387 OA
ATOM     28  H   UNL     1      27.518   8.695  12.822  1.00  0.00     0.211 HD
ENDBRANCH  20  27
BRANCH  21  29
ATOM     29  C   UNL     1      25.362   6.116  11.137  1.00  0.00     0.191 C 
BRANCH  29  30
ATOM     30  O   UNL     1      26.677   5.633  11.142  1.00  0.00    -0.394 OA
ATOM     31  H   UNL     1      27.209   6.273  10.599  1.00  0.00     0.210 HD
ENDBRANCH  29  30
ENDBRANCH  21  29
ENDBRANCH   1  17
TORSDOF 13
ENDMDL
MODEL 7
REMARK VINA RESULT:     2.117      2.290      4.639
REMARK INTER + INTRA:           2.229
REMARK INTER:                   2.590
REMARK INTRA:                  -0.361
REMARK UNBOUND:                -1.003
REMARK SMILES OC[C@H]1O[C@@H](O[C@@]2(CO)O[C@H](CO)[C@H](O)[C@H]2O)[C@H](O)[C@@H](O)[C@H]1O
REMARK SMILES IDX 6 1 5 2 3 3 22 4 4 5 20 6 18 7 2 8 1 9 23 11 21 13 19 15
REMARK SMILES IDX 7 17 16 18 10 19 14 20 11 21 8 22 9 23 17 25 15 27 12 29
REMARK SMILES IDX 13 30
REMARK H PARENT 1 10 23 12 21 14 19 16 9 24 17 26 15 28 13 31
REMARK Flexibility Score: inf
ROOT
ATOM      1  O   UNL     1      24.289   6.289  13.560  1.00  0.00    -0.313 OA
ENDROOT
BRANCH   1   2
ATOM      2  C   UNL     1      24.234   7.138  14.702  1.00  0.00     0.285 C 
ATOM      3  C   UNL     1      24.494   5.408  16.338  1.00  0.00     0.178 C 
ATOM      4  C   UNL     1      23.009   5.534  16.777  1.00  0.00     0.177 C 
ATOM      5  O   UNL     1      25.012   6.607  15.769  1.00  0.00    -0.341 OA
ATOM      6  C   UNL     1      22.122   6.123  15.669  1.00  0.00     0.179 C 
ATOM      7  C   UNL     1      22.771   7.393  15.108  1.00  0.00     0.202 C 
BRANCH   3   8
ATOM      8  C   UNL     1      24.818   4.167  15.474  1.00  0.00     0.191 C 
BRANCH   8   9
ATOM      9  O   UNL     1      24.763   2.993  16.238  1.00  0.00    -0.394 OA
ATOM     10  H   UNL     1      25.692   2.794  16.528  1.00  0.00     0.210 HD
ENDBRANCH   8   9
ENDBRANCH   3   8
BRANCH   4  11
ATOM     11  O   UNL     1      22.492   4.299  17.201  1.00  0.00    -0.387 OA
ATOM     12  H   UNL     1      23.244   3.650  17.177  1.00  0.00     0.211 HD
ENDBRANCH   4  11
BRANCH   6  13
ATOM     13  O   UNL     1      21.911   5.201  14.630  1.00  0.00    -0.387 OA
ATOM     14  H   UNL     1      21.831   4.303  15.049  1.00  0.00     0.211 HD
ENDBRANCH   6  13
BRANCH   7  15
ATOM     15  O   UNL     1      22.732   8.419  16.069  1.00  0.00    -0.385 OA
ATOM     16  H   UNL     1      22.214   9.167  15.672  1.00  0.00     0.211 HD
ENDBRANCH   7  15
ENDBRANCH   1   2
BRANCH   1  17
ATOM     17  C   UNL     1      25.434   6.498  12.733  1.00  0.00     0.224 C 
ATOM     18  C   UNL     1      25.080   7.527  11.626  1.00  0.00     0.208 C 
ATOM     19  O   UNL     1      25.841   5.290  12.106  1.00  0.00    -0.337 OA
ATOM     20  C   UNL     1      25.549   6.865  10.350  1.00  0.00     0.180 C 
ATOM     21  C   UNL     1      25.551   5.391  10.735  1.00  0.00     0.179 C 
BRANCH  17  22
ATOM     22  C   UNL     1      26.598   7.037  13.598  1.00  0.00     0.225 C 
BRANCH  22  23
ATOM     23  O   UNL     1      27.207   5.993  14.309  1.00  0.00    -0.391 OA
ATOM     24  H   UNL     1      27.359   6.337  15.227  1.00  0.00     0.210 HD
ENDBRANCH  22  23
ENDBRANCH  17  22
BRANCH  18  25
ATOM     25  O   UNL     1      23.692   7.745  11.565  1.00  0.00    -0.385 OA
ATOM     26  H   UNL     1      23.559   8.705  11.357  1.00  0.00     0.211 HD
ENDBRANCH  18  25
BRANCH  20  27
ATOM     27  O   UNL     1      26.841   7.310  10.020  1.00  0.00    -0.387 OA
ATOM     28  H   UNL     1      27.474   6.759  10.549  1.00  0.00     0.211 HD
ENDBRANCH  20  27
BRANCH  21  29
ATOM     29  C   UNL     1      26.521   4.528   9.916  1.00  0.00     0.191 C 
BRANCH  29  30
ATOM     30  O   UNL     1      26.626   5.015   8.606  1.00  0.00    -0.394 OA
ATOM     31  H   UNL     1      27.394   5.645   8.607  1.00  0.00     0.210 HD
ENDBRANCH  29  30
ENDBRANCH  21  29
ENDBRANCH   1  17
TORSDOF 13
ENDMDL
MODEL 8
REMARK VINA RESULT:     2.243      3.164      7.067
REMARK INTER + INTRA:           2.421
REMARK INTER:                   3.453
REMARK INTRA:                  -1.032
REMARK UNBOUND:                -1.003
REMARK SMILES OC[C@H]1O[C@@H](O[C@@]2(CO)O[C@H](CO)[C@H](O)[C@H]2O)[C@H](O)[C@@H](O)[C@H]1O
REMARK SMILES IDX 6 1 5 2 3 3 22 4 4 5 20 6 18 7 2 8 1 9 23 11 21 13 19 15
REMARK SMILES IDX 7 17 16 18 10 19 14 20 11 21 8 22 9 23 17 25 15 27 12 29
REMARK SMILES IDX 13 30
REMARK H PARENT 1 10 23 12 21 14 19 16 9 24 17 26 15 28 13 31
REMARK Flexibility Score: inf
ROOT
ATOM      1  O   UNL     1      21.802   4.736  17.742  1.00  0.00    -0.313 OA
ENDROOT
BRANCH   1   2
ATOM      2  C   UNL     1      23.128   5.201  17.972  1.00  0.00     0.285 C 
ATOM      3  C   UNL     1      23.441   6.198  15.817  1.00  0.00     0.178 C 
ATOM      4  C   UNL     1      24.428   5.077  15.389  1.00  0.00     0.177 C 
ATOM      5  O   UNL     1      23.388   6.386  17.228  1.00  0.00    -0.341 OA
ATOM      6  C   UNL     1      24.208   3.775  16.175  1.00  0.00     0.179 C 
ATOM      7  C   UNL     1      24.144   4.083  17.676  1.00  0.00     0.202 C 
BRANCH   3   8
ATOM      8  C   UNL     1      22.032   6.103  15.188  1.00  0.00     0.191 C 
BRANCH   8   9
ATOM      9  O   UNL     1      21.148   7.007  15.793  1.00  0.00    -0.394 OA
ATOM     10  H   UNL     1      21.387   7.911  15.458  1.00  0.00     0.210 HD
ENDBRANCH   8   9
ENDBRANCH   3   8
BRANCH   4  11
ATOM     11  O   UNL     1      24.351   4.823  14.009  1.00  0.00    -0.387 OA
ATOM     12  H   UNL     1      23.480   5.186  13.700  1.00  0.00     0.211 HD
ENDBRANCH   4  11
BRANCH   6  13
ATOM     13  O   UNL     1      23.030   3.122  15.776  1.00  0.00    -0.387 OA
ATOM     14  H   UNL     1      22.296   3.790  15.824  1.00  0.00     0.211 HD
ENDBRANCH   6  13
BRANCH   7  15
ATOM     15  O   UNL     1      25.411   4.478  18.142  1.00  0.00    -0.385 OA
ATOM     16  H   UNL     1      25.476   4.180  19.086  1.00  0.00     0.211 HD
ENDBRANCH   7  15
ENDBRANCH   1   2
BRANCH   1  17
ATOM     17  C   UNL     1      20.844   5.217  18.686  1.00  0.00     0.224 C 
ATOM     18  C   UNL     1      20.530   4.092  19.708  1.00  0.00     0.208 C 
ATOM     19  O   UNL     1      19.632   5.588  18.043  1.00  0.00    -0.337 OA
ATOM     20  C   UNL     1      19.018   4.042  19.742  1.00  0.00     0.180 C 
ATOM     21  C   UNL     1      18.647   4.649  18.394  1.00  0.00     0.179 C 
BRANCH  17  22
ATOM     22  C   UNL     1      21.424   6.448  19.422  1.00  0.00     0.225 C 
BRANCH  22  23
ATOM     23  O   UNL     1      21.405   6.246  20.810  1.00  0.00    -0.391 OA
ATOM     24  H   UNL     1      20.486   6.469  21.109  1.00  0.00     0.210 HD
ENDBRANCH  22  23
ENDBRANCH  17  22
BRANCH  18  25
ATOM     25  O   UNL     1      21.035   2.855  19.270  1.00  0.00    -0.385 OA
ATOM     26  H   UNL     1      20.953   2.844  18.281  1.00  0.00     0.211 HD
ENDBRANCH  18  25
BRANCH  20  27
ATOM     27  O   UNL     1      18.531   4.821  20.806  1.00  0.00    -0.387 OA
ATOM     28  H   UNL     1      17.545   4.849  20.709  1.00  0.00     0.211 HD
ENDBRANCH  20  27
BRANCH  21  29
ATOM     29  C   UNL     1      17.254   5.293  18.357  1.00  0.00     0.191 C 
BRANCH  29  30
ATOM     30  O   UNL     1      17.038   5.925  17.126  1.00  0.00    -0.394 OA
ATOM     31  H   UNL     1      16.436   6.692  17.311  1.00  0.00     0.210 HD
ENDBRANCH  29  30
ENDBRANCH  21  29
ENDBRANCH   1  17
TORSDOF 13
ENDMDL
MODEL 9
REMARK VINA RESULT:     2.573      2.115      5.280
REMARK INTER + INTRA:           2.924
REMARK INTER:                   1.138
REMARK INTRA:                   1.786
REMARK UNBOUND:                -1.003
REMARK SMILES OC[C@H]1O[C@@H](O[C@@]2(CO)O[C@H](CO)[C@H](O)[C@H]2O)[C@H](O)[C@@H](O)[C@H]1O
REMARK SMILES IDX 6 1 5 2 3 3 22 4 4 5 20 6 18 7 2 8 1 9 23 11 21 13 19 15
REMARK SMILES IDX 7 17 16 18 10 19 14 20 11 21 8 22 9 23 17 25 15 27 12 29
REMARK SMILES IDX 13 30
REMARK H PARENT 1 10 23 12 21 14 19 16 9 24 17 26 15 28 13 31
REMARK Flexibility Score: inf
ROOT
ATOM      1  O   UNL     1      24.480   4.953  14.654  1.00  0.00    -0.313 OA
ENDROOT
BRANCH   1   2
ATOM      2  C   UNL     1      24.050   6.309  14.591  1.00  0.00     0.285 C 
ATOM      3  C   UNL     1      24.805   6.728  12.357  1.00  0.00     0.178 C 
ATOM      4  C   UNL     1      25.964   7.628  12.867  1.00  0.00     0.177 C 
ATOM      5  O   UNL     1      23.704   6.672  13.259  1.00  0.00    -0.341 OA
ATOM      6  C   UNL     1      26.369   7.295  14.311  1.00  0.00     0.179 C 
ATOM      7  C   UNL     1      25.119   7.236  15.197  1.00  0.00     0.202 C 
BRANCH   3   8
ATOM      8  C   UNL     1      25.232   5.324  11.871  1.00  0.00     0.191 C 
BRANCH   8   9
ATOM      9  O   UNL     1      26.050   5.410  10.735  1.00  0.00    -0.394 OA
ATOM     10  H   UNL     1      26.938   5.732  11.044  1.00  0.00     0.210 HD
ENDBRANCH   8   9
ENDBRANCH   3   8
BRANCH   4  11
ATOM     11  O   UNL     1      27.085   7.548  12.023  1.00  0.00    -0.387 OA
ATOM     12  H   UNL     1      27.702   6.884  12.428  1.00  0.00     0.211 HD
ENDBRANCH   4  11
BRANCH   6  13
ATOM     13  O   UNL     1      27.059   6.073  14.386  1.00  0.00    -0.387 OA
ATOM     14  H   UNL     1      27.254   5.791  13.454  1.00  0.00     0.211 HD
ENDBRANCH   6  13
BRANCH   7  15
ATOM     15  O   UNL     1      24.576   8.524  15.351  1.00  0.00    -0.385 OA
ATOM     16  H   UNL     1      24.198   8.785  14.471  1.00  0.00     0.211 HD
ENDBRANCH   7  15
ENDBRANCH   1   2
BRANCH   1  17
ATOM     17  C   UNL     1      23.977   4.234  15.780  1.00  0.00     0.224 C 
ATOM     18  C   UNL     1      22.702   4.944  16.307  1.00  0.00     0.208 C 
ATOM     19  O   UNL     1      24.933   4.193  16.831  1.00  0.00    -0.337 OA
ATOM     20  C   UNL     1      22.947   5.078  17.794  1.00  0.00     0.180 C 
ATOM     21  C   UNL     1      24.467   5.011  17.876  1.00  0.00     0.179 C 
BRANCH  17  22
ATOM     22  C   UNL     1      23.633   2.787  15.353  1.00  0.00     0.225 C 
BRANCH  22  23
ATOM     23  O   UNL     1      24.620   1.895  15.796  1.00  0.00    -0.391 OA
ATOM     24  H   UNL     1      24.160   1.249  16.393  1.00  0.00     0.210 HD
ENDBRANCH  22  23
ENDBRANCH  17  22
BRANCH  18  25
ATOM     25  O   UNL     1      22.561   6.221  15.734  1.00  0.00    -0.385 OA
ATOM     26  H   UNL     1      23.307   6.331  15.089  1.00  0.00     0.211 HD
ENDBRANCH  18  25
BRANCH  20  27
ATOM     27  O   UNL     1      22.349   4.008  18.482  1.00  0.00    -0.387 OA
ATOM     28  H   UNL     1      21.624   3.666  17.898  1.00  0.00     0.211 HD
ENDBRANCH  20  27
BRANCH  21  29
ATOM     29  C   UNL     1      25.003   4.514  19.225  1.00  0.00     0.191 C 
BRANCH  29  30
ATOM     30  O   UNL     1      26.404   4.490  19.219  1.00  0.00    -0.394 OA
ATOM     31  H   UNL     1      26.675   4.010  20.045  1.00  0.00     0.210 HD
ENDBRANCH  29  30
ENDBRANCH  21  29
ENDBRANCH   1  17
TORSDOF 13
ENDMDL
