MODEL 1
REMARK VINA RESULT:    -2.800      0.000      0.000
REMARK INTER + INTRA:          -3.135
REMARK INTER:                  -3.127
REMARK INTRA:                  -0.008
REMARK UNBOUND:                -0.008
REMARK SMILES CCCC(=O)[O-]
REMARK SMILES IDX 3 1 4 2 5 3 6 4 2 5 1 6
REMARK H PARENT
REMARK Flexibility Score: inf
ROOT
ATOM      1  C   UNL     1      43.413  26.803  27.850  1.00  0.00     0.052 C 
ENDROOT
BRANCH   1   2
ATOM      2  C   UNL     1      42.271  27.757  27.701  1.00  0.00     0.041 C 
ATOM      3  O   UNL     1      41.375  27.817  28.583  1.00  0.00    -0.550 OA
ATOM      4  O   UNL     1      42.220  28.617  26.609  1.00  0.00    -0.550 OA
ENDBRANCH   1   2
BRANCH   1   5
ATOM      5  C   UNL     1      42.901  25.412  28.231  1.00  0.00     0.003 C 
ATOM      6  C   UNL     1      43.724  24.319  27.555  1.00  0.00     0.004 C 
ENDBRANCH   1   5
TORSDOF 2
ENDMDL
MODEL 2
REMARK VINA RESULT:    -2.623     11.577     12.402
REMARK INTER + INTRA:          -2.938
REMARK INTER:                  -2.886
REMARK INTRA:                  -0.052
REMARK UNBOUND:                -0.008
REMARK SMILES CCCC(=O)[O-]
REMARK SMILES IDX 3 1 4 2 5 3 6 4 2 5 1 6
REMARK H PARENT
REMARK Flexibility Score: inf
ROOT
ATOM      1  C   UNL     1      32.303  28.961  20.989  1.00  0.00     0.052 C 
ENDROOT
BRANCH   1   2
ATOM      2  C   UNL     1      32.928  30.026  21.833  1.00  0.00     0.041 C 
ATOM      3  O   UNL     1      32.382  31.157  21.932  1.00  0.00    -0.550 OA
ATOM      4  O   UNL     1      34.087  29.756  22.550  1.00  0.00    -0.550 OA
ENDBRANCH   1   2
BRANCH   1   5
ATOM      5  C   UNL     1      33.154  28.698  19.744  1.00  0.00     0.003 C 
ATOM      6  C   UNL     1      33.018  29.834  18.734  1.00  0.00     0.004 C 
ENDBRANCH   1   5
TORSDOF 2
ENDMDL
MODEL 3
REMARK VINA RESULT:    -2.617     11.569     12.392
REMARK INTER + INTRA:          -2.931
REMARK INTER:                  -2.862
REMARK INTRA:                  -0.068
REMARK UNBOUND:                -0.008
REMARK SMILES CCCC(=O)[O-]
REMARK SMILES IDX 3 1 4 2 5 3 6 4 2 5 1 6
REMARK H PARENT
REMARK Flexibility Score: inf
ROOT
ATOM      1  C   UNL     1      32.209  29.040  21.068  1.00  0.00     0.052 C 
ENDROOT
BRANCH   1   2
ATOM      2  C   UNL     1      32.956  30.042  21.891  1.00  0.00     0.041 C 
ATOM      3  O   UNL     1      34.044  29.726  22.439  1.00  0.00    -0.550 OA
ATOM      4  O   UNL     1      32.474  31.340  22.012  1.00  0.00    -0.550 OA
ENDBRANCH   1   2
BRANCH   1   5
ATOM      5  C   UNL     1      33.008  28.674  19.815  1.00  0.00     0.003 C 
ATOM      6  C   UNL     1      33.029  29.830  18.819  1.00  0.00     0.004 C 
ENDBRANCH   1   5
TORSDOF 2
ENDMDL
MODEL 4
REMARK VINA RESULT:    -2.580     10.584     11.221
REMARK INTER + INTRA:          -2.890
REMARK INTER:                  -2.873
REMARK INTRA:                  -0.017
REMARK UNBOUND:                -0.008
REMARK SMILES CCCC(=O)[O-]
REMARK SMILES IDX 3 1 4 2 5 3 6 4 2 5 1 6
REMARK H PARENT
REMARK Flexibility Score: inf
ROOT
ATOM      1  C   UNL     1      34.572  31.179  23.478  1.00  0.00     0.052 C 
ENDROOT
BRANCH   1   2
ATOM      2  C   UNL     1      33.577  30.544  22.560  1.00  0.00     0.041 C 
ATOM      3  O   UNL     1      33.590  29.298  22.376  1.00  0.00    -0.550 OA
ATOM      4  O   UNL     1      32.602  31.321  21.946  1.00  0.00    -0.550 OA
ENDBRANCH   1   2
BRANCH   1   5
ATOM      5  C   UNL     1      33.967  32.412  24.153  1.00  0.00     0.003 C 
ATOM      6  C   UNL     1      34.051  32.305  25.673  1.00  0.00     0.004 C 
ENDBRANCH   1   5
TORSDOF 2
ENDMDL
MODEL 5
REMARK VINA RESULT:    -2.577     13.223     14.465
REMARK INTER + INTRA:          -2.886
REMARK INTER:                  -2.853
REMARK INTRA:                  -0.034
REMARK UNBOUND:                -0.008
REMARK SMILES CCCC(=O)[O-]
REMARK SMILES IDX 3 1 4 2 5 3 6 4 2 5 1 6
REMARK H PARENT
REMARK Flexibility Score: inf
ROOT
ATOM      1  C   UNL     1      38.893  39.871  31.616  1.00  0.00     0.052 C 
ENDROOT
BRANCH   1   2
ATOM      2  C   UNL     1      38.544  39.387  30.244  1.00  0.00     0.041 C 
ATOM      3  O   UNL     1      37.786  40.069  29.505  1.00  0.00    -0.550 OA
ATOM      4  O   UNL     1      39.097  38.206  29.762  1.00  0.00    -0.550 OA
ENDBRANCH   1   2
BRANCH   1   5
ATOM      5  C   UNL     1      38.969  41.400  31.641  1.00  0.00     0.003 C 
ATOM      6  C   UNL     1      40.418  41.878  31.664  1.00  0.00     0.004 C 
ENDBRANCH   1   5
TORSDOF 2
ENDMDL
MODEL 6
REMARK VINA RESULT:    -2.569      9.896     11.096
REMARK INTER + INTRA:          -2.877
REMARK INTER:                  -2.842
REMARK INTRA:                  -0.035
REMARK UNBOUND:                -0.008
REMARK SMILES CCCC(=O)[O-]
REMARK SMILES IDX 3 1 4 2 5 3 6 4 2 5 1 6
REMARK H PARENT
REMARK Flexibility Score: inf
ROOT
ATOM      1  C   UNL     1      33.732  32.944  24.235  1.00  0.00     0.052 C 
ENDROOT
BRANCH   1   2
ATOM      2  C   UNL     1      33.583  31.884  23.191  1.00  0.00     0.041 C 
ATOM      3  O   UNL     1      32.809  32.061  22.214  1.00  0.00    -0.550 OA
ATOM      4  O   UNL     1      34.336  30.718  23.271  1.00  0.00    -0.550 OA
ENDBRANCH   1   2
BRANCH   1   5
ATOM      5  C   UNL     1      34.082  32.319  25.587  1.00  0.00     0.003 C 
ATOM      6  C   UNL     1      35.515  32.651  25.994  1.00  0.00     0.004 C 
ENDBRANCH   1   5
TORSDOF 2
ENDMDL
MODEL 7
REMARK VINA RESULT:    -2.560     11.901     12.690
REMARK INTER + INTRA:          -2.867
REMARK INTER:                  -2.830
REMARK INTRA:                  -0.037
REMARK UNBOUND:                -0.008
REMARK SMILES CCCC(=O)[O-]
REMARK SMILES IDX 3 1 4 2 5 3 6 4 2 5 1 6
REMARK H PARENT
REMARK Flexibility Score: inf
ROOT
ATOM      1  C   UNL     1      32.491  28.715  20.705  1.00  0.00     0.052 C 
ENDROOT
BRANCH   1   2
ATOM      2  C   UNL     1      33.257  28.854  19.428  1.00  0.00     0.041 C 
ATOM      3  O   UNL     1      34.188  28.051  19.157  1.00  0.00    -0.550 OA
ATOM      4  O   UNL     1      32.911  29.842  18.513  1.00  0.00    -0.550 OA
ENDBRANCH   1   2
BRANCH   1   5
ATOM      5  C   UNL     1      33.196  29.467  21.836  1.00  0.00     0.003 C 
ATOM      6  C   UNL     1      32.822  30.946  21.831  1.00  0.00     0.004 C 
ENDBRANCH   1   5
TORSDOF 2
ENDMDL
MODEL 8
REMARK VINA RESULT:    -2.552     11.234     11.901
REMARK INTER + INTRA:          -2.858
REMARK INTER:                  -2.788
REMARK INTRA:                  -0.071
REMARK UNBOUND:                -0.008
REMARK SMILES CCCC(=O)[O-]
REMARK SMILES IDX 3 1 4 2 5 3 6 4 2 5 1 6
REMARK H PARENT
REMARK Flexibility Score: inf
ROOT
ATOM      1  C   UNL     1      36.158  36.344  29.726  1.00  0.00     0.052 C 
ENDROOT
BRANCH   1   2
ATOM      2  C   UNL     1      37.308  37.223  29.350  1.00  0.00     0.041 C 
ATOM      3  O   UNL     1      37.120  38.445  29.111  1.00  0.00    -0.550 OA
ATOM      4  O   UNL     1      38.597  36.704  29.311  1.00  0.00    -0.550 OA
ENDBRANCH   1   2
BRANCH   1   5
ATOM      5  C   UNL     1      35.138  36.282  28.587  1.00  0.00     0.003 C 
ATOM      6  C   UNL     1      35.698  35.523  27.387  1.00  0.00     0.004 C 
ENDBRANCH   1   5
TORSDOF 2
ENDMDL
MODEL 9
REMARK VINA RESULT:    -2.498      9.925     10.613
REMARK INTER + INTRA:          -2.798
REMARK INTER:                  -2.776
REMARK INTRA:                  -0.022
REMARK UNBOUND:                -0.008
REMARK SMILES CCCC(=O)[O-]
REMARK SMILES IDX 3 1 4 2 5 3 6 4 2 5 1 6
REMARK H PARENT
REMARK Flexibility Score: inf
ROOT
ATOM      1  C   UNL     1      35.134  34.630  26.316  1.00  0.00     0.052 C 
ENDROOT
BRANCH   1   2
ATOM      2  C   UNL     1      35.972  34.983  27.504  1.00  0.00     0.041 C 
ATOM      3  O   UNL     1      36.661  34.099  28.078  1.00  0.00    -0.550 OA
ATOM      4  O   UNL     1      36.030  36.299  27.948  1.00  0.00    -0.550 OA
ENDBRANCH   1   2
BRANCH   1   5
ATOM      5  C   UNL     1      35.261  33.139  25.995  1.00  0.00     0.003 C 
ATOM      6  C   UNL     1      33.906  32.536  25.636  1.00  0.00     0.004 C 
ENDBRANCH   1   5
TORSDOF 2
ENDMDL
