MODEL 1
REMARK VINA RESULT:    -2.708      0.000      0.000
REMARK INTER + INTRA:          -3.363
REMARK INTER:                  -3.183
REMARK INTRA:                  -0.180
REMARK UNBOUND:                -0.180
REMARK SMILES O=C([O-])CCC(=O)[O-]
REMARK SMILES IDX 4 1 2 2 1 3 3 4 5 5 6 6 7 7 8 8
REMARK H PARENT
REMARK Flexibility Score: inf
ROOT
ATOM      1  C   UNL     1     -11.860   8.879   4.991  1.00  0.00     0.059 C 
ENDROOT
BRANCH   1   2
ATOM      2  C   UNL     1     -12.771   9.105   3.823  1.00  0.00     0.042 C 
ATOM      3  O   UNL     1     -12.299   9.466   2.713  1.00  0.00    -0.550 OA
ATOM      4  O   UNL     1     -14.135   8.876   3.949  1.00  0.00    -0.550 OA
ENDBRANCH   1   2
BRANCH   1   5
ATOM      5  C   UNL     1     -12.293   9.696   6.213  1.00  0.00     0.059 C 
BRANCH   5   6
ATOM      6  C   UNL     1     -12.360  11.161   5.903  1.00  0.00     0.042 C 
ATOM      7  O   UNL     1     -13.451  11.781   6.010  1.00  0.00    -0.550 OA
ATOM      8  O   UNL     1     -11.210  11.848   5.536  1.00  0.00    -0.550 OA
ENDBRANCH   5   6
ENDBRANCH   1   5
TORSDOF 3
ENDMDL
MODEL 2
REMARK VINA RESULT:    -2.703      1.311      3.589
REMARK INTER + INTRA:          -3.357
REMARK INTER:                  -3.257
REMARK INTRA:                  -0.100
REMARK UNBOUND:                -0.180
REMARK SMILES O=C([O-])CCC(=O)[O-]
REMARK SMILES IDX 4 1 2 2 1 3 3 4 5 5 6 6 7 7 8 8
REMARK H PARENT
REMARK Flexibility Score: inf
ROOT
ATOM      1  C   UNL     1     -11.982  10.800   5.100  1.00  0.00     0.059 C 
ENDROOT
BRANCH   1   2
ATOM      2  C   UNL     1     -13.107  10.918   6.082  1.00  0.00     0.042 C 
ATOM      3  O   UNL     1     -13.131  10.190   7.109  1.00  0.00    -0.550 OA
ATOM      4  O   UNL     1     -14.108  11.862   5.885  1.00  0.00    -0.550 OA
ENDBRANCH   1   2
BRANCH   1   5
ATOM      5  C   UNL     1     -11.920   9.401   4.477  1.00  0.00     0.059 C 
BRANCH   5   6
ATOM      6  C   UNL     1     -12.713   9.326   3.208  1.00  0.00     0.042 C 
ATOM      7  O   UNL     1     -12.130   9.370   2.093  1.00  0.00    -0.550 OA
ATOM      8  O   UNL     1     -14.092   9.166   3.257  1.00  0.00    -0.550 OA
ENDBRANCH   5   6
ENDBRANCH   1   5
TORSDOF 3
ENDMDL
MODEL 3
REMARK VINA RESULT:    -2.681      2.027      2.769
REMARK INTER + INTRA:          -3.331
REMARK INTER:                  -3.269
REMARK INTRA:                  -0.062
REMARK UNBOUND:                -0.180
REMARK SMILES O=C([O-])CCC(=O)[O-]
REMARK SMILES IDX 4 1 2 2 1 3 3 4 5 5 6 6 7 7 8 8
REMARK H PARENT
REMARK Flexibility Score: inf
ROOT
ATOM      1  C   UNL     1     -14.134   9.807   4.362  1.00  0.00     0.059 C 
ENDROOT
BRANCH   1   2
ATOM      2  C   UNL     1     -15.211  10.849   4.345  1.00  0.00     0.042 C 
ATOM      3  O   UNL     1     -16.208  10.717   3.587  1.00  0.00    -0.550 OA
ATOM      4  O   UNL     1     -15.133  11.944   5.196  1.00  0.00    -0.550 OA
ENDBRANCH   1   2
BRANCH   1   5
ATOM      5  C   UNL     1     -12.751  10.419   4.113  1.00  0.00     0.059 C 
BRANCH   5   6
ATOM      6  C   UNL     1     -12.024  10.682   5.397  1.00  0.00     0.042 C 
ATOM      7  O   UNL     1     -11.402  11.764   5.562  1.00  0.00    -0.550 OA
ATOM      8  O   UNL     1     -12.066   9.748   6.424  1.00  0.00    -0.550 OA
ENDBRANCH   5   6
ENDBRANCH   1   5
TORSDOF 3
ENDMDL
MODEL 4
REMARK VINA RESULT:    -2.679      2.028      3.374
REMARK INTER + INTRA:          -3.329
REMARK INTER:                  -3.272
REMARK INTRA:                  -0.058
REMARK UNBOUND:                -0.180
REMARK SMILES O=C([O-])CCC(=O)[O-]
REMARK SMILES IDX 4 1 2 2 1 3 3 4 5 5 6 6 7 7 8 8
REMARK H PARENT
REMARK Flexibility Score: inf
ROOT
ATOM      1  C   UNL     1     -12.742  10.422   4.166  1.00  0.00     0.059 C 
ENDROOT
BRANCH   1   2
ATOM      2  C   UNL     1     -12.036  10.730   5.451  1.00  0.00     0.042 C 
ATOM      3  O   UNL     1     -12.069   9.908   6.404  1.00  0.00    -0.550 OA
ATOM      4  O   UNL     1     -11.306  11.905   5.581  1.00  0.00    -0.550 OA
ENDBRANCH   1   2
BRANCH   1   5
ATOM      5  C   UNL     1     -14.124   9.807   4.413  1.00  0.00     0.059 C 
BRANCH   5   6
ATOM      6  C   UNL     1     -15.209  10.837   4.342  1.00  0.00     0.042 C 
ATOM      7  O   UNL     1     -16.191  10.671   3.572  1.00  0.00    -0.550 OA
ATOM      8  O   UNL     1     -15.156  11.961   5.156  1.00  0.00    -0.550 OA
ENDBRANCH   5   6
ENDBRANCH   1   5
TORSDOF 3
ENDMDL
MODEL 5
REMARK VINA RESULT:    -2.673      2.020      2.675
REMARK INTER + INTRA:          -3.322
REMARK INTER:                  -3.261
REMARK INTRA:                  -0.061
REMARK UNBOUND:                -0.180
REMARK SMILES O=C([O-])CCC(=O)[O-]
REMARK SMILES IDX 4 1 2 2 1 3 3 4 5 5 6 6 7 7 8 8
REMARK H PARENT
REMARK Flexibility Score: inf
ROOT
ATOM      1  C   UNL     1     -14.164   9.816   4.394  1.00  0.00     0.059 C 
ENDROOT
BRANCH   1   2
ATOM      2  C   UNL     1     -15.240  10.857   4.351  1.00  0.00     0.042 C 
ATOM      3  O   UNL     1     -16.232  10.712   3.589  1.00  0.00    -0.550 OA
ATOM      4  O   UNL     1     -15.168  11.968   5.181  1.00  0.00    -0.550 OA
ENDBRANCH   1   2
BRANCH   1   5
ATOM      5  C   UNL     1     -12.779  10.422   4.141  1.00  0.00     0.059 C 
BRANCH   5   6
ATOM      6  C   UNL     1     -12.052  10.696   5.422  1.00  0.00     0.042 C 
ATOM      7  O   UNL     1     -12.077   9.853   6.357  1.00  0.00    -0.550 OA
ATOM      8  O   UNL     1     -11.315  11.864   5.568  1.00  0.00    -0.550 OA
ENDBRANCH   5   6
ENDBRANCH   1   5
TORSDOF 3
ENDMDL
MODEL 6
REMARK VINA RESULT:    -2.671      1.349      1.890
REMARK INTER + INTRA:          -3.319
REMARK INTER:                  -3.228
REMARK INTRA:                  -0.091
REMARK UNBOUND:                -0.180
REMARK SMILES O=C([O-])CCC(=O)[O-]
REMARK SMILES IDX 4 1 2 2 1 3 3 4 5 5 6 6 7 7 8 8
REMARK H PARENT
REMARK Flexibility Score: inf
ROOT
ATOM      1  C   UNL     1     -11.981   9.393   4.433  1.00  0.00     0.059 C 
ENDROOT
BRANCH   1   2
ATOM      2  C   UNL     1     -12.761   9.299   3.157  1.00  0.00     0.042 C 
ATOM      3  O   UNL     1     -14.012   9.160   3.189  1.00  0.00    -0.550 OA
ATOM      4  O   UNL     1     -12.112   9.407   1.934  1.00  0.00    -0.550 OA
ENDBRANCH   1   2
BRANCH   1   5
ATOM      5  C   UNL     1     -12.046  10.801   5.034  1.00  0.00     0.059 C 
BRANCH   5   6
ATOM      6  C   UNL     1     -13.148  10.922   6.042  1.00  0.00     0.042 C 
ATOM      7  O   UNL     1     -13.158  10.182   7.061  1.00  0.00    -0.550 OA
ATOM      8  O   UNL     1     -14.141  11.878   5.876  1.00  0.00    -0.550 OA
ENDBRANCH   5   6
ENDBRANCH   1   5
TORSDOF 3
ENDMDL
MODEL 7
REMARK VINA RESULT:    -2.562      1.920      3.007
REMARK INTER + INTRA:          -3.191
REMARK INTER:                  -3.079
REMARK INTRA:                  -0.112
REMARK UNBOUND:                -0.180
REMARK SMILES O=C([O-])CCC(=O)[O-]
REMARK SMILES IDX 4 1 2 2 1 3 3 4 5 5 6 6 7 7 8 8
REMARK H PARENT
REMARK Flexibility Score: inf
ROOT
ATOM      1  C   UNL     1     -12.936  10.351   6.543  1.00  0.00     0.059 C 
ENDROOT
BRANCH   1   2
ATOM      2  C   UNL     1     -12.056  10.815   5.423  1.00  0.00     0.042 C 
ATOM      3  O   UNL     1     -12.039  10.188   4.330  1.00  0.00    -0.550 OA
ATOM      4  O   UNL     1     -11.287  11.962   5.569  1.00  0.00    -0.550 OA
ENDBRANCH   1   2
BRANCH   1   5
ATOM      5  C   UNL     1     -14.315   9.915   6.037  1.00  0.00     0.059 C 
BRANCH   5   6
ATOM      6  C   UNL     1     -15.255  11.077   5.922  1.00  0.00     0.042 C 
ATOM      7  O   UNL     1     -15.995  11.390   6.891  1.00  0.00    -0.550 OA
ATOM      8  O   UNL     1     -15.284  11.836   4.759  1.00  0.00    -0.550 OA
ENDBRANCH   5   6
ENDBRANCH   1   5
TORSDOF 3
ENDMDL
MODEL 8
REMARK VINA RESULT:    -2.541      1.649      2.807
REMARK INTER + INTRA:          -3.166
REMARK INTER:                  -3.002
REMARK INTRA:                  -0.164
REMARK UNBOUND:                -0.180
REMARK SMILES O=C([O-])CCC(=O)[O-]
REMARK SMILES IDX 4 1 2 2 1 3 3 4 5 5 6 6 7 7 8 8
REMARK H PARENT
REMARK Flexibility Score: inf
ROOT
ATOM      1  C   UNL     1     -13.448   9.997   7.147  1.00  0.00     0.059 C 
ENDROOT
BRANCH   1   2
ATOM      2  C   UNL     1     -14.754  10.185   6.436  1.00  0.00     0.042 C 
ATOM      3  O   UNL     1     -15.415   9.184   6.051  1.00  0.00    -0.550 OA
ATOM      4  O   UNL     1     -15.261  11.462   6.236  1.00  0.00    -0.550 OA
ENDBRANCH   1   2
BRANCH   1   5
ATOM      5  C   UNL     1     -12.350   9.513   6.194  1.00  0.00     0.059 C 
BRANCH   5   6
ATOM      6  C   UNL     1     -11.994  10.560   5.182  1.00  0.00     0.042 C 
ATOM      7  O   UNL     1     -12.280  10.389   3.968  1.00  0.00    -0.550 OA
ATOM      8  O   UNL     1     -11.384  11.740   5.587  1.00  0.00    -0.550 OA
ENDBRANCH   5   6
ENDBRANCH   1   5
TORSDOF 3
ENDMDL
MODEL 9
REMARK VINA RESULT:    -2.443      1.840      2.606
REMARK INTER + INTRA:          -3.052
REMARK INTER:                  -2.886
REMARK INTRA:                  -0.166
REMARK UNBOUND:                -0.180
REMARK SMILES O=C([O-])CCC(=O)[O-]
REMARK SMILES IDX 4 1 2 2 1 3 3 4 5 5 6 6 7 7 8 8
REMARK H PARENT
REMARK Flexibility Score: inf
ROOT
ATOM      1  C   UNL     1     -12.048  11.219   5.496  1.00  0.00     0.059 C 
ENDROOT
BRANCH   1   2
ATOM      2  C   UNL     1     -11.936   9.993   4.643  1.00  0.00     0.042 C 
ATOM      3  O   UNL     1     -12.422   9.984   3.480  1.00  0.00    -0.550 OA
ATOM      4  O   UNL     1     -11.261   8.875   5.115  1.00  0.00    -0.550 OA
ENDBRANCH   1   2
BRANCH   1   5
ATOM      5  C   UNL     1     -13.500  11.496   5.902  1.00  0.00     0.059 C 
BRANCH   5   6
ATOM      6  C   UNL     1     -14.134  10.296   6.539  1.00  0.00     0.042 C 
ATOM      7  O   UNL     1     -13.802   9.947   7.702  1.00  0.00    -0.550 OA
ATOM      8  O   UNL     1     -15.120   9.589   5.863  1.00  0.00    -0.550 OA
ENDBRANCH   5   6
ENDBRANCH   1   5
TORSDOF 3
ENDMDL
