MODEL 1
REMARK VINA RESULT:    -5.223      0.000      0.000
REMARK INTER + INTRA:          -7.103
REMARK INTER:                  -7.361
REMARK INTRA:                   0.258
REMARK UNBOUND:                 0.258
REMARK SMILES CC1=CCC(=C(C)C)C(=O)CC(C)=CCC1
REMARK SMILES IDX 12 1 14 2 13 3 15 4 16 5 2 6 1 7 3 8 11 10 9 11 10 12 5 13
REMARK SMILES IDX 6 14 7 15 8 16 4 17
REMARK H PARENT
REMARK Flexibility Score: 60.00
ROOT
ATOM      1  C   UNL     1      -8.605  34.181  25.493  1.00  0.00    -0.070 C 
ATOM      2  C   UNL     1      -8.304  33.839  26.765  1.00  0.00    -0.027 C 
ATOM      3  C   UNL     1      -8.355  35.606  25.068  1.00  0.00     0.039 C 
ENDROOT
BRANCH   2   4
ATOM      4  C   UNL     1      -8.572  32.493  27.406  1.00  0.00     0.032 C 
BRANCH   4   5
ATOM      5  C   UNL     1      -7.516  31.411  27.102  1.00  0.00     0.034 C 
BRANCH   5   6
ATOM      6  C   UNL     1      -8.110  30.143  26.514  1.00  0.00    -0.077 C 
ATOM      7  C   UNL     1      -8.890  29.243  27.438  1.00  0.00     0.039 C 
ATOM      8  C   UNL     1      -7.928  29.736  25.235  1.00  0.00    -0.023 CG0
ATOM      9  G   UNL     1      -7.203  30.481  24.131  1.00  0.00     0.000 G0
ENDBRANCH   5   6
ENDBRANCH   4   5
ENDBRANCH   2   4
BRANCH   1  10
ATOM     10  C   UNL     1      -9.261  33.233  24.511  1.00  0.00     0.111 C 
BRANCH  10  11
ATOM     11  C   UNL     1      -8.276  32.715  23.496  1.00  0.00     0.163 C 
ATOM     12  O   UNL     1      -7.612  33.556  22.831  1.00  0.00    -0.294 OA
BRANCH  11  13
ATOM     13  C   UNL     1      -8.109  31.259  23.212  1.00  0.00    -0.002 C 
ATOM     14  C   UNL     1      -8.825  30.654  22.217  1.00  0.00    -0.069 C 
ATOM     15  C   UNL     1      -8.798  29.156  22.008  1.00  0.00     0.039 C 
ATOM     16  C   UNL     1      -9.687  31.460  21.270  1.00  0.00     0.039 C 
BRANCH  13  17
ATOM     17  C   UNL     1      -7.191  30.471  24.134  1.00  0.00     0.066 CG0
ATOM     18  G   UNL     1      -7.955  29.734  25.215  1.00  0.00     0.000 G0
ENDBRANCH  13  17
ENDBRANCH  11  13
ENDBRANCH  10  11
ENDBRANCH   1  10
TORSDOF 0
ENDMDL
MODEL 2
REMARK VINA RESULT:    -5.171      2.141      5.097
REMARK INTER + INTRA:          -7.029
REMARK INTER:                  -7.243
REMARK INTRA:                   0.215
REMARK UNBOUND:                 0.258
REMARK SMILES CC1=CCC(=C(C)C)C(=O)CC(C)=CCC1
REMARK SMILES IDX 12 1 14 2 13 3 15 4 16 5 2 6 1 7 3 8 11 10 9 11 10 12 5 13
REMARK SMILES IDX 6 14 7 15 8 16 4 17
REMARK H PARENT
REMARK Flexibility Score: 60.00
ROOT
ATOM      1  C   UNL     1      -7.490  30.353  22.795  1.00  0.00    -0.070 C 
ATOM      2  C   UNL     1      -7.172  31.279  21.865  1.00  0.00    -0.027 C 
ATOM      3  C   UNL     1      -6.361  29.673  23.529  1.00  0.00     0.039 C 
ENDROOT
BRANCH   2   4
ATOM      4  C   UNL     1      -8.152  31.996  20.961  1.00  0.00     0.032 C 
BRANCH   4   5
ATOM      5  C   UNL     1      -9.193  32.866  21.695  1.00  0.00     0.034 C 
BRANCH   5   6
ATOM      6  C   UNL     1      -8.583  33.747  22.771  1.00  0.00    -0.077 C 
ATOM      7  C   UNL     1      -7.619  34.820  22.335  1.00  0.00     0.039 C 
ATOM      8  C   UNL     1      -8.797  33.588  24.100  1.00  0.00    -0.023 CG0
ATOM      9  G   UNL     1      -9.732  32.597  24.765  1.00  0.00     0.000 G0
ENDBRANCH   5   6
ENDBRANCH   4   5
ENDBRANCH   2   4
BRANCH   1  10
ATOM     10  C   UNL     1      -8.910  29.902  23.068  1.00  0.00     0.111 C 
BRANCH  10  11
ATOM     11  C   UNL     1      -9.279  30.076  24.518  1.00  0.00     0.163 C 
ATOM     12  O   UNL     1      -9.869  29.124  25.098  1.00  0.00    -0.294 OA
BRANCH  11  13
ATOM     13  C   UNL     1      -9.028  31.345  25.262  1.00  0.00    -0.002 C 
ATOM     14  C   UNL     1      -8.260  31.352  26.393  1.00  0.00    -0.069 C 
ATOM     15  C   UNL     1      -8.116  32.587  27.256  1.00  0.00     0.039 C 
ATOM     16  C   UNL     1      -7.511  30.116  26.840  1.00  0.00     0.039 C 
BRANCH  13  17
ATOM     17  C   UNL     1      -9.738  32.595  24.765  1.00  0.00     0.066 CG0
ATOM     18  G   UNL     1      -8.787  33.570  24.099  1.00  0.00     0.000 G0
ENDBRANCH  13  17
ENDBRANCH  11  13
ENDBRANCH  10  11
ENDBRANCH   1  10
TORSDOF 0
ENDMDL
MODEL 3
REMARK VINA RESULT:    -5.064      1.559      4.039
REMARK INTER + INTRA:          -6.878
REMARK INTER:                  -7.289
REMARK INTRA:                   0.411
REMARK UNBOUND:                 0.258
REMARK SMILES CC1=CCC(=C(C)C)C(=O)CC(C)=CCC1
REMARK SMILES IDX 12 1 14 2 13 3 15 4 16 5 2 6 1 7 3 8 11 10 9 11 10 12 5 13
REMARK SMILES IDX 6 14 7 15 8 16 4 17
REMARK H PARENT
REMARK Flexibility Score: 60.00
ROOT
ATOM      1  C   UNL     1      -8.242  32.353  21.149  1.00  0.00    -0.070 C 
ATOM      2  C   UNL     1      -8.209  31.006  21.252  1.00  0.00    -0.027 C 
ATOM      3  C   UNL     1      -7.299  33.009  20.173  1.00  0.00     0.039 C 
ENDROOT
BRANCH   2   4
ATOM      4  C   UNL     1      -9.004  30.175  22.238  1.00  0.00     0.032 C 
BRANCH   4   5
ATOM      5  C   UNL     1      -8.200  29.672  23.454  1.00  0.00     0.034 C 
BRANCH   5   6
ATOM      6  C   UNL     1      -8.746  30.171  24.780  1.00  0.00    -0.077 C 
ATOM      7  C   UNL     1      -9.729  29.291  25.508  1.00  0.00     0.039 C 
ATOM      8  C   UNL     1      -8.459  31.382  25.316  1.00  0.00    -0.023 CG0
ATOM      9  G   UNL     1      -7.491  32.416  24.776  1.00  0.00     0.000 G0
ENDBRANCH   5   6
ENDBRANCH   4   5
ENDBRANCH   2   4
BRANCH   1  10
ATOM     10  C   UNL     1      -9.109  33.232  22.027  1.00  0.00     0.111 C 
BRANCH  10  11
ATOM     11  C   UNL     1      -8.280  34.066  22.969  1.00  0.00     0.163 C 
ATOM     12  O   UNL     1      -7.642  35.043  22.492  1.00  0.00    -0.294 OA
BRANCH  11  13
ATOM     13  C   UNL     1      -8.143  33.739  24.419  1.00  0.00    -0.002 C 
ATOM     14  C   UNL     1      -8.522  34.637  25.378  1.00  0.00    -0.069 C 
ATOM     15  C   UNL     1      -8.250  34.402  26.847  1.00  0.00     0.039 C 
ATOM     16  C   UNL     1      -9.235  35.920  25.012  1.00  0.00     0.039 C 
BRANCH  13  17
ATOM     17  C   UNL     1      -7.479  32.417  24.774  1.00  0.00     0.066 CG0
ATOM     18  G   UNL     1      -8.470  31.401  25.306  1.00  0.00     0.000 G0
ENDBRANCH  13  17
ENDBRANCH  11  13
ENDBRANCH  10  11
ENDBRANCH   1  10
TORSDOF 0
ENDMDL
MODEL 4
REMARK VINA RESULT:    -5.051      1.418      3.794
REMARK INTER + INTRA:          -6.860
REMARK INTER:                  -7.099
REMARK INTRA:                   0.239
REMARK UNBOUND:                 0.258
REMARK SMILES CC1=CCC(=C(C)C)C(=O)CC(C)=CCC1
REMARK SMILES IDX 12 1 14 2 13 3 15 4 16 5 2 6 1 7 3 8 11 10 9 11 10 12 5 13
REMARK SMILES IDX 6 14 7 15 8 16 4 17
REMARK H PARENT
REMARK Flexibility Score: 60.00
ROOT
ATOM      1  C   UNL     1      -8.382  33.635  23.322  1.00  0.00    -0.070 C 
ATOM      2  C   UNL     1      -8.062  33.074  22.136  1.00  0.00    -0.027 C 
ATOM      3  C   UNL     1      -7.820  35.000  23.630  1.00  0.00     0.039 C 
ENDROOT
BRANCH   2   4
ATOM      4  C   UNL     1      -8.445  31.679  21.686  1.00  0.00     0.032 C 
BRANCH   4   5
ATOM      5  C   UNL     1      -7.472  30.568  22.128  1.00  0.00     0.034 C 
BRANCH   5   6
ATOM      6  C   UNL     1      -8.157  29.433  22.869  1.00  0.00    -0.077 C 
ATOM      7  C   UNL     1      -8.980  28.464  22.059  1.00  0.00     0.039 C 
ATOM      8  C   UNL     1      -8.133  29.275  24.215  1.00  0.00    -0.023 CG0
ATOM      9  G   UNL     1      -7.364  30.108  25.220  1.00  0.00     0.000 G0
ENDBRANCH   5   6
ENDBRANCH   4   5
ENDBRANCH   2   4
BRANCH   1  10
ATOM     10  C   UNL     1      -9.195  32.925  24.385  1.00  0.00     0.111 C 
BRANCH  10  11
ATOM     11  C   UNL     1      -8.332  32.474  25.535  1.00  0.00     0.163 C 
ATOM     12  O   UNL     1      -7.589  33.328  26.090  1.00  0.00    -0.294 OA
BRANCH  11  13
ATOM     13  C   UNL     1      -8.285  31.054  25.992  1.00  0.00    -0.002 C 
ATOM     14  C   UNL     1      -8.973  30.653  27.103  1.00  0.00    -0.069 C 
ATOM     15  C   UNL     1      -8.820  29.264  27.682  1.00  0.00     0.039 C 
ATOM     16  C   UNL     1      -9.927  31.588  27.813  1.00  0.00     0.039 C 
BRANCH  13  17
ATOM     17  C   UNL     1      -7.369  30.108  25.230  1.00  0.00     0.066 CG0
ATOM     18  G   UNL     1      -8.123  29.266  24.220  1.00  0.00     0.000 G0
ENDBRANCH  13  17
ENDBRANCH  11  13
ENDBRANCH  10  11
ENDBRANCH   1  10
TORSDOF 0
ENDMDL
MODEL 5
REMARK VINA RESULT:    -4.999      1.966      3.681
REMARK INTER + INTRA:          -6.787
REMARK INTER:                  -7.555
REMARK INTRA:                   0.768
REMARK UNBOUND:                 0.258
REMARK SMILES CC1=CCC(=C(C)C)C(=O)CC(C)=CCC1
REMARK SMILES IDX 12 1 14 2 13 3 15 4 16 5 2 6 1 7 3 8 11 10 9 11 10 12 5 13
REMARK SMILES IDX 6 14 7 15 8 16 4 17
REMARK H PARENT
REMARK Flexibility Score: 60.00
ROOT
ATOM      1  C   UNL     1      -7.722  30.037  23.964  1.00  0.00    -0.070 C 
ATOM      2  C   UNL     1      -7.662  30.115  25.312  1.00  0.00    -0.027 C 
ATOM      3  C   UNL     1      -6.441  30.212  23.190  1.00  0.00     0.039 C 
ENDROOT
BRANCH   2   4
ATOM      4  C   UNL     1      -8.846  30.063  26.254  1.00  0.00     0.032 C 
BRANCH   4   5
ATOM      5  C   UNL     1      -9.638  31.381  26.371  1.00  0.00     0.034 C 
BRANCH   5   6
ATOM      6  C   UNL     1      -8.818  32.606  26.005  1.00  0.00    -0.077 C 
ATOM      7  C   UNL     1      -7.857  33.140  27.037  1.00  0.00     0.039 C 
ATOM      8  C   UNL     1      -8.942  33.288  24.840  1.00  0.00    -0.023 CG0
ATOM      9  G   UNL     1      -9.822  32.930  23.659  1.00  0.00     0.000 G0
ENDBRANCH   5   6
ENDBRANCH   4   5
ENDBRANCH   2   4
BRANCH   1  10
ATOM     10  C   UNL     1      -9.020  29.876  23.199  1.00  0.00     0.111 C 
BRANCH  10  11
ATOM     11  C   UNL     1      -9.184  30.947  22.152  1.00  0.00     0.163 C 
ATOM     12  O   UNL     1      -9.387  30.586  20.961  1.00  0.00    -0.294 OA
BRANCH  11  13
ATOM     13  C   UNL     1      -9.052  32.400  22.465  1.00  0.00    -0.002 C 
ATOM     14  C   UNL     1      -8.197  33.194  21.753  1.00  0.00    -0.069 C 
ATOM     15  C   UNL     1      -7.922  34.630  22.145  1.00  0.00     0.039 C 
ATOM     16  C   UNL     1      -7.477  32.671  20.529  1.00  0.00     0.039 C 
BRANCH  13  17
ATOM     17  C   UNL     1      -9.829  32.928  23.661  1.00  0.00     0.066 CG0
ATOM     18  G   UNL     1      -8.927  33.263  24.832  1.00  0.00     0.000 G0
ENDBRANCH  13  17
ENDBRANCH  11  13
ENDBRANCH  10  11
ENDBRANCH   1  10
TORSDOF 0
ENDMDL
MODEL 6
REMARK VINA RESULT:    -4.996      2.180      5.228
REMARK INTER + INTRA:          -6.783
REMARK INTER:                  -7.548
REMARK INTRA:                   0.765
REMARK UNBOUND:                 0.258
REMARK SMILES CC1=CCC(=C(C)C)C(=O)CC(C)=CCC1
REMARK SMILES IDX 12 1 14 2 13 3 15 4 16 5 2 6 1 7 3 8 11 10 9 11 10 12 5 13
REMARK SMILES IDX 6 14 7 15 8 16 4 17
REMARK H PARENT
REMARK Flexibility Score: 60.00
ROOT
ATOM      1  C   UNL     1      -8.173  30.211  23.782  1.00  0.00    -0.070 C 
ATOM      2  C   UNL     1      -8.070  30.110  22.439  1.00  0.00    -0.027 C 
ATOM      3  C   UNL     1      -6.906  30.126  24.595  1.00  0.00     0.039 C 
ENDROOT
BRANCH   2   4
ATOM      4  C   UNL     1      -9.228  30.074  21.463  1.00  0.00     0.032 C 
BRANCH   4   5
ATOM      5  C   UNL     1      -9.578  31.434  20.825  1.00  0.00     0.034 C 
BRANCH   5   6
ATOM      6  C   UNL     1      -8.593  32.533  21.182  1.00  0.00    -0.077 C 
ATOM      7  C   UNL     1      -7.420  32.749  20.259  1.00  0.00     0.039 C 
ATOM      8  C   UNL     1      -8.662  33.285  22.307  1.00  0.00    -0.023 CG0
ATOM      9  G   UNL     1      -9.752  33.257  23.360  1.00  0.00     0.000 G0
ENDBRANCH   5   6
ENDBRANCH   4   5
ENDBRANCH   2   4
BRANCH   1  10
ATOM     10  C   UNL     1      -9.499  30.312  24.508  1.00  0.00     0.111 C 
BRANCH  10  11
ATOM     11  C   UNL     1      -9.598  31.583  25.309  1.00  0.00     0.163 C 
ATOM     12  O   UNL     1     -10.076  31.515  26.474  1.00  0.00    -0.294 OA
BRANCH  11  13
ATOM     13  C   UNL     1      -9.212  32.913  24.753  1.00  0.00    -0.002 C 
ATOM     14  C   UNL     1      -8.477  33.795  25.495  1.00  0.00    -0.069 C 
ATOM     15  C   UNL     1      -8.204  35.207  25.023  1.00  0.00     0.039 C 
ATOM     16  C   UNL     1      -7.897  33.400  26.835  1.00  0.00     0.039 C 
BRANCH  13  17
ATOM     17  C   UNL     1      -9.750  33.275  23.377  1.00  0.00     0.066 CG0
ATOM     18  G   UNL     1      -8.664  33.288  22.319  1.00  0.00     0.000 G0
ENDBRANCH  13  17
ENDBRANCH  11  13
ENDBRANCH  10  11
ENDBRANCH   1  10
TORSDOF 0
ENDMDL
MODEL 7
REMARK VINA RESULT:    -4.774      1.919      3.830
REMARK INTER + INTRA:          -6.469
REMARK INTER:                  -7.838
REMARK INTRA:                   1.369
REMARK UNBOUND:                 0.258
REMARK SMILES CC1=CCC(=C(C)C)C(=O)CC(C)=CCC1
REMARK SMILES IDX 12 1 14 2 13 3 15 4 16 5 2 6 1 7 3 8 11 10 9 11 10 12 5 13
REMARK SMILES IDX 6 14 7 15 8 16 4 17
REMARK H PARENT
REMARK Flexibility Score: 60.00
ROOT
ATOM      1  C   UNL     1      -8.090  33.349  21.524  1.00  0.00    -0.070 C 
ATOM      2  C   UNL     1      -7.430  34.360  22.130  1.00  0.00    -0.027 C 
ATOM      3  C   UNL     1      -7.592  32.889  20.177  1.00  0.00     0.039 C 
ENDROOT
BRANCH   2   4
ATOM      4  C   UNL     1      -7.830  35.023  23.431  1.00  0.00     0.032 C 
BRANCH   4   5
ATOM      5  C   UNL     1      -9.084  34.427  24.101  1.00  0.00     0.034 C 
BRANCH   5   6
ATOM      6  C   UNL     1      -8.838  33.962  25.526  1.00  0.00    -0.077 C 
ATOM      7  C   UNL     1      -8.291  34.968  26.506  1.00  0.00     0.039 C 
ATOM      8  C   UNL     1      -9.012  32.688  25.954  1.00  0.00    -0.023 CG0
ATOM      9  G   UNL     1      -9.565  31.522  25.158  1.00  0.00     0.000 G0
ENDBRANCH   5   6
ENDBRANCH   4   5
ENDBRANCH   2   4
BRANCH   1  10
ATOM     10  C   UNL     1      -9.350  32.724  22.087  1.00  0.00     0.111 C 
BRANCH  10  11
ATOM     11  C   UNL     1      -9.092  31.338  22.620  1.00  0.00     0.163 C 
ATOM     12  O   UNL     1      -9.320  30.358  21.860  1.00  0.00    -0.294 OA
BRANCH  11  13
ATOM     13  C   UNL     1      -8.640  31.090  24.021  1.00  0.00    -0.002 C 
ATOM     14  C   UNL     1      -7.473  30.423  24.271  1.00  0.00    -0.069 C 
ATOM     15  C   UNL     1      -7.067  30.017  25.671  1.00  0.00     0.039 C 
ATOM     16  C   UNL     1      -6.525  30.054  23.152  1.00  0.00     0.039 C 
BRANCH  13  17
ATOM     17  C   UNL     1      -9.574  31.522  25.140  1.00  0.00     0.066 CG0
ATOM     18  G   UNL     1      -9.013  32.679  25.944  1.00  0.00     0.000 G0
ENDBRANCH  13  17
ENDBRANCH  11  13
ENDBRANCH  10  11
ENDBRANCH   1  10
TORSDOF 0
ENDMDL
MODEL 8
REMARK VINA RESULT:    -4.754      1.680      3.884
REMARK INTER + INTRA:          -6.441
REMARK INTER:                  -7.018
REMARK INTRA:                   0.577
REMARK UNBOUND:                 0.258
REMARK SMILES CC1=CCC(=C(C)C)C(=O)CC(C)=CCC1
REMARK SMILES IDX 12 1 14 2 13 3 15 4 16 5 2 6 1 7 3 8 11 10 9 11 10 12 5 13
REMARK SMILES IDX 6 14 7 15 8 16 4 17
REMARK H PARENT
REMARK Flexibility Score: 60.00
ROOT
ATOM      1  C   UNL     1      -7.985  34.646  24.225  1.00  0.00    -0.070 C 
ATOM      2  C   UNL     1      -7.608  34.712  22.929  1.00  0.00    -0.027 C 
ATOM      3  C   UNL     1      -7.221  35.476  25.225  1.00  0.00     0.039 C 
ENDROOT
BRANCH   2   4
ATOM      4  C   UNL     1      -8.183  33.887  21.798  1.00  0.00     0.032 C 
BRANCH   4   5
ATOM      5  C   UNL     1      -7.654  32.441  21.719  1.00  0.00     0.034 C 
BRANCH   5   6
ATOM      6  C   UNL     1      -8.743  31.396  21.889  1.00  0.00    -0.077 C 
ATOM      7  C   UNL     1      -9.750  31.246  20.776  1.00  0.00     0.039 C 
ATOM      8  C   UNL     1      -8.908  30.639  23.001  1.00  0.00    -0.023 CG0
ATOM      9  G   UNL     1      -8.016  30.605  24.226  1.00  0.00     0.000 G0
ENDBRANCH   5   6
ENDBRANCH   4   5
ENDBRANCH   2   4
BRANCH   1  10
ATOM     10  C   UNL     1      -9.069  33.714  24.728  1.00  0.00     0.111 C 
BRANCH  10  11
ATOM     11  C   UNL     1      -8.518  32.681  25.676  1.00  0.00     0.163 C 
ATOM     12  O   UNL     1      -7.837  33.081  26.658  1.00  0.00    -0.294 OA
BRANCH  11  13
ATOM     13  C   UNL     1      -8.699  31.216  25.456  1.00  0.00    -0.002 C 
ATOM     14  C   UNL     1      -9.371  30.450  26.367  1.00  0.00    -0.069 C 
ATOM     15  C   UNL     1      -9.434  28.942  26.254  1.00  0.00     0.039 C 
ATOM     16  C   UNL     1     -10.088  31.077  27.542  1.00  0.00     0.039 C 
BRANCH  13  17
ATOM     17  C   UNL     1      -8.024  30.607  24.236  1.00  0.00     0.066 CG0
ATOM     18  G   UNL     1      -8.908  30.654  23.006  1.00  0.00     0.000 G0
ENDBRANCH  13  17
ENDBRANCH  11  13
ENDBRANCH  10  11
ENDBRANCH   1  10
TORSDOF 0
ENDMDL
MODEL 9
REMARK VINA RESULT:    -4.690      1.279      1.609
REMARK INTER + INTRA:          -6.351
REMARK INTER:                  -6.889
REMARK INTRA:                   0.537
REMARK UNBOUND:                 0.258
REMARK SMILES CC1=CCC(=C(C)C)C(=O)CC(C)=CCC1
REMARK SMILES IDX 12 1 14 2 13 3 15 4 16 5 2 6 1 7 3 8 11 10 9 11 10 12 5 13
REMARK SMILES IDX 6 14 7 15 8 16 4 17
REMARK H PARENT
REMARK Flexibility Score: 60.00
ROOT
ATOM      1  C   UNL     1      -7.990  34.192  23.533  1.00  0.00    -0.070 C 
ATOM      2  C   UNL     1      -7.885  34.515  24.840  1.00  0.00    -0.027 C 
ATOM      3  C   UNL     1      -7.234  35.032  22.535  1.00  0.00     0.039 C 
ENDROOT
BRANCH   2   4
ATOM      4  C   UNL     1      -8.638  33.858  25.978  1.00  0.00     0.032 C 
BRANCH   4   5
ATOM      5  C   UNL     1      -7.878  32.716  26.682  1.00  0.00     0.034 C 
BRANCH   5   6
ATOM      6  C   UNL     1      -8.585  31.375  26.580  1.00  0.00    -0.077 C 
ATOM      7  C   UNL     1      -9.619  31.047  27.627  1.00  0.00     0.039 C 
ATOM      8  C   UNL     1      -8.300  30.430  25.651  1.00  0.00    -0.023 CG0
ATOM      9  G   UNL     1      -7.321  30.545  24.500  1.00  0.00     0.000 G0
ENDBRANCH   5   6
ENDBRANCH   4   5
ENDBRANCH   2   4
BRANCH   1  10
ATOM     10  C   UNL     1      -8.898  33.092  23.020  1.00  0.00     0.111 C 
BRANCH  10  11
ATOM     11  C   UNL     1      -8.109  31.937  22.460  1.00  0.00     0.163 C 
ATOM     12  O   UNL     1      -7.536  32.094  21.347  1.00  0.00    -0.294 OA
BRANCH  11  13
ATOM     13  C   UNL     1      -8.038  30.611  23.141  1.00  0.00    -0.002 C 
ATOM     14  C   UNL     1      -8.674  29.520  22.617  1.00  0.00    -0.069 C 
ATOM     15  C   UNL     1      -8.753  28.205  23.361  1.00  0.00     0.039 C 
ATOM     16  C   UNL     1      -9.335  29.577  21.257  1.00  0.00     0.039 C 
BRANCH  13  17
ATOM     17  C   UNL     1      -7.315  30.554  24.478  1.00  0.00     0.066 CG0
ATOM     18  G   UNL     1      -8.274  30.421  25.645  1.00  0.00     0.000 G0
ENDBRANCH  13  17
ENDBRANCH  11  13
ENDBRANCH  10  11
ENDBRANCH   1  10
TORSDOF 0
ENDMDL
