MODEL 1
REMARK VINA RESULT:    50.844      0.000      0.000
REMARK INTER + INTRA:          68.298
REMARK INTER:                  68.678
REMARK INTRA:                  -0.380
REMARK UNBOUND:                -0.380
REMARK SMILES CC[C@@H](CC[C@H](C)[C@@H]1CC[C@H]2[C@H]3CC(=O)C4=CC(=O)CC[C@@]4(C)[C@@H]3CC[C@]21C)C(C)C
REMARK SMILES IDX 4 1 3 2 2 3 1 4 29 5 30 6 31 7 5 8 6 9 7 10 8 11 9 12 27 13
REMARK SMILES IDX 10 14 11 15 26 16 28 17 12 18 25 19 24 20 13 21 22 22 14 23
REMARK SMILES IDX 16 24 21 25 23 26 15 27 17 28 20 29 18 30 19 31
REMARK H PARENT
REMARK Flexibility Score: inf
ROOT
ATOM      1  C   UNL     1      20.368  23.526 -15.301  1.00  0.00     0.004 C 
ENDROOT
BRANCH   1   2
ATOM      2  C   UNL     1      20.176  24.934 -15.951  1.00  0.00    -0.009 C 
BRANCH   2   3
ATOM      3  C   UNL     1      21.229  25.924 -15.378  1.00  0.00     0.000 C 
ATOM      4  C   UNL     1      22.661  25.619 -15.824  1.00  0.00     0.004 C 
ENDBRANCH   2   3
BRANCH   2   5
ATOM      5  C   UNL     1      18.708  25.483 -15.853  1.00  0.00    -0.014 C 
ATOM      6  C   UNL     1      18.013  25.077 -14.545  1.00  0.00     0.007 C 
ATOM      7  C   UNL     1      18.584  27.004 -16.066  1.00  0.00     0.007 C 
ENDBRANCH   2   5
ENDBRANCH   1   2
BRANCH   1   8
ATOM      8  C   UNL     1      21.393  23.502 -14.137  1.00  0.00     0.004 C 
BRANCH   8   9
ATOM      9  C   UNL     1      21.715  22.076 -13.600  1.00  0.00    -0.011 C 
ATOM     10  C   UNL     1      22.582  21.330 -14.636  1.00  0.00     0.008 C 
BRANCH   9  11
ATOM     11  C   UNL     1      20.408  21.255 -13.284  1.00  0.00    -0.002 C 
ATOM     12  C   UNL     1      19.331  22.064 -12.552  1.00  0.00     0.005 C 
ATOM     13  C   UNL     1      20.550  19.927 -12.439  1.00  0.00    -0.026 C 
ATOM     14  C   UNL     1      18.387  21.037 -11.970  1.00  0.00     0.005 C 
ATOM     15  C   UNL     1      19.302  19.915 -11.494  1.00  0.00    -0.001 C 
ATOM     16  C   UNL     1      20.569  18.670 -13.370  1.00  0.00     0.007 C 
ATOM     17  C   UNL     1      21.816  19.898 -11.542  1.00  0.00     0.012 C 
ATOM     18  C   UNL     1      18.636  18.518 -11.376  1.00  0.00     0.004 C 
ATOM     19  C   UNL     1      19.174  18.274 -13.884  1.00  0.00     0.005 C 
ATOM     20  C   UNL     1      18.159  17.950 -12.745  1.00  0.00     0.003 C 
ATOM     21  C   UNL     1      17.489  18.497 -10.362  1.00  0.00     0.085 C 
ATOM     22  C   UNL     1      17.730  16.434 -12.639  1.00  0.00    -0.000 C 
ATOM     23  C   UNL     1      16.957  17.104 -10.224  1.00  0.00     0.159 C 
ATOM     24  C   UNL     1      16.816  16.230 -11.419  1.00  0.00     0.005 C 
ATOM     25  C   UNL     1      16.937  16.035 -13.923  1.00  0.00     0.020 C 
ATOM     26  C   UNL     1      18.966  15.509 -12.474  1.00  0.00     0.017 C 
ATOM     27  O   UNL     1      16.584  16.701  -9.087  1.00  0.00    -0.295 OA
ATOM     28  C   UNL     1      15.938  15.209 -11.381  1.00  0.00     0.055 C 
ATOM     29  C   UNL     1      16.366  14.609 -13.861  1.00  0.00     0.081 C 
ATOM     30  C   UNL     1      15.707  14.337 -12.542  1.00  0.00     0.156 C 
ATOM     31  O   UNL     1      14.952  13.334 -12.425  1.00  0.00    -0.295 OA
ENDBRANCH   9  11
ENDBRANCH   8   9
ENDBRANCH   1   8
TORSDOF 6
ENDMDL
MODEL 2
REMARK VINA RESULT:    50.961      3.565      9.151
REMARK INTER + INTRA:          68.456
REMARK INTER:                  67.713
REMARK INTRA:                   0.743
REMARK UNBOUND:                -0.380
REMARK SMILES CC[C@@H](CC[C@H](C)[C@@H]1CC[C@H]2[C@H]3CC(=O)C4=CC(=O)CC[C@@]4(C)[C@@H]3CC[C@]21C)C(C)C
REMARK SMILES IDX 4 1 3 2 2 3 1 4 29 5 30 6 31 7 5 8 6 9 7 10 8 11 9 12 27 13
REMARK SMILES IDX 10 14 11 15 26 16 28 17 12 18 25 19 24 20 13 21 22 22 14 23
REMARK SMILES IDX 16 24 21 25 23 26 15 27 17 28 20 29 18 30 19 31
REMARK H PARENT
REMARK Flexibility Score: inf
ROOT
ATOM      1  C   UNL     1      17.960  17.148 -12.898  1.00  0.00     0.004 C 
ENDROOT
BRANCH   1   2
ATOM      2  C   UNL     1      17.666  15.670 -13.314  1.00  0.00    -0.009 C 
BRANCH   2   3
ATOM      3  C   UNL     1      16.499  15.106 -12.456  1.00  0.00     0.000 C 
ATOM      4  C   UNL     1      15.531  14.222 -13.247  1.00  0.00     0.004 C 
ENDBRANCH   2   3
BRANCH   2   5
ATOM      5  C   UNL     1      18.933  14.743 -13.302  1.00  0.00    -0.014 C 
ATOM      6  C   UNL     1      20.059  15.294 -12.414  1.00  0.00     0.007 C 
ATOM      7  C   UNL     1      18.642  13.275 -12.934  1.00  0.00     0.007 C 
ENDBRANCH   2   5
ENDBRANCH   1   2
BRANCH   1   8
ATOM      8  C   UNL     1      18.267  17.329 -11.388  1.00  0.00     0.004 C 
BRANCH   8   9
ATOM      9  C   UNL     1      18.639  18.787 -10.983  1.00  0.00    -0.011 C 
ATOM     10  C   UNL     1      17.472  19.401 -10.182  1.00  0.00     0.008 C 
BRANCH   9  11
ATOM     11  C   UNL     1      18.975  19.679 -12.237  1.00  0.00    -0.002 C 
ATOM     12  C   UNL     1      19.915  19.005 -13.242  1.00  0.00     0.005 C 
ATOM     13  C   UNL     1      19.615  21.102 -11.986  1.00  0.00    -0.026 C 
ATOM     14  C   UNL     1      20.448  20.126 -14.104  1.00  0.00     0.005 C 
ATOM     15  C   UNL     1      20.674  21.275 -13.126  1.00  0.00    -0.001 C 
ATOM     16  C   UNL     1      18.528  22.225 -12.047  1.00  0.00     0.007 C 
ATOM     17  C   UNL     1      20.366  21.212 -10.632  1.00  0.00     0.012 C 
ATOM     18  C   UNL     1      20.672  22.693 -13.755  1.00  0.00     0.004 C 
ATOM     19  C   UNL     1      18.112  22.591 -13.482  1.00  0.00     0.005 C 
ATOM     20  C   UNL     1      19.295  23.090 -14.365  1.00  0.00     0.003 C 
ATOM     21  C   UNL     1      21.787  22.882 -14.788  1.00  0.00     0.085 C 
ATOM     22  C   UNL     1      19.242  24.620 -14.757  1.00  0.00    -0.000 C 
ATOM     23  C   UNL     1      21.791  24.296 -15.280  1.00  0.00     0.159 C 
ATOM     24  C   UNL     1      20.511  25.009 -15.534  1.00  0.00     0.005 C 
ATOM     25  C   UNL     1      18.005  24.870 -15.676  1.00  0.00     0.020 C 
ATOM     26  C   UNL     1      19.153  25.522 -13.497  1.00  0.00     0.017 C 
ATOM     27  O   UNL     1      22.897  24.855 -15.525  1.00  0.00    -0.295 OA
ATOM     28  C   UNL     1      20.503  26.051 -16.388  1.00  0.00     0.055 C 
ATOM     29  C   UNL     1      17.934  26.307 -16.216  1.00  0.00     0.081 C 
ATOM     30  C   UNL     1      19.265  26.769 -16.727  1.00  0.00     0.156 C 
ATOM     31  O   UNL     1      19.324  27.800 -17.450  1.00  0.00    -0.295 OA
ENDBRANCH   9  11
ENDBRANCH   8   9
ENDBRANCH   1   8
TORSDOF 6
ENDMDL
MODEL 3
REMARK VINA RESULT:    51.614      1.899      3.079
REMARK INTER + INTRA:          69.339
REMARK INTER:                  68.485
REMARK INTRA:                   0.854
REMARK UNBOUND:                -0.380
REMARK SMILES CC[C@@H](CC[C@H](C)[C@@H]1CC[C@H]2[C@H]3CC(=O)C4=CC(=O)CC[C@@]4(C)[C@@H]3CC[C@]21C)C(C)C
REMARK SMILES IDX 4 1 3 2 2 3 1 4 29 5 30 6 31 7 5 8 6 9 7 10 8 11 9 12 27 13
REMARK SMILES IDX 10 14 11 15 26 16 28 17 12 18 25 19 24 20 13 21 22 22 14 23
REMARK SMILES IDX 16 24 21 25 23 26 15 27 17 28 20 29 18 30 19 31
REMARK H PARENT
REMARK Flexibility Score: inf
ROOT
ATOM      1  C   UNL     1      18.025  25.533 -14.443  1.00  0.00     0.004 C 
ENDROOT
BRANCH   1   2
ATOM      2  C   UNL     1      18.624  25.785 -15.864  1.00  0.00    -0.009 C 
BRANCH   2   3
ATOM      3  C   UNL     1      19.852  24.858 -16.088  1.00  0.00     0.000 C 
ATOM      4  C   UNL     1      21.154  25.419 -15.512  1.00  0.00     0.004 C 
ENDBRANCH   2   3
BRANCH   2   5
ATOM      5  C   UNL     1      18.940  27.294 -16.161  1.00  0.00    -0.014 C 
ATOM      6  C   UNL     1      19.552  27.505 -17.554  1.00  0.00     0.007 C 
ATOM      7  C   UNL     1      17.743  28.245 -15.961  1.00  0.00     0.007 C 
ENDBRANCH   2   5
ENDBRANCH   1   2
BRANCH   1   8
ATOM      8  C   UNL     1      18.587  24.273 -13.734  1.00  0.00     0.004 C 
BRANCH   8   9
ATOM      9  C   UNL     1      17.952  23.988 -12.341  1.00  0.00    -0.011 C 
ATOM     10  C   UNL     1      18.545  24.968 -11.307  1.00  0.00     0.008 C 
BRANCH   9  11
ATOM     11  C   UNL     1      18.181  22.499 -11.881  1.00  0.00    -0.002 C 
ATOM     12  C   UNL     1      18.878  22.371 -10.522  1.00  0.00     0.005 C 
ATOM     13  C   UNL     1      18.998  21.542 -12.838  1.00  0.00    -0.026 C 
ATOM     14  C   UNL     1      19.385  20.948 -10.466  1.00  0.00     0.005 C 
ATOM     15  C   UNL     1      19.878  20.671 -11.882  1.00  0.00    -0.001 C 
ATOM     16  C   UNL     1      18.038  20.652 -13.695  1.00  0.00     0.007 C 
ATOM     17  C   UNL     1      19.957  22.299 -13.795  1.00  0.00     0.012 C 
ATOM     18  C   UNL     1      19.926  19.174 -12.288  1.00  0.00     0.004 C 
ATOM     19  C   UNL     1      17.444  19.470 -12.909  1.00  0.00     0.005 C 
ATOM     20  C   UNL     1      18.521  18.505 -12.328  1.00  0.00     0.003 C 
ATOM     21  C   UNL     1      20.881  18.357 -11.412  1.00  0.00     0.085 C 
ATOM     22  C   UNL     1      18.567  17.072 -12.992  1.00  0.00    -0.000 C 
ATOM     23  C   UNL     1      20.956  16.949 -11.917  1.00  0.00     0.159 C 
ATOM     24  C   UNL     1      19.734  16.258 -12.407  1.00  0.00     0.005 C 
ATOM     25  C   UNL     1      17.235  16.320 -12.681  1.00  0.00     0.020 C 
ATOM     26  C   UNL     1      18.771  17.170 -14.528  1.00  0.00     0.017 C 
ATOM     27  O   UNL     1      22.063  16.342 -11.873  1.00  0.00    -0.295 OA
ATOM     28  C   UNL     1      19.702  14.912 -12.409  1.00  0.00     0.055 C 
ATOM     29  C   UNL     1      17.232  14.867 -13.179  1.00  0.00     0.081 C 
ATOM     30  C   UNL     1      18.509  14.162 -12.830  1.00  0.00     0.156 C 
ATOM     31  O   UNL     1      18.562  12.905 -12.911  1.00  0.00    -0.295 OA
ENDBRANCH   9  11
ENDBRANCH   8   9
ENDBRANCH   1   8
TORSDOF 6
ENDMDL
MODEL 4
REMARK VINA RESULT:    51.770      2.907      4.002
REMARK INTER + INTRA:          69.549
REMARK INTER:                  68.769
REMARK INTRA:                   0.780
REMARK UNBOUND:                -0.380
REMARK SMILES CC[C@@H](CC[C@H](C)[C@@H]1CC[C@H]2[C@H]3CC(=O)C4=CC(=O)CC[C@@]4(C)[C@@H]3CC[C@]21C)C(C)C
REMARK SMILES IDX 4 1 3 2 2 3 1 4 29 5 30 6 31 7 5 8 6 9 7 10 8 11 9 12 27 13
REMARK SMILES IDX 10 14 11 15 26 16 28 17 12 18 25 19 24 20 13 21 22 22 14 23
REMARK SMILES IDX 16 24 21 25 23 26 15 27 17 28 20 29 18 30 19 31
REMARK H PARENT
REMARK Flexibility Score: inf
ROOT
ATOM      1  C   UNL     1      18.655  26.550 -11.861  1.00  0.00     0.004 C 
ENDROOT
BRANCH   1   2
ATOM      2  C   UNL     1      18.968  27.406 -10.591  1.00  0.00    -0.009 C 
BRANCH   2   3
ATOM      3  C   UNL     1      17.861  27.184  -9.523  1.00  0.00     0.000 C 
ATOM      4  C   UNL     1      16.922  26.020  -9.849  1.00  0.00     0.004 C 
ENDBRANCH   2   3
BRANCH   2   5
ATOM      5  C   UNL     1      19.221  28.926 -10.897  1.00  0.00    -0.014 C 
ATOM      6  C   UNL     1      20.310  29.140 -11.959  1.00  0.00     0.007 C 
ATOM      7  C   UNL     1      17.953  29.717 -11.274  1.00  0.00     0.007 C 
ENDBRANCH   2   5
ENDBRANCH   1   2
BRANCH   1   8
ATOM      8  C   UNL     1      18.246  25.086 -11.551  1.00  0.00     0.004 C 
BRANCH   8   9
ATOM      9  C   UNL     1      18.602  24.072 -12.678  1.00  0.00    -0.011 C 
ATOM     10  C   UNL     1      17.584  24.220 -13.829  1.00  0.00     0.008 C 
BRANCH   9  11
ATOM     11  C   UNL     1      18.625  22.588 -12.151  1.00  0.00    -0.002 C 
ATOM     12  C   UNL     1      19.201  22.441 -10.739  1.00  0.00     0.005 C 
ATOM     13  C   UNL     1      19.395  21.506 -13.009  1.00  0.00    -0.026 C 
ATOM     14  C   UNL     1      19.537  20.975 -10.595  1.00  0.00     0.005 C 
ATOM     15  C   UNL     1      20.098  20.584 -11.958  1.00  0.00    -0.001 C 
ATOM     16  C   UNL     1      18.406  20.693 -13.906  1.00  0.00     0.007 C 
ATOM     17  C   UNL     1      20.502  22.110 -13.914  1.00  0.00     0.012 C 
ATOM     18  C   UNL     1      20.005  19.075 -12.308  1.00  0.00     0.004 C 
ATOM     19  C   UNL     1      17.625  19.619 -13.130  1.00  0.00     0.005 C 
ATOM     20  C   UNL     1      18.540  18.565 -12.434  1.00  0.00     0.003 C 
ATOM     21  C   UNL     1      20.794  18.195 -11.333  1.00  0.00     0.085 C 
ATOM     22  C   UNL     1      18.471  17.109 -13.043  1.00  0.00    -0.000 C 
ATOM     23  C   UNL     1      20.745  16.768 -11.782  1.00  0.00     0.159 C 
ATOM     24  C   UNL     1      19.492  16.196 -12.342  1.00  0.00     0.005 C 
ATOM     25  C   UNL     1      17.043  16.524 -12.810  1.00  0.00     0.020 C 
ATOM     26  C   UNL     1      18.797  17.118 -14.561  1.00  0.00     0.017 C 
ATOM     27  O   UNL     1      21.769  16.044 -11.631  1.00  0.00    -0.295 OA
ATOM     28  C   UNL     1      19.306  14.863 -12.300  1.00  0.00     0.055 C 
ATOM     29  C   UNL     1      16.911  15.059 -13.257  1.00  0.00     0.081 C 
ATOM     30  C   UNL     1      18.070  14.233 -12.786  1.00  0.00     0.156 C 
ATOM     31  O   UNL     1      17.985  12.976 -12.820  1.00  0.00    -0.295 OA
ENDBRANCH   9  11
ENDBRANCH   8   9
ENDBRANCH   1   8
TORSDOF 6
ENDMDL
