MODEL 1
REMARK VINA RESULT:    -5.673      0.000      0.000
REMARK INTER + INTRA:         -15.124
REMARK INTER:                 -12.306
REMARK INTRA:                  -2.818
REMARK UNBOUND:                -2.818
REMARK SMILES CCCCCCCCCCCCCCCCCCCCCC(=O)[O-]
REMARK SMILES IDX 12 1 11 2 10 3 9 4 8 5 7 6 6 7 5 8 4 9 3 10 2 11 1 12 13 13
REMARK SMILES IDX 14 14 15 15 16 16 17 17 18 18 19 19 20 20 21 21 22 22 23 23
REMARK SMILES IDX 24 24
REMARK H PARENT
REMARK Flexibility Score: inf
ROOT
ATOM      1  C   UNL     1      21.512  -0.878  62.094  1.00  0.00     0.000 C 
ENDROOT
BRANCH   1   2
ATOM      2  C   UNL     1      21.560  -1.323  60.622  1.00  0.00     0.000 C 
BRANCH   2   3
ATOM      3  C   UNL     1      21.335  -2.842  60.469  1.00  0.00     0.000 C 
BRANCH   3   4
ATOM      4  C   UNL     1      22.430  -3.551  59.655  1.00  0.00    -0.000 C 
BRANCH   4   5
ATOM      5  C   UNL     1      22.946  -2.701  58.483  1.00  0.00    -0.000 C 
BRANCH   5   6
ATOM      6  C   UNL     1      24.379  -3.070  58.054  1.00  0.00    -0.000 C 
BRANCH   6   7
ATOM      7  C   UNL     1      25.346  -3.405  59.205  1.00  0.00    -0.000 C 
BRANCH   7   8
ATOM      8  C   UNL     1      26.196  -2.202  59.650  1.00  0.00    -0.000 C 
BRANCH   8   9
ATOM      9  C   UNL     1      25.964  -1.832  61.124  1.00  0.00    -0.000 C 
BRANCH   9  10
ATOM     10  C   UNL     1      25.503  -3.030  61.968  1.00  0.00    -0.000 C 
BRANCH  10  11
ATOM     11  C   UNL     1      24.218  -2.700  62.735  1.00  0.00    -0.003 C 
ATOM     12  C   UNL     1      23.521  -3.971  63.216  1.00  0.00     0.004 C 
ENDBRANCH  10  11
ENDBRANCH   9  10
ENDBRANCH   8   9
ENDBRANCH   7   8
ENDBRANCH   6   7
ENDBRANCH   5   6
ENDBRANCH   4   5
ENDBRANCH   3   4
ENDBRANCH   2   3
ENDBRANCH   1   2
BRANCH   1  13
ATOM     13  C   UNL     1      20.747   0.441  62.291  1.00  0.00     0.000 C 
BRANCH  13  14
ATOM     14  C   UNL     1      21.673   1.607  62.678  1.00  0.00     0.000 C 
BRANCH  14  15
ATOM     15  C   UNL     1      23.062   1.496  62.029  1.00  0.00     0.000 C 
BRANCH  15  16
ATOM     16  C   UNL     1      23.679   2.869  61.718  1.00  0.00     0.000 C 
BRANCH  16  17
ATOM     17  C   UNL     1      25.190   2.866  61.986  1.00  0.00     0.000 C 
BRANCH  17  18
ATOM     18  C   UNL     1      25.622   1.565  62.676  1.00  0.00     0.000 C 
BRANCH  18  19
ATOM     19  C   UNL     1      26.319   1.856  64.013  1.00  0.00     0.000 C 
BRANCH  19  20
ATOM     20  C   UNL     1      25.851   3.173  64.652  1.00  0.00     0.006 C 
BRANCH  20  21
ATOM     21  C   UNL     1      24.931   2.954  65.861  1.00  0.00     0.053 C 
BRANCH  21  22
ATOM     22  C   UNL     1      23.504   3.200  65.486  1.00  0.00     0.041 C 
ATOM     23  O   UNL     1      22.589   2.490  65.980  1.00  0.00    -0.550 OA
ATOM     24  O   UNL     1      23.187   4.186  64.559  1.00  0.00    -0.550 OA
ENDBRANCH  21  22
ENDBRANCH  20  21
ENDBRANCH  19  20
ENDBRANCH  18  19
ENDBRANCH  17  18
ENDBRANCH  16  17
ENDBRANCH  15  16
ENDBRANCH  14  15
ENDBRANCH  13  14
ENDBRANCH   1  13
TORSDOF 20
ENDMDL
MODEL 2
REMARK VINA RESULT:    -5.534      3.004      6.901
REMARK INTER + INTRA:         -14.823
REMARK INTER:                 -12.079
REMARK INTRA:                  -2.744
REMARK UNBOUND:                -2.818
REMARK SMILES CCCCCCCCCCCCCCCCCCCCCC(=O)[O-]
REMARK SMILES IDX 12 1 11 2 10 3 9 4 8 5 7 6 6 7 5 8 4 9 3 10 2 11 1 12 13 13
REMARK SMILES IDX 14 14 15 15 16 16 17 17 18 18 19 19 20 20 21 21 22 22 23 23
REMARK SMILES IDX 24 24
REMARK H PARENT
REMARK Flexibility Score: inf
ROOT
ATOM      1  C   UNL     1      21.469  -0.078  61.504  1.00  0.00     0.000 C 
ENDROOT
BRANCH   1   2
ATOM      2  C   UNL     1      20.899   1.096  62.320  1.00  0.00     0.000 C 
BRANCH   2   3
ATOM      3  C   UNL     1      21.819   1.483  63.497  1.00  0.00     0.000 C 
BRANCH   3   4
ATOM      4  C   UNL     1      21.406   2.787  64.202  1.00  0.00    -0.000 C 
BRANCH   4   5
ATOM      5  C   UNL     1      22.611   3.621  64.666  1.00  0.00    -0.000 C 
BRANCH   5   6
ATOM      6  C   UNL     1      23.697   2.779  65.362  1.00  0.00    -0.000 C 
BRANCH   6   7
ATOM      7  C   UNL     1      25.095   3.423  65.420  1.00  0.00    -0.000 C 
BRANCH   7   8
ATOM      8  C   UNL     1      26.054   2.881  64.345  1.00  0.00    -0.000 C 
BRANCH   8   9
ATOM      9  C   UNL     1      25.508   1.623  63.650  1.00  0.00    -0.000 C 
BRANCH   9  10
ATOM     10  C   UNL     1      25.167   1.865  62.172  1.00  0.00    -0.000 C 
BRANCH  10  11
ATOM     11  C   UNL     1      24.966   3.359  61.893  1.00  0.00    -0.003 C 
ATOM     12  C   UNL     1      23.633   3.614  61.192  1.00  0.00     0.004 C 
ENDBRANCH  10  11
ENDBRANCH   9  10
ENDBRANCH   8   9
ENDBRANCH   7   8
ENDBRANCH   6   7
ENDBRANCH   5   6
ENDBRANCH   4   5
ENDBRANCH   3   4
ENDBRANCH   2   3
ENDBRANCH   1   2
BRANCH   1  13
ATOM     13  C   UNL     1      21.638  -1.356  62.341  1.00  0.00     0.000 C 
BRANCH  13  14
ATOM     14  C   UNL     1      22.501  -2.414  61.633  1.00  0.00     0.000 C 
BRANCH  14  15
ATOM     15  C   UNL     1      23.337  -3.248  62.619  1.00  0.00     0.000 C 
BRANCH  15  16
ATOM     16  C   UNL     1      24.846  -2.999  62.469  1.00  0.00     0.000 C 
BRANCH  16  17
ATOM     17  C   UNL     1      25.124  -1.557  62.026  1.00  0.00     0.000 C 
BRANCH  17  18
ATOM     18  C   UNL     1      26.160  -1.521  60.894  1.00  0.00     0.000 C 
BRANCH  18  19
ATOM     19  C   UNL     1      26.232  -2.872  60.169  1.00  0.00     0.000 C 
BRANCH  19  20
ATOM     20  C   UNL     1      25.483  -2.867  58.827  1.00  0.00     0.006 C 
BRANCH  20  21
ATOM     21  C   UNL     1      24.049  -3.403  58.945  1.00  0.00     0.053 C 
BRANCH  21  22
ATOM     22  C   UNL     1      23.173  -2.791  57.899  1.00  0.00     0.041 C 
ATOM     23  O   UNL     1      22.136  -2.159  58.233  1.00  0.00    -0.550 OA
ATOM     24  O   UNL     1      23.477  -2.953  56.552  1.00  0.00    -0.550 OA
ENDBRANCH  21  22
ENDBRANCH  20  21
ENDBRANCH  19  20
ENDBRANCH  18  19
ENDBRANCH  17  18
ENDBRANCH  16  17
ENDBRANCH  15  16
ENDBRANCH  14  15
ENDBRANCH  13  14
ENDBRANCH   1  13
TORSDOF 20
ENDMDL
MODEL 3
REMARK VINA RESULT:    -5.523      1.442      2.406
REMARK INTER + INTRA:         -14.799
REMARK INTER:                 -12.136
REMARK INTRA:                  -2.663
REMARK UNBOUND:                -2.818
REMARK SMILES CCCCCCCCCCCCCCCCCCCCCC(=O)[O-]
REMARK SMILES IDX 12 1 11 2 10 3 9 4 8 5 7 6 6 7 5 8 4 9 3 10 2 11 1 12 13 13
REMARK SMILES IDX 14 14 15 15 16 16 17 17 18 18 19 19 20 20 21 21 22 22 23 23
REMARK SMILES IDX 24 24
REMARK H PARENT
REMARK Flexibility Score: inf
ROOT
ATOM      1  C   UNL     1      20.925  -0.007  62.480  1.00  0.00     0.000 C 
ENDROOT
BRANCH   1   2
ATOM      2  C   UNL     1      21.843  -1.122  61.950  1.00  0.00     0.000 C 
BRANCH   2   3
ATOM      3  C   UNL     1      21.497  -1.514  60.497  1.00  0.00     0.000 C 
BRANCH   3   4
ATOM      4  C   UNL     1      21.335  -3.029  60.287  1.00  0.00    -0.000 C 
BRANCH   4   5
ATOM      5  C   UNL     1      22.595  -3.688  59.703  1.00  0.00    -0.000 C 
BRANCH   5   6
ATOM      6  C   UNL     1      23.495  -2.698  58.941  1.00  0.00    -0.000 C 
BRANCH   6   7
ATOM      7  C   UNL     1      24.921  -3.198  58.642  1.00  0.00    -0.000 C 
BRANCH   7   8
ATOM      8  C   UNL     1      25.855  -3.126  59.864  1.00  0.00    -0.000 C 
BRANCH   8   9
ATOM      9  C   UNL     1      25.762  -1.777  60.595  1.00  0.00    -0.000 C 
BRANCH   9  10
ATOM     10  C   UNL     1      25.234  -1.920  62.031  1.00  0.00    -0.000 C 
BRANCH  10  11
ATOM     11  C   UNL     1      25.090  -3.396  62.419  1.00  0.00    -0.003 C 
ATOM     12  C   UNL     1      23.743  -3.660  63.088  1.00  0.00     0.004 C 
ENDBRANCH  10  11
ENDBRANCH   9  10
ENDBRANCH   8   9
ENDBRANCH   7   8
ENDBRANCH   6   7
ENDBRANCH   5   6
ENDBRANCH   4   5
ENDBRANCH   3   4
ENDBRANCH   2   3
ENDBRANCH   1   2
BRANCH   1  13
ATOM     13  C   UNL     1      21.668   1.321  62.696  1.00  0.00     0.000 C 
BRANCH  13  14
ATOM     14  C   UNL     1      21.502   1.863  64.126  1.00  0.00     0.000 C 
BRANCH  14  15
ATOM     15  C   UNL     1      21.587   3.398  64.187  1.00  0.00     0.000 C 
BRANCH  15  16
ATOM     16  C   UNL     1      23.000   3.897  64.526  1.00  0.00     0.000 C 
BRANCH  16  17
ATOM     17  C   UNL     1      23.730   2.903  65.438  1.00  0.00     0.000 C 
BRANCH  17  18
ATOM     18  C   UNL     1      25.222   3.249  65.544  1.00  0.00     0.000 C 
BRANCH  18  19
ATOM     19  C   UNL     1      26.078   2.246  64.759  1.00  0.00     0.000 C 
BRANCH  19  20
ATOM     20  C   UNL     1      25.261   1.441  63.735  1.00  0.00     0.006 C 
BRANCH  20  21
ATOM     21  C   UNL     1      25.623   1.786  62.284  1.00  0.00     0.053 C 
BRANCH  21  22
ATOM     22  C   UNL     1      25.193   3.179  61.953  1.00  0.00     0.041 C 
ATOM     23  O   UNL     1      25.893   4.161  62.316  1.00  0.00    -0.550 OA
ATOM     24  O   UNL     1      23.997   3.398  61.279  1.00  0.00    -0.550 OA
ENDBRANCH  21  22
ENDBRANCH  20  21
ENDBRANCH  19  20
ENDBRANCH  18  19
ENDBRANCH  17  18
ENDBRANCH  16  17
ENDBRANCH  15  16
ENDBRANCH  14  15
ENDBRANCH  13  14
ENDBRANCH   1  13
TORSDOF 20
ENDMDL
MODEL 4
REMARK VINA RESULT:    -5.521      2.312      6.484
REMARK INTER + INTRA:         -14.795
REMARK INTER:                 -12.350
REMARK INTRA:                  -2.445
REMARK UNBOUND:                -2.818
REMARK SMILES CCCCCCCCCCCCCCCCCCCCCC(=O)[O-]
REMARK SMILES IDX 12 1 11 2 10 3 9 4 8 5 7 6 6 7 5 8 4 9 3 10 2 11 1 12 13 13
REMARK SMILES IDX 14 14 15 15 16 16 17 17 18 18 19 19 20 20 21 21 22 22 23 23
REMARK SMILES IDX 24 24
REMARK H PARENT
REMARK Flexibility Score: inf
ROOT
ATOM      1  C   UNL     1      21.035  -0.304  61.038  1.00  0.00     0.000 C 
ENDROOT
BRANCH   1   2
ATOM      2  C   UNL     1      21.263   0.274  62.446  1.00  0.00     0.000 C 
BRANCH   2   3
ATOM      3  C   UNL     1      22.223   1.483  62.425  1.00  0.00     0.000 C 
BRANCH   3   4
ATOM      4  C   UNL     1      21.735   2.675  63.267  1.00  0.00    -0.000 C 
BRANCH   4   5
ATOM      5  C   UNL     1      21.413   2.287  64.719  1.00  0.00    -0.000 C 
BRANCH   5   6
ATOM      6  C   UNL     1      22.612   2.458  65.669  1.00  0.00    -0.000 C 
BRANCH   6   7
ATOM      7  C   UNL     1      23.713   3.417  65.177  1.00  0.00    -0.000 C 
BRANCH   7   8
ATOM      8  C   UNL     1      25.124   2.997  65.625  1.00  0.00    -0.000 C 
BRANCH   8   9
ATOM      9  C   UNL     1      26.145   3.044  64.477  1.00  0.00    -0.000 C 
BRANCH   9  10
ATOM     10  C   UNL     1      25.557   3.642  63.189  1.00  0.00    -0.000 C 
BRANCH  10  11
ATOM     11  C   UNL     1      25.408   2.570  62.104  1.00  0.00    -0.003 C 
ATOM     12  C   UNL     1      25.863   1.204  62.613  1.00  0.00     0.004 C 
ENDBRANCH  10  11
ENDBRANCH   9  10
ENDBRANCH   8   9
ENDBRANCH   7   8
ENDBRANCH   6   7
ENDBRANCH   5   6
ENDBRANCH   4   5
ENDBRANCH   3   4
ENDBRANCH   2   3
ENDBRANCH   1   2
BRANCH   1  13
ATOM     13  C   UNL     1      21.380  -1.799  60.948  1.00  0.00     0.000 C 
BRANCH  13  14
ATOM     14  C   UNL     1      21.548  -2.278  59.496  1.00  0.00     0.000 C 
BRANCH  14  15
ATOM     15  C   UNL     1      22.630  -3.362  59.355  1.00  0.00     0.000 C 
BRANCH  15  16
ATOM     16  C   UNL     1      23.831  -2.892  58.519  1.00  0.00     0.000 C 
BRANCH  16  17
ATOM     17  C   UNL     1      25.145  -3.442  59.087  1.00  0.00     0.000 C 
BRANCH  17  18
ATOM     18  C   UNL     1      26.149  -2.309  59.343  1.00  0.00     0.000 C 
BRANCH  18  19
ATOM     19  C   UNL     1      25.894  -1.644  60.703  1.00  0.00     0.000 C 
BRANCH  19  20
ATOM     20  C   UNL     1      25.663  -2.665  61.829  1.00  0.00     0.006 C 
BRANCH  20  21
ATOM     21  C   UNL     1      24.336  -2.444  62.568  1.00  0.00     0.053 C 
BRANCH  21  22
ATOM     22  C   UNL     1      23.722  -3.754  62.947  1.00  0.00     0.041 C 
ATOM     23  O   UNL     1      23.625  -4.677  62.096  1.00  0.00    -0.550 OA
ATOM     24  O   UNL     1      23.217  -3.943  64.228  1.00  0.00    -0.550 OA
ENDBRANCH  21  22
ENDBRANCH  20  21
ENDBRANCH  19  20
ENDBRANCH  18  19
ENDBRANCH  17  18
ENDBRANCH  16  17
ENDBRANCH  15  16
ENDBRANCH  14  15
ENDBRANCH  13  14
ENDBRANCH   1  13
TORSDOF 20
ENDMDL
MODEL 5
REMARK VINA RESULT:    -5.506      1.535      4.104
REMARK INTER + INTRA:         -14.761
REMARK INTER:                 -11.858
REMARK INTRA:                  -2.903
REMARK UNBOUND:                -2.818
REMARK SMILES CCCCCCCCCCCCCCCCCCCCCC(=O)[O-]
REMARK SMILES IDX 12 1 11 2 10 3 9 4 8 5 7 6 6 7 5 8 4 9 3 10 2 11 1 12 13 13
REMARK SMILES IDX 14 14 15 15 16 16 17 17 18 18 19 19 20 20 21 21 22 22 23 23
REMARK SMILES IDX 24 24
REMARK H PARENT
REMARK Flexibility Score: inf
ROOT
ATOM      1  C   UNL     1      25.144   0.308  62.468  1.00  0.00     0.000 C 
ENDROOT
BRANCH   1   2
ATOM      2  C   UNL     1      25.783  -0.788  61.597  1.00  0.00     0.000 C 
BRANCH   2   3
ATOM      3  C   UNL     1      25.511  -2.201  62.154  1.00  0.00     0.000 C 
BRANCH   3   4
ATOM      4  C   UNL     1      25.615  -3.314  61.097  1.00  0.00    -0.000 C 
BRANCH   4   5
ATOM      5  C   UNL     1      26.095  -2.795  59.732  1.00  0.00    -0.000 C 
BRANCH   5   6
ATOM      6  C   UNL     1      25.047  -2.972  58.617  1.00  0.00    -0.000 C 
BRANCH   6   7
ATOM      7  C   UNL     1      23.633  -3.351  59.093  1.00  0.00    -0.000 C 
BRANCH   7   8
ATOM      8  C   UNL     1      22.535  -2.444  58.509  1.00  0.00    -0.000 C 
BRANCH   8   9
ATOM      9  C   UNL     1      21.469  -2.066  59.551  1.00  0.00    -0.000 C 
BRANCH   9  10
ATOM     10  C   UNL     1      21.771  -2.644  60.941  1.00  0.00    -0.000 C 
BRANCH  10  11
ATOM     11  C   UNL     1      22.048  -1.527  61.953  1.00  0.00    -0.003 C 
ATOM     12  C   UNL     1      21.002  -0.418  61.849  1.00  0.00     0.004 C 
ENDBRANCH  10  11
ENDBRANCH   9  10
ENDBRANCH   8   9
ENDBRANCH   7   8
ENDBRANCH   6   7
ENDBRANCH   5   6
ENDBRANCH   4   5
ENDBRANCH   3   4
ENDBRANCH   2   3
ENDBRANCH   1   2
BRANCH   1  13
ATOM     13  C   UNL     1      26.050   1.539  62.633  1.00  0.00     0.000 C 
BRANCH  13  14
ATOM     14  C   UNL     1      26.457   1.779  64.096  1.00  0.00     0.000 C 
BRANCH  14  15
ATOM     15  C   UNL     1      25.824   3.052  64.682  1.00  0.00     0.000 C 
BRANCH  15  16
ATOM     16  C   UNL     1      24.929   2.760  65.897  1.00  0.00     0.000 C 
BRANCH  16  17
ATOM     17  C   UNL     1      23.530   3.361  65.706  1.00  0.00     0.000 C 
BRANCH  17  18
ATOM     18  C   UNL     1      22.448   2.279  65.820  1.00  0.00     0.000 C 
BRANCH  18  19
ATOM     19  C   UNL     1      21.706   2.101  64.488  1.00  0.00     0.000 C 
BRANCH  19  20
ATOM     20  C   UNL     1      22.015   3.220  63.481  1.00  0.00     0.006 C 
BRANCH  20  21
ATOM     21  C   UNL     1      22.678   2.699  62.198  1.00  0.00     0.053 C 
BRANCH  21  22
ATOM     22  C   UNL     1      23.435   3.794  61.517  1.00  0.00     0.041 C 
ATOM     23  O   UNL     1      23.298   3.982  60.279  1.00  0.00    -0.550 OA
ATOM     24  O   UNL     1      24.323   4.582  62.239  1.00  0.00    -0.550 OA
ENDBRANCH  21  22
ENDBRANCH  20  21
ENDBRANCH  19  20
ENDBRANCH  18  19
ENDBRANCH  17  18
ENDBRANCH  16  17
ENDBRANCH  15  16
ENDBRANCH  14  15
ENDBRANCH  13  14
ENDBRANCH   1  13
TORSDOF 20
ENDMDL
MODEL 6
REMARK VINA RESULT:    -5.479      3.117      7.612
REMARK INTER + INTRA:         -14.702
REMARK INTER:                 -12.249
REMARK INTRA:                  -2.453
REMARK UNBOUND:                -2.818
REMARK SMILES CCCCCCCCCCCCCCCCCCCCCC(=O)[O-]
REMARK SMILES IDX 12 1 11 2 10 3 9 4 8 5 7 6 6 7 5 8 4 9 3 10 2 11 1 12 13 13
REMARK SMILES IDX 14 14 15 15 16 16 17 17 18 18 19 19 20 20 21 21 22 22 23 23
REMARK SMILES IDX 24 24
REMARK H PARENT
REMARK Flexibility Score: inf
ROOT
ATOM      1  C   UNL     1      25.870   0.895  62.471  1.00  0.00     0.000 C 
ENDROOT
BRANCH   1   2
ATOM      2  C   UNL     1      25.243   2.246  62.085  1.00  0.00     0.000 C 
BRANCH   2   3
ATOM      3  C   UNL     1      25.563   3.348  63.119  1.00  0.00     0.000 C 
BRANCH   3   4
ATOM      4  C   UNL     1      26.204   2.815  64.412  1.00  0.00    -0.000 C 
BRANCH   4   5
ATOM      5  C   UNL     1      25.324   3.044  65.651  1.00  0.00    -0.000 C 
BRANCH   5   6
ATOM      6  C   UNL     1      23.864   3.386  65.300  1.00  0.00    -0.000 C 
BRANCH   6   7
ATOM      7  C   UNL     1      22.796   2.605  66.088  1.00  0.00    -0.000 C 
BRANCH   7   8
ATOM      8  C   UNL     1      21.654   2.081  65.200  1.00  0.00    -0.000 C 
BRANCH   8   9
ATOM      9  C   UNL     1      21.545   2.845  63.870  1.00  0.00    -0.000 C 
BRANCH   9  10
ATOM     10  C   UNL     1      22.030   2.015  62.671  1.00  0.00    -0.000 C 
BRANCH  10  11
ATOM     11  C   UNL     1      21.339   0.648  62.634  1.00  0.00    -0.003 C 
ATOM     12  C   UNL     1      20.709   0.386  61.267  1.00  0.00     0.004 C 
ENDBRANCH  10  11
ENDBRANCH   9  10
ENDBRANCH   8   9
ENDBRANCH   7   8
ENDBRANCH   6   7
ENDBRANCH   5   6
ENDBRANCH   4   5
ENDBRANCH   3   4
ENDBRANCH   2   3
ENDBRANCH   1   2
BRANCH   1  13
ATOM     13  C   UNL     1      25.075  -0.304  61.930  1.00  0.00     0.000 C 
BRANCH  13  14
ATOM     14  C   UNL     1      25.985  -1.448  61.452  1.00  0.00     0.000 C 
BRANCH  14  15
ATOM     15  C   UNL     1      25.734  -2.759  62.216  1.00  0.00     0.000 C 
BRANCH  15  16
ATOM     16  C   UNL     1      25.476  -3.948  61.278  1.00  0.00     0.000 C 
BRANCH  16  17
ATOM     17  C   UNL     1      24.042  -4.470  61.434  1.00  0.00     0.000 C 
BRANCH  17  18
ATOM     18  C   UNL     1      23.183  -3.484  62.236  1.00  0.00     0.000 C 
BRANCH  18  19
ATOM     19  C   UNL     1      22.262  -2.676  61.311  1.00  0.00     0.000 C 
BRANCH  19  20
ATOM     20  C   UNL     1      22.099  -3.321  59.926  1.00  0.00     0.006 C 
BRANCH  20  21
ATOM     21  C   UNL     1      22.302  -2.323  58.778  1.00  0.00     0.053 C 
BRANCH  21  22
ATOM     22  C   UNL     1      23.434  -2.754  57.901  1.00  0.00     0.041 C 
ATOM     23  O   UNL     1      24.581  -2.930  58.391  1.00  0.00    -0.550 OA
ATOM     24  O   UNL     1      23.235  -2.921  56.536  1.00  0.00    -0.550 OA
ENDBRANCH  21  22
ENDBRANCH  20  21
ENDBRANCH  19  20
ENDBRANCH  18  19
ENDBRANCH  17  18
ENDBRANCH  16  17
ENDBRANCH  15  16
ENDBRANCH  14  15
ENDBRANCH  13  14
ENDBRANCH   1  13
TORSDOF 20
ENDMDL
MODEL 7
REMARK VINA RESULT:    -5.375      1.602      2.332
REMARK INTER + INTRA:         -14.478
REMARK INTER:                 -11.735
REMARK INTRA:                  -2.743
REMARK UNBOUND:                -2.818
REMARK SMILES CCCCCCCCCCCCCCCCCCCCCC(=O)[O-]
REMARK SMILES IDX 12 1 11 2 10 3 9 4 8 5 7 6 6 7 5 8 4 9 3 10 2 11 1 12 13 13
REMARK SMILES IDX 14 14 15 15 16 16 17 17 18 18 19 19 20 20 21 21 22 22 23 23
REMARK SMILES IDX 24 24
REMARK H PARENT
REMARK Flexibility Score: inf
ROOT
ATOM      1  C   UNL     1      21.614   0.539  62.019  1.00  0.00     0.000 C 
ENDROOT
BRANCH   1   2
ATOM      2  C   UNL     1      21.304  -0.399  60.839  1.00  0.00     0.000 C 
BRANCH   2   3
ATOM      3  C   UNL     1      21.411  -1.886  61.240  1.00  0.00     0.000 C 
BRANCH   3   4
ATOM      4  C   UNL     1      21.425  -2.849  60.040  1.00  0.00    -0.000 C 
BRANCH   4   5
ATOM      5  C   UNL     1      22.558  -2.547  59.047  1.00  0.00    -0.000 C 
BRANCH   5   6
ATOM      6  C   UNL     1      23.750  -3.513  59.177  1.00  0.00    -0.000 C 
BRANCH   6   7
ATOM      7  C   UNL     1      25.119  -2.930  58.780  1.00  0.00    -0.000 C 
BRANCH   7   8
ATOM      8  C   UNL     1      26.089  -2.803  59.968  1.00  0.00    -0.000 C 
BRANCH   8   9
ATOM      9  C   UNL     1      25.842  -1.531  60.796  1.00  0.00    -0.000 C 
BRANCH   9  10
ATOM     10  C   UNL     1      24.977  -1.795  62.038  1.00  0.00    -0.000 C 
BRANCH  10  11
ATOM     11  C   UNL     1      24.968  -3.286  62.394  1.00  0.00    -0.003 C 
ATOM     12  C   UNL     1      23.657  -3.682  63.072  1.00  0.00     0.004 C 
ENDBRANCH  10  11
ENDBRANCH   9  10
ENDBRANCH   8   9
ENDBRANCH   7   8
ENDBRANCH   6   7
ENDBRANCH   5   6
ENDBRANCH   4   5
ENDBRANCH   3   4
ENDBRANCH   2   3
ENDBRANCH   1   2
BRANCH   1  13
ATOM     13  C   UNL     1      20.855   0.154  63.299  1.00  0.00     0.000 C 
BRANCH  13  14
ATOM     14  C   UNL     1      21.012   1.201  64.415  1.00  0.00     0.000 C 
BRANCH  14  15
ATOM     15  C   UNL     1      21.372   2.593  63.870  1.00  0.00     0.000 C 
BRANCH  15  16
ATOM     16  C   UNL     1      22.392   3.327  64.755  1.00  0.00     0.000 C 
BRANCH  16  17
ATOM     17  C   UNL     1      23.360   4.159  63.904  1.00  0.00     0.000 C 
BRANCH  17  18
ATOM     18  C   UNL     1      23.354   3.684  62.444  1.00  0.00     0.000 C 
BRANCH  18  19
ATOM     19  C   UNL     1      24.692   3.032  62.071  1.00  0.00     0.000 C 
BRANCH  19  20
ATOM     20  C   UNL     1      24.912   1.683  62.774  1.00  0.00     0.006 C 
BRANCH  20  21
ATOM     21  C   UNL     1      26.375   1.456  63.181  1.00  0.00     0.053 C 
BRANCH  21  22
ATOM     22  C   UNL     1      26.621   1.972  64.563  1.00  0.00     0.041 C 
ATOM     23  O   UNL     1      25.707   2.575  65.185  1.00  0.00    -0.550 OA
ATOM     24  O   UNL     1      27.872   1.824  65.149  1.00  0.00    -0.550 OA
ENDBRANCH  21  22
ENDBRANCH  20  21
ENDBRANCH  19  20
ENDBRANCH  18  19
ENDBRANCH  17  18
ENDBRANCH  16  17
ENDBRANCH  15  16
ENDBRANCH  14  15
ENDBRANCH  13  14
ENDBRANCH   1  13
TORSDOF 20
ENDMDL
MODEL 8
REMARK VINA RESULT:    -5.365      2.389      7.157
REMARK INTER + INTRA:         -14.456
REMARK INTER:                 -11.703
REMARK INTRA:                  -2.753
REMARK UNBOUND:                -2.818
REMARK SMILES CCCCCCCCCCCCCCCCCCCCCC(=O)[O-]
REMARK SMILES IDX 12 1 11 2 10 3 9 4 8 5 7 6 6 7 5 8 4 9 3 10 2 11 1 12 13 13
REMARK SMILES IDX 14 14 15 15 16 16 17 17 18 18 19 19 20 20 21 21 22 22 23 23
REMARK SMILES IDX 24 24
REMARK H PARENT
REMARK Flexibility Score: inf
ROOT
ATOM      1  C   UNL     1      25.181  -0.147  61.996  1.00  0.00     0.000 C 
ENDROOT
BRANCH   1   2
ATOM      2  C   UNL     1      25.918   0.975  62.749  1.00  0.00     0.000 C 
BRANCH   2   3
ATOM      3  C   UNL     1      25.579   2.371  62.184  1.00  0.00     0.000 C 
BRANCH   3   4
ATOM      4  C   UNL     1      25.579   3.485  63.245  1.00  0.00    -0.000 C 
BRANCH   4   5
ATOM      5  C   UNL     1      25.827   2.954  64.666  1.00  0.00    -0.000 C 
BRANCH   5   6
ATOM      6  C   UNL     1      24.736   3.376  65.667  1.00  0.00    -0.000 C 
BRANCH   6   7
ATOM      7  C   UNL     1      23.380   2.664  65.504  1.00  0.00    -0.000 C 
BRANCH   7   8
ATOM      8  C   UNL     1      22.401   3.431  64.598  1.00  0.00    -0.000 C 
BRANCH   8   9
ATOM      9  C   UNL     1      21.506   2.493  63.771  1.00  0.00    -0.000 C 
BRANCH   9  10
ATOM     10  C   UNL     1      22.211   1.963  62.513  1.00  0.00    -0.000 C 
BRANCH  10  11
ATOM     11  C   UNL     1      21.469   0.752  61.936  1.00  0.00    -0.003 C 
ATOM     12  C   UNL     1      20.705   0.004  63.027  1.00  0.00     0.004 C 
ENDBRANCH  10  11
ENDBRANCH   9  10
ENDBRANCH   8   9
ENDBRANCH   7   8
ENDBRANCH   6   7
ENDBRANCH   5   6
ENDBRANCH   4   5
ENDBRANCH   3   4
ENDBRANCH   2   3
ENDBRANCH   1   2
BRANCH   1  13
ATOM     13  C   UNL     1      26.104  -1.320  61.630  1.00  0.00     0.000 C 
BRANCH  13  14
ATOM     14  C   UNL     1      26.199  -1.543  60.111  1.00  0.00     0.000 C 
BRANCH  14  15
ATOM     15  C   UNL     1      25.762  -2.958  59.695  1.00  0.00     0.000 C 
BRANCH  15  16
ATOM     16  C   UNL     1      25.005  -2.972  58.358  1.00  0.00     0.000 C 
BRANCH  16  17
ATOM     17  C   UNL     1      23.543  -3.390  58.558  1.00  0.00     0.000 C 
BRANCH  17  18
ATOM     18  C   UNL     1      22.612  -2.171  58.506  1.00  0.00     0.000 C 
BRANCH  18  19
ATOM     19  C   UNL     1      21.619  -2.185  59.677  1.00  0.00     0.000 C 
BRANCH  19  20
ATOM     20  C   UNL     1      21.959  -3.250  60.731  1.00  0.00     0.006 C 
BRANCH  20  21
ATOM     21  C   UNL     1      22.735  -2.677  61.925  1.00  0.00     0.053 C 
BRANCH  21  22
ATOM     22  C   UNL     1      23.466  -3.764  62.647  1.00  0.00     0.041 C 
ATOM     23  O   UNL     1      23.327  -3.902  63.891  1.00  0.00    -0.550 OA
ATOM     24  O   UNL     1      24.334  -4.599  61.954  1.00  0.00    -0.550 OA
ENDBRANCH  21  22
ENDBRANCH  20  21
ENDBRANCH  19  20
ENDBRANCH  18  19
ENDBRANCH  17  18
ENDBRANCH  16  17
ENDBRANCH  15  16
ENDBRANCH  14  15
ENDBRANCH  13  14
ENDBRANCH   1  13
TORSDOF 20
ENDMDL
MODEL 9
REMARK VINA RESULT:    -5.348      2.824      6.831
REMARK INTER + INTRA:         -14.419
REMARK INTER:                 -11.766
REMARK INTRA:                  -2.653
REMARK UNBOUND:                -2.818
REMARK SMILES CCCCCCCCCCCCCCCCCCCCCC(=O)[O-]
REMARK SMILES IDX 12 1 11 2 10 3 9 4 8 5 7 6 6 7 5 8 4 9 3 10 2 11 1 12 13 13
REMARK SMILES IDX 14 14 15 15 16 16 17 17 18 18 19 19 20 20 21 21 22 22 23 23
REMARK SMILES IDX 24 24
REMARK H PARENT
REMARK Flexibility Score: inf
ROOT
ATOM      1  C   UNL     1      20.700   0.570  62.744  1.00  0.00     0.000 C 
ENDROOT
BRANCH   1   2
ATOM      2  C   UNL     1      21.366   1.223  63.968  1.00  0.00     0.000 C 
BRANCH   2   3
ATOM      3  C   UNL     1      21.265   2.763  63.929  1.00  0.00     0.000 C 
BRANCH   3   4
ATOM      4  C   UNL     1      22.429   3.477  64.637  1.00  0.00    -0.000 C 
BRANCH   4   5
ATOM      5  C   UNL     1      22.968   2.688  65.842  1.00  0.00    -0.000 C 
BRANCH   5   6
ATOM      6  C   UNL     1      24.424   3.043  66.194  1.00  0.00    -0.000 C 
BRANCH   6   7
ATOM      7  C   UNL     1      25.326   3.394  64.995  1.00  0.00    -0.000 C 
BRANCH   7   8
ATOM      8  C   UNL     1      26.220   2.223  64.549  1.00  0.00    -0.000 C 
BRANCH   8   9
ATOM      9  C   UNL     1      25.852   1.702  63.151  1.00  0.00    -0.000 C 
BRANCH   9  10
ATOM     10  C   UNL     1      25.417   2.826  62.198  1.00  0.00    -0.000 C 
BRANCH  10  11
ATOM     11  C   UNL     1      23.986   2.597  61.697  1.00  0.00    -0.003 C 
ATOM     12  C   UNL     1      23.484   3.799  60.899  1.00  0.00     0.004 C 
ENDBRANCH  10  11
ENDBRANCH   9  10
ENDBRANCH   8   9
ENDBRANCH   7   8
ENDBRANCH   6   7
ENDBRANCH   5   6
ENDBRANCH   4   5
ENDBRANCH   3   4
ENDBRANCH   2   3
ENDBRANCH   1   2
BRANCH   1  13
ATOM     13  C   UNL     1      21.698  -0.204  61.867  1.00  0.00     0.000 C 
BRANCH  13  14
ATOM     14  C   UNL     1      21.051  -1.405  61.157  1.00  0.00     0.000 C 
BRANCH  14  15
ATOM     15  C   UNL     1      21.448  -1.496  59.675  1.00  0.00     0.000 C 
BRANCH  15  16
ATOM     16  C   UNL     1      22.302  -2.736  59.368  1.00  0.00     0.000 C 
BRANCH  16  17
ATOM     17  C   UNL     1      22.271  -3.728  60.538  1.00  0.00     0.000 C 
BRANCH  17  18
ATOM     18  C   UNL     1      23.692  -4.062  61.013  1.00  0.00     0.000 C 
BRANCH  18  19
ATOM     19  C   UNL     1      24.123  -3.135  62.158  1.00  0.00     0.000 C 
BRANCH  19  20
ATOM     20  C   UNL     1      25.569  -2.638  62.006  1.00  0.00     0.006 C 
BRANCH  20  21
ATOM     21  C   UNL     1      25.715  -1.548  60.935  1.00  0.00     0.053 C 
BRANCH  21  22
ATOM     22  C   UNL     1      26.361  -2.104  59.706  1.00  0.00     0.041 C 
ATOM     23  O   UNL     1      27.563  -1.833  59.445  1.00  0.00    -0.550 OA
ATOM     24  O   UNL     1      25.625  -2.888  58.825  1.00  0.00    -0.550 OA
ENDBRANCH  21  22
ENDBRANCH  20  21
ENDBRANCH  19  20
ENDBRANCH  18  19
ENDBRANCH  17  18
ENDBRANCH  16  17
ENDBRANCH  15  16
ENDBRANCH  14  15
ENDBRANCH  13  14
ENDBRANCH   1  13
TORSDOF 20
ENDMDL
