MODEL 1
REMARK VINA RESULT:    -6.749      0.000      0.000
REMARK INTER + INTRA:          -7.702
REMARK INTER:                  -7.340
REMARK INTRA:                  -0.361
REMARK UNBOUND:                -0.361
REMARK SMILES C=C1C[C@@]2(O)O[C@@]3(C[C@H]2C(C)C)[C@@H](C)CC[C@@H]13
REMARK SMILES IDX 14 1 13 2 15 3 16 4 17 5 7 6 8 7 9 8 4 9 6 10 3 11 2 12 1 13
REMARK SMILES IDX 10 14 11 15 12 16 5 17
REMARK H PARENT 5 18
REMARK Flexibility Score: inf
ROOT
ATOM      1  C   UNL     1      73.460  78.219 273.839  1.00  0.00     0.011 C 
ATOM      2  C   UNL     1      73.130  77.212 274.950  1.00  0.00     0.019 C 
ATOM      3  C   UNL     1      73.811  75.853 274.729  1.00  0.00     0.007 C 
ATOM      4  C   UNL     1      74.279  75.358 276.100  1.00  0.00     0.011 C 
ATOM      5  C   UNL     1      73.734  76.349 277.130  1.00  0.00     0.047 C 
ATOM      6  C   UNL     1      73.567  77.666 276.350  1.00  0.00     0.081 C 
ATOM      7  C   UNL     1      72.580  78.623 277.036  1.00  0.00     0.046 C 
ATOM      8  C   UNL     1      73.508  79.543 277.824  1.00  0.00     0.054 C 
ATOM      9  C   UNL     1      74.913  78.933 277.576  1.00  0.00     0.173 C 
ATOM     10  O   UNL     1      74.817  78.325 276.313  1.00  0.00    -0.342 OA
ATOM     11  C   UNL     1      75.366  77.835 278.579  1.00  0.00     0.096 C 
ATOM     12  C   UNL     1      74.654  76.516 278.330  1.00  0.00    -0.066 C 
ATOM     13  C   UNL     1      74.842  75.495 279.179  1.00  0.00     0.008 C 
ENDROOT
BRANCH   8  14
ATOM     14  C   UNL     1      73.106  79.879 279.302  1.00  0.00    -0.009 C 
ATOM     15  C   UNL     1      72.002  78.992 279.913  1.00  0.00     0.008 C 
ATOM     16  C   UNL     1      72.684  81.351 279.423  1.00  0.00     0.008 C 
ENDBRANCH   8  14
BRANCH   9  17
ATOM     17  O   UNL     1      75.885  79.948 277.513  1.00  0.00    -0.365 OA
ATOM     18  H   UNL     1      75.735  80.448 276.667  1.00  0.00     0.214 HD
ENDBRANCH   9  17
TORSDOF 2
ENDMDL
MODEL 2
REMARK VINA RESULT:    -6.714      1.581      4.432
REMARK INTER + INTRA:          -7.664
REMARK INTER:                  -7.302
REMARK INTRA:                  -0.363
REMARK UNBOUND:                -0.361
REMARK SMILES C=C1C[C@@]2(O)O[C@@]3(C[C@H]2C(C)C)[C@@H](C)CC[C@@H]13
REMARK SMILES IDX 14 1 13 2 15 3 16 4 17 5 7 6 8 7 9 8 4 9 6 10 3 11 2 12 1 13
REMARK SMILES IDX 10 14 11 15 12 16 5 17
REMARK H PARENT 5 18
REMARK Flexibility Score: inf
ROOT
ATOM      1  C   UNL     1      74.997  75.244 279.389  1.00  0.00     0.011 C 
ATOM      2  C   UNL     1      73.711  75.708 278.689  1.00  0.00     0.019 C 
ATOM      3  C   UNL     1      72.690  76.300 279.672  1.00  0.00     0.007 C 
ATOM      4  C   UNL     1      72.049  77.507 278.980  1.00  0.00     0.011 C 
ATOM      5  C   UNL     1      72.581  77.519 277.546  1.00  0.00     0.047 C 
ATOM      6  C   UNL     1      73.938  76.796 277.629  1.00  0.00     0.081 C 
ATOM      7  C   UNL     1      74.392  76.257 276.264  1.00  0.00     0.046 C 
ATOM      8  C   UNL     1      75.332  77.355 275.774  1.00  0.00     0.054 C 
ATOM      9  C   UNL     1      75.220  78.442 276.875  1.00  0.00     0.173 C 
ATOM     10  O   UNL     1      74.916  77.728 278.047  1.00  0.00    -0.342 OA
ATOM     11  C   UNL     1      74.098  79.499 276.679  1.00  0.00     0.096 C 
ATOM     12  C   UNL     1      72.724  78.926 276.984  1.00  0.00    -0.066 C 
ATOM     13  C   UNL     1      71.633  79.670 276.753  1.00  0.00     0.008 C 
ENDROOT
BRANCH   8  14
ATOM     14  C   UNL     1      75.192  77.810 274.279  1.00  0.00    -0.009 C 
ATOM     15  C   UNL     1      73.903  77.361 273.561  1.00  0.00     0.008 C 
ATOM     16  C   UNL     1      76.405  77.343 273.460  1.00  0.00     0.008 C 
ENDBRANCH   8  14
BRANCH   9  17
ATOM     17  O   UNL     1      76.457  79.089 277.053  1.00  0.00    -0.365 OA
ATOM     18  H   UNL     1      76.467  79.460 277.974  1.00  0.00     0.214 HD
ENDBRANCH   9  17
TORSDOF 2
ENDMDL
MODEL 3
REMARK VINA RESULT:    -6.463      1.696      4.850
REMARK INTER + INTRA:          -7.391
REMARK INTER:                  -7.034
REMARK INTRA:                  -0.357
REMARK UNBOUND:                -0.361
REMARK SMILES C=C1C[C@@]2(O)O[C@@]3(C[C@H]2C(C)C)[C@@H](C)CC[C@@H]13
REMARK SMILES IDX 14 1 13 2 15 3 16 4 17 5 7 6 8 7 9 8 4 9 6 10 3 11 2 12 1 13
REMARK SMILES IDX 10 14 11 15 12 16 5 17
REMARK H PARENT 5 18
REMARK Flexibility Score: inf
ROOT
ATOM      1  C   UNL     1      72.388  80.231 281.478  1.00  0.00     0.011 C 
ATOM      2  C   UNL     1      72.064  80.261 279.977  1.00  0.00     0.019 C 
ATOM      3  C   UNL     1      72.024  81.689 279.414  1.00  0.00     0.007 C 
ATOM      4  C   UNL     1      72.673  81.643 278.028  1.00  0.00     0.011 C 
ATOM      5  C   UNL     1      72.946  80.168 277.724  1.00  0.00     0.047 C 
ATOM      6  C   UNL     1      73.079  79.506 279.107  1.00  0.00     0.081 C 
ATOM      7  C   UNL     1      72.847  77.988 279.046  1.00  0.00     0.046 C 
ATOM      8  C   UNL     1      74.270  77.441 278.967  1.00  0.00     0.054 C 
ATOM      9  C   UNL     1      75.142  78.722 278.885  1.00  0.00     0.173 C 
ATOM     10  O   UNL     1      74.400  79.699 279.570  1.00  0.00    -0.342 OA
ATOM     11  C   UNL     1      75.414  79.272 277.456  1.00  0.00     0.096 C 
ATOM     12  C   UNL     1      74.192  79.963 276.876  1.00  0.00    -0.066 C 
ATOM     13  C   UNL     1      74.218  80.393 275.606  1.00  0.00     0.008 C 
ENDROOT
BRANCH   8  14
ATOM     14  C   UNL     1      74.547  76.300 277.927  1.00  0.00    -0.009 C 
ATOM     15  C   UNL     1      73.530  76.186 276.772  1.00  0.00     0.008 C 
ATOM     16  C   UNL     1      74.646  74.941 278.636  1.00  0.00     0.008 C 
ENDBRANCH   8  14
BRANCH   9  17
ATOM     17  O   UNL     1      76.361  78.529 279.560  1.00  0.00    -0.365 OA
ATOM     18  H   UNL     1      77.021  78.204 278.892  1.00  0.00     0.214 HD
ENDBRANCH   9  17
TORSDOF 2
ENDMDL
MODEL 4
REMARK VINA RESULT:    -6.385      1.934      4.208
REMARK INTER + INTRA:          -7.306
REMARK INTER:                  -7.125
REMARK INTRA:                  -0.182
REMARK UNBOUND:                -0.361
REMARK SMILES C=C1C[C@@]2(O)O[C@@]3(C[C@H]2C(C)C)[C@@H](C)CC[C@@H]13
REMARK SMILES IDX 14 1 13 2 15 3 16 4 17 5 7 6 8 7 9 8 4 9 6 10 3 11 2 12 1 13
REMARK SMILES IDX 10 14 11 15 12 16 5 17
REMARK H PARENT 5 18
REMARK Flexibility Score: inf
ROOT
ATOM      1  C   UNL     1      70.992  79.196 278.565  1.00  0.00     0.011 C 
ATOM      2  C   UNL     1      72.211  78.488 279.173  1.00  0.00     0.019 C 
ATOM      3  C   UNL     1      71.817  77.443 280.227  1.00  0.00     0.007 C 
ATOM      4  C   UNL     1      72.746  76.241 280.036  1.00  0.00     0.011 C 
ATOM      5  C   UNL     1      73.776  76.650 278.981  1.00  0.00     0.047 C 
ATOM      6  C   UNL     1      73.067  77.732 278.146  1.00  0.00     0.081 C 
ATOM      7  C   UNL     1      74.062  78.619 277.383  1.00  0.00     0.046 C 
ATOM      8  C   UNL     1      74.083  77.974 276.000  1.00  0.00     0.054 C 
ATOM      9  C   UNL     1      73.175  76.728 276.170  1.00  0.00     0.173 C 
ATOM     10  O   UNL     1      72.262  77.091 277.176  1.00  0.00    -0.342 OA
ATOM     11  C   UNL     1      73.882  75.427 276.643  1.00  0.00     0.096 C 
ATOM     12  C   UNL     1      74.233  75.481 278.121  1.00  0.00    -0.066 C 
ATOM     13  C   UNL     1      74.951  74.488 278.665  1.00  0.00     0.008 C 
ENDROOT
BRANCH   8  14
ATOM     14  C   UNL     1      75.483  77.771 275.320  1.00  0.00    -0.009 C 
ATOM     15  C   UNL     1      76.533  78.863 275.613  1.00  0.00     0.008 C 
ATOM     16  C   UNL     1      75.325  77.631 273.799  1.00  0.00     0.008 C 
ENDBRANCH   8  14
BRANCH   9  17
ATOM     17  O   UNL     1      72.460  76.477 274.985  1.00  0.00    -0.365 OA
ATOM     18  H   UNL     1      71.612  76.026 275.241  1.00  0.00     0.214 HD
ENDBRANCH   9  17
TORSDOF 2
ENDMDL
MODEL 5
REMARK VINA RESULT:    -6.348      1.934      3.651
REMARK INTER + INTRA:          -7.266
REMARK INTER:                  -6.903
REMARK INTRA:                  -0.363
REMARK UNBOUND:                -0.361
REMARK SMILES C=C1C[C@@]2(O)O[C@@]3(C[C@H]2C(C)C)[C@@H](C)CC[C@@H]13
REMARK SMILES IDX 14 1 13 2 15 3 16 4 17 5 7 6 8 7 9 8 4 9 6 10 3 11 2 12 1 13
REMARK SMILES IDX 10 14 11 15 12 16 5 17
REMARK H PARENT 5 18
REMARK Flexibility Score: inf
ROOT
ATOM      1  C   UNL     1      72.775  76.258 279.883  1.00  0.00     0.011 C 
ATOM      2  C   UNL     1      73.938  76.323 278.882  1.00  0.00     0.019 C 
ATOM      3  C   UNL     1      74.276  74.949 278.287  1.00  0.00     0.007 C 
ATOM      4  C   UNL     1      74.595  75.167 276.805  1.00  0.00     0.011 C 
ATOM      5  C   UNL     1      74.595  76.680 276.579  1.00  0.00     0.047 C 
ATOM      6  C   UNL     1      73.670  77.237 277.676  1.00  0.00     0.081 C 
ATOM      7  C   UNL     1      73.926  78.727 277.949  1.00  0.00     0.046 C 
ATOM      8  C   UNL     1      72.852  79.405 277.103  1.00  0.00     0.054 C 
ATOM      9  C   UNL     1      72.177  78.220 276.363  1.00  0.00     0.173 C 
ATOM     10  O   UNL     1      72.333  77.126 277.232  1.00  0.00    -0.342 OA
ATOM     11  C   UNL     1      72.808  77.816 275.001  1.00  0.00     0.096 C 
ATOM     12  C   UNL     1      74.117  77.067 275.187  1.00  0.00    -0.066 C 
ATOM     13  C   UNL     1      74.852  76.747 274.112  1.00  0.00     0.008 C 
ENDROOT
BRANCH   8  14
ATOM     14  C   UNL     1      73.284  80.648 276.250  1.00  0.00    -0.009 C 
ATOM     15  C   UNL     1      74.803  80.821 276.041  1.00  0.00     0.008 C 
ATOM     16  C   UNL     1      72.718  81.940 276.858  1.00  0.00     0.008 C 
ENDBRANCH   8  14
BRANCH   9  17
ATOM     17  O   UNL     1      70.802  78.466 276.195  1.00  0.00    -0.365 OA
ATOM     18  H   UNL     1      70.350  78.214 277.043  1.00  0.00     0.214 HD
ENDBRANCH   9  17
TORSDOF 2
ENDMDL
MODEL 6
REMARK VINA RESULT:    -6.246      1.917      3.787
REMARK INTER + INTRA:          -7.155
REMARK INTER:                  -6.837
REMARK INTRA:                  -0.318
REMARK UNBOUND:                -0.361
REMARK SMILES C=C1C[C@@]2(O)O[C@@]3(C[C@H]2C(C)C)[C@@H](C)CC[C@@H]13
REMARK SMILES IDX 14 1 13 2 15 3 16 4 17 5 7 6 8 7 9 8 4 9 6 10 3 11 2 12 1 13
REMARK SMILES IDX 10 14 11 15 12 16 5 17
REMARK H PARENT 5 18
REMARK Flexibility Score: inf
ROOT
ATOM      1  C   UNL     1      74.525  75.204 278.526  1.00  0.00     0.011 C 
ATOM      2  C   UNL     1      73.165  75.873 278.776  1.00  0.00     0.019 C 
ATOM      3  C   UNL     1      72.578  75.513 280.148  1.00  0.00     0.007 C 
ATOM      4  C   UNL     1      71.933  76.784 280.707  1.00  0.00     0.011 C 
ATOM      5  C   UNL     1      72.007  77.834 279.597  1.00  0.00     0.047 C 
ATOM      6  C   UNL     1      73.212  77.407 278.740  1.00  0.00     0.081 C 
ATOM      7  C   UNL     1      73.156  78.004 277.325  1.00  0.00     0.046 C 
ATOM      8  C   UNL     1      74.049  79.236 277.452  1.00  0.00     0.054 C 
ATOM      9  C   UNL     1      74.424  79.253 278.958  1.00  0.00     0.173 C 
ATOM     10  O   UNL     1      74.389  77.902 279.346  1.00  0.00    -0.342 OA
ATOM     11  C   UNL     1      73.452  80.023 279.895  1.00  0.00     0.096 C 
ATOM     12  C   UNL     1      72.167  79.248 280.135  1.00  0.00    -0.066 C 
ATOM     13  C   UNL     1      71.171  79.821 280.826  1.00  0.00     0.008 C 
ENDROOT
BRANCH   8  14
ATOM     14  C   UNL     1      73.531  80.571 276.812  1.00  0.00    -0.009 C 
ATOM     15  C   UNL     1      72.242  80.455 275.974  1.00  0.00     0.008 C 
ATOM     16  C   UNL     1      74.628  81.212 275.949  1.00  0.00     0.008 C 
ENDBRANCH   8  14
BRANCH   9  17
ATOM     17  O   UNL     1      75.734  79.736 279.131  1.00  0.00    -0.365 OA
ATOM     18  H   UNL     1      76.331  79.178 278.568  1.00  0.00     0.214 HD
ENDBRANCH   9  17
TORSDOF 2
ENDMDL
MODEL 7
REMARK VINA RESULT:    -6.032      2.120      3.701
REMARK INTER + INTRA:          -6.922
REMARK INTER:                  -6.560
REMARK INTRA:                  -0.363
REMARK UNBOUND:                -0.361
REMARK SMILES C=C1C[C@@]2(O)O[C@@]3(C[C@H]2C(C)C)[C@@H](C)CC[C@@H]13
REMARK SMILES IDX 14 1 13 2 15 3 16 4 17 5 7 6 8 7 9 8 4 9 6 10 3 11 2 12 1 13
REMARK SMILES IDX 10 14 11 15 12 16 5 17
REMARK H PARENT 5 18
REMARK Flexibility Score: inf
ROOT
ATOM      1  C   UNL     1      74.908  75.490 279.248  1.00  0.00     0.011 C 
ATOM      2  C   UNL     1      74.609  76.352 278.013  1.00  0.00     0.019 C 
ATOM      3  C   UNL     1      74.283  75.508 276.773  1.00  0.00     0.007 C 
ATOM      4  C   UNL     1      73.147  76.219 276.032  1.00  0.00     0.011 C 
ATOM      5  C   UNL     1      72.923  77.549 276.753  1.00  0.00     0.047 C 
ATOM      6  C   UNL     1      73.412  77.298 278.191  1.00  0.00     0.081 C 
ATOM      7  C   UNL     1      73.748  78.605 278.925  1.00  0.00     0.046 C 
ATOM      8  C   UNL     1      72.470  78.877 279.714  1.00  0.00     0.054 C 
ATOM      9  C   UNL     1      71.515  77.744 279.252  1.00  0.00     0.173 C 
ATOM     10  O   UNL     1      72.368  76.679 278.916  1.00  0.00    -0.342 OA
ATOM     11  C   UNL     1      70.649  78.050 277.998  1.00  0.00     0.096 C 
ATOM     12  C   UNL     1      71.469  77.998 276.720  1.00  0.00    -0.066 C 
ATOM     13  C   UNL     1      70.902  78.351 275.558  1.00  0.00     0.008 C 
ENDROOT
BRANCH   8  14
ATOM     14  C   UNL     1      71.918  80.346 279.709  1.00  0.00    -0.009 C 
ATOM     15  C   UNL     1      72.509  81.279 278.633  1.00  0.00     0.008 C 
ATOM     16  C   UNL     1      72.110  80.995 281.088  1.00  0.00     0.008 C 
ENDBRANCH   8  14
BRANCH   9  17
ATOM     17  O   UNL     1      70.687  77.338 280.314  1.00  0.00    -0.365 OA
ATOM     18  H   UNL     1      69.773  77.217 279.946  1.00  0.00     0.214 HD
ENDBRANCH   9  17
TORSDOF 2
ENDMDL
MODEL 8
REMARK VINA RESULT:    -5.970      1.961      3.817
REMARK INTER + INTRA:          -6.854
REMARK INTER:                  -6.713
REMARK INTRA:                  -0.141
REMARK UNBOUND:                -0.361
REMARK SMILES C=C1C[C@@]2(O)O[C@@]3(C[C@H]2C(C)C)[C@@H](C)CC[C@@H]13
REMARK SMILES IDX 14 1 13 2 15 3 16 4 17 5 7 6 8 7 9 8 4 9 6 10 3 11 2 12 1 13
REMARK SMILES IDX 10 14 11 15 12 16 5 17
REMARK H PARENT 5 18
REMARK Flexibility Score: inf
ROOT
ATOM      1  C   UNL     1      70.275  78.030 275.663  1.00  0.00     0.011 C 
ATOM      2  C   UNL     1      71.638  78.039 274.957  1.00  0.00     0.019 C 
ATOM      3  C   UNL     1      71.936  79.382 274.274  1.00  0.00     0.007 C 
ATOM      4  C   UNL     1      73.421  79.680 274.500  1.00  0.00     0.011 C 
ATOM      5  C   UNL     1      74.016  78.442 275.173  1.00  0.00     0.047 C 
ATOM      6  C   UNL     1      72.827  77.784 275.895  1.00  0.00     0.081 C 
ATOM      7  C   UNL     1      73.081  76.299 276.197  1.00  0.00     0.046 C 
ATOM      8  C   UNL     1      73.568  76.336 277.643  1.00  0.00     0.054 C 
ATOM      9  C   UNL     1      73.634  77.853 277.961  1.00  0.00     0.173 C 
ATOM     10  O   UNL     1      72.648  78.429 277.141  1.00  0.00    -0.342 OA
ATOM     11  C   UNL     1      74.976  78.562 277.629  1.00  0.00     0.096 C 
ATOM     12  C   UNL     1      75.145  78.780 276.135  1.00  0.00    -0.066 C 
ATOM     13  C   UNL     1      76.300  79.275 275.667  1.00  0.00     0.008 C 
ENDROOT
BRANCH   8  14
ATOM     14  C   UNL     1      74.816  75.457 278.006  1.00  0.00    -0.009 C 
ATOM     15  C   UNL     1      74.874  74.069 277.337  1.00  0.00     0.008 C 
ATOM     16  C   UNL     1      74.921  75.279 279.528  1.00  0.00     0.008 C 
ENDBRANCH   8  14
BRANCH   9  17
ATOM     17  O   UNL     1      73.292  78.087 279.305  1.00  0.00    -0.365 OA
ATOM     18  H   UNL     1      72.478  77.553 279.501  1.00  0.00     0.214 HD
ENDBRANCH   9  17
TORSDOF 2
ENDMDL
MODEL 9
REMARK VINA RESULT:    -5.875      1.981      3.883
REMARK INTER + INTRA:          -6.752
REMARK INTER:                  -6.393
REMARK INTRA:                  -0.359
REMARK UNBOUND:                -0.361
REMARK SMILES C=C1C[C@@]2(O)O[C@@]3(C[C@H]2C(C)C)[C@@H](C)CC[C@@H]13
REMARK SMILES IDX 14 1 13 2 15 3 16 4 17 5 7 6 8 7 9 8 4 9 6 10 3 11 2 12 1 13
REMARK SMILES IDX 10 14 11 15 12 16 5 17
REMARK H PARENT 5 18
REMARK Flexibility Score: inf
ROOT
ATOM      1  C   UNL     1      74.450  75.748 277.171  1.00  0.00     0.011 C 
ATOM      2  C   UNL     1      74.623  76.814 276.079  1.00  0.00     0.019 C 
ATOM      3  C   UNL     1      74.711  76.203 274.673  1.00  0.00     0.007 C 
ATOM      4  C   UNL     1      73.925  77.123 273.735  1.00  0.00     0.011 C 
ATOM      5  C   UNL     1      73.516  78.343 274.563  1.00  0.00     0.047 C 
ATOM      6  C   UNL     1      73.474  77.830 276.014  1.00  0.00     0.081 C 
ATOM      7  C   UNL     1      73.586  78.972 277.035  1.00  0.00     0.046 C 
ATOM      8  C   UNL     1      72.126  79.239 277.391  1.00  0.00     0.054 C 
ATOM      9  C   UNL     1      71.346  78.285 276.448  1.00  0.00     0.173 C 
ATOM     10  O   UNL     1      72.223  77.208 276.231  1.00  0.00    -0.342 OA
ATOM     11  C   UNL     1      70.974  78.859 275.052  1.00  0.00     0.096 C 
ATOM     12  C   UNL     1      72.179  78.926 274.130  1.00  0.00    -0.066 C 
ATOM     13  C   UNL     1      72.057  79.505 272.927  1.00  0.00     0.008 C 
ENDROOT
BRANCH   8  14
ATOM     14  C   UNL     1      71.663  80.736 277.463  1.00  0.00    -0.009 C 
ATOM     15  C   UNL     1      72.651  81.769 276.883  1.00  0.00     0.008 C 
ATOM     16  C   UNL     1      71.331  81.126 278.911  1.00  0.00     0.008 C 
ENDBRANCH   8  14
BRANCH   9  17
ATOM     17  O   UNL     1      70.190  77.801 277.087  1.00  0.00    -0.365 OA
ATOM     18  H   UNL     1      69.786  77.118 276.489  1.00  0.00     0.214 HD
ENDBRANCH   9  17
TORSDOF 2
ENDMDL
