MODEL 1
REMARK VINA RESULT:    -4.141      0.000      0.000
REMARK INTER + INTRA:          -6.987
REMARK INTER:                  -6.319
REMARK INTRA:                  -0.668
REMARK UNBOUND:                -0.668
REMARK SMILES O=C([O-])CCCCCCCCC(=O)[O-]
REMARK SMILES IDX 7 1 6 2 5 3 4 4 2 5 1 6 3 7 8 8 9 9 10 10 11 11 12 12 13 13
REMARK SMILES IDX 14 14
REMARK H PARENT
REMARK Flexibility Score: inf
ROOT
ATOM      1  C   UNL     1      39.393  21.756 225.254  1.00  0.00     0.000 C 
ENDROOT
BRANCH   1   2
ATOM      2  C   UNL     1      37.932  22.093 224.903  1.00  0.00     0.000 C 
BRANCH   2   3
ATOM      3  C   UNL     1      37.234  22.937 225.983  1.00  0.00     0.006 C 
BRANCH   3   4
ATOM      4  C   UNL     1      37.331  24.441 225.695  1.00  0.00     0.053 C 
BRANCH   4   5
ATOM      5  C   UNL     1      36.084  24.965 225.052  1.00  0.00     0.041 C 
ATOM      6  O   UNL     1      35.548  26.024 225.474  1.00  0.00    -0.550 OA
ATOM      7  O   UNL     1      35.496  24.269 224.003  1.00  0.00    -0.550 OA
ENDBRANCH   4   5
ENDBRANCH   3   4
ENDBRANCH   2   3
ENDBRANCH   1   2
BRANCH   1   8
ATOM      8  C   UNL     1      39.842  20.332 224.876  1.00  0.00     0.000 C 
BRANCH   8   9
ATOM      9  C   UNL     1      39.762  19.347 226.051  1.00  0.00     0.000 C 
BRANCH   9  10
ATOM     10  C   UNL     1      38.526  18.442 225.927  1.00  0.00     0.006 C 
BRANCH  10  11
ATOM     11  C   UNL     1      37.385  18.885 226.853  1.00  0.00     0.053 C 
BRANCH  11  12
ATOM     12  C   UNL     1      36.101  19.069 226.104  1.00  0.00     0.041 C 
ATOM     13  O   UNL     1      35.295  19.977 226.441  1.00  0.00    -0.550 OA
ATOM     14  O   UNL     1      35.778  18.216 225.056  1.00  0.00    -0.550 OA
ENDBRANCH  11  12
ENDBRANCH  10  11
ENDBRANCH   9  10
ENDBRANCH   8   9
ENDBRANCH   1   8
TORSDOF 9
ENDMDL
MODEL 2
REMARK VINA RESULT:    -4.136      1.567      2.293
REMARK INTER + INTRA:          -6.980
REMARK INTER:                  -6.185
REMARK INTRA:                  -0.795
REMARK UNBOUND:                -0.668
REMARK SMILES O=C([O-])CCCCCCCCC(=O)[O-]
REMARK SMILES IDX 7 1 6 2 5 3 4 4 2 5 1 6 3 7 8 8 9 9 10 10 11 11 12 12 13 13
REMARK SMILES IDX 14 14
REMARK H PARENT
REMARK Flexibility Score: inf
ROOT
ATOM      1  C   UNL     1      40.002  23.333 224.623  1.00  0.00     0.000 C 
ENDROOT
BRANCH   1   2
ATOM      2  C   UNL     1      39.526  24.459 223.686  1.00  0.00     0.000 C 
BRANCH   2   3
ATOM      3  C   UNL     1      38.581  25.456 224.378  1.00  0.00     0.006 C 
BRANCH   3   4
ATOM      4  C   UNL     1      37.218  25.544 223.679  1.00  0.00     0.053 C 
BRANCH   4   5
ATOM      5  C   UNL     1      36.171  24.753 224.401  1.00  0.00     0.041 C 
ATOM      6  O   UNL     1      35.730  23.682 223.906  1.00  0.00    -0.550 OA
ATOM      7  O   UNL     1      35.661  25.212 225.609  1.00  0.00    -0.550 OA
ENDBRANCH   4   5
ENDBRANCH   3   4
ENDBRANCH   2   3
ENDBRANCH   1   2
BRANCH   1   8
ATOM      8  C   UNL     1      38.965  22.227 224.891  1.00  0.00     0.000 C 
BRANCH   8   9
ATOM      9  C   UNL     1      38.401  22.267 226.319  1.00  0.00     0.000 C 
BRANCH   9  10
ATOM     10  C   UNL     1      37.038  21.563 226.391  1.00  0.00     0.006 C 
BRANCH  10  11
ATOM     11  C   UNL     1      36.881  20.485 225.310  1.00  0.00     0.053 C 
BRANCH  11  12
ATOM     12  C   UNL     1      35.894  19.433 225.714  1.00  0.00     0.041 C 
ATOM     13  O   UNL     1      35.002  19.693 226.564  1.00  0.00    -0.550 OA
ATOM     14  O   UNL     1      35.981  18.154 225.176  1.00  0.00    -0.550 OA
ENDBRANCH  11  12
ENDBRANCH  10  11
ENDBRANCH   9  10
ENDBRANCH   8   9
ENDBRANCH   1   8
TORSDOF 9
ENDMDL
MODEL 3
REMARK VINA RESULT:    -4.129      0.919      5.187
REMARK INTER + INTRA:          -6.970
REMARK INTER:                  -6.185
REMARK INTRA:                  -0.785
REMARK UNBOUND:                -0.668
REMARK SMILES O=C([O-])CCCCCCCCC(=O)[O-]
REMARK SMILES IDX 7 1 6 2 5 3 4 4 2 5 1 6 3 7 8 8 9 9 10 10 11 11 12 12 13 13
REMARK SMILES IDX 14 14
REMARK H PARENT
REMARK Flexibility Score: inf
ROOT
ATOM      1  C   UNL     1      39.350  20.943 226.892  1.00  0.00     0.000 C 
ENDROOT
BRANCH   1   2
ATOM      2  C   UNL     1      39.600  19.901 225.786  1.00  0.00     0.000 C 
BRANCH   2   3
ATOM      3  C   UNL     1      38.515  18.812 225.731  1.00  0.00     0.006 C 
BRANCH   3   4
ATOM      4  C   UNL     1      37.460  18.991 226.831  1.00  0.00     0.053 C 
BRANCH   4   5
ATOM      5  C   UNL     1      36.105  19.280 226.261  1.00  0.00     0.041 C 
ATOM      6  O   UNL     1      35.629  18.549 225.353  1.00  0.00    -0.550 OA
ATOM      7  O   UNL     1      35.379  20.375 226.713  1.00  0.00    -0.550 OA
ENDBRANCH   4   5
ENDBRANCH   3   4
ENDBRANCH   2   3
ENDBRANCH   1   2
BRANCH   1   8
ATOM      8  C   UNL     1      39.054  22.368 226.389  1.00  0.00     0.000 C 
BRANCH   8   9
ATOM      9  C   UNL     1      38.561  22.400 224.936  1.00  0.00     0.000 C 
BRANCH   9  10
ATOM     10  C   UNL     1      37.108  22.894 224.859  1.00  0.00     0.006 C 
BRANCH  10  11
ATOM     11  C   UNL     1      36.847  24.082 225.795  1.00  0.00     0.053 C 
BRANCH  11  12
ATOM     12  C   UNL     1      36.292  25.261 225.055  1.00  0.00     0.041 C 
ATOM     13  O   UNL     1      35.390  25.969 225.577  1.00  0.00    -0.550 OA
ATOM     14  O   UNL     1      36.745  25.556 223.775  1.00  0.00    -0.550 OA
ENDBRANCH  11  12
ENDBRANCH  10  11
ENDBRANCH   9  10
ENDBRANCH   8   9
ENDBRANCH   1   8
TORSDOF 9
ENDMDL
MODEL 4
REMARK VINA RESULT:    -4.091      3.587      4.882
REMARK INTER + INTRA:          -6.912
REMARK INTER:                  -6.210
REMARK INTRA:                  -0.701
REMARK UNBOUND:                -0.668
REMARK SMILES O=C([O-])CCCCCCCCC(=O)[O-]
REMARK SMILES IDX 7 1 6 2 5 3 4 4 2 5 1 6 3 7 8 8 9 9 10 10 11 11 12 12 13 13
REMARK SMILES IDX 14 14
REMARK H PARENT
REMARK Flexibility Score: inf
ROOT
ATOM      1  C   UNL     1      39.585  23.929 226.106  1.00  0.00     0.000 C 
ENDROOT
BRANCH   1   2
ATOM      2  C   UNL     1      39.650  25.188 225.222  1.00  0.00     0.000 C 
BRANCH   2   3
ATOM      3  C   UNL     1      38.367  26.035 225.289  1.00  0.00     0.006 C 
BRANCH   3   4
ATOM      4  C   UNL     1      37.311  25.566 224.279  1.00  0.00     0.053 C 
BRANCH   4   5
ATOM      5  C   UNL     1      36.172  24.863 224.951  1.00  0.00     0.041 C 
ATOM      6  O   UNL     1      36.158  23.606 225.028  1.00  0.00    -0.550 OA
ATOM      7  O   UNL     1      35.111  25.595 225.469  1.00  0.00    -0.550 OA
ENDBRANCH   4   5
ENDBRANCH   3   4
ENDBRANCH   2   3
ENDBRANCH   1   2
BRANCH   1   8
ATOM      8  C   UNL     1      39.935  22.612 225.390  1.00  0.00     0.000 C 
BRANCH   8   9
ATOM      9  C   UNL     1      39.475  22.585 223.925  1.00  0.00     0.000 C 
BRANCH   9  10
ATOM     10  C   UNL     1      40.662  22.785 222.972  1.00  0.00     0.006 C 
BRANCH  10  11
ATOM     11  C   UNL     1      41.963  22.192 223.529  1.00  0.00     0.053 C 
BRANCH  11  12
ATOM     12  C   UNL     1      42.479  21.079 222.669  1.00  0.00     0.041 C 
ATOM     13  O   UNL     1      41.678  20.350 222.028  1.00  0.00    -0.550 OA
ATOM     14  O   UNL     1      43.844  20.826 222.605  1.00  0.00    -0.550 OA
ENDBRANCH  11  12
ENDBRANCH  10  11
ENDBRANCH   9  10
ENDBRANCH   8   9
ENDBRANCH   1   8
TORSDOF 9
ENDMDL
MODEL 5
REMARK VINA RESULT:    -4.080      1.528      5.570
REMARK INTER + INTRA:          -6.895
REMARK INTER:                  -6.297
REMARK INTRA:                  -0.598
REMARK UNBOUND:                -0.668
REMARK SMILES O=C([O-])CCCCCCCCC(=O)[O-]
REMARK SMILES IDX 7 1 6 2 5 3 4 4 2 5 1 6 3 7 8 8 9 9 10 10 11 11 12 12 13 13
REMARK SMILES IDX 14 14
REMARK H PARENT
REMARK Flexibility Score: inf
ROOT
ATOM      1  C   UNL     1      38.607  21.575 225.614  1.00  0.00     0.000 C 
ENDROOT
BRANCH   1   2
ATOM      2  C   UNL     1      37.073  21.434 225.604  1.00  0.00     0.000 C 
BRANCH   2   3
ATOM      3  C   UNL     1      36.521  20.792 226.888  1.00  0.00     0.006 C 
BRANCH   3   4
ATOM      4  C   UNL     1      37.293  19.525 227.280  1.00  0.00     0.053 C 
BRANCH   4   5
ATOM      5  C   UNL     1      36.449  18.295 227.141  1.00  0.00     0.041 C 
ATOM      6  O   UNL     1      36.356  17.478 228.095  1.00  0.00    -0.550 OA
ATOM      7  O   UNL     1      35.787  18.037 225.948  1.00  0.00    -0.550 OA
ENDBRANCH   4   5
ENDBRANCH   3   4
ENDBRANCH   2   3
ENDBRANCH   1   2
BRANCH   1   8
ATOM      8  C   UNL     1      39.186  22.472 224.505  1.00  0.00     0.000 C 
BRANCH   8   9
ATOM      9  C   UNL     1      39.860  23.739 225.050  1.00  0.00     0.000 C 
BRANCH   9  10
ATOM     10  C   UNL     1      38.911  24.945 224.969  1.00  0.00     0.006 C 
BRANCH  10  11
ATOM     11  C   UNL     1      37.873  24.794 223.849  1.00  0.00     0.053 C 
BRANCH  11  12
ATOM     12  C   UNL     1      36.479  25.026 224.348  1.00  0.00     0.041 C 
ATOM     13  O   UNL     1      36.248  25.945 225.177  1.00  0.00    -0.550 OA
ATOM     14  O   UNL     1      35.443  24.203 223.924  1.00  0.00    -0.550 OA
ENDBRANCH  11  12
ENDBRANCH  10  11
ENDBRANCH   9  10
ENDBRANCH   8   9
ENDBRANCH   1   8
TORSDOF 9
ENDMDL
MODEL 6
REMARK VINA RESULT:    -4.079      3.924      5.634
REMARK INTER + INTRA:          -6.893
REMARK INTER:                  -5.920
REMARK INTRA:                  -0.973
REMARK UNBOUND:                -0.668
REMARK SMILES O=C([O-])CCCCCCCCC(=O)[O-]
REMARK SMILES IDX 7 1 6 2 5 3 4 4 2 5 1 6 3 7 8 8 9 9 10 10 11 11 12 12 13 13
REMARK SMILES IDX 14 14
REMARK H PARENT
REMARK Flexibility Score: inf
ROOT
ATOM      1  C   UNL     1      41.084  24.187 226.805  1.00  0.00     0.000 C 
ENDROOT
BRANCH   1   2
ATOM      2  C   UNL     1      42.034  24.358 225.605  1.00  0.00     0.000 C 
BRANCH   2   3
ATOM      3  C   UNL     1      41.827  23.289 224.518  1.00  0.00     0.006 C 
BRANCH   3   4
ATOM      4  C   UNL     1      41.044  23.831 223.314  1.00  0.00     0.053 C 
BRANCH   4   5
ATOM      5  C   UNL     1      39.721  23.147 223.158  1.00  0.00     0.041 C 
ATOM      6  O   UNL     1      39.287  22.390 224.065  1.00  0.00    -0.550 OA
ATOM      7  O   UNL     1      38.979  23.324 221.997  1.00  0.00    -0.550 OA
ENDBRANCH   4   5
ENDBRANCH   3   4
ENDBRANCH   2   3
ENDBRANCH   1   2
BRANCH   1   8
ATOM      8  C   UNL     1      40.106  25.354 227.034  1.00  0.00     0.000 C 
BRANCH   8   9
ATOM      9  C   UNL     1      38.778  25.180 226.285  1.00  0.00     0.000 C 
BRANCH   9  10
ATOM     10  C   UNL     1      38.642  26.216 225.159  1.00  0.00     0.006 C 
BRANCH  10  11
ATOM     11  C   UNL     1      37.619  25.791 224.097  1.00  0.00     0.053 C 
BRANCH  11  12
ATOM     12  C   UNL     1      36.398  25.180 224.714  1.00  0.00     0.041 C 
ATOM     13  O   UNL     1      36.129  23.965 224.519  1.00  0.00    -0.550 OA
ATOM     14  O   UNL     1      35.538  25.963 225.475  1.00  0.00    -0.550 OA
ENDBRANCH  11  12
ENDBRANCH  10  11
ENDBRANCH   9  10
ENDBRANCH   8   9
ENDBRANCH   1   8
TORSDOF 9
ENDMDL
MODEL 7
REMARK VINA RESULT:    -4.072      1.538      5.380
REMARK INTER + INTRA:          -6.883
REMARK INTER:                  -6.174
REMARK INTRA:                  -0.709
REMARK UNBOUND:                -0.668
REMARK SMILES O=C([O-])CCCCCCCCC(=O)[O-]
REMARK SMILES IDX 7 1 6 2 5 3 4 4 2 5 1 6 3 7 8 8 9 9 10 10 11 11 12 12 13 13
REMARK SMILES IDX 14 14
REMARK H PARENT
REMARK Flexibility Score: inf
ROOT
ATOM      1  C   UNL     1      39.532  22.622 224.009  1.00  0.00     0.000 C 
ENDROOT
BRANCH   1   2
ATOM      2  C   UNL     1      38.911  22.180 225.348  1.00  0.00     0.000 C 
BRANCH   2   3
ATOM      3  C   UNL     1      38.271  20.783 225.280  1.00  0.00     0.006 C 
BRANCH   3   4
ATOM      4  C   UNL     1      36.936  20.720 226.034  1.00  0.00     0.053 C 
BRANCH   4   5
ATOM      5  C   UNL     1      36.246  19.405 225.834  1.00  0.00     0.041 C 
ATOM      6  O   UNL     1      34.991  19.330 225.904  1.00  0.00    -0.550 OA
ATOM      7  O   UNL     1      36.992  18.257 225.597  1.00  0.00    -0.550 OA
ENDBRANCH   4   5
ENDBRANCH   3   4
ENDBRANCH   2   3
ENDBRANCH   1   2
BRANCH   1   8
ATOM      8  C   UNL     1      39.789  24.135 223.879  1.00  0.00     0.000 C 
BRANCH   8   9
ATOM      9  C   UNL     1      39.412  24.918 225.144  1.00  0.00     0.000 C 
BRANCH   9  10
ATOM     10  C   UNL     1      38.466  26.082 224.808  1.00  0.00     0.006 C 
BRANCH  10  11
ATOM     11  C   UNL     1      37.373  25.674 223.812  1.00  0.00     0.053 C 
BRANCH  11  12
ATOM     12  C   UNL     1      36.224  24.995 224.493  1.00  0.00     0.041 C 
ATOM     13  O   UNL     1      35.515  25.627 225.320  1.00  0.00    -0.550 OA
ATOM     14  O   UNL     1      35.960  23.654 224.242  1.00  0.00    -0.550 OA
ENDBRANCH  11  12
ENDBRANCH  10  11
ENDBRANCH   9  10
ENDBRANCH   8   9
ENDBRANCH   1   8
TORSDOF 9
ENDMDL
MODEL 8
REMARK VINA RESULT:    -4.064      1.826      5.993
REMARK INTER + INTRA:          -6.870
REMARK INTER:                  -6.282
REMARK INTRA:                  -0.588
REMARK UNBOUND:                -0.668
REMARK SMILES O=C([O-])CCCCCCCCC(=O)[O-]
REMARK SMILES IDX 7 1 6 2 5 3 4 4 2 5 1 6 3 7 8 8 9 9 10 10 11 11 12 12 13 13
REMARK SMILES IDX 14 14
REMARK H PARENT
REMARK Flexibility Score: inf
ROOT
ATOM      1  C   UNL     1      37.060  21.710 226.346  1.00  0.00     0.000 C 
ENDROOT
BRANCH   1   2
ATOM      2  C   UNL     1      36.423  20.361 226.726  1.00  0.00     0.000 C 
BRANCH   2   3
ATOM      3  C   UNL     1      37.010  19.177 225.938  1.00  0.00     0.006 C 
BRANCH   3   4
ATOM      4  C   UNL     1      37.960  18.327 226.792  1.00  0.00     0.053 C 
BRANCH   4   5
ATOM      5  C   UNL     1      37.362  17.993 228.124  1.00  0.00     0.041 C 
ATOM      6  O   UNL     1      37.892  18.422 229.183  1.00  0.00    -0.550 OA
ATOM      7  O   UNL     1      36.234  17.186 228.199  1.00  0.00    -0.550 OA
ENDBRANCH   4   5
ENDBRANCH   3   4
ENDBRANCH   2   3
ENDBRANCH   1   2
BRANCH   1   8
ATOM      8  C   UNL     1      38.117  21.640 225.228  1.00  0.00     0.000 C 
BRANCH   8   9
ATOM      9  C   UNL     1      37.964  22.758 224.187  1.00  0.00     0.000 C 
BRANCH   9  10
ATOM     10  C   UNL     1      36.490  23.156 224.020  1.00  0.00     0.006 C 
BRANCH  10  11
ATOM     11  C   UNL     1      36.311  24.670 223.850  1.00  0.00     0.053 C 
BRANCH  11  12
ATOM     12  C   UNL     1      36.137  25.360 225.169  1.00  0.00     0.041 C 
ATOM     13  O   UNL     1      34.986  25.666 225.577  1.00  0.00    -0.550 OA
ATOM     14  O   UNL     1      37.250  25.696 225.931  1.00  0.00    -0.550 OA
ENDBRANCH  11  12
ENDBRANCH  10  11
ENDBRANCH   9  10
ENDBRANCH   8   9
ENDBRANCH   1   8
TORSDOF 9
ENDMDL
MODEL 9
REMARK VINA RESULT:    -4.061      3.738      4.948
REMARK INTER + INTRA:          -6.866
REMARK INTER:                  -5.977
REMARK INTRA:                  -0.890
REMARK UNBOUND:                -0.668
REMARK SMILES O=C([O-])CCCCCCCCC(=O)[O-]
REMARK SMILES IDX 7 1 6 2 5 3 4 4 2 5 1 6 3 7 8 8 9 9 10 10 11 11 12 12 13 13
REMARK SMILES IDX 14 14
REMARK H PARENT
REMARK Flexibility Score: inf
ROOT
ATOM      1  C   UNL     1      38.998  24.249 226.999  1.00  0.00     0.000 C 
ENDROOT
BRANCH   1   2
ATOM      2  C   UNL     1      38.090  23.165 226.385  1.00  0.00     0.000 C 
BRANCH   2   3
ATOM      3  C   UNL     1      37.961  23.286 224.857  1.00  0.00     0.006 C 
BRANCH   3   4
ATOM      4  C   UNL     1      36.566  23.762 224.430  1.00  0.00     0.053 C 
BRANCH   4   5
ATOM      5  C   UNL     1      36.470  25.257 224.412  1.00  0.00     0.041 C 
ATOM      6  O   UNL     1      36.948  25.912 223.448  1.00  0.00    -0.550 OA
ATOM      7  O   UNL     1      35.876  25.928 225.472  1.00  0.00    -0.550 OA
ENDBRANCH   4   5
ENDBRANCH   3   4
ENDBRANCH   2   3
ENDBRANCH   1   2
BRANCH   1   8
ATOM      8  C   UNL     1      39.835  25.048 225.983  1.00  0.00     0.000 C 
BRANCH   8   9
ATOM      9  C   UNL     1      41.336  25.040 226.306  1.00  0.00     0.000 C 
BRANCH   9  10
ATOM     10  C   UNL     1      42.151  24.512 225.115  1.00  0.00     0.006 C 
BRANCH  10  11
ATOM     11  C   UNL     1      41.748  23.084 224.721  1.00  0.00     0.053 C 
BRANCH  11  12
ATOM     12  C   UNL     1      41.344  22.998 223.281  1.00  0.00     0.041 C 
ATOM     13  O   UNL     1      40.788  23.979 222.720  1.00  0.00    -0.550 OA
ATOM     14  O   UNL     1      41.548  21.822 222.570  1.00  0.00    -0.550 OA
ENDBRANCH  11  12
ENDBRANCH  10  11
ENDBRANCH   9  10
ENDBRANCH   8   9
ENDBRANCH   1   8
TORSDOF 9
ENDMDL
