MODEL 1
REMARK VINA RESULT:    -3.167      0.000      0.000
REMARK INTER + INTRA:          -3.376
REMARK INTER:                  -3.353
REMARK INTRA:                  -0.024
REMARK UNBOUND:                -0.024
REMARK SMILES O=C([O-])c1cccnc1
REMARK SMILES IDX 4 1 5 2 9 3 6 4 8 5 7 6 2 7 1 8 3 9
REMARK H PARENT
REMARK Flexibility Score: inf
ROOT
ATOM      1  C   UNL     1      54.471  28.261  50.209  1.00  0.00     0.016 A 
ATOM      2  C   UNL     1      53.190  27.945  49.723  1.00  0.00     0.013 A 
ATOM      3  C   UNL     1      55.470  27.275  50.146  1.00  0.00     0.120 A 
ATOM      4  C   UNL     1      52.933  26.679  49.193  1.00  0.00     0.021 A 
ATOM      5  N   UNL     1      55.193  26.050  49.623  1.00  0.00    -0.264 NA
ATOM      6  C   UNL     1      53.959  25.734  49.151  1.00  0.00     0.111 A 
ENDROOT
BRANCH   1   7
ATOM      7  C   UNL     1      54.763  29.595  50.775  1.00  0.00     0.073 C 
ATOM      8  O   UNL     1      53.966  30.555  50.597  1.00  0.00    -0.545 OA
ATOM      9  O   UNL     1      55.922  29.810  51.511  1.00  0.00    -0.545 OA
ENDBRANCH   1   7
TORSDOF 1
ENDMDL
MODEL 2
REMARK VINA RESULT:    -3.165     10.163     10.839
REMARK INTER + INTRA:          -3.374
REMARK INTER:                  -3.350
REMARK INTRA:                  -0.024
REMARK UNBOUND:                -0.024
REMARK SMILES O=C([O-])c1cccnc1
REMARK SMILES IDX 4 1 5 2 9 3 6 4 8 5 7 6 2 7 1 8 3 9
REMARK H PARENT
REMARK Flexibility Score: inf
ROOT
ATOM      1  C   UNL     1      59.011  18.724  49.571  1.00  0.00     0.016 A 
ATOM      2  C   UNL     1      59.648  19.230  48.425  1.00  0.00     0.013 A 
ATOM      3  C   UNL     1      59.117  19.452  50.769  1.00  0.00     0.120 A 
ATOM      4  C   UNL     1      60.364  20.427  48.490  1.00  0.00     0.021 A 
ATOM      5  N   UNL     1      59.819  20.616  50.804  1.00  0.00    -0.264 NA
ATOM      6  C   UNL     1      60.439  21.114  49.701  1.00  0.00     0.111 A 
ENDROOT
BRANCH   1   7
ATOM      7  C   UNL     1      58.250  17.458  49.524  1.00  0.00     0.073 C 
ATOM      8  O   UNL     1      58.043  16.876  48.426  1.00  0.00    -0.545 OA
ATOM      9  O   UNL     1      57.750  16.893  50.691  1.00  0.00    -0.545 OA
ENDBRANCH   1   7
TORSDOF 1
ENDMDL
MODEL 3
REMARK VINA RESULT:    -3.138      9.441     10.244
REMARK INTER + INTRA:          -3.345
REMARK INTER:                  -3.323
REMARK INTRA:                  -0.023
REMARK UNBOUND:                -0.024
REMARK SMILES O=C([O-])c1cccnc1
REMARK SMILES IDX 4 1 5 2 9 3 6 4 8 5 7 6 2 7 1 8 3 9
REMARK H PARENT
REMARK Flexibility Score: inf
ROOT
ATOM      1  C   UNL     1      59.356  19.378  49.328  1.00  0.00     0.016 A 
ATOM      2  C   UNL     1      59.669  18.390  48.379  1.00  0.00     0.013 A 
ATOM      3  C   UNL     1      58.315  19.125  50.237  1.00  0.00     0.120 A 
ATOM      4  C   UNL     1      58.955  17.190  48.354  1.00  0.00     0.021 A 
ATOM      5  N   UNL     1      57.636  17.947  50.192  1.00  0.00    -0.264 NA
ATOM      6  C   UNL     1      57.930  16.985  49.279  1.00  0.00     0.111 A 
ENDROOT
BRANCH   1   7
ATOM      7  C   UNL     1      60.100  20.655  49.370  1.00  0.00     0.073 C 
ATOM      8  O   UNL     1      60.686  21.090  48.344  1.00  0.00    -0.545 OA
ATOM      9  O   UNL     1      60.163  21.395  50.545  1.00  0.00    -0.545 OA
ENDBRANCH   1   7
TORSDOF 1
ENDMDL
MODEL 4
REMARK VINA RESULT:    -3.094      2.923      3.519
REMARK INTER + INTRA:          -3.298
REMARK INTER:                  -3.282
REMARK INTRA:                  -0.016
REMARK UNBOUND:                -0.024
REMARK SMILES O=C([O-])c1cccnc1
REMARK SMILES IDX 4 1 5 2 9 3 6 4 8 5 7 6 2 7 1 8 3 9
REMARK H PARENT
REMARK Flexibility Score: inf
ROOT
ATOM      1  C   UNL     1      56.226  26.923  50.224  1.00  0.00     0.016 A 
ATOM      2  C   UNL     1      55.084  26.267  49.732  1.00  0.00     0.013 A 
ATOM      3  C   UNL     1      56.116  28.278  50.578  1.00  0.00     0.120 A 
ATOM      4  C   UNL     1      53.878  26.959  49.604  1.00  0.00     0.021 A 
ATOM      5  N   UNL     1      54.928  28.928  50.445  1.00  0.00    -0.264 NA
ATOM      6  C   UNL     1      53.819  28.304  49.970  1.00  0.00     0.111 A 
ENDROOT
BRANCH   1   7
ATOM      7  C   UNL     1      57.512  26.209  50.366  1.00  0.00     0.073 C 
ATOM      8  O   UNL     1      58.455  26.419  49.557  1.00  0.00    -0.545 OA
ATOM      9  O   UNL     1      57.700  25.293  51.395  1.00  0.00    -0.545 OA
ENDBRANCH   1   7
TORSDOF 1
ENDMDL
MODEL 5
REMARK VINA RESULT:    -3.088      9.826     10.586
REMARK INTER + INTRA:          -3.292
REMARK INTER:                  -3.275
REMARK INTRA:                  -0.017
REMARK UNBOUND:                -0.024
REMARK SMILES O=C([O-])c1cccnc1
REMARK SMILES IDX 4 1 5 2 9 3 6 4 8 5 7 6 2 7 1 8 3 9
REMARK H PARENT
REMARK Flexibility Score: inf
ROOT
ATOM      1  C   UNL     1      57.588  18.345  50.286  1.00  0.00     0.016 A 
ATOM      2  C   UNL     1      57.790  17.204  49.490  1.00  0.00     0.013 A 
ATOM      3  C   UNL     1      58.634  19.277  50.393  1.00  0.00     0.120 A 
ATOM      4  C   UNL     1      59.004  17.017  48.827  1.00  0.00     0.021 A 
ATOM      5  N   UNL     1      59.807  19.071  49.735  1.00  0.00    -0.264 NA
ATOM      6  C   UNL     1      60.012  17.972  48.963  1.00  0.00     0.111 A 
ENDROOT
BRANCH   1   7
ATOM      7  C   UNL     1      56.311  18.561  50.997  1.00  0.00     0.073 C 
ATOM      8  O   UNL     1      55.245  18.756  50.354  1.00  0.00    -0.545 OA
ATOM      9  O   UNL     1      56.267  18.553  52.386  1.00  0.00    -0.545 OA
ENDBRANCH   1   7
TORSDOF 1
ENDMDL
MODEL 6
REMARK VINA RESULT:    -3.059      2.219      3.027
REMARK INTER + INTRA:          -3.261
REMARK INTER:                  -3.242
REMARK INTRA:                  -0.019
REMARK UNBOUND:                -0.024
REMARK SMILES O=C([O-])c1cccnc1
REMARK SMILES IDX 4 1 5 2 9 3 6 4 8 5 7 6 2 7 1 8 3 9
REMARK H PARENT
REMARK Flexibility Score: inf
ROOT
ATOM      1  C   UNL     1      55.576  27.005  50.066  1.00  0.00     0.016 A 
ATOM      2  C   UNL     1      55.029  28.265  50.367  1.00  0.00     0.013 A 
ATOM      3  C   UNL     1      54.737  26.032  49.498  1.00  0.00     0.120 A 
ATOM      4  C   UNL     1      53.684  28.527  50.100  1.00  0.00     0.021 A 
ATOM      5  N   UNL     1      53.431  26.315  49.247  1.00  0.00    -0.264 NA
ATOM      6  C   UNL     1      52.891  27.529  49.534  1.00  0.00     0.111 A 
ENDROOT
BRANCH   1   7
ATOM      7  C   UNL     1      56.998  26.707  50.342  1.00  0.00     0.073 C 
ATOM      8  O   UNL     1      57.329  25.628  50.901  1.00  0.00    -0.545 OA
ATOM      9  O   UNL     1      57.989  27.615  49.988  1.00  0.00    -0.545 OA
ENDBRANCH   1   7
TORSDOF 1
ENDMDL
MODEL 7
REMARK VINA RESULT:    -3.024     20.002     21.046
REMARK INTER + INTRA:          -3.224
REMARK INTER:                  -3.208
REMARK INTRA:                  -0.016
REMARK UNBOUND:                -0.024
REMARK SMILES O=C([O-])c1cccnc1
REMARK SMILES IDX 4 1 5 2 9 3 6 4 8 5 7 6 2 7 1 8 3 9
REMARK H PARENT
REMARK Flexibility Score: inf
ROOT
ATOM      1  C   UNL     1      71.935  31.667  60.812  1.00  0.00     0.016 A 
ATOM      2  C   UNL     1      73.070  31.399  61.596  1.00  0.00     0.013 A 
ATOM      3  C   UNL     1      70.872  30.748  60.841  1.00  0.00     0.120 A 
ATOM      4  C   UNL     1      73.125  30.244  62.379  1.00  0.00     0.021 A 
ATOM      5  N   UNL     1      70.951  29.632  61.613  1.00  0.00    -0.264 NA
ATOM      6  C   UNL     1      72.044  29.362  62.374  1.00  0.00     0.111 A 
ENDROOT
BRANCH   1   7
ATOM      7  C   UNL     1      71.857  32.884  59.976  1.00  0.00     0.073 C 
ATOM      8  O   UNL     1      71.999  32.813  58.727  1.00  0.00    -0.545 OA
ATOM      9  O   UNL     1      71.627  34.125  60.558  1.00  0.00    -0.545 OA
ENDBRANCH   1   7
TORSDOF 1
ENDMDL
MODEL 8
REMARK VINA RESULT:    -2.987      3.018      3.950
REMARK INTER + INTRA:          -3.185
REMARK INTER:                  -3.167
REMARK INTRA:                  -0.018
REMARK UNBOUND:                -0.024
REMARK SMILES O=C([O-])c1cccnc1
REMARK SMILES IDX 4 1 5 2 9 3 6 4 8 5 7 6 2 7 1 8 3 9
REMARK H PARENT
REMARK Flexibility Score: inf
ROOT
ATOM      1  C   UNL     1      54.330  26.841  49.749  1.00  0.00     0.016 A 
ATOM      2  C   UNL     1      55.695  26.616  49.996  1.00  0.00     0.013 A 
ATOM      3  C   UNL     1      53.809  28.122  49.998  1.00  0.00     0.120 A 
ATOM      4  C   UNL     1      56.501  27.650  50.476  1.00  0.00     0.021 A 
ATOM      5  N   UNL     1      54.617  29.112  50.464  1.00  0.00    -0.264 NA
ATOM      6  C   UNL     1      55.938  28.905  50.706  1.00  0.00     0.111 A 
ENDROOT
BRANCH   1   7
ATOM      7  C   UNL     1      53.459  25.759  49.242  1.00  0.00     0.073 C 
ATOM      8  O   UNL     1      52.875  25.873  48.132  1.00  0.00    -0.545 OA
ATOM      9  O   UNL     1      53.272  24.599  49.985  1.00  0.00    -0.545 OA
ENDBRANCH   1   7
TORSDOF 1
ENDMDL
MODEL 9
REMARK VINA RESULT:    -2.781      2.759      3.451
REMARK INTER + INTRA:          -2.967
REMARK INTER:                  -2.943
REMARK INTRA:                  -0.024
REMARK UNBOUND:                -0.024
REMARK SMILES O=C([O-])c1cccnc1
REMARK SMILES IDX 4 1 5 2 9 3 6 4 8 5 7 6 2 7 1 8 3 9
REMARK H PARENT
REMARK Flexibility Score: inf
ROOT
ATOM      1  C   UNL     1      54.599  27.699  50.125  1.00  0.00     0.016 A 
ATOM      2  C   UNL     1      53.285  28.111  49.841  1.00  0.00     0.013 A 
ATOM      3  C   UNL     1      55.473  28.621  50.723  1.00  0.00     0.120 A 
ATOM      4  C   UNL     1      52.875  29.409  50.153  1.00  0.00     0.021 A 
ATOM      5  N   UNL     1      55.048  29.879  51.017  1.00  0.00    -0.264 NA
ATOM      6  C   UNL     1      53.780  30.288  50.747  1.00  0.00     0.111 A 
ENDROOT
BRANCH   1   7
ATOM      7  C   UNL     1      55.053  26.329  49.802  1.00  0.00     0.073 C 
ATOM      8  O   UNL     1      54.271  25.507  49.256  1.00  0.00    -0.545 OA
ATOM      9  O   UNL     1      56.351  25.929  50.098  1.00  0.00    -0.545 OA
ENDBRANCH   1   7
TORSDOF 1
ENDMDL
