MODEL 1
REMARK VINA RESULT:    -2.812      0.000      0.000
REMARK INTER + INTRA:          -3.150
REMARK INTER:                  -3.141
REMARK INTRA:                  -0.009
REMARK UNBOUND:                -0.009
REMARK SMILES CCCC(=O)[O-]
REMARK SMILES IDX 3 1 4 2 5 3 6 4 2 5 1 6
REMARK H PARENT
REMARK Flexibility Score: inf
ROOT
ATOM      1  C   UNL     1      -8.120 -66.444  -0.762  1.00  0.00     0.052 C 
ENDROOT
BRANCH   1   2
ATOM      2  C   UNL     1      -8.657 -65.046  -0.736  1.00  0.00     0.041 C 
ATOM      3  O   UNL     1      -8.187 -64.172  -1.510  1.00  0.00    -0.550 OA
ATOM      4  O   UNL     1      -9.700 -64.719   0.121  1.00  0.00    -0.550 OA
ENDBRANCH   1   2
BRANCH   1   5
ATOM      5  C   UNL     1      -9.209 -67.477  -0.446  1.00  0.00     0.003 C 
ATOM      6  C   UNL     1      -9.072 -68.743  -1.292  1.00  0.00     0.004 C 
ENDBRANCH   1   5
TORSDOF 2
ENDMDL
MODEL 2
REMARK VINA RESULT:    -2.797      9.583     10.249
REMARK INTER + INTRA:          -3.132
REMARK INTER:                  -3.122
REMARK INTRA:                  -0.011
REMARK UNBOUND:                -0.009
REMARK SMILES CCCC(=O)[O-]
REMARK SMILES IDX 3 1 4 2 5 3 6 4 2 5 1 6
REMARK H PARENT
REMARK Flexibility Score: inf
ROOT
ATOM      1  C   UNL     1     -11.461 -73.187   5.154  1.00  0.00     0.052 C 
ENDROOT
BRANCH   1   2
ATOM      2  C   UNL     1     -12.639 -72.771   5.980  1.00  0.00     0.041 C 
ATOM      3  O   UNL     1     -13.526 -73.609   6.287  1.00  0.00    -0.550 OA
ATOM      4  O   UNL     1     -12.739 -71.463   6.438  1.00  0.00    -0.550 OA
ENDBRANCH   1   2
BRANCH   1   5
ATOM      5  C   UNL     1     -10.143 -72.663   5.740  1.00  0.00     0.003 C 
ATOM      6  C   UNL     1      -9.145 -73.786   6.021  1.00  0.00     0.004 C 
ENDBRANCH   1   5
TORSDOF 2
ENDMDL
MODEL 3
REMARK VINA RESULT:    -2.747      9.472     10.233
REMARK INTER + INTRA:          -3.077
REMARK INTER:                  -3.067
REMARK INTRA:                  -0.010
REMARK UNBOUND:                -0.009
REMARK SMILES CCCC(=O)[O-]
REMARK SMILES IDX 3 1 4 2 5 3 6 4 2 5 1 6
REMARK H PARENT
REMARK Flexibility Score: inf
ROOT
ATOM      1  C   UNL     1     -10.567 -72.490   5.699  1.00  0.00     0.052 C 
ENDROOT
BRANCH   1   2
ATOM      2  C   UNL     1      -9.478 -73.516   5.621  1.00  0.00     0.041 C 
ATOM      3  O   UNL     1      -9.317 -74.341   6.558  1.00  0.00    -0.550 OA
ATOM      4  O   UNL     1      -8.663 -73.579   4.499  1.00  0.00    -0.550 OA
ENDBRANCH   1   2
BRANCH   1   5
ATOM      5  C   UNL     1     -11.959 -73.137   5.680  1.00  0.00     0.003 C 
ATOM      6  C   UNL     1     -13.027 -72.236   6.300  1.00  0.00     0.004 C 
ENDBRANCH   1   5
TORSDOF 2
ENDMDL
MODEL 4
REMARK VINA RESULT:    -2.663      1.924      2.323
REMARK INTER + INTRA:          -2.983
REMARK INTER:                  -2.952
REMARK INTRA:                  -0.032
REMARK UNBOUND:                -0.009
REMARK SMILES CCCC(=O)[O-]
REMARK SMILES IDX 3 1 4 2 5 3 6 4 2 5 1 6
REMARK H PARENT
REMARK Flexibility Score: inf
ROOT
ATOM      1  C   UNL     1      -7.989 -66.706  -0.530  1.00  0.00     0.052 C 
ENDROOT
BRANCH   1   2
ATOM      2  C   UNL     1      -7.791 -66.244   0.881  1.00  0.00     0.041 C 
ATOM      3  O   UNL     1      -8.454 -66.762   1.817  1.00  0.00    -0.550 OA
ATOM      4  O   UNL     1      -6.850 -65.263   1.165  1.00  0.00    -0.550 OA
ENDBRANCH   1   2
BRANCH   1   5
ATOM      5  C   UNL     1      -9.289 -67.506  -0.688  1.00  0.00     0.003 C 
ATOM      6  C   UNL     1      -9.056 -68.872  -1.335  1.00  0.00     0.004 C 
ENDBRANCH   1   5
TORSDOF 2
ENDMDL
MODEL 5
REMARK VINA RESULT:    -2.533      2.681      3.152
REMARK INTER + INTRA:          -2.838
REMARK INTER:                  -2.808
REMARK INTRA:                  -0.030
REMARK UNBOUND:                -0.009
REMARK SMILES CCCC(=O)[O-]
REMARK SMILES IDX 3 1 4 2 5 3 6 4 2 5 1 6
REMARK H PARENT
REMARK Flexibility Score: inf
ROOT
ATOM      1  C   UNL     1      -9.137 -66.250   0.290  1.00  0.00     0.052 C 
ENDROOT
BRANCH   1   2
ATOM      2  C   UNL     1      -8.790 -67.358  -0.656  1.00  0.00     0.041 C 
ATOM      3  O   UNL     1      -7.653 -67.398  -1.194  1.00  0.00    -0.550 OA
ATOM      4  O   UNL     1      -9.711 -68.363  -0.917  1.00  0.00    -0.550 OA
ENDBRANCH   1   2
BRANCH   1   5
ATOM      5  C   UNL     1      -8.066 -66.072   1.375  1.00  0.00     0.003 C 
ATOM      6  C   UNL     1      -8.459 -66.736   2.694  1.00  0.00     0.004 C 
ENDBRANCH   1   5
TORSDOF 2
ENDMDL
MODEL 6
REMARK VINA RESULT:    -2.515      2.018      2.693
REMARK INTER + INTRA:          -2.818
REMARK INTER:                  -2.800
REMARK INTRA:                  -0.017
REMARK UNBOUND:                -0.009
REMARK SMILES CCCC(=O)[O-]
REMARK SMILES IDX 3 1 4 2 5 3 6 4 2 5 1 6
REMARK H PARENT
REMARK Flexibility Score: inf
ROOT
ATOM      1  C   UNL     1      -7.047 -66.077  -0.219  1.00  0.00     0.052 C 
ENDROOT
BRANCH   1   2
ATOM      2  C   UNL     1      -8.448 -65.929  -0.728  1.00  0.00     0.041 C 
ATOM      3  O   UNL     1      -8.851 -64.818  -1.161  1.00  0.00    -0.550 OA
ATOM      4  O   UNL     1      -9.296 -67.028  -0.755  1.00  0.00    -0.550 OA
ENDBRANCH   1   2
BRANCH   1   5
ATOM      5  C   UNL     1      -6.015 -65.591  -1.245  1.00  0.00     0.003 C 
ATOM      6  C   UNL     1      -5.175 -66.736  -1.812  1.00  0.00     0.004 C 
ENDBRANCH   1   5
TORSDOF 2
ENDMDL
MODEL 7
REMARK VINA RESULT:    -2.446      2.009      2.590
REMARK INTER + INTRA:          -2.740
REMARK INTER:                  -2.718
REMARK INTRA:                  -0.022
REMARK UNBOUND:                -0.009
REMARK SMILES CCCC(=O)[O-]
REMARK SMILES IDX 3 1 4 2 5 3 6 4 2 5 1 6
REMARK H PARENT
REMARK Flexibility Score: inf
ROOT
ATOM      1  C   UNL     1      -7.325 -66.139  -0.102  1.00  0.00     0.052 C 
ENDROOT
BRANCH   1   2
ATOM      2  C   UNL     1      -6.292 -65.798  -1.132  1.00  0.00     0.041 C 
ATOM      3  O   UNL     1      -6.209 -64.626  -1.582  1.00  0.00    -0.550 OA
ATOM      4  O   UNL     1      -5.401 -66.769  -1.570  1.00  0.00    -0.550 OA
ENDBRANCH   1   2
BRANCH   1   5
ATOM      5  C   UNL     1      -8.719 -66.291  -0.725  1.00  0.00     0.003 C 
ATOM      6  C   UNL     1      -9.211 -67.738  -0.703  1.00  0.00     0.004 C 
ENDBRANCH   1   5
TORSDOF 2
ENDMDL
MODEL 8
REMARK VINA RESULT:    -2.443      2.198      2.979
REMARK INTER + INTRA:          -2.738
REMARK INTER:                  -2.708
REMARK INTRA:                  -0.029
REMARK UNBOUND:                -0.009
REMARK SMILES CCCC(=O)[O-]
REMARK SMILES IDX 3 1 4 2 5 3 6 4 2 5 1 6
REMARK H PARENT
REMARK Flexibility Score: inf
ROOT
ATOM      1  C   UNL     1      -7.848 -65.707  -0.772  1.00  0.00     0.052 C 
ENDROOT
BRANCH   1   2
ATOM      2  C   UNL     1      -8.647 -66.768  -0.080  1.00  0.00     0.041 C 
ATOM      3  O   UNL     1      -9.328 -67.588  -0.750  1.00  0.00    -0.550 OA
ATOM      4  O   UNL     1      -8.612 -66.871   1.305  1.00  0.00    -0.550 OA
ENDBRANCH   1   2
BRANCH   1   5
ATOM      5  C   UNL     1      -6.356 -65.802  -0.425  1.00  0.00     0.003 C 
ATOM      6  C   UNL     1      -5.548 -66.497  -1.522  1.00  0.00     0.004 C 
ENDBRANCH   1   5
TORSDOF 2
ENDMDL
MODEL 9
REMARK VINA RESULT:    -2.442      8.893      9.608
REMARK INTER + INTRA:          -2.737
REMARK INTER:                  -2.704
REMARK INTRA:                  -0.032
REMARK UNBOUND:                -0.009
REMARK SMILES CCCC(=O)[O-]
REMARK SMILES IDX 3 1 4 2 5 3 6 4 2 5 1 6
REMARK H PARENT
REMARK Flexibility Score: inf
ROOT
ATOM      1  C   UNL     1      -9.173 -73.599   5.671  1.00  0.00     0.052 C 
ENDROOT
BRANCH   1   2
ATOM      2  C   UNL     1      -8.546 -73.740   4.318  1.00  0.00     0.041 C 
ATOM      3  O   UNL     1      -8.465 -72.746   3.550  1.00  0.00    -0.550 OA
ATOM      4  O   UNL     1      -8.021 -74.962   3.920  1.00  0.00    -0.550 OA
ENDBRANCH   1   2
BRANCH   1   5
ATOM      5  C   UNL     1     -10.235 -72.492   5.692  1.00  0.00     0.003 C 
ATOM      6  C   UNL     1     -11.658 -73.051   5.677  1.00  0.00     0.004 C 
ENDBRANCH   1   5
TORSDOF 2
ENDMDL
