MODEL 1
REMARK VINA RESULT:    -4.762      0.000      0.000
REMARK INTER + INTRA:          -6.881
REMARK INTER:                  -6.433
REMARK INTRA:                  -0.448
REMARK UNBOUND:                -0.448
REMARK SMILES CC(=O)CCC=C(C)CCC=C(C)C
REMARK SMILES IDX 7 1 6 2 8 3 9 4 10 5 11 6 13 7 12 8 14 9 5 10 4 11 2 12 3 13
REMARK SMILES IDX 1 14
REMARK H PARENT
REMARK Flexibility Score: inf
ROOT
ATOM      1  C   UNL     1     190.167 186.757 192.709  1.00  0.00    -0.077 C 
ATOM      2  C   UNL     1     188.874 186.689 193.101  1.00  0.00    -0.028 C 
ATOM      3  C   UNL     1     190.462 187.168 191.290  1.00  0.00     0.039 C 
ENDROOT
BRANCH   1   4
ATOM      4  C   UNL     1     191.329 186.502 193.650  1.00  0.00     0.034 C 
BRANCH   4   5
ATOM      5  C   UNL     1     192.403 187.584 193.488  1.00  0.00     0.032 C 
BRANCH   5   6
ATOM      6  C   UNL     1     193.336 187.611 194.674  1.00  0.00    -0.028 C 
ATOM      7  C   UNL     1     195.107 188.583 196.108  1.00  0.00     0.039 C 
ATOM      8  C   UNL     1     194.204 188.621 194.903  1.00  0.00    -0.080 C 
ATOM      9  C   UNL     1     194.301 189.806 193.974  1.00  0.00     0.039 C 
ENDBRANCH   5   6
ENDBRANCH   4   5
ENDBRANCH   1   4
BRANCH   2  10
ATOM     10  C   UNL     1     188.411 186.282 194.478  1.00  0.00     0.035 C 
BRANCH  10  11
ATOM     11  C   UNL     1     187.486 187.347 195.078  1.00  0.00     0.079 C 
BRANCH  11  12
ATOM     12  C   UNL     1     186.731 186.792 196.256  1.00  0.00     0.130 C 
ATOM     13  O   UNL     1     186.016 187.532 196.914  1.00  0.00    -0.300 OA
ATOM     14  C   UNL     1     186.844 185.349 196.650  1.00  0.00     0.087 C 
ENDBRANCH  11  12
ENDBRANCH  10  11
ENDBRANCH   2  10
TORSDOF 6
ENDMDL
MODEL 2
REMARK VINA RESULT:    -4.735      1.332      1.904
REMARK INTER + INTRA:          -6.845
REMARK INTER:                  -6.358
REMARK INTRA:                  -0.487
REMARK UNBOUND:                -0.448
REMARK SMILES CC(=O)CCC=C(C)CCC=C(C)C
REMARK SMILES IDX 7 1 6 2 8 3 9 4 10 5 11 6 13 7 12 8 14 9 5 10 4 11 2 12 3 13
REMARK SMILES IDX 1 14
REMARK H PARENT
REMARK Flexibility Score: inf
ROOT
ATOM      1  C   UNL     1     190.527 185.101 193.521  1.00  0.00    -0.077 C 
ATOM      2  C   UNL     1     189.255 184.649 193.606  1.00  0.00    -0.028 C 
ATOM      3  C   UNL     1     191.620 184.107 193.227  1.00  0.00     0.039 C 
ENDROOT
BRANCH   1   4
ATOM      4  C   UNL     1     190.891 186.568 193.642  1.00  0.00     0.034 C 
BRANCH   4   5
ATOM      5  C   UNL     1     192.345 186.729 194.099  1.00  0.00     0.032 C 
BRANCH   5   6
ATOM      6  C   UNL     1     192.926 188.042 193.631  1.00  0.00    -0.028 C 
ATOM      7  C   UNL     1     194.329 190.072 193.844  1.00  0.00     0.039 C 
ATOM      8  C   UNL     1     193.789 188.769 194.374  1.00  0.00    -0.080 C 
ATOM      9  C   UNL     1     194.237 188.312 195.740  1.00  0.00     0.039 C 
ENDBRANCH   5   6
ENDBRANCH   4   5
ENDBRANCH   1   4
BRANCH   2  10
ATOM     10  C   UNL     1     188.053 185.510 193.907  1.00  0.00     0.035 C 
BRANCH  10  11
ATOM     11  C   UNL     1     187.501 185.204 195.303  1.00  0.00     0.079 C 
BRANCH  11  12
ATOM     12  C   UNL     1     187.156 186.477 196.029  1.00  0.00     0.130 C 
ATOM     13  O   UNL     1     187.303 187.550 195.464  1.00  0.00    -0.300 OA
ATOM     14  C   UNL     1     186.647 186.460 197.440  1.00  0.00     0.087 C 
ENDBRANCH  11  12
ENDBRANCH  10  11
ENDBRANCH   2  10
TORSDOF 6
ENDMDL
MODEL 3
REMARK VINA RESULT:    -4.665      5.930     10.376
REMARK INTER + INTRA:          -6.750
REMARK INTER:                  -6.337
REMARK INTRA:                  -0.413
REMARK UNBOUND:                -0.448
REMARK SMILES CC(=O)CCC=C(C)CCC=C(C)C
REMARK SMILES IDX 7 1 6 2 8 3 9 4 10 5 11 6 13 7 12 8 14 9 5 10 4 11 2 12 3 13
REMARK SMILES IDX 1 14
REMARK H PARENT
REMARK Flexibility Score: inf
ROOT
ATOM      1  C   UNL     1     182.675 186.002 192.764  1.00  0.00    -0.077 C 
ATOM      2  C   UNL     1     183.957 186.136 193.175  1.00  0.00    -0.028 C 
ATOM      3  C   UNL     1     182.422 185.481 191.373  1.00  0.00     0.039 C 
ENDROOT
BRANCH   1   4
ATOM      4  C   UNL     1     181.487 186.289 193.661  1.00  0.00     0.034 C 
BRANCH   4   5
ATOM      5  C   UNL     1     180.409 185.212 193.493  1.00  0.00     0.032 C 
BRANCH   5   6
ATOM      6  C   UNL     1     179.479 185.175 194.682  1.00  0.00    -0.028 C 
ATOM      7  C   UNL     1     177.695 184.206 196.099  1.00  0.00     0.039 C 
ATOM      8  C   UNL     1     178.592 184.178 194.889  1.00  0.00    -0.080 C 
ATOM      9  C   UNL     1     178.468 183.018 193.933  1.00  0.00     0.039 C 
ENDBRANCH   5   6
ENDBRANCH   4   5
ENDBRANCH   1   4
BRANCH   2  10
ATOM     10  C   UNL     1     184.379 186.655 194.527  1.00  0.00     0.035 C 
BRANCH  10  11
ATOM     11  C   UNL     1     185.314 185.661 195.223  1.00  0.00     0.079 C 
BRANCH  11  12
ATOM     12  C   UNL     1     186.310 186.385 196.090  1.00  0.00     0.130 C 
ATOM     13  O   UNL     1     187.381 186.732 195.614  1.00  0.00    -0.300 OA
ATOM     14  C   UNL     1     186.023 186.681 197.532  1.00  0.00     0.087 C 
ENDBRANCH  11  12
ENDBRANCH  10  11
ENDBRANCH   2  10
TORSDOF 6
ENDMDL
MODEL 4
REMARK VINA RESULT:    -4.623      6.331      8.116
REMARK INTER + INTRA:          -6.692
REMARK INTER:                  -6.038
REMARK INTRA:                  -0.654
REMARK UNBOUND:                -0.448
REMARK SMILES CC(=O)CCC=C(C)CCC=C(C)C
REMARK SMILES IDX 7 1 6 2 8 3 9 4 10 5 11 6 13 7 12 8 14 9 5 10 4 11 2 12 3 13
REMARK SMILES IDX 1 14
REMARK H PARENT
REMARK Flexibility Score: inf
ROOT
ATOM      1  C   UNL     1     182.998 187.073 193.644  1.00  0.00    -0.077 C 
ATOM      2  C   UNL     1     181.650 186.984 193.567  1.00  0.00    -0.028 C 
ATOM      3  C   UNL     1     183.633 188.433 193.516  1.00  0.00     0.039 C 
ENDROOT
BRANCH   1   4
ATOM      4  C   UNL     1     183.890 185.877 193.918  1.00  0.00     0.034 C 
BRANCH   4   5
ATOM      5  C   UNL     1     185.322 186.328 194.222  1.00  0.00     0.032 C 
BRANCH   5   6
ATOM      6  C   UNL     1     185.781 185.829 195.571  1.00  0.00    -0.028 C 
ATOM      7  C   UNL     1     186.406 186.075 197.955  1.00  0.00     0.039 C 
ATOM      8  C   UNL     1     185.946 186.642 196.638  1.00  0.00    -0.080 C 
ATOM      9  C   UNL     1     185.682 188.125 196.551  1.00  0.00     0.039 C 
ENDBRANCH   5   6
ENDBRANCH   4   5
ENDBRANCH   1   4
BRANCH   2  10
ATOM     10  C   UNL     1     180.865 185.700 193.661  1.00  0.00     0.035 C 
BRANCH  10  11
ATOM     11  C   UNL     1     179.596 185.899 194.496  1.00  0.00     0.079 C 
BRANCH  11  12
ATOM     12  C   UNL     1     178.773 184.638 194.523  1.00  0.00     0.130 C 
ATOM     13  O   UNL     1     178.633 183.990 193.497  1.00  0.00    -0.300 OA
ATOM     14  C   UNL     1     178.109 184.163 195.782  1.00  0.00     0.087 C 
ENDBRANCH  11  12
ENDBRANCH  10  11
ENDBRANCH   2  10
TORSDOF 6
ENDMDL
MODEL 5
REMARK VINA RESULT:    -4.568      5.742     10.085
REMARK INTER + INTRA:          -6.619
REMARK INTER:                  -6.062
REMARK INTRA:                  -0.557
REMARK UNBOUND:                -0.448
REMARK SMILES CC(=O)CCC=C(C)CCC=C(C)C
REMARK SMILES IDX 7 1 6 2 8 3 9 4 10 5 11 6 13 7 12 8 14 9 5 10 4 11 2 12 3 13
REMARK SMILES IDX 1 14
REMARK H PARENT
REMARK Flexibility Score: inf
ROOT
ATOM      1  C   UNL     1     182.847 187.406 193.589  1.00  0.00    -0.077 C 
ATOM      2  C   UNL     1     184.164 187.457 193.894  1.00  0.00    -0.028 C 
ATOM      3  C   UNL     1     182.066 188.695 193.576  1.00  0.00     0.039 C 
ENDROOT
BRANCH   1   4
ATOM      4  C   UNL     1     182.140 186.123 193.197  1.00  0.00     0.034 C 
BRANCH   4   5
ATOM      5  C   UNL     1     180.806 185.991 193.940  1.00  0.00     0.032 C 
BRANCH   5   6
ATOM      6  C   UNL     1     180.082 184.726 193.548  1.00  0.00    -0.028 C 
ATOM      7  C   UNL     1     178.458 182.884 193.870  1.00  0.00     0.039 C 
ATOM      8  C   UNL     1     179.141 184.148 194.325  1.00  0.00    -0.080 C 
ATOM      9  C   UNL     1     178.745 184.734 195.658  1.00  0.00     0.039 C 
ENDBRANCH   5   6
ENDBRANCH   4   5
ENDBRANCH   1   4
BRANCH   2  10
ATOM     10  C   UNL     1     185.080 186.260 193.964  1.00  0.00     0.035 C 
BRANCH  10  11
ATOM     11  C   UNL     1     185.228 185.773 195.409  1.00  0.00     0.079 C 
BRANCH  11  12
ATOM     12  C   UNL     1     186.223 186.620 196.156  1.00  0.00     0.130 C 
ATOM     13  O   UNL     1     187.307 186.864 195.648  1.00  0.00    -0.300 OA
ATOM     14  C   UNL     1     185.920 187.163 197.521  1.00  0.00     0.087 C 
ENDBRANCH  11  12
ENDBRANCH  10  11
ENDBRANCH   2  10
TORSDOF 6
ENDMDL
MODEL 6
REMARK VINA RESULT:    -4.567      2.629      6.455
REMARK INTER + INTRA:          -6.617
REMARK INTER:                  -6.184
REMARK INTRA:                  -0.433
REMARK UNBOUND:                -0.448
REMARK SMILES CC(=O)CCC=C(C)CCC=C(C)C
REMARK SMILES IDX 7 1 6 2 8 3 9 4 10 5 11 6 13 7 12 8 14 9 5 10 4 11 2 12 3 13
REMARK SMILES IDX 1 14
REMARK H PARENT
REMARK Flexibility Score: inf
ROOT
ATOM      1  C   UNL     1     189.747 185.560 193.702  1.00  0.00    -0.077 C 
ATOM      2  C   UNL     1     191.079 185.758 193.569  1.00  0.00    -0.028 C 
ATOM      3  C   UNL     1     189.210 184.164 193.525  1.00  0.00     0.039 C 
ENDROOT
BRANCH   1   4
ATOM      4  C   UNL     1     188.783 186.667 194.085  1.00  0.00     0.034 C 
BRANCH   4   5
ATOM      5  C   UNL     1     187.415 186.087 194.461  1.00  0.00     0.032 C 
BRANCH   5   6
ATOM      6  C   UNL     1     187.303 185.867 195.951  1.00  0.00    -0.028 C 
ATOM      7  C   UNL     1     186.507 186.390 198.237  1.00  0.00     0.039 C 
ATOM      8  C   UNL     1     186.575 186.669 196.758  1.00  0.00    -0.080 C 
ATOM      9  C   UNL     1     185.814 187.855 196.219  1.00  0.00     0.039 C 
ENDBRANCH   5   6
ENDBRANCH   4   5
ENDBRANCH   1   4
BRANCH   2  10
ATOM     10  C   UNL     1     191.770 187.091 193.701  1.00  0.00     0.035 C 
BRANCH  10  11
ATOM     11  C   UNL     1     193.104 186.942 194.440  1.00  0.00     0.079 C 
BRANCH  11  12
ATOM     12  C   UNL     1     193.913 188.208 194.340  1.00  0.00     0.130 C 
ATOM     13  O   UNL     1     193.863 188.874 193.317  1.00  0.00    -0.300 OA
ATOM     14  C   UNL     1     194.791 188.666 195.466  1.00  0.00     0.087 C 
ENDBRANCH  11  12
ENDBRANCH  10  11
ENDBRANCH   2  10
TORSDOF 6
ENDMDL
MODEL 7
REMARK VINA RESULT:    -4.351      9.563     11.217
REMARK INTER + INTRA:          -6.325
REMARK INTER:                  -5.740
REMARK INTRA:                  -0.585
REMARK UNBOUND:                -0.448
REMARK SMILES CC(=O)CCC=C(C)CCC=C(C)C
REMARK SMILES IDX 7 1 6 2 8 3 9 4 10 5 11 6 13 7 12 8 14 9 5 10 4 11 2 12 3 13
REMARK SMILES IDX 1 14
REMARK H PARENT
REMARK Flexibility Score: inf
ROOT
ATOM      1  C   UNL     1     191.396 176.665 200.139  1.00  0.00    -0.077 C 
ATOM      2  C   UNL     1     190.564 177.660 200.525  1.00  0.00    -0.028 C 
ATOM      3  C   UNL     1     192.407 176.154 201.132  1.00  0.00     0.039 C 
ENDROOT
BRANCH   1   4
ATOM      4  C   UNL     1     191.311 176.000 198.779  1.00  0.00     0.034 C 
BRANCH   4   5
ATOM      5  C   UNL     1     192.695 175.928 198.125  1.00  0.00     0.032 C 
BRANCH   5   6
ATOM      6  C   UNL     1     192.941 177.117 197.228  1.00  0.00    -0.028 C 
ATOM      7  C   UNL     1     194.029 178.326 195.360  1.00  0.00     0.039 C 
ATOM      8  C   UNL     1     193.835 177.101 196.215  1.00  0.00    -0.080 C 
ATOM      9  C   UNL     1     194.660 175.876 195.907  1.00  0.00     0.039 C 
ENDBRANCH   5   6
ENDBRANCH   4   5
ENDBRANCH   1   4
BRANCH   2  10
ATOM     10  C   UNL     1     189.510 178.290 199.650  1.00  0.00     0.035 C 
BRANCH  10  11
ATOM     11  C   UNL     1     188.318 178.764 200.489  1.00  0.00     0.079 C 
BRANCH  11  12
ATOM     12  C   UNL     1     188.608 180.102 201.115  1.00  0.00     0.130 C 
ATOM     13  O   UNL     1     188.864 180.165 202.308  1.00  0.00    -0.300 OA
ATOM     14  C   UNL     1     188.577 181.366 200.309  1.00  0.00     0.087 C 
ENDBRANCH  11  12
ENDBRANCH  10  11
ENDBRANCH   2  10
TORSDOF 6
ENDMDL
MODEL 8
REMARK VINA RESULT:    -4.250      2.927      5.926
REMARK INTER + INTRA:          -6.188
REMARK INTER:                  -5.127
REMARK INTRA:                  -1.061
REMARK UNBOUND:                -0.448
REMARK SMILES CC(=O)CCC=C(C)CCC=C(C)C
REMARK SMILES IDX 7 1 6 2 8 3 9 4 10 5 11 6 13 7 12 8 14 9 5 10 4 11 2 12 3 13
REMARK SMILES IDX 1 14
REMARK H PARENT
REMARK Flexibility Score: inf
ROOT
ATOM      1  C   UNL     1     190.064 185.378 193.610  1.00  0.00    -0.077 C 
ATOM      2  C   UNL     1     191.380 185.692 193.609  1.00  0.00    -0.028 C 
ATOM      3  C   UNL     1     189.676 183.923 193.571  1.00  0.00     0.039 C 
ENDROOT
BRANCH   1   4
ATOM      4  C   UNL     1     188.967 186.421 193.713  1.00  0.00     0.034 C 
BRANCH   4   5
ATOM      5  C   UNL     1     188.298 186.639 192.351  1.00  0.00     0.032 C 
BRANCH   5   6
ATOM      6  C   UNL     1     188.941 187.780 191.600  1.00  0.00    -0.028 C 
ATOM      7  C   UNL     1     190.411 188.778 189.875  1.00  0.00     0.039 C 
ATOM      8  C   UNL     1     189.807 187.592 190.580  1.00  0.00    -0.080 C 
ATOM      9  C   UNL     1     190.196 186.210 190.117  1.00  0.00     0.039 C 
ENDBRANCH   5   6
ENDBRANCH   4   5
ENDBRANCH   1   4
BRANCH   2  10
ATOM     10  C   UNL     1     191.931 187.096 193.630  1.00  0.00     0.035 C 
BRANCH  10  11
ATOM     11  C   UNL     1     193.166 187.181 194.534  1.00  0.00     0.079 C 
BRANCH  11  12
ATOM     12  C   UNL     1     194.011 188.372 194.167  1.00  0.00     0.130 C 
ATOM     13  O   UNL     1     193.899 188.871 193.058  1.00  0.00    -0.300 OA
ATOM     14  C   UNL     1     195.001 188.955 195.132  1.00  0.00     0.087 C 
ENDBRANCH  11  12
ENDBRANCH  10  11
ENDBRANCH   2  10
TORSDOF 6
ENDMDL
MODEL 9
REMARK VINA RESULT:    -4.221      9.605     11.657
REMARK INTER + INTRA:          -6.149
REMARK INTER:                  -5.577
REMARK INTRA:                  -0.572
REMARK UNBOUND:                -0.448
REMARK SMILES CC(=O)CCC=C(C)CCC=C(C)C
REMARK SMILES IDX 7 1 6 2 8 3 9 4 10 5 11 6 13 7 12 8 14 9 5 10 4 11 2 12 3 13
REMARK SMILES IDX 1 14
REMARK H PARENT
REMARK Flexibility Score: inf
ROOT
ATOM      1  C   UNL     1     187.722 178.700 198.820  1.00  0.00    -0.077 C 
ATOM      2  C   UNL     1     186.715 177.805 198.700  1.00  0.00    -0.028 C 
ATOM      3  C   UNL     1     187.712 179.912 197.923  1.00  0.00     0.039 C 
ENDROOT
BRANCH   1   4
ATOM      4  C   UNL     1     188.821 178.572 199.857  1.00  0.00     0.034 C 
BRANCH   4   5
ATOM      5  C   UNL     1     190.028 177.826 199.277  1.00  0.00     0.032 C 
BRANCH   5   6
ATOM      6  C   UNL     1     190.888 177.240 200.370  1.00  0.00    -0.028 C 
ATOM      7  C   UNL     1     192.785 175.920 201.262  1.00  0.00     0.039 C 
ATOM      8  C   UNL     1     191.971 176.473 200.121  1.00  0.00    -0.080 C 
ATOM      9  C   UNL     1     192.401 176.144 198.712  1.00  0.00     0.039 C 
ENDBRANCH   5   6
ENDBRANCH   4   5
ENDBRANCH   1   4
BRANCH   2  10
ATOM     10  C   UNL     1     186.587 176.539 199.509  1.00  0.00     0.035 C 
BRANCH  10  11
ATOM     11  C   UNL     1     185.723 176.773 200.753  1.00  0.00     0.079 C 
BRANCH  11  12
ATOM     12  C   UNL     1     184.305 177.092 200.364  1.00  0.00     0.130 C 
ATOM     13  O   UNL     1     183.586 176.205 199.930  1.00  0.00    -0.300 OA
ATOM     14  C   UNL     1     183.753 178.482 200.484  1.00  0.00     0.087 C 
ENDBRANCH  11  12
ENDBRANCH  10  11
ENDBRANCH   2  10
TORSDOF 6
ENDMDL
