MODEL 1
REMARK VINA RESULT:    -2.336      0.000      0.000
REMARK INTER + INTRA:          -5.211
REMARK INTER:                  -5.341
REMARK INTRA:                   0.131
REMARK UNBOUND:                 0.131
REMARK SMILES CCCCCCCCCCCCCCCCCCCCCCCC(=O)[O-]
REMARK SMILES IDX 13 1 14 2 15 3 16 4 17 5 18 6 19 7 20 8 21 9 22 10 23 11
REMARK SMILES IDX 24 12 25 13 26 14 12 15 11 16 10 17 9 18 8 19 7 20 6 21 5 22
REMARK SMILES IDX 4 23 3 24 2 25 1 26
REMARK H PARENT
REMARK Flexibility Score: inf
ROOT
ATOM      1  C   UNL     1      -6.269 -11.787   2.351  1.00  0.00     0.000 C 
ENDROOT
BRANCH   1   2
ATOM      2  C   UNL     1      -5.664 -10.752   3.316  1.00  0.00     0.000 C 
BRANCH   2   3
ATOM      3  C   UNL     1      -5.890 -11.121   4.791  1.00  0.00     0.000 C 
BRANCH   3   4
ATOM      4  C   UNL     1      -7.062 -12.098   4.987  1.00  0.00     0.000 C 
BRANCH   4   5
ATOM      5  C   UNL     1      -7.726 -11.952   6.365  1.00  0.00     0.000 C 
BRANCH   5   6
ATOM      6  C   UNL     1      -9.255 -12.117   6.302  1.00  0.00     0.000 C 
BRANCH   6   7
ATOM      7  C   UNL     1      -9.991 -11.207   7.298  1.00  0.00     0.000 C 
BRANCH   7   8
ATOM      8  C   UNL     1     -11.204 -11.900   7.944  1.00  0.00     0.000 C 
BRANCH   8   9
ATOM      9  C   UNL     1     -11.079 -12.024   9.473  1.00  0.00     0.000 C 
BRANCH   9  10
ATOM     10  C   UNL     1     -10.468 -10.800  10.184  1.00  0.00     0.006 C 
BRANCH  10  11
ATOM     11  C   UNL     1     -11.480  -9.936  10.953  1.00  0.00     0.053 C 
BRANCH  11  12
ATOM     12  C   UNL     1     -11.141  -9.837  12.408  1.00  0.00     0.041 C 
ATOM     13  O   UNL     1     -10.602 -10.809  13.001  1.00  0.00    -0.550 OA
ATOM     14  O   UNL     1     -11.446  -8.681  13.118  1.00  0.00    -0.550 OA
ENDBRANCH  11  12
ENDBRANCH  10  11
ENDBRANCH   9  10
ENDBRANCH   8   9
ENDBRANCH   7   8
ENDBRANCH   6   7
ENDBRANCH   5   6
ENDBRANCH   4   5
ENDBRANCH   3   4
ENDBRANCH   2   3
ENDBRANCH   1   2
BRANCH   1  15
ATOM     15  C   UNL     1      -7.733 -12.123   2.681  1.00  0.00     0.000 C 
BRANCH  15  16
ATOM     16  C   UNL     1      -8.646 -12.068   1.444  1.00  0.00     0.000 C 
BRANCH  16  17
ATOM     17  C   UNL     1      -7.921 -11.555   0.187  1.00  0.00     0.000 C 
BRANCH  17  18
ATOM     18  C   UNL     1      -8.794 -11.451  -1.077  1.00  0.00    -0.000 C 
BRANCH  18  19
ATOM     19  C   UNL     1      -9.941 -10.439  -0.934  1.00  0.00    -0.000 C 
BRANCH  19  20
ATOM     20  C   UNL     1     -11.286 -11.073  -1.306  1.00  0.00    -0.000 C 
BRANCH  20  21
ATOM     21  C   UNL     1     -11.972 -10.290  -2.431  1.00  0.00    -0.000 C 
BRANCH  21  22
ATOM     22  C   UNL     1     -11.839 -11.024  -3.773  1.00  0.00    -0.000 C 
BRANCH  22  23
ATOM     23  C   UNL     1     -10.375 -11.207  -4.214  1.00  0.00    -0.000 C 
BRANCH  23  24
ATOM     24  C   UNL     1     -10.023 -10.580  -5.576  1.00  0.00    -0.000 C 
BRANCH  24  25
ATOM     25  C   UNL     1      -8.510 -10.482  -5.816  1.00  0.00    -0.003 C 
ATOM     26  C   UNL     1      -7.744 -10.464  -4.497  1.00  0.00     0.004 C 
ENDBRANCH  24  25
ENDBRANCH  23  24
ENDBRANCH  22  23
ENDBRANCH  21  22
ENDBRANCH  20  21
ENDBRANCH  19  20
ENDBRANCH  18  19
ENDBRANCH  17  18
ENDBRANCH  16  17
ENDBRANCH  15  16
ENDBRANCH   1  15
TORSDOF 22
ENDMDL
MODEL 2
REMARK VINA RESULT:    -2.131      5.299     12.363
REMARK INTER + INTRA:          -4.741
REMARK INTER:                  -3.822
REMARK INTRA:                  -0.919
REMARK UNBOUND:                 0.131
REMARK SMILES CCCCCCCCCCCCCCCCCCCCCCCC(=O)[O-]
REMARK SMILES IDX 13 1 14 2 15 3 16 4 17 5 18 6 19 7 20 8 21 9 22 10 23 11
REMARK SMILES IDX 24 12 25 13 26 14 12 15 11 16 10 17 9 18 8 19 7 20 6 21 5 22
REMARK SMILES IDX 4 23 3 24 2 25 1 26
REMARK H PARENT
REMARK Flexibility Score: inf
ROOT
ATOM      1  C   UNL     1      -5.815 -11.425   3.940  1.00  0.00     0.000 C 
ENDROOT
BRANCH   1   2
ATOM      2  C   UNL     1      -6.847 -12.115   3.031  1.00  0.00     0.000 C 
BRANCH   2   3
ATOM      3  C   UNL     1      -6.445 -12.075   1.548  1.00  0.00     0.000 C 
BRANCH   3   4
ATOM      4  C   UNL     1      -7.589 -11.601   0.635  1.00  0.00     0.000 C 
BRANCH   4   5
ATOM      5  C   UNL     1      -8.953 -11.618   1.343  1.00  0.00     0.000 C 
BRANCH   5   6
ATOM      6  C   UNL     1     -10.085 -12.115   0.426  1.00  0.00     0.000 C 
BRANCH   6   7
ATOM      7  C   UNL     1      -9.732 -12.000  -1.066  1.00  0.00     0.000 C 
BRANCH   7   8
ATOM      8  C   UNL     1     -10.409 -10.793  -1.739  1.00  0.00     0.000 C 
BRANCH   8   9
ATOM      9  C   UNL     1     -10.807 -11.068  -3.200  1.00  0.00     0.000 C 
BRANCH   9  10
ATOM     10  C   UNL     1     -10.839  -9.828  -4.117  1.00  0.00     0.006 C 
BRANCH  10  11
ATOM     11  C   UNL     1     -10.248 -10.054  -5.518  1.00  0.00     0.053 C 
BRANCH  11  12
ATOM     12  C   UNL     1      -8.753 -10.140  -5.487  1.00  0.00     0.041 C 
ATOM     13  O   UNL     1      -8.056  -9.092  -5.540  1.00  0.00    -0.550 OA
ATOM     14  O   UNL     1      -8.127 -11.381  -5.431  1.00  0.00    -0.550 OA
ENDBRANCH  11  12
ENDBRANCH  10  11
ENDBRANCH   9  10
ENDBRANCH   8   9
ENDBRANCH   7   8
ENDBRANCH   6   7
ENDBRANCH   5   6
ENDBRANCH   4   5
ENDBRANCH   3   4
ENDBRANCH   2   3
ENDBRANCH   1   2
BRANCH   1  15
ATOM     15  C   UNL     1      -6.152 -11.563   5.434  1.00  0.00     0.000 C 
BRANCH  15  16
ATOM     16  C   UNL     1      -7.655 -11.778   5.683  1.00  0.00     0.000 C 
BRANCH  16  17
ATOM     17  C   UNL     1      -7.983 -12.061   7.161  1.00  0.00     0.000 C 
BRANCH  17  18
ATOM     18  C   UNL     1      -9.165 -11.259   7.736  1.00  0.00    -0.000 C 
BRANCH  18  19
ATOM     19  C   UNL     1     -10.404 -12.124   8.007  1.00  0.00    -0.000 C 
BRANCH  19  20
ATOM     20  C   UNL     1     -11.656 -11.256   8.181  1.00  0.00    -0.000 C 
BRANCH  20  21
ATOM     21  C   UNL     1     -11.972 -11.037   9.665  1.00  0.00    -0.000 C 
BRANCH  21  22
ATOM     22  C   UNL     1     -10.810 -10.331  10.378  1.00  0.00    -0.000 C 
BRANCH  22  23
ATOM     23  C   UNL     1     -11.276  -9.429  11.536  1.00  0.00    -0.000 C 
BRANCH  23  24
ATOM     24  C   UNL     1     -11.946 -10.170  12.708  1.00  0.00    -0.000 C 
BRANCH  24  25
ATOM     25  C   UNL     1     -11.208  -9.975  14.039  1.00  0.00    -0.003 C 
ATOM     26  C   UNL     1     -10.529  -8.610  14.097  1.00  0.00     0.004 C 
ENDBRANCH  24  25
ENDBRANCH  23  24
ENDBRANCH  22  23
ENDBRANCH  21  22
ENDBRANCH  20  21
ENDBRANCH  19  20
ENDBRANCH  18  19
ENDBRANCH  17  18
ENDBRANCH  16  17
ENDBRANCH  15  16
ENDBRANCH   1  15
TORSDOF 22
ENDMDL
MODEL 3
REMARK VINA RESULT:    -1.465      1.801      2.831
REMARK INTER + INTRA:          -3.218
REMARK INTER:                  -3.852
REMARK INTRA:                   0.635
REMARK UNBOUND:                 0.131
REMARK SMILES CCCCCCCCCCCCCCCCCCCCCCCC(=O)[O-]
REMARK SMILES IDX 13 1 14 2 15 3 16 4 17 5 18 6 19 7 20 8 21 9 22 10 23 11
REMARK SMILES IDX 24 12 25 13 26 14 12 15 11 16 10 17 9 18 8 19 7 20 6 21 5 22
REMARK SMILES IDX 4 23 3 24 2 25 1 26
REMARK H PARENT
REMARK Flexibility Score: inf
ROOT
ATOM      1  C   UNL     1      -5.683 -10.687   4.742  1.00  0.00     0.000 C 
ENDROOT
BRANCH   1   2
ATOM      2  C   UNL     1      -5.902 -11.888   5.679  1.00  0.00     0.000 C 
BRANCH   2   3
ATOM      3  C   UNL     1      -7.375 -12.057   6.084  1.00  0.00     0.000 C 
BRANCH   3   4
ATOM      4  C   UNL     1      -7.578 -12.033   7.609  1.00  0.00     0.000 C 
BRANCH   4   5
ATOM      5  C   UNL     1      -9.062 -12.074   8.006  1.00  0.00     0.000 C 
BRANCH   5   6
ATOM      6  C   UNL     1      -9.264 -12.050   9.532  1.00  0.00     0.000 C 
BRANCH   6   7
ATOM      7  C   UNL     1     -10.746 -12.125   9.934  1.00  0.00     0.000 C 
BRANCH   7   8
ATOM      8  C   UNL     1     -10.967 -11.821  11.426  1.00  0.00     0.000 C 
BRANCH   8   9
ATOM      9  C   UNL     1     -12.104 -10.812  11.669  1.00  0.00     0.000 C 
BRANCH   9  10
ATOM     10  C   UNL     1     -11.782  -9.354  11.282  1.00  0.00     0.006 C 
BRANCH  10  11
ATOM     11  C   UNL     1     -10.820  -9.207  10.093  1.00  0.00     0.053 C 
BRANCH  11  12
ATOM     12  C   UNL     1     -11.541  -9.245   8.780  1.00  0.00     0.041 C 
ATOM     13  O   UNL     1     -11.882  -8.173   8.213  1.00  0.00    -0.550 OA
ATOM     14  O   UNL     1     -11.863 -10.465   8.197  1.00  0.00    -0.550 OA
ENDBRANCH  11  12
ENDBRANCH  10  11
ENDBRANCH   9  10
ENDBRANCH   8   9
ENDBRANCH   7   8
ENDBRANCH   6   7
ENDBRANCH   5   6
ENDBRANCH   4   5
ENDBRANCH   3   4
ENDBRANCH   2   3
ENDBRANCH   1   2
BRANCH   1  15
ATOM     15  C   UNL     1      -5.304 -11.109   3.313  1.00  0.00     0.000 C 
BRANCH  15  16
ATOM     16  C   UNL     1      -6.434 -10.851   2.301  1.00  0.00     0.000 C 
BRANCH  16  17
ATOM     17  C   UNL     1      -7.223 -12.125   1.947  1.00  0.00     0.000 C 
BRANCH  17  18
ATOM     18  C   UNL     1      -8.235 -11.971   0.796  1.00  0.00    -0.000 C 
BRANCH  18  19
ATOM     19  C   UNL     1      -9.644 -11.596   1.281  1.00  0.00    -0.000 C 
BRANCH  19  20
ATOM     20  C   UNL     1     -10.366 -10.718   0.253  1.00  0.00    -0.000 C 
BRANCH  20  21
ATOM     21  C   UNL     1     -11.808 -11.191   0.040  1.00  0.00    -0.000 C 
BRANCH  21  22
ATOM     22  C   UNL     1     -12.072 -11.507  -1.439  1.00  0.00    -0.000 C 
BRANCH  22  23
ATOM     23  C   UNL     1     -10.908 -11.090  -2.358  1.00  0.00    -0.000 C 
BRANCH  23  24
ATOM     24  C   UNL     1     -11.326 -10.347  -3.640  1.00  0.00    -0.000 C 
BRANCH  24  25
ATOM     25  C   UNL     1     -10.188 -10.235  -4.664  1.00  0.00    -0.003 C 
ATOM     26  C   UNL     1      -8.924 -10.926  -4.160  1.00  0.00     0.004 C 
ENDBRANCH  24  25
ENDBRANCH  23  24
ENDBRANCH  22  23
ENDBRANCH  21  22
ENDBRANCH  20  21
ENDBRANCH  19  20
ENDBRANCH  18  19
ENDBRANCH  17  18
ENDBRANCH  16  17
ENDBRANCH  15  16
ENDBRANCH   1  15
TORSDOF 22
ENDMDL
MODEL 4
REMARK VINA RESULT:    -1.441      5.388     12.134
REMARK INTER + INTRA:          -3.163
REMARK INTER:                  -3.323
REMARK INTRA:                   0.160
REMARK UNBOUND:                 0.131
REMARK SMILES CCCCCCCCCCCCCCCCCCCCCCCC(=O)[O-]
REMARK SMILES IDX 13 1 14 2 15 3 16 4 17 5 18 6 19 7 20 8 21 9 22 10 23 11
REMARK SMILES IDX 24 12 25 13 26 14 12 15 11 16 10 17 9 18 8 19 7 20 6 21 5 22
REMARK SMILES IDX 4 23 3 24 2 25 1 26
REMARK H PARENT
REMARK Flexibility Score: inf
ROOT
ATOM      1  C   UNL     1      -6.343 -11.846   2.471  1.00  0.00     0.000 C 
ENDROOT
BRANCH   1   2
ATOM      2  C   UNL     1      -7.781 -11.479   2.066  1.00  0.00     0.000 C 
BRANCH   2   3
ATOM      3  C   UNL     1      -8.129 -11.946   0.643  1.00  0.00     0.000 C 
BRANCH   3   4
ATOM      4  C   UNL     1      -9.224 -11.086  -0.013  1.00  0.00     0.000 C 
BRANCH   4   5
ATOM      5  C   UNL     1     -10.410 -11.925  -0.513  1.00  0.00     0.000 C 
BRANCH   5   6
ATOM      6  C   UNL     1     -10.389 -12.124  -2.039  1.00  0.00     0.000 C 
BRANCH   6   7
ATOM      7  C   UNL     1      -9.571 -11.045  -2.765  1.00  0.00     0.000 C 
BRANCH   7   8
ATOM      8  C   UNL     1     -10.345 -10.402  -3.928  1.00  0.00     0.000 C 
BRANCH   8   9
ATOM      9  C   UNL     1      -9.643 -10.579  -5.287  1.00  0.00     0.000 C 
BRANCH   9  10
ATOM     10  C   UNL     1      -9.147  -9.275  -5.944  1.00  0.00     0.006 C 
BRANCH  10  11
ATOM     11  C   UNL     1      -7.747  -8.826  -5.496  1.00  0.00     0.053 C 
BRANCH  11  12
ATOM     12  C   UNL     1      -6.773  -9.964  -5.478  1.00  0.00     0.041 C 
ATOM     13  O   UNL     1      -7.187 -11.152  -5.416  1.00  0.00    -0.550 OA
ATOM     14  O   UNL     1      -5.406  -9.712  -5.499  1.00  0.00    -0.550 OA
ENDBRANCH  11  12
ENDBRANCH  10  11
ENDBRANCH   9  10
ENDBRANCH   8   9
ENDBRANCH   7   8
ENDBRANCH   6   7
ENDBRANCH   5   6
ENDBRANCH   4   5
ENDBRANCH   3   4
ENDBRANCH   2   3
ENDBRANCH   1   2
BRANCH   1  15
ATOM     15  C   UNL     1      -6.160 -11.940   3.995  1.00  0.00     0.000 C 
BRANCH  15  16
ATOM     16  C   UNL     1      -7.497 -11.891   4.755  1.00  0.00     0.000 C 
BRANCH  16  17
ATOM     17  C   UNL     1      -7.326 -12.027   6.279  1.00  0.00     0.000 C 
BRANCH  17  18
ATOM     18  C   UNL     1      -8.346 -11.245   7.126  1.00  0.00    -0.000 C 
BRANCH  18  19
ATOM     19  C   UNL     1      -9.495 -12.122   7.645  1.00  0.00    -0.000 C 
BRANCH  19  20
ATOM     20  C   UNL     1     -10.788 -11.856   6.867  1.00  0.00    -0.000 C 
BRANCH  20  21
ATOM     21  C   UNL     1     -12.021 -12.123   7.738  1.00  0.00    -0.000 C 
BRANCH  21  22
ATOM     22  C   UNL     1     -11.898 -11.420   9.097  1.00  0.00    -0.000 C 
BRANCH  22  23
ATOM     23  C   UNL     1     -11.658  -9.905   8.969  1.00  0.00    -0.000 C 
BRANCH  23  24
ATOM     24  C   UNL     1     -10.673  -9.314   9.995  1.00  0.00    -0.000 C 
BRANCH  24  25
ATOM     25  C   UNL     1     -11.234  -9.299  11.424  1.00  0.00    -0.003 C 
ATOM     26  C   UNL     1     -11.324 -10.712  11.993  1.00  0.00     0.004 C 
ENDBRANCH  24  25
ENDBRANCH  23  24
ENDBRANCH  22  23
ENDBRANCH  21  22
ENDBRANCH  20  21
ENDBRANCH  19  20
ENDBRANCH  18  19
ENDBRANCH  17  18
ENDBRANCH  16  17
ENDBRANCH  15  16
ENDBRANCH   1  15
TORSDOF 22
ENDMDL
MODEL 5
REMARK VINA RESULT:    -0.419      5.395     12.310
REMARK INTER + INTRA:          -0.826
REMARK INTER:                  -3.453
REMARK INTRA:                   2.627
REMARK UNBOUND:                 0.131
REMARK SMILES CCCCCCCCCCCCCCCCCCCCCCCC(=O)[O-]
REMARK SMILES IDX 13 1 14 2 15 3 16 4 17 5 18 6 19 7 20 8 21 9 22 10 23 11
REMARK SMILES IDX 24 12 25 13 26 14 12 15 11 16 10 17 9 18 8 19 7 20 6 21 5 22
REMARK SMILES IDX 4 23 3 24 2 25 1 26
REMARK H PARENT
REMARK Flexibility Score: inf
ROOT
ATOM      1  C   UNL     1      -9.607 -10.540  -0.238  1.00  0.00     0.000 C 
ENDROOT
BRANCH   1   2
ATOM      2  C   UNL     1      -9.411 -11.351  -1.531  1.00  0.00     0.000 C 
BRANCH   2   3
ATOM      3  C   UNL     1     -10.676 -12.124  -1.939  1.00  0.00     0.000 C 
BRANCH   3   4
ATOM      4  C   UNL     1     -10.962 -12.041  -3.449  1.00  0.00     0.000 C 
BRANCH   4   5
ATOM      5  C   UNL     1     -10.562 -10.684  -4.049  1.00  0.00     0.000 C 
BRANCH   5   6
ATOM      6  C   UNL     1     -11.314  -9.508  -3.399  1.00  0.00     0.000 C 
BRANCH   6   7
ATOM      7  C   UNL     1     -12.048  -8.634  -4.428  1.00  0.00     0.000 C 
BRANCH   7   8
ATOM      8  C   UNL     1     -11.957  -9.201  -5.855  1.00  0.00     0.000 C 
BRANCH   8   9
ATOM      9  C   UNL     1     -10.683 -10.034  -6.089  1.00  0.00     0.000 C 
BRANCH   9  10
ATOM     10  C   UNL     1      -9.369  -9.228  -6.125  1.00  0.00     0.006 C 
BRANCH  10  11
ATOM     11  C   UNL     1      -8.094 -10.082  -6.038  1.00  0.00     0.053 C 
BRANCH  11  12
ATOM     12  C   UNL     1      -7.131  -9.548  -5.022  1.00  0.00     0.041 C 
ATOM     13  O   UNL     1      -6.786  -8.337  -5.050  1.00  0.00    -0.550 OA
ATOM     14  O   UNL     1      -6.591 -10.395  -4.061  1.00  0.00    -0.550 OA
ENDBRANCH  11  12
ENDBRANCH  10  11
ENDBRANCH   9  10
ENDBRANCH   8   9
ENDBRANCH   7   8
ENDBRANCH   6   7
ENDBRANCH   5   6
ENDBRANCH   4   5
ENDBRANCH   3   4
ENDBRANCH   2   3
ENDBRANCH   1   2
BRANCH   1  15
ATOM     15  C   UNL     1      -9.620 -11.422   1.021  1.00  0.00     0.000 C 
BRANCH  15  16
ATOM     16  C   UNL     1     -10.972 -12.124   1.237  1.00  0.00     0.000 C 
BRANCH  16  17
ATOM     17  C   UNL     1     -11.450 -12.065   2.700  1.00  0.00     0.000 C 
BRANCH  17  18
ATOM     18  C   UNL     1     -11.751 -10.653   3.235  1.00  0.00    -0.000 C 
BRANCH  18  19
ATOM     19  C   UNL     1     -12.111 -10.640   4.728  1.00  0.00    -0.000 C 
BRANCH  19  20
ATOM     20  C   UNL     1     -11.494 -11.840   5.456  1.00  0.00    -0.000 C 
BRANCH  20  21
ATOM     21  C   UNL     1     -12.075 -11.987   6.867  1.00  0.00    -0.000 C 
BRANCH  21  22
ATOM     22  C   UNL     1     -10.962 -11.978   7.924  1.00  0.00    -0.000 C 
BRANCH  22  23
ATOM     23  C   UNL     1     -11.425 -11.410   9.278  1.00  0.00    -0.000 C 
BRANCH  23  24
ATOM     24  C   UNL     1     -10.690 -10.136   9.735  1.00  0.00    -0.000 C 
BRANCH  24  25
ATOM     25  C   UNL     1     -11.600  -9.158  10.490  1.00  0.00    -0.003 C 
ATOM     26  C   UNL     1     -11.530  -9.392  11.997  1.00  0.00     0.004 C 
ENDBRANCH  24  25
ENDBRANCH  23  24
ENDBRANCH  22  23
ENDBRANCH  21  22
ENDBRANCH  20  21
ENDBRANCH  19  20
ENDBRANCH  18  19
ENDBRANCH  17  18
ENDBRANCH  16  17
ENDBRANCH  15  16
ENDBRANCH   1  15
TORSDOF 22
ENDMDL
MODEL 6
REMARK VINA RESULT:    -0.042      5.232     12.136
REMARK INTER + INTRA:           0.034
REMARK INTER:                   1.117
REMARK INTRA:                  -1.083
REMARK UNBOUND:                 0.131
REMARK SMILES CCCCCCCCCCCCCCCCCCCCCCCC(=O)[O-]
REMARK SMILES IDX 13 1 14 2 15 3 16 4 17 5 18 6 19 7 20 8 21 9 22 10 23 11
REMARK SMILES IDX 24 12 25 13 26 14 12 15 11 16 10 17 9 18 8 19 7 20 6 21 5 22
REMARK SMILES IDX 4 23 3 24 2 25 1 26
REMARK H PARENT
REMARK Flexibility Score: inf
ROOT
ATOM      1  C   UNL     1      -6.099 -11.453   2.681  1.00  0.00     0.000 C 
ENDROOT
BRANCH   1   2
ATOM      2  C   UNL     1      -7.577 -11.165   2.362  1.00  0.00     0.000 C 
BRANCH   2   3
ATOM      3  C   UNL     1      -7.943 -11.511   0.910  1.00  0.00     0.000 C 
BRANCH   3   4
ATOM      4  C   UNL     1      -9.379 -11.095   0.544  1.00  0.00     0.000 C 
BRANCH   4   5
ATOM      5  C   UNL     1     -10.078 -12.125  -0.357  1.00  0.00     0.000 C 
BRANCH   5   6
ATOM      6  C   UNL     1     -10.096 -11.697  -1.836  1.00  0.00     0.000 C 
BRANCH   6   7
ATOM      7  C   UNL     1      -8.764 -11.079  -2.289  1.00  0.00     0.000 C 
BRANCH   7   8
ATOM      8  C   UNL     1      -8.671 -10.936  -3.818  1.00  0.00     0.000 C 
BRANCH   8   9
ATOM      9  C   UNL     1      -8.231  -9.529  -4.263  1.00  0.00     0.000 C 
BRANCH   9  10
ATOM     10  C   UNL     1      -8.664  -9.125  -5.687  1.00  0.00     0.006 C 
BRANCH  10  11
ATOM     11  C   UNL     1     -10.048  -9.646  -6.106  1.00  0.00     0.053 C 
BRANCH  11  12
ATOM     12  C   UNL     1     -11.156  -8.839  -5.502  1.00  0.00     0.041 C 
ATOM     13  O   UNL     1     -11.721  -9.228  -4.445  1.00  0.00    -0.550 OA
ATOM     14  O   UNL     1     -11.587  -7.672  -6.123  1.00  0.00    -0.550 OA
ENDBRANCH  11  12
ENDBRANCH  10  11
ENDBRANCH   9  10
ENDBRANCH   8   9
ENDBRANCH   7   8
ENDBRANCH   6   7
ENDBRANCH   5   6
ENDBRANCH   4   5
ENDBRANCH   3   4
ENDBRANCH   2   3
ENDBRANCH   1   2
BRANCH   1  15
ATOM     15  C   UNL     1      -5.791 -11.379   4.186  1.00  0.00     0.000 C 
BRANCH  15  16
ATOM     16  C   UNL     1      -7.045 -11.104   5.033  1.00  0.00     0.000 C 
BRANCH  16  17
ATOM     17  C   UNL     1      -7.207 -12.094   6.202  1.00  0.00     0.000 C 
BRANCH  17  18
ATOM     18  C   UNL     1      -7.725 -11.478   7.515  1.00  0.00    -0.000 C 
BRANCH  18  19
ATOM     19  C   UNL     1      -9.043 -12.103   7.995  1.00  0.00    -0.000 C 
BRANCH  19  20
ATOM     20  C   UNL     1     -10.139 -11.964   6.931  1.00  0.00    -0.000 C 
BRANCH  20  21
ATOM     21  C   UNL     1     -11.529 -11.921   7.576  1.00  0.00    -0.000 C 
BRANCH  21  22
ATOM     22  C   UNL     1     -11.626 -10.784   8.603  1.00  0.00    -0.000 C 
BRANCH  22  23
ATOM     23  C   UNL     1     -11.905 -11.289  10.031  1.00  0.00    -0.000 C 
BRANCH  23  24
ATOM     24  C   UNL     1     -10.733 -11.130  11.017  1.00  0.00    -0.000 C 
BRANCH  24  25
ATOM     25  C   UNL     1     -10.810  -9.833  11.834  1.00  0.00    -0.003 C 
ATOM     26  C   UNL     1     -11.744  -9.991  13.031  1.00  0.00     0.004 C 
ENDBRANCH  24  25
ENDBRANCH  23  24
ENDBRANCH  22  23
ENDBRANCH  21  22
ENDBRANCH  20  21
ENDBRANCH  19  20
ENDBRANCH  18  19
ENDBRANCH  17  18
ENDBRANCH  16  17
ENDBRANCH  15  16
ENDBRANCH   1  15
TORSDOF 22
ENDMDL
