MODEL 1
REMARK VINA RESULT:    -5.593      0.000      0.000
REMARK INTER + INTRA:          -9.371
REMARK INTER:                  -8.536
REMARK INTRA:                  -0.835
REMARK UNBOUND:                -0.835
REMARK SMILES CCCCCCCCCCC(=O)[O-]
REMARK SMILES IDX 7 1 8 2 9 3 10 4 11 5 12 6 13 7 6 8 5 9 4 10 3 11 2 12 1 13
REMARK H PARENT
REMARK Flexibility Score: inf
ROOT
ATOM      1  C   UNL     1      28.942   2.931   4.362  1.00  0.00     0.000 C 
ENDROOT
BRANCH   1   2
ATOM      2  C   UNL     1      29.094   1.994   5.570  1.00  0.00     0.000 C 
BRANCH   2   3
ATOM      3  C   UNL     1      28.095   0.827   5.545  1.00  0.00     0.006 C 
BRANCH   3   4
ATOM      4  C   UNL     1      28.790  -0.480   5.153  1.00  0.00     0.053 C 
BRANCH   4   5
ATOM      5  C   UNL     1      28.670  -0.716   3.680  1.00  0.00     0.041 C 
ATOM      6  O   UNL     1      29.700  -0.736   2.956  1.00  0.00    -0.550 OA
ATOM      7  O   UNL     1      27.426  -0.965   3.116  1.00  0.00    -0.550 OA
ENDBRANCH   4   5
ENDBRANCH   3   4
ENDBRANCH   2   3
ENDBRANCH   1   2
BRANCH   1   8
ATOM      8  C   UNL     1      27.539   3.551   4.266  1.00  0.00     0.000 C 
BRANCH   8   9
ATOM      9  C   UNL     1      27.518   4.957   4.884  1.00  0.00    -0.000 C 
BRANCH   9  10
ATOM     10  C   UNL     1      28.868   5.681   4.752  1.00  0.00    -0.000 C 
BRANCH  10  11
ATOM     11  C   UNL     1      29.371   6.244   6.092  1.00  0.00    -0.000 C 
BRANCH  11  12
ATOM     12  C   UNL     1      29.832   5.142   7.057  1.00  0.00    -0.003 C 
ATOM     13  C   UNL     1      28.927   5.014   8.283  1.00  0.00     0.004 C 
ENDBRANCH  11  12
ENDBRANCH  10  11
ENDBRANCH   9  10
ENDBRANCH   8   9
ENDBRANCH   1   8
TORSDOF 9
ENDMDL
MODEL 2
REMARK VINA RESULT:    -5.169      2.959      5.966
REMARK INTER + INTRA:          -8.723
REMARK INTER:                  -8.181
REMARK INTRA:                  -0.542
REMARK UNBOUND:                -0.835
REMARK SMILES CCCCCCCCCCC(=O)[O-]
REMARK SMILES IDX 7 1 8 2 9 3 10 4 11 5 12 6 13 7 6 8 5 9 4 10 3 11 2 12 1 13
REMARK H PARENT
REMARK Flexibility Score: inf
ROOT
ATOM      1  C   UNL     1      28.774   2.860   4.165  1.00  0.00     0.000 C 
ENDROOT
BRANCH   1   2
ATOM      2  C   UNL     1      27.641   3.884   4.000  1.00  0.00     0.000 C 
BRANCH   2   3
ATOM      3  C   UNL     1      27.594   4.906   5.146  1.00  0.00     0.006 C 
BRANCH   3   4
ATOM      4  C   UNL     1      28.672   5.979   4.968  1.00  0.00     0.053 C 
BRANCH   4   5
ATOM      5  C   UNL     1      29.921   5.592   5.696  1.00  0.00     0.041 C 
ATOM      6  O   UNL     1      30.997   5.425   5.064  1.00  0.00    -0.550 OA
ATOM      7  O   UNL     1      29.908   5.467   7.079  1.00  0.00    -0.550 OA
ENDBRANCH   4   5
ENDBRANCH   3   4
ENDBRANCH   2   3
ENDBRANCH   1   2
BRANCH   1   8
ATOM      8  C   UNL     1      28.731   2.142   5.523  1.00  0.00     0.000 C 
BRANCH   8   9
ATOM      9  C   UNL     1      27.880   0.866   5.441  1.00  0.00    -0.000 C 
BRANCH   9  10
ATOM     10  C   UNL     1      28.724  -0.415   5.537  1.00  0.00    -0.000 C 
BRANCH  10  11
ATOM     11  C   UNL     1      29.160  -0.941   4.159  1.00  0.00    -0.000 C 
BRANCH  11  12
ATOM     12  C   UNL     1      28.172  -0.560   3.045  1.00  0.00    -0.003 C 
ATOM     13  C   UNL     1      27.048  -1.583   2.879  1.00  0.00     0.004 C 
ENDBRANCH  11  12
ENDBRANCH  10  11
ENDBRANCH   9  10
ENDBRANCH   8   9
ENDBRANCH   1   8
TORSDOF 9
ENDMDL
MODEL 3
REMARK VINA RESULT:    -4.546      2.767      5.528
REMARK INTER + INTRA:          -7.772
REMARK INTER:                  -7.527
REMARK INTRA:                  -0.245
REMARK UNBOUND:                -0.835
REMARK SMILES CCCCCCCCCCC(=O)[O-]
REMARK SMILES IDX 7 1 8 2 9 3 10 4 11 5 12 6 13 7 6 8 5 9 4 10 3 11 2 12 1 13
REMARK H PARENT
REMARK Flexibility Score: inf
ROOT
ATOM      1  C   UNL     1      27.248   3.747   4.778  1.00  0.00     0.000 C 
ENDROOT
BRANCH   1   2
ATOM      2  C   UNL     1      27.725   5.030   5.476  1.00  0.00     0.000 C 
BRANCH   2   3
ATOM      3  C   UNL     1      28.495   4.748   6.774  1.00  0.00     0.006 C 
BRANCH   3   4
ATOM      4  C   UNL     1      29.832   5.494   6.791  1.00  0.00     0.053 C 
BRANCH   4   5
ATOM      5  C   UNL     1      30.427   5.534   5.419  1.00  0.00     0.041 C 
ATOM      6  O   UNL     1      30.313   6.567   4.709  1.00  0.00    -0.550 OA
ATOM      7  O   UNL     1      31.152   4.448   4.945  1.00  0.00    -0.550 OA
ENDBRANCH   4   5
ENDBRANCH   3   4
ENDBRANCH   2   3
ENDBRANCH   1   2
BRANCH   1   8
ATOM      8  C   UNL     1      28.214   3.274   3.681  1.00  0.00     0.000 C 
BRANCH   8   9
ATOM      9  C   UNL     1      28.678   1.833   3.943  1.00  0.00    -0.000 C 
BRANCH   9  10
ATOM     10  C   UNL     1      28.700   1.482   5.439  1.00  0.00    -0.000 C 
BRANCH  10  11
ATOM     11  C   UNL     1      28.346   0.009   5.706  1.00  0.00    -0.000 C 
BRANCH  11  12
ATOM     12  C   UNL     1      28.971  -0.941   4.673  1.00  0.00    -0.003 C 
ATOM     13  C   UNL     1      28.019  -1.272   3.523  1.00  0.00     0.004 C 
ENDBRANCH  11  12
ENDBRANCH  10  11
ENDBRANCH   9  10
ENDBRANCH   8   9
ENDBRANCH   1   8
TORSDOF 9
ENDMDL
MODEL 4
REMARK VINA RESULT:    -3.879      1.228      2.477
REMARK INTER + INTRA:          -6.755
REMARK INTER:                  -6.221
REMARK INTRA:                  -0.534
REMARK UNBOUND:                -0.835
REMARK SMILES CCCCCCCCCCC(=O)[O-]
REMARK SMILES IDX 7 1 8 2 9 3 10 4 11 5 12 6 13 7 6 8 5 9 4 10 3 11 2 12 1 13
REMARK H PARENT
REMARK Flexibility Score: inf
ROOT
ATOM      1  C   UNL     1      29.865   2.957   6.229  1.00  0.00     0.000 C 
ENDROOT
BRANCH   1   2
ATOM      2  C   UNL     1      28.932   1.814   5.799  1.00  0.00     0.000 C 
BRANCH   2   3
ATOM      3  C   UNL     1      28.732   1.753   4.277  1.00  0.00     0.006 C 
BRANCH   3   4
ATOM      4  C   UNL     1      27.974   0.484   3.875  1.00  0.00     0.053 C 
BRANCH   4   5
ATOM      5  C   UNL     1      28.892  -0.698   3.879  1.00  0.00     0.041 C 
ATOM      6  O   UNL     1      28.777  -1.586   4.764  1.00  0.00    -0.550 OA
ATOM      7  O   UNL     1      29.841  -0.844   2.875  1.00  0.00    -0.550 OA
ENDBRANCH   4   5
ENDBRANCH   3   4
ENDBRANCH   2   3
ENDBRANCH   1   2
BRANCH   1   8
ATOM      8  C   UNL     1      30.532   3.659   5.036  1.00  0.00     0.000 C 
BRANCH   8   9
ATOM      9  C   UNL     1      30.688   5.164   5.303  1.00  0.00    -0.000 C 
BRANCH   9  10
ATOM     10  C   UNL     1      29.509   5.748   6.099  1.00  0.00    -0.000 C 
BRANCH  10  11
ATOM     11  C   UNL     1      28.326   6.145   5.199  1.00  0.00    -0.000 C 
BRANCH  11  12
ATOM     12  C   UNL     1      27.264   5.040   5.104  1.00  0.00    -0.003 C 
ATOM     13  C   UNL     1      27.235   4.363   3.734  1.00  0.00     0.004 C 
ENDBRANCH  11  12
ENDBRANCH  10  11
ENDBRANCH   9  10
ENDBRANCH   8   9
ENDBRANCH   1   8
TORSDOF 9
ENDMDL
MODEL 5
REMARK VINA RESULT:    -3.857      3.109      5.554
REMARK INTER + INTRA:          -6.721
REMARK INTER:                  -6.550
REMARK INTRA:                  -0.171
REMARK UNBOUND:                -0.835
REMARK SMILES CCCCCCCCCCC(=O)[O-]
REMARK SMILES IDX 7 1 8 2 9 3 10 4 11 5 12 6 13 7 6 8 5 9 4 10 3 11 2 12 1 13
REMARK H PARENT
REMARK Flexibility Score: inf
ROOT
ATOM      1  C   UNL     1      29.858   3.068   5.285  1.00  0.00     0.000 C 
ENDROOT
BRANCH   1   2
ATOM      2  C   UNL     1      30.878   4.213   5.181  1.00  0.00     0.000 C 
BRANCH   2   3
ATOM      3  C   UNL     1      30.211   5.591   5.055  1.00  0.00     0.006 C 
BRANCH   3   4
ATOM      4  C   UNL     1      29.882   6.168   6.436  1.00  0.00     0.053 C 
BRANCH   4   5
ATOM      5  C   UNL     1      28.790   5.379   7.087  1.00  0.00     0.041 C 
ATOM      6  O   UNL     1      27.759   5.066   6.435  1.00  0.00    -0.550 OA
ATOM      7  O   UNL     1      28.932   4.946   8.399  1.00  0.00    -0.550 OA
ENDBRANCH   4   5
ENDBRANCH   3   4
ENDBRANCH   2   3
ENDBRANCH   1   2
BRANCH   1   8
ATOM      8  C   UNL     1      29.036   2.888   3.999  1.00  0.00     0.000 C 
BRANCH   8   9
ATOM      9  C   UNL     1      27.555   2.643   4.326  1.00  0.00    -0.000 C 
BRANCH   9  10
ATOM     10  C   UNL     1      27.278   1.196   4.766  1.00  0.00    -0.000 C 
BRANCH  10  11
ATOM     11  C   UNL     1      27.891   0.160   3.809  1.00  0.00    -0.000 C 
BRANCH  11  12
ATOM     12  C   UNL     1      28.825  -0.825   4.528  1.00  0.00    -0.003 C 
ATOM     13  C   UNL     1      29.134  -0.403   5.965  1.00  0.00     0.004 C 
ENDBRANCH  11  12
ENDBRANCH  10  11
ENDBRANCH   9  10
ENDBRANCH   8   9
ENDBRANCH   1   8
TORSDOF 9
ENDMDL
MODEL 6
REMARK VINA RESULT:    -3.343     17.032     18.873
REMARK INTER + INTRA:          -5.937
REMARK INTER:                  -5.132
REMARK INTRA:                  -0.805
REMARK UNBOUND:                -0.835
REMARK SMILES CCCCCCCCCCC(=O)[O-]
REMARK SMILES IDX 7 1 8 2 9 3 10 4 11 5 12 6 13 7 6 8 5 9 4 10 3 11 2 12 1 13
REMARK H PARENT
REMARK Flexibility Score: inf
ROOT
ATOM      1  C   UNL     1      31.061  12.537  21.120  1.00  0.00     0.000 C 
ENDROOT
BRANCH   1   2
ATOM      2  C   UNL     1      31.947  13.688  20.617  1.00  0.00     0.000 C 
BRANCH   2   3
ATOM      3  C   UNL     1      31.352  14.403  19.394  1.00  0.00     0.006 C 
BRANCH   3   4
ATOM      4  C   UNL     1      30.254  13.555  18.745  1.00  0.00     0.053 C 
BRANCH   4   5
ATOM      5  C   UNL     1      29.886  14.111  17.406  1.00  0.00     0.041 C 
ATOM      6  O   UNL     1      29.026  15.026  17.313  1.00  0.00    -0.550 OA
ATOM      7  O   UNL     1      30.530  13.653  16.263  1.00  0.00    -0.550 OA
ENDBRANCH   4   5
ENDBRANCH   3   4
ENDBRANCH   2   3
ENDBRANCH   1   2
BRANCH   1   8
ATOM      8  C   UNL     1      31.247  12.258  22.619  1.00  0.00     0.000 C 
BRANCH   8   9
ATOM      9  C   UNL     1      30.195  11.259  23.125  1.00  0.00    -0.000 C 
BRANCH   9  10
ATOM     10  C   UNL     1      29.898  10.146  22.106  1.00  0.00    -0.000 C 
BRANCH  10  11
ATOM     11  C   UNL     1      28.392   9.873  21.950  1.00  0.00    -0.000 C 
BRANCH  11  12
ATOM     12  C   UNL     1      27.565  11.165  21.877  1.00  0.00    -0.003 C 
ATOM     13  C   UNL     1      27.462  11.721  20.456  1.00  0.00     0.004 C 
ENDBRANCH  11  12
ENDBRANCH  10  11
ENDBRANCH   9  10
ENDBRANCH   8   9
ENDBRANCH   1   8
TORSDOF 9
ENDMDL
MODEL 7
REMARK VINA RESULT:    -3.320     17.650     18.606
REMARK INTER + INTRA:          -5.902
REMARK INTER:                  -4.959
REMARK INTRA:                  -0.942
REMARK UNBOUND:                -0.835
REMARK SMILES CCCCCCCCCCC(=O)[O-]
REMARK SMILES IDX 7 1 8 2 9 3 10 4 11 5 12 6 13 7 6 8 5 9 4 10 3 11 2 12 1 13
REMARK H PARENT
REMARK Flexibility Score: inf
ROOT
ATOM      1  C   UNL     1      29.215  13.253  21.374  1.00  0.00     0.000 C 
ENDROOT
BRANCH   1   2
ATOM      2  C   UNL     1      28.522  12.659  20.138  1.00  0.00     0.000 C 
BRANCH   2   3
ATOM      3  C   UNL     1      27.541  11.531  20.493  1.00  0.00     0.006 C 
BRANCH   3   4
ATOM      4  C   UNL     1      27.715  11.093  21.950  1.00  0.00     0.053 C 
BRANCH   4   5
ATOM      5  C   UNL     1      28.420   9.775  22.020  1.00  0.00     0.041 C 
ATOM      6  O   UNL     1      27.759   8.706  22.103  1.00  0.00    -0.550 OA
ATOM      7  O   UNL     1      29.806   9.724  21.943  1.00  0.00    -0.550 OA
ENDBRANCH   4   5
ENDBRANCH   3   4
ENDBRANCH   2   3
ENDBRANCH   1   2
BRANCH   1   8
ATOM      8  C   UNL     1      30.744  13.108  21.323  1.00  0.00     0.000 C 
BRANCH   8   9
ATOM      9  C   UNL     1      31.276  13.414  19.915  1.00  0.00    -0.000 C 
BRANCH   9  10
ATOM     10  C   UNL     1      31.727  14.876  19.759  1.00  0.00    -0.000 C 
BRANCH  10  11
ATOM     11  C   UNL     1      31.242  15.507  18.442  1.00  0.00    -0.000 C 
BRANCH  11  12
ATOM     12  C   UNL     1      30.469  14.511  17.564  1.00  0.00    -0.003 C 
ATOM     13  C   UNL     1      29.061  14.998  17.220  1.00  0.00     0.004 C 
ENDBRANCH  11  12
ENDBRANCH  10  11
ENDBRANCH   9  10
ENDBRANCH   8   9
ENDBRANCH   1   8
TORSDOF 9
ENDMDL
MODEL 8
REMARK VINA RESULT:    -3.261     17.835     18.839
REMARK INTER + INTRA:          -5.812
REMARK INTER:                  -4.947
REMARK INTRA:                  -0.865
REMARK UNBOUND:                -0.835
REMARK SMILES CCCCCCCCCCC(=O)[O-]
REMARK SMILES IDX 7 1 8 2 9 3 10 4 11 5 12 6 13 7 6 8 5 9 4 10 3 11 2 12 1 13
REMARK H PARENT
REMARK Flexibility Score: inf
ROOT
ATOM      1  C   UNL     1      29.139  13.190  19.071  1.00  0.00     0.000 C 
ENDROOT
BRANCH   1   2
ATOM      2  C   UNL     1      28.838  12.737  20.508  1.00  0.00     0.000 C 
BRANCH   2   3
ATOM      3  C   UNL     1      27.796  11.609  20.568  1.00  0.00     0.006 C 
BRANCH   3   4
ATOM      4  C   UNL     1      27.736  10.993  21.969  1.00  0.00     0.053 C 
BRANCH   4   5
ATOM      5  C   UNL     1      28.448   9.677  21.993  1.00  0.00     0.041 C 
ATOM      6  O   UNL     1      29.705   9.635  21.926  1.00  0.00    -0.550 OA
ATOM      7  O   UNL     1      27.726   8.499  22.139  1.00  0.00    -0.550 OA
ENDBRANCH   4   5
ENDBRANCH   3   4
ENDBRANCH   2   3
ENDBRANCH   1   2
BRANCH   1   8
ATOM      8  C   UNL     1      30.643  13.372  18.811  1.00  0.00     0.000 C 
BRANCH   8   9
ATOM      9  C   UNL     1      31.037  14.855  18.895  1.00  0.00    -0.000 C 
BRANCH   9  10
ATOM     10  C   UNL     1      31.897  15.168  20.131  1.00  0.00    -0.000 C 
BRANCH  10  11
ATOM     11  C   UNL     1      32.372  13.899  20.858  1.00  0.00    -0.000 C 
BRANCH  11  12
ATOM     12  C   UNL     1      31.908  13.852  22.322  1.00  0.00    -0.003 C 
ATOM     13  C   UNL     1      31.731  12.425  22.840  1.00  0.00     0.004 C 
ENDBRANCH  11  12
ENDBRANCH  10  11
ENDBRANCH   9  10
ENDBRANCH   8   9
ENDBRANCH   1   8
TORSDOF 9
ENDMDL
