MODEL 1
REMARK VINA RESULT:    -4.499      0.000      0.000
REMARK INTER + INTRA:          -7.045
REMARK INTER:                  -6.340
REMARK INTRA:                  -0.705
REMARK UNBOUND:                -0.705
REMARK SMILES CCCCCCCCC(=O)[O-]
REMARK SMILES IDX 6 1 7 2 8 3 9 4 10 5 11 6 5 7 4 8 3 9 2 10 1 11
REMARK H PARENT
REMARK Flexibility Score: inf
ROOT
ATOM      1  C   UNL     1     -30.739  65.266  85.655  1.00  0.00     0.000 C 
ENDROOT
BRANCH   1   2
ATOM      2  C   UNL     1     -31.238  66.696  85.392  1.00  0.00     0.006 C 
BRANCH   2   3
ATOM      3  C   UNL     1     -31.268  67.553  86.664  1.00  0.00     0.053 C 
BRANCH   3   4
ATOM      4  C   UNL     1     -30.407  68.766  86.497  1.00  0.00     0.041 C 
ATOM      5  O   UNL     1     -30.915  69.857  86.128  1.00  0.00    -0.550 OA
ATOM      6  O   UNL     1     -29.052  68.703  86.797  1.00  0.00    -0.550 OA
ENDBRANCH   3   4
ENDBRANCH   2   3
ENDBRANCH   1   2
BRANCH   1   7
ATOM      7  C   UNL     1     -29.370  65.240  86.359  1.00  0.00     0.000 C 
BRANCH   7   8
ATOM      8  C   UNL     1     -28.207  64.992  85.383  1.00  0.00    -0.000 C 
BRANCH   8   9
ATOM      9  C   UNL     1     -27.528  66.297  84.932  1.00  0.00    -0.000 C 
BRANCH   9  10
ATOM     10  C   UNL     1     -28.091  66.824  83.603  1.00  0.00    -0.003 C 
ATOM     11  C   UNL     1     -28.410  65.707  82.609  1.00  0.00     0.004 C 
ENDBRANCH   9  10
ENDBRANCH   8   9
ENDBRANCH   7   8
ENDBRANCH   1   7
TORSDOF 7
ENDMDL
MODEL 2
REMARK VINA RESULT:    -4.454      2.708      4.617
REMARK INTER + INTRA:          -6.981
REMARK INTER:                  -6.297
REMARK INTRA:                  -0.685
REMARK UNBOUND:                -0.705
REMARK SMILES CCCCCCCCC(=O)[O-]
REMARK SMILES IDX 6 1 7 2 8 3 9 4 10 5 11 6 5 7 4 8 3 9 2 10 1 11
REMARK H PARENT
REMARK Flexibility Score: inf
ROOT
ATOM      1  C   UNL     1     -27.632  68.047  85.410  1.00  0.00     0.000 C 
ENDROOT
BRANCH   1   2
ATOM      2  C   UNL     1     -27.696  66.740  84.604  1.00  0.00     0.006 C 
BRANCH   2   3
ATOM      3  C   UNL     1     -28.335  66.931  83.222  1.00  0.00     0.053 C 
BRANCH   3   4
ATOM      4  C   UNL     1     -28.392  65.627  82.489  1.00  0.00     0.041 C 
ATOM      5  O   UNL     1     -28.034  65.562  81.284  1.00  0.00    -0.550 OA
ATOM      6  O   UNL     1     -28.794  64.474  83.152  1.00  0.00    -0.550 OA
ENDBRANCH   3   4
ENDBRANCH   2   3
ENDBRANCH   1   2
BRANCH   1   7
ATOM      7  C   UNL     1     -28.632  68.068  86.580  1.00  0.00     0.000 C 
BRANCH   7   8
ATOM      8  C   UNL     1     -30.044  68.496  86.145  1.00  0.00    -0.000 C 
BRANCH   8   9
ATOM      9  C   UNL     1     -31.116  67.462  86.525  1.00  0.00    -0.000 C 
BRANCH   9  10
ATOM     10  C   UNL     1     -31.263  66.353  85.471  1.00  0.00    -0.003 C 
ATOM     11  C   UNL     1     -30.629  65.032  85.908  1.00  0.00     0.004 C 
ENDBRANCH   9  10
ENDBRANCH   8   9
ENDBRANCH   7   8
ENDBRANCH   1   7
TORSDOF 7
ENDMDL
MODEL 3
REMARK VINA RESULT:    -4.442      2.957      4.671
REMARK INTER + INTRA:          -6.965
REMARK INTER:                  -6.214
REMARK INTRA:                  -0.751
REMARK UNBOUND:                -0.705
REMARK SMILES CCCCCCCCC(=O)[O-]
REMARK SMILES IDX 6 1 7 2 8 3 9 4 10 5 11 6 5 7 4 8 3 9 2 10 1 11
REMARK H PARENT
REMARK Flexibility Score: inf
ROOT
ATOM      1  C   UNL     1     -27.536  66.054  85.013  1.00  0.00     0.000 C 
ENDROOT
BRANCH   1   2
ATOM      2  C   UNL     1     -28.345  65.196  86.000  1.00  0.00     0.006 C 
BRANCH   2   3
ATOM      3  C   UNL     1     -29.576  64.552  85.349  1.00  0.00     0.053 C 
BRANCH   3   4
ATOM      4  C   UNL     1     -29.176  63.763  84.141  1.00  0.00     0.041 C 
ATOM      5  O   UNL     1     -28.512  62.701  84.270  1.00  0.00    -0.550 OA
ATOM      6  O   UNL     1     -29.580  64.174  82.877  1.00  0.00    -0.550 OA
ENDBRANCH   3   4
ENDBRANCH   2   3
ENDBRANCH   1   2
BRANCH   1   7
ATOM      7  C   UNL     1     -28.108  67.476  84.864  1.00  0.00     0.000 C 
BRANCH   7   8
ATOM      8  C   UNL     1     -27.964  68.310  86.148  1.00  0.00    -0.000 C 
BRANCH   8   9
ATOM      9  C   UNL     1     -29.321  68.619  86.804  1.00  0.00    -0.000 C 
BRANCH   9  10
ATOM     10  C   UNL     1     -30.508  68.230  85.909  1.00  0.00    -0.003 C 
ATOM     11  C   UNL     1     -31.596  67.466  86.665  1.00  0.00     0.004 C 
ENDBRANCH   9  10
ENDBRANCH   8   9
ENDBRANCH   7   8
ENDBRANCH   1   7
TORSDOF 7
ENDMDL
MODEL 4
REMARK VINA RESULT:    -4.433      1.313      2.206
REMARK INTER + INTRA:          -6.952
REMARK INTER:                  -6.291
REMARK INTRA:                  -0.660
REMARK UNBOUND:                -0.705
REMARK SMILES CCCCCCCCC(=O)[O-]
REMARK SMILES IDX 6 1 7 2 8 3 9 4 10 5 11 6 5 7 4 8 3 9 2 10 1 11
REMARK H PARENT
REMARK Flexibility Score: inf
ROOT
ATOM      1  C   UNL     1     -30.123  63.883  85.399  1.00  0.00     0.000 C 
ENDROOT
BRANCH   1   2
ATOM      2  C   UNL     1     -30.130  65.220  86.156  1.00  0.00     0.006 C 
BRANCH   2   3
ATOM      3  C   UNL     1     -31.188  66.195  85.621  1.00  0.00     0.053 C 
BRANCH   3   4
ATOM      4  C   UNL     1     -31.196  67.453  86.432  1.00  0.00     0.041 C 
ATOM      5  O   UNL     1     -30.164  68.170  86.497  1.00  0.00    -0.550 OA
ATOM      6  O   UNL     1     -32.359  67.859  87.074  1.00  0.00    -0.550 OA
ENDBRANCH   3   4
ENDBRANCH   2   3
ENDBRANCH   1   2
BRANCH   1   7
ATOM      7  C   UNL     1     -29.022  63.820  84.325  1.00  0.00     0.000 C 
BRANCH   7   8
ATOM      8  C   UNL     1     -29.417  64.547  83.028  1.00  0.00    -0.000 C 
BRANCH   8   9
ATOM      9  C   UNL     1     -28.354  65.563  82.576  1.00  0.00    -0.000 C 
BRANCH   9  10
ATOM     10  C   UNL     1     -28.523  66.931  83.253  1.00  0.00    -0.003 C 
ATOM     11  C   UNL     1     -27.554  67.141  84.417  1.00  0.00     0.004 C 
ENDBRANCH   9  10
ENDBRANCH   8   9
ENDBRANCH   7   8
ENDBRANCH   1   7
TORSDOF 7
ENDMDL
MODEL 5
REMARK VINA RESULT:    -4.428      1.424      2.091
REMARK INTER + INTRA:          -6.944
REMARK INTER:                  -6.204
REMARK INTRA:                  -0.740
REMARK UNBOUND:                -0.705
REMARK SMILES CCCCCCCCC(=O)[O-]
REMARK SMILES IDX 6 1 7 2 8 3 9 4 10 5 11 6 5 7 4 8 3 9 2 10 1 11
REMARK H PARENT
REMARK Flexibility Score: inf
ROOT
ATOM      1  C   UNL     1     -28.342  65.537  86.228  1.00  0.00     0.000 C 
ENDROOT
BRANCH   1   2
ATOM      2  C   UNL     1     -28.472  67.069  86.203  1.00  0.00     0.006 C 
BRANCH   2   3
ATOM      3  C   UNL     1     -29.684  67.544  85.390  1.00  0.00     0.053 C 
BRANCH   3   4
ATOM      4  C   UNL     1     -30.594  68.369  86.245  1.00  0.00     0.041 C 
ATOM      5  O   UNL     1     -30.434  69.615  86.323  1.00  0.00    -0.550 OA
ATOM      6  O   UNL     1     -31.651  67.767  86.916  1.00  0.00    -0.550 OA
ENDBRANCH   3   4
ENDBRANCH   2   3
ENDBRANCH   1   2
BRANCH   1   7
ATOM      7  C   UNL     1     -29.698  64.834  86.420  1.00  0.00     0.000 C 
BRANCH   7   8
ATOM      8  C   UNL     1     -30.003  63.821  85.304  1.00  0.00    -0.000 C 
BRANCH   8   9
ATOM      9  C   UNL     1     -28.935  63.824  84.198  1.00  0.00    -0.000 C 
BRANCH   9  10
ATOM     10  C   UNL     1     -29.421  64.516  82.914  1.00  0.00    -0.003 C 
ATOM     11  C   UNL     1     -28.455  65.593  82.419  1.00  0.00     0.004 C 
ENDBRANCH   9  10
ENDBRANCH   8   9
ENDBRANCH   7   8
ENDBRANCH   1   7
TORSDOF 7
ENDMDL
MODEL 6
REMARK VINA RESULT:    -4.416      1.509      3.643
REMARK INTER + INTRA:          -6.927
REMARK INTER:                  -6.233
REMARK INTRA:                  -0.695
REMARK UNBOUND:                -0.705
REMARK SMILES CCCCCCCCC(=O)[O-]
REMARK SMILES IDX 6 1 7 2 8 3 9 4 10 5 11 6 5 7 4 8 3 9 2 10 1 11
REMARK H PARENT
REMARK Flexibility Score: inf
ROOT
ATOM      1  C   UNL     1     -29.358  64.942  83.109  1.00  0.00     0.000 C 
ENDROOT
BRANCH   1   2
ATOM      2  C   UNL     1     -28.277  66.019  82.921  1.00  0.00     0.006 C 
BRANCH   2   3
ATOM      3  C   UNL     1     -28.595  67.313  83.683  1.00  0.00     0.053 C 
BRANCH   3   4
ATOM      4  C   UNL     1     -27.718  67.438  84.889  1.00  0.00     0.041 C 
ATOM      5  O   UNL     1     -26.741  66.660  85.044  1.00  0.00    -0.550 OA
ATOM      6  O   UNL     1     -27.952  68.445  85.817  1.00  0.00    -0.550 OA
ENDBRANCH   3   4
ENDBRANCH   2   3
ENDBRANCH   1   2
BRANCH   1   7
ATOM      7  C   UNL     1     -29.026  63.968  84.254  1.00  0.00     0.000 C 
BRANCH   7   8
ATOM      8  C   UNL     1     -30.137  63.903  85.316  1.00  0.00    -0.000 C 
BRANCH   8   9
ATOM      9  C   UNL     1     -30.189  65.166  86.193  1.00  0.00    -0.000 C 
BRANCH   9  10
ATOM     10  C   UNL     1     -31.305  66.132  85.766  1.00  0.00    -0.003 C 
ATOM     11  C   UNL     1     -31.298  67.437  86.562  1.00  0.00     0.004 C 
ENDBRANCH   9  10
ENDBRANCH   8   9
ENDBRANCH   7   8
ENDBRANCH   1   7
TORSDOF 7
ENDMDL
MODEL 7
REMARK VINA RESULT:    -4.405      2.540      4.049
REMARK INTER + INTRA:          -6.912
REMARK INTER:                  -6.206
REMARK INTRA:                  -0.707
REMARK UNBOUND:                -0.705
REMARK SMILES CCCCCCCCC(=O)[O-]
REMARK SMILES IDX 6 1 7 2 8 3 9 4 10 5 11 6 5 7 4 8 3 9 2 10 1 11
REMARK H PARENT
REMARK Flexibility Score: inf
ROOT
ATOM      1  C   UNL     1     -29.814  65.000  86.095  1.00  0.00     0.000 C 
ENDROOT
BRANCH   1   2
ATOM      2  C   UNL     1     -28.689  64.882  85.054  1.00  0.00     0.006 C 
BRANCH   2   3
ATOM      3  C   UNL     1     -29.223  64.675  83.630  1.00  0.00     0.053 C 
BRANCH   3   4
ATOM      4  C   UNL     1     -28.658  65.709  82.707  1.00  0.00     0.041 C 
ATOM      5  O   UNL     1     -28.815  66.933  82.955  1.00  0.00    -0.550 OA
ATOM      6  O   UNL     1     -27.917  65.320  81.598  1.00  0.00    -0.550 OA
ENDBRANCH   3   4
ENDBRANCH   2   3
ENDBRANCH   1   2
BRANCH   1   7
ATOM      7  C   UNL     1     -30.922  65.975  85.656  1.00  0.00     0.000 C 
BRANCH   7   8
ATOM      8  C   UNL     1     -30.933  67.271  86.486  1.00  0.00    -0.000 C 
BRANCH   8   9
ATOM      9  C   UNL     1     -29.947  68.322  85.949  1.00  0.00    -0.000 C 
BRANCH   9  10
ATOM     10  C   UNL     1     -28.607  68.309  86.702  1.00  0.00    -0.003 C 
ATOM     11  C   UNL     1     -27.400  68.312  85.764  1.00  0.00     0.004 C 
ENDBRANCH   9  10
ENDBRANCH   8   9
ENDBRANCH   7   8
ENDBRANCH   1   7
TORSDOF 7
ENDMDL
MODEL 8
REMARK VINA RESULT:    -4.401      1.358      1.819
REMARK INTER + INTRA:          -6.906
REMARK INTER:                  -6.146
REMARK INTRA:                  -0.760
REMARK UNBOUND:                -0.705
REMARK SMILES CCCCCCCCC(=O)[O-]
REMARK SMILES IDX 6 1 7 2 8 3 9 4 10 5 11 6 5 7 4 8 3 9 2 10 1 11
REMARK H PARENT
REMARK Flexibility Score: inf
ROOT
ATOM      1  C   UNL     1     -31.133  66.153  85.646  1.00  0.00     0.000 C 
ENDROOT
BRANCH   1   2
ATOM      2  C   UNL     1     -30.449  67.287  84.866  1.00  0.00     0.006 C 
BRANCH   2   3
ATOM      3  C   UNL     1     -29.052  67.617  85.408  1.00  0.00     0.053 C 
BRANCH   3   4
ATOM      4  C   UNL     1     -29.147  68.598  86.534  1.00  0.00     0.041 C 
ATOM      5  O   UNL     1     -30.071  69.452  86.553  1.00  0.00    -0.550 OA
ATOM      6  O   UNL     1     -28.244  68.537  87.588  1.00  0.00    -0.550 OA
ENDBRANCH   3   4
ENDBRANCH   2   3
ENDBRANCH   1   2
BRANCH   1   7
ATOM      7  C   UNL     1     -30.127  65.124  86.192  1.00  0.00     0.000 C 
BRANCH   7   8
ATOM      8  C   UNL     1     -30.119  63.816  85.382  1.00  0.00    -0.000 C 
BRANCH   8   9
ATOM      9  C   UNL     1     -28.967  63.760  84.364  1.00  0.00    -0.000 C 
BRANCH   9  10
ATOM     10  C   UNL     1     -29.403  64.200  82.958  1.00  0.00    -0.003 C 
ATOM     11  C   UNL     1     -28.520  65.308  82.382  1.00  0.00     0.004 C 
ENDBRANCH   9  10
ENDBRANCH   8   9
ENDBRANCH   7   8
ENDBRANCH   1   7
TORSDOF 7
ENDMDL
MODEL 9
REMARK VINA RESULT:    -4.396      1.506      3.063
REMARK INTER + INTRA:          -6.899
REMARK INTER:                  -6.239
REMARK INTRA:                  -0.660
REMARK UNBOUND:                -0.705
REMARK SMILES CCCCCCCCC(=O)[O-]
REMARK SMILES IDX 6 1 7 2 8 3 9 4 10 5 11 6 5 7 4 8 3 9 2 10 1 11
REMARK H PARENT
REMARK Flexibility Score: inf
ROOT
ATOM      1  C   UNL     1     -28.923  67.334  83.732  1.00  0.00     0.000 C 
ENDROOT
BRANCH   1   2
ATOM      2  C   UNL     1     -27.949  67.520  84.907  1.00  0.00     0.006 C 
BRANCH   2   3
ATOM      3  C   UNL     1     -28.600  67.225  86.265  1.00  0.00     0.053 C 
BRANCH   3   4
ATOM      4  C   UNL     1     -29.864  68.012  86.419  1.00  0.00     0.041 C 
ATOM      5  O   UNL     1     -29.825  69.270  86.471  1.00  0.00    -0.550 OA
ATOM      6  O   UNL     1     -31.089  67.359  86.457  1.00  0.00    -0.550 OA
ENDBRANCH   3   4
ENDBRANCH   2   3
ENDBRANCH   1   2
BRANCH   1   7
ATOM      7  C   UNL     1     -28.239  66.740  82.488  1.00  0.00     0.000 C 
BRANCH   7   8
ATOM      8  C   UNL     1     -28.566  65.250  82.287  1.00  0.00    -0.000 C 
BRANCH   8   9
ATOM      9  C   UNL     1     -29.699  64.767  83.208  1.00  0.00    -0.000 C 
BRANCH   9  10
ATOM     10  C   UNL     1     -29.203  63.797  84.292  1.00  0.00    -0.003 C 
ATOM     11  C   UNL     1     -30.082  63.804  85.543  1.00  0.00     0.004 C 
ENDBRANCH   9  10
ENDBRANCH   8   9
ENDBRANCH   7   8
ENDBRANCH   1   7
TORSDOF 7
ENDMDL
