MODEL 1
REMARK VINA RESULT:    -5.417      0.000      0.000
REMARK INTER + INTRA:          -5.878
REMARK INTER:                  -5.734
REMARK INTRA:                  -0.144
REMARK UNBOUND:                -0.144
REMARK SMILES CC1=CCC(C(C)C)=CC1
REMARK SMILES IDX 1 1 2 2 3 3 4 4 5 5 9 6 10 7 6 8 7 9 8 10
REMARK H PARENT
REMARK Flexibility Score: inf
ROOT
ATOM      1  C   UNL     1      14.631  30.858  21.372  1.00  0.00     0.039 C 
ATOM      2  C   UNL     1      15.417  30.695  22.643  1.00  0.00    -0.073 C 
ATOM      3  C   UNL     1      15.316  29.557  23.355  1.00  0.00    -0.023 C 
ATOM      4  C   UNL     1      16.065  29.394  24.654  1.00  0.00     0.058 C 
ATOM      5  C   UNL     1      17.392  30.134  24.622  1.00  0.00    -0.068 C 
ATOM      6  C   UNL     1      17.488  31.273  23.903  1.00  0.00    -0.023 C 
ATOM      7  C   UNL     1      16.299  31.817  23.149  1.00  0.00     0.057 C 
ENDROOT
BRANCH   5   8
ATOM      8  C   UNL     1      18.606  29.594  25.361  1.00  0.00     0.009 C 
ATOM      9  C   UNL     1      18.957  30.471  26.569  1.00  0.00     0.012 C 
ATOM     10  C   UNL     1      18.381  28.139  25.784  1.00  0.00     0.012 C 
ENDBRANCH   5   8
TORSDOF 1
ENDMDL
MODEL 2
REMARK VINA RESULT:    -5.190      1.356      4.804
REMARK INTER + INTRA:          -5.638
REMARK INTER:                  -5.465
REMARK INTRA:                  -0.173
REMARK UNBOUND:                -0.144
REMARK SMILES CC1=CCC(C(C)C)=CC1
REMARK SMILES IDX 1 1 2 2 3 3 4 4 5 5 9 6 10 7 6 8 7 9 8 10
REMARK H PARENT
REMARK Flexibility Score: inf
ROOT
ATOM      1  C   UNL     1      19.720  29.021  28.851  1.00  0.00     0.039 C 
ATOM      2  C   UNL     1      19.362  29.298  27.418  1.00  0.00    -0.073 C 
ATOM      3  C   UNL     1      19.034  28.281  26.599  1.00  0.00    -0.023 C 
ATOM      4  C   UNL     1      18.713  28.537  25.147  1.00  0.00     0.058 C 
ATOM      5  C   UNL     1      18.041  29.888  24.961  1.00  0.00    -0.068 C 
ATOM      6  C   UNL     1      18.371  30.902  25.789  1.00  0.00    -0.023 C 
ATOM      7  C   UNL     1      19.400  30.712  26.877  1.00  0.00     0.057 C 
ENDROOT
BRANCH   5   8
ATOM      8  C   UNL     1      16.991  30.095  23.881  1.00  0.00     0.009 C 
ATOM      9  C   UNL     1      15.664  29.427  24.259  1.00  0.00     0.012 C 
ATOM     10  C   UNL     1      16.794  31.588  23.595  1.00  0.00     0.012 C 
ENDBRANCH   5   8
TORSDOF 1
ENDMDL
MODEL 3
REMARK VINA RESULT:    -5.176      6.181      7.717
REMARK INTER + INTRA:          -5.623
REMARK INTER:                  -5.480
REMARK INTRA:                  -0.142
REMARK UNBOUND:                -0.144
REMARK SMILES CC1=CCC(C(C)C)=CC1
REMARK SMILES IDX 1 1 2 2 3 3 4 4 5 5 9 6 10 7 6 8 7 9 8 10
REMARK H PARENT
REMARK Flexibility Score: inf
ROOT
ATOM      1  C   UNL     1      12.629  33.877  19.701  1.00  0.00     0.039 C 
ATOM      2  C   UNL     1      11.784  33.511  20.889  1.00  0.00    -0.073 C 
ATOM      3  C   UNL     1      12.371  33.104  22.031  1.00  0.00    -0.023 C 
ATOM      4  C   UNL     1      11.537  32.693  23.218  1.00  0.00     0.058 C 
ATOM      5  C   UNL     1      10.246  33.494  23.290  1.00  0.00    -0.068 C 
ATOM      6  C   UNL     1       9.666  33.902  22.141  1.00  0.00    -0.023 C 
ATOM      7  C   UNL     1      10.273  33.563  20.802  1.00  0.00     0.057 C 
ENDROOT
BRANCH   5   8
ATOM      8  C   UNL     1       9.627  33.859  24.630  1.00  0.00     0.009 C 
ATOM      9  C   UNL     1       8.135  33.505  24.668  1.00  0.00     0.012 C 
ATOM     10  C   UNL     1      10.382  33.182  25.779  1.00  0.00     0.012 C 
ENDBRANCH   5   8
TORSDOF 1
ENDMDL
MODEL 4
REMARK VINA RESULT:    -5.161      7.688     10.004
REMARK INTER + INTRA:          -5.606
REMARK INTER:                  -5.465
REMARK INTRA:                  -0.141
REMARK UNBOUND:                -0.144
REMARK SMILES CC1=CCC(C(C)C)=CC1
REMARK SMILES IDX 1 1 2 2 3 3 4 4 5 5 9 6 10 7 6 8 7 9 8 10
REMARK H PARENT
REMARK Flexibility Score: inf
ROOT
ATOM      1  C   UNL     1      10.056  32.562  26.438  1.00  0.00     0.039 C 
ATOM      2  C   UNL     1       9.397  33.099  25.198  1.00  0.00    -0.073 C 
ATOM      3  C   UNL     1      10.141  33.681  24.239  1.00  0.00    -0.023 C 
ATOM      4  C   UNL     1       9.491  34.261  23.008  1.00  0.00     0.058 C 
ATOM      5  C   UNL     1       8.256  33.469  22.611  1.00  0.00    -0.068 C 
ATOM      6  C   UNL     1       7.516  32.883  23.578  1.00  0.00    -0.023 C 
ATOM      7  C   UNL     1       7.894  33.018  25.033  1.00  0.00     0.057 C 
ENDROOT
BRANCH   5   8
ATOM      8  C   UNL     1       7.867  33.308  21.150  1.00  0.00     0.009 C 
ATOM      9  C   UNL     1       6.344  33.289  20.978  1.00  0.00     0.012 C 
ATOM     10  C   UNL     1       8.504  34.409  20.295  1.00  0.00     0.012 C 
ENDBRANCH   5   8
TORSDOF 1
ENDMDL
MODEL 5
REMARK VINA RESULT:    -5.141      6.431      7.914
REMARK INTER + INTRA:          -5.585
REMARK INTER:                  -5.411
REMARK INTRA:                  -0.174
REMARK UNBOUND:                -0.144
REMARK SMILES CC1=CCC(C(C)C)=CC1
REMARK SMILES IDX 1 1 2 2 3 3 4 4 5 5 9 6 10 7 6 8 7 9 8 10
REMARK H PARENT
REMARK Flexibility Score: inf
ROOT
ATOM      1  C   UNL     1      11.359  32.989  20.053  1.00  0.00     0.039 C 
ATOM      2  C   UNL     1      10.931  33.372  21.442  1.00  0.00    -0.073 C 
ATOM      3  C   UNL     1       9.726  33.938  21.642  1.00  0.00    -0.023 C 
ATOM      4  C   UNL     1       9.299  34.366  23.024  1.00  0.00     0.058 C 
ATOM      5  C   UNL     1       9.874  33.446  24.089  1.00  0.00    -0.068 C 
ATOM      6  C   UNL     1      11.081  32.878  23.880  1.00  0.00    -0.023 C 
ATOM      7  C   UNL     1      11.861  33.156  22.618  1.00  0.00     0.057 C 
ENDROOT
BRANCH   5   8
ATOM      8  C   UNL     1       9.097  33.141  25.360  1.00  0.00     0.009 C 
ATOM      9  C   UNL     1       7.867  32.274  25.067  1.00  0.00     0.012 C 
ATOM     10  C   UNL     1      10.002  32.477  26.404  1.00  0.00     0.012 C 
ENDBRANCH   5   8
TORSDOF 1
ENDMDL
MODEL 6
REMARK VINA RESULT:    -5.126      1.088      4.389
REMARK INTER + INTRA:          -5.570
REMARK INTER:                  -5.427
REMARK INTRA:                  -0.142
REMARK UNBOUND:                -0.144
REMARK SMILES CC1=CCC(C(C)C)=CC1
REMARK SMILES IDX 1 1 2 2 3 3 4 4 5 5 9 6 10 7 6 8 7 9 8 10
REMARK H PARENT
REMARK Flexibility Score: inf
ROOT
ATOM      1  C   UNL     1      19.568  29.271  28.076  1.00  0.00     0.039 C 
ATOM      2  C   UNL     1      18.867  29.429  26.755  1.00  0.00    -0.073 C 
ATOM      3  C   UNL     1      18.106  28.428  26.274  1.00  0.00    -0.023 C 
ATOM      4  C   UNL     1      17.429  28.554  24.933  1.00  0.00     0.058 C 
ATOM      5  C   UNL     1      17.029  29.993  24.650  1.00  0.00    -0.068 C 
ATOM      6  C   UNL     1      17.794  30.992  25.139  1.00  0.00    -0.023 C 
ATOM      7  C   UNL     1      19.036  30.696  25.943  1.00  0.00     0.057 C 
ENDROOT
BRANCH   5   8
ATOM      8  C   UNL     1      15.773  30.312  23.854  1.00  0.00     0.009 C 
ATOM      9  C   UNL     1      16.015  31.465  22.872  1.00  0.00     0.012 C 
ATOM     10  C   UNL     1      15.262  29.066  23.124  1.00  0.00     0.012 C 
ENDBRANCH   5   8
TORSDOF 1
ENDMDL
MODEL 7
REMARK VINA RESULT:    -5.060      5.843      7.723
REMARK INTER + INTRA:          -5.499
REMARK INTER:                  -5.321
REMARK INTRA:                  -0.179
REMARK UNBOUND:                -0.144
REMARK SMILES CC1=CCC(C(C)C)=CC1
REMARK SMILES IDX 1 1 2 2 3 3 4 4 5 5 9 6 10 7 6 8 7 9 8 10
REMARK H PARENT
REMARK Flexibility Score: inf
ROOT
ATOM      1  C   UNL     1       9.249  34.567  24.978  1.00  0.00     0.039 C 
ATOM      2  C   UNL     1       9.861  33.907  23.774  1.00  0.00    -0.073 C 
ATOM      3  C   UNL     1       9.494  34.291  22.537  1.00  0.00    -0.023 C 
ATOM      4  C   UNL     1      10.069  33.611  21.320  1.00  0.00     0.058 C 
ATOM      5  C   UNL     1      11.500  33.161  21.563  1.00  0.00    -0.068 C 
ATOM      6  C   UNL     1      11.863  32.781  22.808  1.00  0.00    -0.023 C 
ATOM      7  C   UNL     1      10.868  32.788  23.942  1.00  0.00     0.057 C 
ENDROOT
BRANCH   5   8
ATOM      8  C   UNL     1      12.522  33.161  20.437  1.00  0.00     0.009 C 
ATOM      9  C   UNL     1      12.151  34.177  19.350  1.00  0.00     0.012 C 
ATOM     10  C   UNL     1      13.929  33.427  20.981  1.00  0.00     0.012 C 
ENDBRANCH   5   8
TORSDOF 1
ENDMDL
MODEL 8
REMARK VINA RESULT:    -5.045      7.120      8.940
REMARK INTER + INTRA:          -5.483
REMARK INTER:                  -5.304
REMARK INTRA:                  -0.179
REMARK UNBOUND:                -0.144
REMARK SMILES CC1=CCC(C(C)C)=CC1
REMARK SMILES IDX 1 1 2 2 3 3 4 4 5 5 9 6 10 7 6 8 7 9 8 10
REMARK H PARENT
REMARK Flexibility Score: inf
ROOT
ATOM      1  C   UNL     1       6.520  29.074  24.255  1.00  0.00     0.039 C 
ATOM      2  C   UNL     1       7.104  30.454  24.127  1.00  0.00    -0.073 C 
ATOM      3  C   UNL     1       7.377  31.173  25.231  1.00  0.00    -0.023 C 
ATOM      4  C   UNL     1       7.924  32.574  25.120  1.00  0.00     0.058 C 
ATOM      5  C   UNL     1       8.814  32.723  23.896  1.00  0.00    -0.068 C 
ATOM      6  C   UNL     1       8.536  31.996  22.793  1.00  0.00    -0.023 C 
ATOM      7  C   UNL     1       7.356  31.056  22.760  1.00  0.00     0.057 C 
ENDROOT
BRANCH   5   8
ATOM      8  C   UNL     1      10.018  33.653  23.915  1.00  0.00     0.009 C 
ATOM      9  C   UNL     1      10.546  33.850  25.340  1.00  0.00     0.012 C 
ATOM     10  C   UNL     1      11.120  33.131  22.986  1.00  0.00     0.012 C 
ENDBRANCH   5   8
TORSDOF 1
ENDMDL
MODEL 9
REMARK VINA RESULT:    -4.822      5.522      7.568
REMARK INTER + INTRA:          -5.247
REMARK INTER:                  -5.081
REMARK INTRA:                  -0.166
REMARK UNBOUND:                -0.144
REMARK SMILES CC1=CCC(C(C)C)=CC1
REMARK SMILES IDX 1 1 2 2 3 3 4 4 5 5 9 6 10 7 6 8 7 9 8 10
REMARK H PARENT
REMARK Flexibility Score: inf
ROOT
ATOM      1  C   UNL     1       7.399  33.213  24.188  1.00  0.00     0.039 C 
ATOM      2  C   UNL     1       8.821  33.433  23.754  1.00  0.00    -0.073 C 
ATOM      3  C   UNL     1       9.834  32.967  24.508  1.00  0.00    -0.023 C 
ATOM      4  C   UNL     1      11.267  33.216  24.108  1.00  0.00     0.058 C 
ATOM      5  C   UNL     1      11.420  33.246  22.596  1.00  0.00    -0.068 C 
ATOM      6  C   UNL     1      10.398  33.710  21.845  1.00  0.00    -0.023 C 
ATOM      7  C   UNL     1       9.125  34.205  22.487  1.00  0.00     0.057 C 
ENDROOT
BRANCH   5   8
ATOM      8  C   UNL     1      12.688  32.738  21.929  1.00  0.00     0.009 C 
ATOM      9  C   UNL     1      12.610  31.230  21.660  1.00  0.00     0.012 C 
ATOM     10  C   UNL     1      12.970  33.513  20.637  1.00  0.00     0.012 C 
ENDBRANCH   5   8
TORSDOF 1
ENDMDL
