MODEL 1
REMARK VINA RESULT:    -7.081      0.000      0.000
REMARK INTER + INTRA:          -8.415
REMARK INTER:                  -8.116
REMARK INTRA:                  -0.299
REMARK UNBOUND:                -0.299
REMARK SMILES C=C(C)[C@@H]1CC[C@]2(C(=O)[O-])CC[C@@]3(C)[C@@H](CC[C@@H]4[C@]5(C)CC[C@H](O)C(C)(C)[C@H]5CC[C@@]43C)[C@@H]12
REMARK SMILES IDX 7 1 6 2 33 3 11 4 5 5 15 6 4 7 12 8 16 9 13 10 17 11 31 12
REMARK SMILES IDX 14 13 18 14 30 15 32 16 19 17 29 18 21 19 20 20 28 21 22 22
REMARK SMILES IDX 25 23 23 24 26 25 27 26 8 27 9 28 10 29 2 30 3 31 1 32 24 33
REMARK H PARENT 24 34
REMARK Flexibility Score: inf
ROOT
ATOM      1  C   UNL     1     106.984 106.659 115.769  1.00  0.00     0.014 C 
ATOM      2  C   UNL     1     108.200 105.711 115.726  1.00  0.00     0.014 C 
ATOM      3  C   UNL     1     107.684 108.013 115.559  1.00  0.00     0.012 C 
ATOM      4  C   UNL     1     105.945 106.448 114.608  1.00  0.00     0.014 C 
ATOM      5  C   UNL     1     109.362 106.489 116.390  1.00  0.00     0.009 C 
ATOM      6  C   UNL     1     106.778 109.277 115.483  1.00  0.00     0.000 C 
ATOM      7  C   UNL     1     108.957 107.985 116.411  1.00  0.00     0.018 C 
ATOM      8  C   UNL     1     105.483 107.762 113.896  1.00  0.00     0.008 C 
ATOM      9  C   UNL     1     106.672 110.192 116.709  1.00  0.00     0.005 C 
ATOM     10  C   UNL     1     105.367 109.016 114.840  1.00  0.00    -0.024 C 
ATOM     11  C   UNL     1     105.698 111.379 116.450  1.00  0.00     0.005 C 
ATOM     12  C   UNL     1     104.941 110.377 114.070  1.00  0.00    -0.024 C 
ATOM     13  C   UNL     1     104.299 108.650 115.939  1.00  0.00     0.012 C 
ATOM     14  C   UNL     1     105.378 111.682 114.934  1.00  0.00     0.002 C 
ATOM     15  C   UNL     1     103.408 110.340 113.722  1.00  0.00     0.008 C 
ATOM     16  C   UNL     1     105.676 110.457 112.685  1.00  0.00     0.012 C 
ATOM     17  C   UNL     1     104.544 113.045 114.668  1.00  0.00    -0.026 C 
ATOM     18  C   UNL     1     102.824 111.684 113.323  1.00  0.00     0.005 C 
ATOM     19  C   UNL     1     104.650 114.033 115.878  1.00  0.00     0.010 C 
ATOM     20  C   UNL     1     105.180 113.780 113.433  1.00  0.00     0.012 C 
ATOM     21  C   UNL     1     103.021 112.707 114.466  1.00  0.00     0.003 C 
ATOM     22  C   UNL     1     103.748 115.277 115.790  1.00  0.00     0.033 C 
ATOM     23  C   UNL     1     102.010 113.930 114.408  1.00  0.00    -0.006 C 
ATOM     24  C   UNL     1     102.267 114.921 115.598  1.00  0.00     0.120 C 
ATOM     25  C   UNL     1     100.546 113.415 114.533  1.00  0.00     0.014 C 
ATOM     26  C   UNL     1     102.086 114.705 113.066  1.00  0.00     0.014 C 
ENDROOT
BRANCH   1  27
ATOM     27  C   UNL     1     106.342 106.456 117.148  1.00  0.00     0.048 C 
ATOM     28  O   UNL     1     105.489 105.552 117.345  1.00  0.00    -0.550 OA
ATOM     29  O   UNL     1     106.605 107.342 118.189  1.00  0.00    -0.550 OA
ENDBRANCH   1  27
BRANCH   7  30
ATOM     30  C   UNL     1     110.055 108.920 115.912  1.00  0.00    -0.077 C 
ATOM     31  C   UNL     1     110.718 109.927 116.821  1.00  0.00     0.039 C 
ATOM     32  C   UNL     1     110.446 108.863 114.631  1.00  0.00     0.008 C 
ENDBRANCH   7  30
BRANCH  24  33
ATOM     33  O   UNL     1     101.713 114.471 116.812  1.00  0.00    -0.393 OA
ATOM     34  H   UNL     1     101.431 115.261 117.342  1.00  0.00     0.210 HD
ENDBRANCH  24  33
TORSDOF 3
ENDMDL
MODEL 2
REMARK VINA RESULT:    -6.862      4.588      9.678
REMARK INTER + INTRA:          -8.165
REMARK INTER:                  -7.851
REMARK INTRA:                  -0.313
REMARK UNBOUND:                -0.299
REMARK SMILES C=C(C)[C@@H]1CC[C@]2(C(=O)[O-])CC[C@@]3(C)[C@@H](CC[C@@H]4[C@]5(C)CC[C@H](O)C(C)(C)[C@H]5CC[C@@]43C)[C@@H]12
REMARK SMILES IDX 7 1 6 2 33 3 11 4 5 5 15 6 4 7 12 8 16 9 13 10 17 11 31 12
REMARK SMILES IDX 14 13 18 14 30 15 32 16 19 17 29 18 21 19 20 20 28 21 22 22
REMARK SMILES IDX 25 23 23 24 26 25 27 26 8 27 9 28 10 29 2 30 3 31 1 32 24 33
REMARK H PARENT 24 34
REMARK Flexibility Score: inf
ROOT
ATOM      1  C   UNL     1     108.275 111.431 116.098  1.00  0.00     0.014 C 
ATOM      2  C   UNL     1     106.993 110.829 115.487  1.00  0.00     0.014 C 
ATOM      3  C   UNL     1     108.648 110.324 117.098  1.00  0.00     0.012 C 
ATOM      4  C   UNL     1     109.464 111.611 115.084  1.00  0.00     0.014 C 
ATOM      5  C   UNL     1     106.290 110.078 116.643  1.00  0.00     0.009 C 
ATOM      6  C   UNL     1     109.958 110.518 117.918  1.00  0.00     0.000 C 
ATOM      7  C   UNL     1     107.342 109.876 117.762  1.00  0.00     0.018 C 
ATOM      8  C   UNL     1     110.847 111.093 115.600  1.00  0.00     0.008 C 
ATOM      9  C   UNL     1     109.863 110.985 119.375  1.00  0.00     0.005 C 
ATOM     10  C   UNL     1     111.089 111.288 117.143  1.00  0.00    -0.024 C 
ATOM     11  C   UNL     1     111.274 111.151 120.011  1.00  0.00     0.005 C 
ATOM     12  C   UNL     1     112.505 110.695 117.663  1.00  0.00    -0.024 C 
ATOM     13  C   UNL     1     111.011 112.839 117.414  1.00  0.00     0.012 C 
ATOM     14  C   UNL     1     112.453 110.415 119.263  1.00  0.00     0.002 C 
ATOM     15  C   UNL     1     113.678 111.648 117.231  1.00  0.00     0.008 C 
ATOM     16  C   UNL     1     112.801 109.327 116.952  1.00  0.00     0.012 C 
ATOM     17  C   UNL     1     113.869 110.413 120.049  1.00  0.00    -0.026 C 
ATOM     18  C   UNL     1     114.991 111.390 117.950  1.00  0.00     0.005 C 
ATOM     19  C   UNL     1     113.681 110.687 121.579  1.00  0.00     0.010 C 
ATOM     20  C   UNL     1     114.500 108.978 119.925  1.00  0.00     0.012 C 
ATOM     21  C   UNL     1     114.798 111.546 119.476  1.00  0.00     0.003 C 
ATOM     22  C   UNL     1     114.985 110.878 122.375  1.00  0.00     0.033 C 
ATOM     23  C   UNL     1     116.146 111.843 120.262  1.00  0.00    -0.006 C 
ATOM     24  C   UNL     1     115.871 111.992 121.800  1.00  0.00     0.120 C 
ATOM     25  C   UNL     1     116.767 113.180 119.763  1.00  0.00     0.014 C 
ATOM     26  C   UNL     1     117.223 110.750 120.034  1.00  0.00     0.014 C 
ENDROOT
BRANCH   1  27
ATOM     27  C   UNL     1     107.855 112.769 116.722  1.00  0.00     0.048 C 
ATOM     28  O   UNL     1     107.936 113.845 116.075  1.00  0.00    -0.550 OA
ATOM     29  O   UNL     1     107.478 112.839 118.060  1.00  0.00    -0.550 OA
ENDBRANCH   1  27
BRANCH   7  30
ATOM     30  C   UNL     1     107.384 108.451 118.308  1.00  0.00    -0.077 C 
ATOM     31  C   UNL     1     106.955 108.125 119.719  1.00  0.00     0.039 C 
ATOM     32  C   UNL     1     107.820 107.451 117.528  1.00  0.00     0.008 C 
ENDBRANCH   7  30
BRANCH  24  33
ATOM     33  O   UNL     1     115.350 113.255 122.141  1.00  0.00    -0.393 OA
ATOM     34  H   UNL     1     115.810 113.945 121.597  1.00  0.00     0.210 HD
ENDBRANCH  24  33
TORSDOF 3
ENDMDL
MODEL 3
REMARK VINA RESULT:    -6.833      7.255      9.384
REMARK INTER + INTRA:          -8.131
REMARK INTER:                  -7.945
REMARK INTRA:                  -0.186
REMARK UNBOUND:                -0.299
REMARK SMILES C=C(C)[C@@H]1CC[C@]2(C(=O)[O-])CC[C@@]3(C)[C@@H](CC[C@@H]4[C@]5(C)CC[C@H](O)C(C)(C)[C@H]5CC[C@@]43C)[C@@H]12
REMARK SMILES IDX 7 1 6 2 33 3 11 4 5 5 15 6 4 7 12 8 16 9 13 10 17 11 31 12
REMARK SMILES IDX 14 13 18 14 30 15 32 16 19 17 29 18 21 19 20 20 28 21 22 22
REMARK SMILES IDX 25 23 23 24 26 25 27 26 8 27 9 28 10 29 2 30 3 31 1 32 24 33
REMARK H PARENT 24 34
REMARK Flexibility Score: inf
ROOT
ATOM      1  C   UNL     1     113.849 110.580 121.012  1.00  0.00     0.014 C 
ATOM      2  C   UNL     1     114.598 109.514 121.838  1.00  0.00     0.014 C 
ATOM      3  C   UNL     1     114.895 110.867 119.922  1.00  0.00     0.012 C 
ATOM      4  C   UNL     1     112.532 110.069 120.320  1.00  0.00     0.014 C 
ATOM      5  C   UNL     1     116.090 109.922 121.794  1.00  0.00     0.009 C 
ATOM      6  C   UNL     1     114.503 111.888 118.812  1.00  0.00     0.000 C 
ATOM      7  C   UNL     1     116.255 110.925 120.623  1.00  0.00     0.018 C 
ATOM      8  C   UNL     1     112.388 110.467 118.814  1.00  0.00     0.008 C 
ATOM      9  C   UNL     1     115.054 113.316 118.885  1.00  0.00     0.005 C 
ATOM     10  C   UNL     1     112.973 111.882 118.448  1.00  0.00    -0.024 C 
ATOM     11  C   UNL     1     114.525 114.190 117.711  1.00  0.00     0.005 C 
ATOM     12  C   UNL     1     112.861 112.248 116.874  1.00  0.00    -0.024 C 
ATOM     13  C   UNL     1     112.178 112.932 119.314  1.00  0.00     0.012 C 
ATOM     14  C   UNL     1     113.941 113.398 116.478  1.00  0.00     0.002 C 
ATOM     15  C   UNL     1     111.379 112.631 116.515  1.00  0.00     0.008 C 
ATOM     16  C   UNL     1     113.181 110.979 116.007  1.00  0.00     0.012 C 
ATOM     17  C   UNL     1     113.598 114.303 115.179  1.00  0.00    -0.026 C 
ATOM     18  C   UNL     1     111.218 113.324 115.173  1.00  0.00     0.005 C 
ATOM     19  C   UNL     1     114.361 115.670 115.210  1.00  0.00     0.010 C 
ATOM     20  C   UNL     1     114.097 113.540 113.899  1.00  0.00     0.012 C 
ATOM     21  C   UNL     1     112.057 114.622 115.144  1.00  0.00     0.003 C 
ATOM     22  C   UNL     1     113.962 116.668 114.108  1.00  0.00     0.033 C 
ATOM     23  C   UNL     1     111.562 115.678 114.066  1.00  0.00    -0.006 C 
ATOM     24  C   UNL     1     112.456 116.967 114.098  1.00  0.00     0.120 C 
ATOM     25  C   UNL     1     110.100 116.111 114.381  1.00  0.00     0.014 C 
ATOM     26  C   UNL     1     111.543 115.098 112.627  1.00  0.00     0.014 C 
ENDROOT
BRANCH   1  27
ATOM     27  C   UNL     1     113.568 111.739 121.978  1.00  0.00     0.048 C 
ATOM     28  O   UNL     1     112.512 111.779 122.661  1.00  0.00    -0.550 OA
ATOM     29  O   UNL     1     114.425 112.834 122.038  1.00  0.00    -0.550 OA
ENDBRANCH   1  27
BRANCH   7  30
ATOM     30  C   UNL     1     117.436 110.606 119.710  1.00  0.00    -0.077 C 
ATOM     31  C   UNL     1     117.252 109.904 118.386  1.00  0.00     0.039 C 
ATOM     32  C   UNL     1     118.678 110.944 120.085  1.00  0.00     0.008 C 
ENDBRANCH   7  30
BRANCH  24  33
ATOM     33  O   UNL     1     112.124 117.835 115.156  1.00  0.00    -0.393 OA
ATOM     34  H   UNL     1     111.218 118.204 114.990  1.00  0.00     0.210 HD
ENDBRANCH  24  33
TORSDOF 3
ENDMDL
MODEL 4
REMARK VINA RESULT:    -6.614      3.387      6.358
REMARK INTER + INTRA:          -7.880
REMARK INTER:                  -7.634
REMARK INTRA:                  -0.246
REMARK UNBOUND:                -0.299
REMARK SMILES C=C(C)[C@@H]1CC[C@]2(C(=O)[O-])CC[C@@]3(C)[C@@H](CC[C@@H]4[C@]5(C)CC[C@H](O)C(C)(C)[C@H]5CC[C@@]43C)[C@@H]12
REMARK SMILES IDX 7 1 6 2 33 3 11 4 5 5 15 6 4 7 12 8 16 9 13 10 17 11 31 12
REMARK SMILES IDX 14 13 18 14 30 15 32 16 19 17 29 18 21 19 20 20 28 21 22 22
REMARK SMILES IDX 25 23 23 24 26 25 27 26 8 27 9 28 10 29 2 30 3 31 1 32 24 33
REMARK H PARENT 24 34
REMARK Flexibility Score: inf
ROOT
ATOM      1  C   UNL     1     105.707 107.964 117.335  1.00  0.00     0.014 C 
ATOM      2  C   UNL     1     104.383 107.402 117.891  1.00  0.00     0.014 C 
ATOM      3  C   UNL     1     105.212 109.292 116.737  1.00  0.00     0.012 C 
ATOM      4  C   UNL     1     106.796 108.281 118.425  1.00  0.00     0.014 C 
ATOM      5  C   UNL     1     103.287 107.843 116.890  1.00  0.00     0.009 C 
ATOM      6  C   UNL     1     106.282 110.226 116.097  1.00  0.00     0.000 C 
ATOM      7  C   UNL     1     103.885 108.988 116.034  1.00  0.00     0.018 C 
ATOM      8  C   UNL     1     107.481 109.679 118.278  1.00  0.00     0.008 C 
ATOM      9  C   UNL     1     106.414 110.270 114.570  1.00  0.00     0.005 C 
ATOM     10  C   UNL     1     107.690 110.156 116.792  1.00  0.00    -0.024 C 
ATOM     11  C   UNL     1     107.555 111.233 114.127  1.00  0.00     0.005 C 
ATOM     12  C   UNL     1     108.352 111.630 116.666  1.00  0.00    -0.024 C 
ATOM     13  C   UNL     1     108.613 109.079 116.103  1.00  0.00     0.012 C 
ATOM     14  C   UNL     1     108.028 112.278 115.211  1.00  0.00     0.002 C 
ATOM     15  C   UNL     1     109.889 111.559 116.992  1.00  0.00     0.008 C 
ATOM     16  C   UNL     1     107.743 112.582 117.755  1.00  0.00     0.012 C 
ATOM     17  C   UNL     1     109.054 113.410 114.672  1.00  0.00    -0.026 C 
ATOM     18  C   UNL     1     110.676 112.788 116.570  1.00  0.00     0.005 C 
ATOM     19  C   UNL     1     108.987 113.555 113.114  1.00  0.00     0.010 C 
ATOM     20  C   UNL     1     108.618 114.796 115.270  1.00  0.00     0.012 C 
ATOM     21  C   UNL     1     110.530 113.013 115.047  1.00  0.00     0.003 C 
ATOM     22  C   UNL     1     110.051 114.480 112.497  1.00  0.00     0.033 C 
ATOM     23  C   UNL     1     111.696 113.888 114.417  1.00  0.00    -0.006 C 
ATOM     24  C   UNL     1     111.482 114.070 112.873  1.00  0.00     0.120 C 
ATOM     25  C   UNL     1     113.064 113.173 114.621  1.00  0.00     0.014 C 
ATOM     26  C   UNL     1     111.827 115.280 115.088  1.00  0.00     0.014 C 
ENDROOT
BRANCH   1  27
ATOM     27  C   UNL     1     106.209 106.929 116.318  1.00  0.00     0.048 C 
ATOM     28  O   UNL     1     106.975 105.993 116.663  1.00  0.00    -0.550 OA
ATOM     29  O   UNL     1     105.917 107.068 114.964  1.00  0.00    -0.550 OA
ENDBRANCH   1  27
BRANCH   7  30
ATOM     30  C   UNL     1     102.963 110.198 115.906  1.00  0.00    -0.077 C 
ATOM     31  C   UNL     1     102.931 111.046 114.658  1.00  0.00     0.039 C 
ATOM     32  C   UNL     1     102.160 110.533 116.926  1.00  0.00     0.008 C 
ENDBRANCH   7  30
BRANCH  24  33
ATOM     33  O   UNL     1     111.876 112.940 112.130  1.00  0.00    -0.393 OA
ATOM     34  H   UNL     1     111.833 112.143 112.720  1.00  0.00     0.210 HD
ENDBRANCH  24  33
TORSDOF 3
ENDMDL
MODEL 5
REMARK VINA RESULT:    -6.521      3.971      8.581
REMARK INTER + INTRA:          -7.773
REMARK INTER:                  -7.458
REMARK INTRA:                  -0.315
REMARK UNBOUND:                -0.299
REMARK SMILES C=C(C)[C@@H]1CC[C@]2(C(=O)[O-])CC[C@@]3(C)[C@@H](CC[C@@H]4[C@]5(C)CC[C@H](O)C(C)(C)[C@H]5CC[C@@]43C)[C@@H]12
REMARK SMILES IDX 7 1 6 2 33 3 11 4 5 5 15 6 4 7 12 8 16 9 13 10 17 11 31 12
REMARK SMILES IDX 14 13 18 14 30 15 32 16 19 17 29 18 21 19 20 20 28 21 22 22
REMARK SMILES IDX 25 23 23 24 26 25 27 26 8 27 9 28 10 29 2 30 3 31 1 32 24 33
REMARK H PARENT 24 34
REMARK Flexibility Score: inf
ROOT
ATOM      1  C   UNL     1     107.200 110.865 115.340  1.00  0.00     0.014 C 
ATOM      2  C   UNL     1     106.057 110.028 114.731  1.00  0.00     0.014 C 
ATOM      3  C   UNL     1     107.638 109.937 116.486  1.00  0.00     0.012 C 
ATOM      4  C   UNL     1     108.429 111.094 114.385  1.00  0.00     0.014 C 
ATOM      5  C   UNL     1     105.373 109.320 115.925  1.00  0.00     0.009 C 
ATOM      6  C   UNL     1     108.847 110.400 117.353  1.00  0.00     0.000 C 
ATOM      7  C   UNL     1     106.356 109.389 117.121  1.00  0.00     0.018 C 
ATOM      8  C   UNL     1     109.824 110.832 115.040  1.00  0.00     0.008 C 
ATOM      9  C   UNL     1     108.582 111.007 118.736  1.00  0.00     0.005 C 
ATOM     10  C   UNL     1     109.923 111.228 116.560  1.00  0.00    -0.024 C 
ATOM     11  C   UNL     1     109.908 111.435 119.431  1.00  0.00     0.005 C 
ATOM     12  C   UNL     1     111.361 110.897 117.230  1.00  0.00    -0.024 C 
ATOM     13  C   UNL     1     109.624 112.774 116.639  1.00  0.00     0.012 C 
ATOM     14  C   UNL     1     111.225 110.791 118.847  1.00  0.00     0.002 C 
ATOM     15  C   UNL     1     112.429 111.949 116.758  1.00  0.00     0.008 C 
ATOM     16  C   UNL     1     111.885 109.513 116.707  1.00  0.00     0.012 C 
ATOM     17  C   UNL     1     112.567 111.071 119.710  1.00  0.00    -0.026 C 
ATOM     18  C   UNL     1     113.707 111.956 117.580  1.00  0.00     0.005 C 
ATOM     19  C   UNL     1     112.231 111.484 121.183  1.00  0.00     0.010 C 
ATOM     20  C   UNL     1     113.387 109.733 119.796  1.00  0.00     0.012 C 
ATOM     21  C   UNL     1     113.381 112.251 119.062  1.00  0.00     0.003 C 
ATOM     22  C   UNL     1     113.435 111.940 122.026  1.00  0.00     0.033 C 
ATOM     23  C   UNL     1     114.616 112.816 119.886  1.00  0.00    -0.006 C 
ATOM     24  C   UNL     1     114.210 113.095 121.376  1.00  0.00     0.120 C 
ATOM     25  C   UNL     1     115.094 114.163 119.268  1.00  0.00     0.014 C 
ATOM     26  C   UNL     1     115.841 111.864 119.854  1.00  0.00     0.014 C 
ENDROOT
BRANCH   1  27
ATOM     27  C   UNL     1     106.564 112.193 115.773  1.00  0.00     0.048 C 
ATOM     28  O   UNL     1     106.518 113.180 114.995  1.00  0.00    -0.550 OA
ATOM     29  O   UNL     1     106.121 112.373 117.081  1.00  0.00    -0.550 OA
ENDBRANCH   1  27
BRANCH   7  30
ATOM     30  C   UNL     1     106.542 108.053 117.834  1.00  0.00    -0.077 C 
ATOM     31  C   UNL     1     106.245 107.888 119.306  1.00  0.00     0.039 C 
ATOM     32  C   UNL     1     106.988 106.990 117.151  1.00  0.00     0.008 C 
ENDBRANCH   7  30
BRANCH  24  33
ATOM     33  O   UNL     1     113.504 114.304 121.532  1.00  0.00    -0.393 OA
ATOM     34  H   UNL     1     112.595 114.191 121.150  1.00  0.00     0.210 HD
ENDBRANCH  24  33
TORSDOF 3
ENDMDL
MODEL 6
REMARK VINA RESULT:    -6.469      7.413     12.335
REMARK INTER + INTRA:          -7.714
REMARK INTER:                  -7.616
REMARK INTRA:                  -0.098
REMARK UNBOUND:                -0.299
REMARK SMILES C=C(C)[C@@H]1CC[C@]2(C(=O)[O-])CC[C@@]3(C)[C@@H](CC[C@@H]4[C@]5(C)CC[C@H](O)C(C)(C)[C@H]5CC[C@@]43C)[C@@H]12
REMARK SMILES IDX 7 1 6 2 33 3 11 4 5 5 15 6 4 7 12 8 16 9 13 10 17 11 31 12
REMARK SMILES IDX 14 13 18 14 30 15 32 16 19 17 29 18 21 19 20 20 28 21 22 22
REMARK SMILES IDX 25 23 23 24 26 25 27 26 8 27 9 28 10 29 2 30 3 31 1 32 24 33
REMARK H PARENT 24 34
REMARK Flexibility Score: inf
ROOT
ATOM      1  C   UNL     1     113.996 112.566 121.035  1.00  0.00     0.014 C 
ATOM      2  C   UNL     1     112.997 113.590 121.613  1.00  0.00     0.014 C 
ATOM      3  C   UNL     1     113.289 112.208 119.716  1.00  0.00     0.012 C 
ATOM      4  C   UNL     1     115.416 113.152 120.698  1.00  0.00     0.014 C 
ATOM      5  C   UNL     1     111.594 113.091 121.191  1.00  0.00     0.009 C 
ATOM      6  C   UNL     1     114.015 111.206 118.770  1.00  0.00     0.000 C 
ATOM      7  C   UNL     1     111.798 112.073 120.041  1.00  0.00     0.018 C 
ATOM      8  C   UNL     1     115.972 112.754 119.291  1.00  0.00     0.008 C 
ATOM      9  C   UNL     1     113.547 109.747 118.730  1.00  0.00     0.005 C 
ATOM     10  C   UNL     1     115.584 111.303 118.817  1.00  0.00    -0.024 C 
ATOM     11  C   UNL     1     114.413 108.899 117.754  1.00  0.00     0.005 C 
ATOM     12  C   UNL     1     116.124 110.933 117.335  1.00  0.00    -0.024 C 
ATOM     13  C   UNL     1     116.184 110.310 119.884  1.00  0.00     0.012 C 
ATOM     14  C   UNL     1     115.253 109.717 116.698  1.00  0.00     0.002 C 
ATOM     15  C   UNL     1     117.668 110.640 117.384  1.00  0.00     0.008 C 
ATOM     16  C   UNL     1     115.969 112.175 116.387  1.00  0.00     0.012 C 
ATOM     17  C   UNL     1     115.975 108.825 115.554  1.00  0.00    -0.026 C 
ATOM     18  C   UNL     1     118.213 109.949 116.145  1.00  0.00     0.005 C 
ATOM     19  C   UNL     1     115.310 107.415 115.417  1.00  0.00     0.010 C 
ATOM     20  C   UNL     1     115.784 109.548 114.171  1.00  0.00     0.012 C 
ATOM     21  C   UNL     1     117.487 108.601 115.929  1.00  0.00     0.003 C 
ATOM     22  C   UNL     1     116.039 106.436 114.480  1.00  0.00     0.033 C 
ATOM     23  C   UNL     1     118.306 107.570 115.041  1.00  0.00    -0.006 C 
ATOM     24  C   UNL     1     117.510 106.229 114.868  1.00  0.00     0.120 C 
ATOM     25  C   UNL     1     119.657 107.230 115.736  1.00  0.00     0.014 C 
ATOM     26  C   UNL     1     118.666 108.140 113.644  1.00  0.00     0.014 C 
ENDROOT
BRANCH   1  27
ATOM     27  C   UNL     1     114.081 111.433 122.067  1.00  0.00     0.048 C 
ATOM     28  O   UNL     1     114.972 111.424 122.955  1.00  0.00    -0.550 OA
ATOM     29  O   UNL     1     113.239 110.328 121.975  1.00  0.00    -0.550 OA
ENDBRANCH   1  27
BRANCH   7  30
ATOM     30  C   UNL     1     110.881 112.312 118.845  1.00  0.00    -0.077 C 
ATOM     31  C   UNL     1     111.418 112.758 117.506  1.00  0.00     0.039 C 
ATOM     32  C   UNL     1     109.558 112.135 118.975  1.00  0.00     0.008 C 
ENDBRANCH   7  30
BRANCH  24  33
ATOM     33  O   UNL     1     117.603 105.390 115.996  1.00  0.00    -0.393 OA
ATOM     34  H   UNL     1     116.907 104.687 115.924  1.00  0.00     0.210 HD
ENDBRANCH  24  33
TORSDOF 3
ENDMDL
MODEL 7
REMARK VINA RESULT:    -6.366      4.586      7.380
REMARK INTER + INTRA:          -7.596
REMARK INTER:                  -7.462
REMARK INTRA:                  -0.134
REMARK UNBOUND:                -0.299
REMARK SMILES C=C(C)[C@@H]1CC[C@]2(C(=O)[O-])CC[C@@]3(C)[C@@H](CC[C@@H]4[C@]5(C)CC[C@H](O)C(C)(C)[C@H]5CC[C@@]43C)[C@@H]12
REMARK SMILES IDX 7 1 6 2 33 3 11 4 5 5 15 6 4 7 12 8 16 9 13 10 17 11 31 12
REMARK SMILES IDX 14 13 18 14 30 15 32 16 19 17 29 18 21 19 20 20 28 21 22 22
REMARK SMILES IDX 25 23 23 24 26 25 27 26 8 27 9 28 10 29 2 30 3 31 1 32 24 33
REMARK H PARENT 24 34
REMARK Flexibility Score: inf
ROOT
ATOM      1  C   UNL     1     113.529 110.609 121.397  1.00  0.00     0.014 C 
ATOM      2  C   UNL     1     114.749 109.816 121.909  1.00  0.00     0.014 C 
ATOM      3  C   UNL     1     113.632 110.326 119.889  1.00  0.00     0.012 C 
ATOM      4  C   UNL     1     112.139 110.082 121.911  1.00  0.00     0.014 C 
ATOM      5  C   UNL     1     115.831 109.957 120.812  1.00  0.00     0.009 C 
ATOM      6  C   UNL     1     112.518 110.922 118.976  1.00  0.00     0.000 C 
ATOM      7  C   UNL     1     115.115 110.433 119.523  1.00  0.00     0.018 C 
ATOM      8  C   UNL     1     111.047 109.925 120.802  1.00  0.00     0.008 C 
ATOM      9  C   UNL     1     112.822 112.183 118.159  1.00  0.00     0.005 C 
ATOM     10  C   UNL     1     111.107 111.009 119.662  1.00  0.00    -0.024 C 
ATOM     11  C   UNL     1     111.580 112.641 117.339  1.00  0.00     0.005 C 
ATOM     12  C   UNL     1     110.001 110.794 118.497  1.00  0.00    -0.024 C 
ATOM     13  C   UNL     1     110.900 112.406 120.364  1.00  0.00     0.012 C 
ATOM     14  C   UNL     1     110.457 111.551 117.132  1.00  0.00     0.002 C 
ATOM     15  C   UNL     1     108.583 111.234 119.014  1.00  0.00     0.008 C 
ATOM     16  C   UNL     1     109.865 109.265 118.169  1.00  0.00     0.012 C 
ATOM     17  C   UNL     1     109.279 111.966 116.101  1.00  0.00    -0.026 C 
ATOM     18  C   UNL     1     107.545 111.411 117.919  1.00  0.00     0.005 C 
ATOM     19  C   UNL     1     109.728 113.123 115.147  1.00  0.00     0.010 C 
ATOM     20  C   UNL     1     108.965 110.727 115.186  1.00  0.00     0.012 C 
ATOM     21  C   UNL     1     108.023 112.473 116.902  1.00  0.00     0.003 C 
ATOM     22  C   UNL     1     108.617 113.703 114.253  1.00  0.00     0.033 C 
ATOM     23  C   UNL     1     106.846 113.128 116.062  1.00  0.00    -0.006 C 
ATOM     24  C   UNL     1     107.406 114.195 115.058  1.00  0.00     0.120 C 
ATOM     25  C   UNL     1     105.854 113.855 117.018  1.00  0.00     0.014 C 
ATOM     26  C   UNL     1     106.010 112.077 115.286  1.00  0.00     0.014 C 
ENDROOT
BRANCH   1  27
ATOM     27  C   UNL     1     113.770 112.067 121.812  1.00  0.00     0.048 C 
ATOM     28  O   UNL     1     113.107 112.601 122.738  1.00  0.00    -0.550 OA
ATOM     29  O   UNL     1     114.655 112.869 121.097  1.00  0.00    -0.550 OA
ENDBRANCH   1  27
BRANCH   7  30
ATOM     30  C   UNL     1     115.504 109.635 118.281  1.00  0.00    -0.077 C 
ATOM     31  C   UNL     1     114.803 108.352 117.905  1.00  0.00     0.039 C 
ATOM     32  C   UNL     1     116.501 110.070 117.496  1.00  0.00     0.008 C 
ENDBRANCH   7  30
BRANCH  24  33
ATOM     33  O   UNL     1     107.700 115.426 115.676  1.00  0.00    -0.393 OA
ATOM     34  H   UNL     1     108.065 116.044 114.992  1.00  0.00     0.210 HD
ENDBRANCH  24  33
TORSDOF 3
ENDMDL
MODEL 8
REMARK VINA RESULT:    -6.334      3.327      7.574
REMARK INTER + INTRA:          -7.559
REMARK INTER:                  -7.244
REMARK INTRA:                  -0.315
REMARK UNBOUND:                -0.299
REMARK SMILES C=C(C)[C@@H]1CC[C@]2(C(=O)[O-])CC[C@@]3(C)[C@@H](CC[C@@H]4[C@]5(C)CC[C@H](O)C(C)(C)[C@H]5CC[C@@]43C)[C@@H]12
REMARK SMILES IDX 7 1 6 2 33 3 11 4 5 5 15 6 4 7 12 8 16 9 13 10 17 11 31 12
REMARK SMILES IDX 14 13 18 14 30 15 32 16 19 17 29 18 21 19 20 20 28 21 22 22
REMARK SMILES IDX 25 23 23 24 26 25 27 26 8 27 9 28 10 29 2 30 3 31 1 32 24 33
REMARK H PARENT 24 34
REMARK Flexibility Score: inf
ROOT
ATOM      1  C   UNL     1     105.929 109.100 115.484  1.00  0.00     0.014 C 
ATOM      2  C   UNL     1     105.102 108.943 114.192  1.00  0.00     0.014 C 
ATOM      3  C   UNL     1     107.315 109.398 114.888  1.00  0.00     0.012 C 
ATOM      4  C   UNL     1     105.505 110.310 116.394  1.00  0.00     0.014 C 
ATOM      5  C   UNL     1     106.049 108.277 113.165  1.00  0.00     0.009 C 
ATOM      6  C   UNL     1     108.474 109.682 115.890  1.00  0.00     0.000 C 
ATOM      7  C   UNL     1     107.494 108.450 113.698  1.00  0.00     0.018 C 
ATOM      8  C   UNL     1     106.691 111.195 116.902  1.00  0.00     0.008 C 
ATOM      9  C   UNL     1     109.492 108.574 116.183  1.00  0.00     0.005 C 
ATOM     10  C   UNL     1     108.017 110.403 117.209  1.00  0.00    -0.024 C 
ATOM     11  C   UNL     1     110.549 109.037 117.229  1.00  0.00     0.005 C 
ATOM     12  C   UNL     1     109.246 111.347 117.681  1.00  0.00    -0.024 C 
ATOM     13  C   UNL     1     107.662 109.359 118.336  1.00  0.00     0.012 C 
ATOM     14  C   UNL     1     110.668 110.596 117.437  1.00  0.00     0.002 C 
ATOM     15  C   UNL     1     109.029 111.809 119.169  1.00  0.00     0.008 C 
ATOM     16  C   UNL     1     109.257 112.670 116.836  1.00  0.00     0.012 C 
ATOM     17  C   UNL     1     111.911 111.073 118.359  1.00  0.00    -0.026 C 
ATOM     18  C   UNL     1     110.265 112.396 119.829  1.00  0.00     0.005 C 
ATOM     19  C   UNL     1     113.021 109.972 118.446  1.00  0.00     0.010 C 
ATOM     20  C   UNL     1     112.576 112.326 117.681  1.00  0.00     0.012 C 
ATOM     21  C   UNL     1     111.411 111.358 119.823  1.00  0.00     0.003 C 
ATOM     22  C   UNL     1     114.158 110.266 119.441  1.00  0.00     0.033 C 
ATOM     23  C   UNL     1     112.521 111.628 120.927  1.00  0.00    -0.006 C 
ATOM     24  C   UNL     1     113.646 110.535 120.863  1.00  0.00     0.120 C 
ATOM     25  C   UNL     1     111.883 111.565 122.346  1.00  0.00     0.014 C 
ATOM     26  C   UNL     1     113.161 113.035 120.799  1.00  0.00     0.014 C 
ENDROOT
BRANCH   1  27
ATOM     27  C   UNL     1     105.805 107.762 116.227  1.00  0.00     0.048 C 
ATOM     28  O   UNL     1     104.888 107.563 117.065  1.00  0.00    -0.550 OA
ATOM     29  O   UNL     1     106.773 106.774 116.072  1.00  0.00    -0.550 OA
ENDBRANCH   1  27
BRANCH   7  30
ATOM     30  C   UNL     1     108.475 108.958 112.645  1.00  0.00    -0.077 C 
ATOM     31  C   UNL     1     109.688 108.158 112.233  1.00  0.00     0.039 C 
ATOM     32  C   UNL     1     108.271 110.150 112.066  1.00  0.00     0.008 C 
ENDBRANCH   7  30
BRANCH  24  33
ATOM     33  O   UNL     1     113.269 109.328 121.482  1.00  0.00    -0.393 OA
ATOM     34  H   UNL     1     112.539 109.517 122.127  1.00  0.00     0.210 HD
ENDBRANCH  24  33
TORSDOF 3
ENDMDL
MODEL 9
REMARK VINA RESULT:    -6.271      8.142     10.911
REMARK INTER + INTRA:          -7.487
REMARK INTER:                  -7.286
REMARK INTRA:                  -0.201
REMARK UNBOUND:                -0.299
REMARK SMILES C=C(C)[C@@H]1CC[C@]2(C(=O)[O-])CC[C@@]3(C)[C@@H](CC[C@@H]4[C@]5(C)CC[C@H](O)C(C)(C)[C@H]5CC[C@@]43C)[C@@H]12
REMARK SMILES IDX 7 1 6 2 33 3 11 4 5 5 15 6 4 7 12 8 16 9 13 10 17 11 31 12
REMARK SMILES IDX 14 13 18 14 30 15 32 16 19 17 29 18 21 19 20 20 28 21 22 22
REMARK SMILES IDX 25 23 23 24 26 25 27 26 8 27 9 28 10 29 2 30 3 31 1 32 24 33
REMARK H PARENT 24 34
REMARK Flexibility Score: inf
ROOT
ATOM      1  C   UNL     1     112.096 111.310 120.464  1.00  0.00     0.014 C 
ATOM      2  C   UNL     1     111.878 110.563 121.796  1.00  0.00     0.014 C 
ATOM      3  C   UNL     1     113.629 111.424 120.461  1.00  0.00     0.012 C 
ATOM      4  C   UNL     1     111.651 110.513 119.183  1.00  0.00     0.014 C 
ATOM      5  C   UNL     1     112.965 111.097 122.759  1.00  0.00     0.009 C 
ATOM      6  C   UNL     1     114.290 112.094 119.220  1.00  0.00     0.000 C 
ATOM      7  C   UNL     1     114.044 111.791 121.889  1.00  0.00     0.018 C 
ATOM      8  C   UNL     1     112.696 110.511 118.018  1.00  0.00     0.008 C 
ATOM      9  C   UNL     1     114.773 113.545 119.325  1.00  0.00     0.005 C 
ATOM     10  C   UNL     1     113.521 111.844 117.872  1.00  0.00    -0.024 C 
ATOM     11  C   UNL     1     115.372 114.044 117.978  1.00  0.00     0.005 C 
ATOM     12  C   UNL     1     114.633 111.797 116.695  1.00  0.00    -0.024 C 
ATOM     13  C   UNL     1     112.473 112.988 117.592  1.00  0.00     0.012 C 
ATOM     14  C   UNL     1     115.783 112.917 116.953  1.00  0.00     0.002 C 
ATOM     15  C   UNL     1     113.937 111.926 115.291  1.00  0.00     0.008 C 
ATOM     16  C   UNL     1     115.334 110.392 116.680  1.00  0.00     0.012 C 
ATOM     17  C   UNL     1     116.601 113.434 115.654  1.00  0.00    -0.026 C 
ATOM     18  C   UNL     1     114.885 112.247 114.148  1.00  0.00     0.005 C 
ATOM     19  C   UNL     1     117.252 114.837 115.902  1.00  0.00     0.010 C 
ATOM     20  C   UNL     1     117.783 112.434 115.384  1.00  0.00     0.012 C 
ATOM     21  C   UNL     1     115.623 113.577 114.430  1.00  0.00     0.003 C 
ATOM     22  C   UNL     1     117.899 115.487 114.667  1.00  0.00     0.033 C 
ATOM     23  C   UNL     1     116.194 114.278 113.125  1.00  0.00    -0.006 C 
ATOM     24  C   UNL     1     116.924 115.619 113.488  1.00  0.00     0.120 C 
ATOM     25  C   UNL     1     115.027 114.625 112.155  1.00  0.00     0.014 C 
ATOM     26  C   UNL     1     117.163 113.363 112.331  1.00  0.00     0.014 C 
ENDROOT
BRANCH   1  27
ATOM     27  C   UNL     1     111.336 112.637 120.598  1.00  0.00     0.048 C 
ATOM     28  O   UNL     1     111.783 113.578 121.302  1.00  0.00    -0.550 OA
ATOM     29  O   UNL     1     110.074 112.790 120.031  1.00  0.00    -0.550 OA
ENDBRANCH   1  27
BRANCH   7  30
ATOM     30  C   UNL     1     115.470 111.378 122.244  1.00  0.00    -0.077 C 
ATOM     31  C   UNL     1     116.544 112.397 122.540  1.00  0.00     0.039 C 
ATOM     32  C   UNL     1     115.795 110.078 122.290  1.00  0.00     0.008 C 
ENDBRANCH   7  30
BRANCH  24  33
ATOM     33  O   UNL     1     116.029 116.683 113.714  1.00  0.00    -0.393 OA
ATOM     34  H   UNL     1     116.183 117.037 114.628  1.00  0.00     0.210 HD
ENDBRANCH  24  33
TORSDOF 3
ENDMDL
