MODEL 1
REMARK VINA RESULT:    -3.819      0.000      0.000
REMARK INTER + INTRA:          -4.442
REMARK INTER:                  -4.712
REMARK INTRA:                   0.270
REMARK UNBOUND:                 0.270
REMARK SMILES C=C1[C@@H]2CC[C@H]3[C@H]2C(C)(C)CCC[C@@]13C
REMARK SMILES IDX 14 1 6 2 7 3 3 4 2 5 1 6 4 7 5 8 15 9 8 10 9 11 10 12 11 13
REMARK SMILES IDX 13 15 12 16
REMARK H PARENT
REMARK Flexibility Score: 80.00
ROOT
ATOM      1  C   UNL     1      30.855  24.135  12.627  1.00  0.00    -0.008 C 
ATOM      2  C   UNL     1      30.441  24.913  11.380  1.00  0.00     0.003 C 
ATOM      3  C   UNL     1      29.420  25.848  12.048  1.00  0.00     0.006 C 
ATOM      4  C   UNL     1      28.444  24.728  12.371  1.00  0.00     0.019 C 
ATOM      5  C   UNL     1      29.435  23.823  13.141  1.00  0.00    -0.068 C 
ATOM      6  C   UNL     1      29.113  22.982  14.128  1.00  0.00     0.009 C 
ATOM      7  C   UNL     1      28.193  24.072  11.023  1.00  0.00     0.008 C 
ATOM      8  C   UNL     1      29.571  24.132  10.362  1.00  0.00     0.005 C 
ATOM      9  C   UNL     1      31.665  22.864  12.309  1.00  0.00     0.016 C 
ENDROOT
BRANCH   3  10
ATOM     10  C   UNL     1      29.739  27.334  11.776  1.00  0.00    -0.032 C 
ATOM     11  C   UNL     1      29.959  27.635  10.273  1.00  0.00     0.011 C 
ATOM     12  C   UNL     1      28.554  28.211  12.249  1.00  0.00     0.011 C 
BRANCH  10  13
ATOM     13  C   UNL     1      31.055  27.682  12.625  1.00  0.00     0.007 CG0
ATOM     14  G   UNL     1      32.120  26.537  12.934  1.00  0.00     0.000 G0
ENDBRANCH  10  13
ENDBRANCH   3  10
BRANCH   1  15
ATOM     15  C   UNL     1      31.679  25.145  13.561  1.00  0.00     0.011 C 
BRANCH  15  16
ATOM     16  C   UNL     1      32.125  26.543  12.930  1.00  0.00     0.001 CG0
ATOM     17  G   UNL     1      31.053  27.681  12.622  1.00  0.00     0.000 G0
ENDBRANCH  15  16
ENDBRANCH   1  15
TORSDOF 0
ENDMDL
MODEL 2
REMARK VINA RESULT:    -3.352      1.900      4.374
REMARK INTER + INTRA:          -3.866
REMARK INTER:                  -4.146
REMARK INTRA:                   0.280
REMARK UNBOUND:                 0.270
REMARK SMILES C=C1[C@@H]2CC[C@H]3[C@H]2C(C)(C)CCC[C@@]13C
REMARK SMILES IDX 14 1 6 2 7 3 3 4 2 5 1 6 4 7 5 8 15 9 8 10 9 11 10 12 11 13
REMARK SMILES IDX 13 15 12 16
REMARK H PARENT
REMARK Flexibility Score: 80.00
ROOT
ATOM      1  C   UNL     1      29.018  27.021  11.459  1.00  0.00    -0.008 C 
ATOM      2  C   UNL     1      30.031  25.966  11.020  1.00  0.00     0.003 C 
ATOM      3  C   UNL     1      30.531  25.565  12.417  1.00  0.00     0.006 C 
ATOM      4  C   UNL     1      31.188  26.909  12.686  1.00  0.00     0.019 C 
ATOM      5  C   UNL     1      29.944  27.790  12.423  1.00  0.00    -0.068 C 
ATOM      6  C   UNL     1      29.692  28.970  12.996  1.00  0.00     0.009 C 
ATOM      7  C   UNL     1      32.125  27.092  11.504  1.00  0.00     0.008 C 
ATOM      8  C   UNL     1      31.315  26.512  10.344  1.00  0.00     0.005 C 
ATOM      9  C   UNL     1      28.511  27.896  10.297  1.00  0.00     0.016 C 
ENDROOT
BRANCH   3  10
ATOM     10  C   UNL     1      30.399  24.046  12.659  1.00  0.00    -0.032 C 
ATOM     11  C   UNL     1      31.005  23.200  11.512  1.00  0.00     0.011 C 
ATOM     12  C   UNL     1      31.153  23.663  13.957  1.00  0.00     0.011 C 
BRANCH  10  13
ATOM     13  C   UNL     1      28.832  23.743  12.824  1.00  0.00     0.007 CG0
ATOM     14  G   UNL     1      27.769  24.658  12.068  1.00  0.00     0.000 G0
ENDBRANCH  10  13
ENDBRANCH   3  10
BRANCH   1  15
ATOM     15  C   UNL     1      27.817  26.248  12.186  1.00  0.00     0.011 C 
BRANCH  15  16
ATOM     16  C   UNL     1      27.775  24.656  12.061  1.00  0.00     0.001 CG0
ATOM     17  G   UNL     1      28.832  23.747  12.833  1.00  0.00     0.000 G0
ENDBRANCH  15  16
ENDBRANCH   1  15
TORSDOF 0
ENDMDL
MODEL 3
REMARK VINA RESULT:    -3.143      1.567      4.072
REMARK INTER + INTRA:          -3.608
REMARK INTER:                  -3.888
REMARK INTRA:                   0.280
REMARK UNBOUND:                 0.270
REMARK SMILES C=C1[C@@H]2CC[C@H]3[C@H]2C(C)(C)CCC[C@@]13C
REMARK SMILES IDX 14 1 6 2 7 3 3 4 2 5 1 6 4 7 5 8 15 9 8 10 9 11 10 12 11 13
REMARK SMILES IDX 13 15 12 16
REMARK H PARENT
REMARK Flexibility Score: 80.00
ROOT
ATOM      1  C   UNL     1      30.913  25.903  12.049  1.00  0.00    -0.008 C 
ATOM      2  C   UNL     1      29.963  24.745  12.340  1.00  0.00     0.003 C 
ATOM      3  C   UNL     1      30.882  23.602  11.880  1.00  0.00     0.006 C 
ATOM      4  C   UNL     1      30.845  24.015  10.418  1.00  0.00     0.019 C 
ATOM      5  C   UNL     1      31.304  25.479  10.619  1.00  0.00    -0.068 C 
ATOM      6  C   UNL     1      31.986  26.208   9.731  1.00  0.00     0.009 C 
ATOM      7  C   UNL     1      29.361  24.052  10.094  1.00  0.00     0.008 C 
ATOM      8  C   UNL     1      28.753  24.614  11.380  1.00  0.00     0.005 C 
ATOM      9  C   UNL     1      30.223  27.280  12.093  1.00  0.00     0.016 C 
ENDROOT
BRANCH   3  10
ATOM     10  C   UNL     1      31.078  22.543  12.987  1.00  0.00    -0.032 C 
ATOM     11  C   UNL     1      29.740  22.061  13.600  1.00  0.00     0.011 C 
ATOM     12  C   UNL     1      31.783  21.298  12.391  1.00  0.00     0.011 C 
BRANCH  10  13
ATOM     13  C   UNL     1      32.007  23.218  14.106  1.00  0.00     0.007 CG0
ATOM     14  G   UNL     1      31.951  24.794  14.333  1.00  0.00     0.000 G0
ENDBRANCH  10  13
ENDBRANCH   3  10
BRANCH   1  15
ATOM     15  C   UNL     1      32.113  25.807  13.108  1.00  0.00     0.011 C 
BRANCH  15  16
ATOM     16  C   UNL     1      31.944  24.793  14.331  1.00  0.00     0.001 CG0
ATOM     17  G   UNL     1      32.010  23.218  14.102  1.00  0.00     0.000 G0
ENDBRANCH  15  16
ENDBRANCH   1  15
TORSDOF 0
ENDMDL
MODEL 4
REMARK VINA RESULT:    -2.863      1.559      2.317
REMARK INTER + INTRA:          -3.263
REMARK INTER:                  -3.541
REMARK INTRA:                   0.277
REMARK UNBOUND:                 0.270
REMARK SMILES C=C1[C@@H]2CC[C@H]3[C@H]2C(C)(C)CCC[C@@]13C
REMARK SMILES IDX 14 1 6 2 7 3 3 4 2 5 1 6 4 7 5 8 15 9 8 10 9 11 10 12 11 13
REMARK SMILES IDX 13 15 12 16
REMARK H PARENT
REMARK Flexibility Score: 80.00
ROOT
ATOM      1  C   UNL     1      31.010  25.020  10.822  1.00  0.00    -0.008 C 
ATOM      2  C   UNL     1      29.607  25.617  10.892  1.00  0.00     0.003 C 
ATOM      3  C   UNL     1      29.847  26.572  12.073  1.00  0.00     0.006 C 
ATOM      4  C   UNL     1      30.039  25.450  13.080  1.00  0.00     0.019 C 
ATOM      5  C   UNL     1      31.160  24.699  12.322  1.00  0.00    -0.068 C 
ATOM      6  C   UNL     1      32.125  23.969  12.887  1.00  0.00     0.009 C 
ATOM      7  C   UNL     1      28.772  24.623  12.942  1.00  0.00     0.008 C 
ATOM      8  C   UNL     1      28.504  24.674  11.438  1.00  0.00     0.005 C 
ATOM      9  C   UNL     1      31.091  23.763   9.934  1.00  0.00     0.016 C 
ENDROOT
BRANCH   3  10
ATOM     10  C   UNL     1      29.478  28.029  11.717  1.00  0.00    -0.032 C 
ATOM     11  C   UNL     1      28.061  28.157  11.105  1.00  0.00     0.011 C 
ATOM     12  C   UNL     1      29.503  28.896  13.000  1.00  0.00     0.011 C 
BRANCH  10  13
ATOM     13  C   UNL     1      30.592  28.543  10.684  1.00  0.00     0.007 CG0
ATOM     14  G   UNL     1      31.333  27.497   9.737  1.00  0.00     0.000 G0
ENDBRANCH  10  13
ENDBRANCH   3  10
BRANCH   1  15
ATOM     15  C   UNL     1      31.990  26.177  10.302  1.00  0.00     0.011 C 
BRANCH  15  16
ATOM     16  C   UNL     1      31.324  27.513   9.732  1.00  0.00     0.001 CG0
ATOM     17  G   UNL     1      30.594  28.542  10.704  1.00  0.00     0.000 G0
ENDBRANCH  15  16
ENDBRANCH   1  15
TORSDOF 0
ENDMDL
MODEL 5
REMARK VINA RESULT:    -2.836      1.565      3.120
REMARK INTER + INTRA:          -3.229
REMARK INTER:                  -3.500
REMARK INTRA:                   0.271
REMARK UNBOUND:                 0.270
REMARK SMILES C=C1[C@@H]2CC[C@H]3[C@H]2C(C)(C)CCC[C@@]13C
REMARK SMILES IDX 14 1 6 2 7 3 3 4 2 5 1 6 4 7 5 8 15 9 8 10 9 11 10 12 11 13
REMARK SMILES IDX 13 15 12 16
REMARK H PARENT
REMARK Flexibility Score: 80.00
ROOT
ATOM      1  C   UNL     1      29.161  25.349  12.115  1.00  0.00    -0.008 C 
ATOM      2  C   UNL     1      30.509  25.998  12.417  1.00  0.00     0.003 C 
ATOM      3  C   UNL     1      30.787  26.562  11.015  1.00  0.00     0.006 C 
ATOM      4  C   UNL     1      30.945  25.191  10.378  1.00  0.00     0.019 C 
ATOM      5  C   UNL     1      29.585  24.609  10.831  1.00  0.00    -0.068 C 
ATOM      6  C   UNL     1      28.879  23.684  10.175  1.00  0.00     0.009 C 
ATOM      7  C   UNL     1      32.021  24.526  11.220  1.00  0.00     0.008 C 
ATOM      8  C   UNL     1      31.691  25.018  12.630  1.00  0.00     0.005 C 
ATOM      9  C   UNL     1      28.685  24.392  13.224  1.00  0.00     0.016 C 
ENDROOT
BRANCH   3  10
ATOM     10  C   UNL     1      31.059  28.082  11.051  1.00  0.00    -0.032 C 
ATOM     11  C   UNL     1      32.125  28.476  12.103  1.00  0.00     0.011 C 
ATOM     12  C   UNL     1      31.586  28.545   9.670  1.00  0.00     0.011 C 
BRANCH  10  13
ATOM     13  C   UNL     1      29.655  28.789  11.370  1.00  0.00     0.007 CG0
ATOM     14  G   UNL     1      28.568  28.025  12.248  1.00  0.00     0.000 G0
ENDBRANCH  10  13
ENDBRANCH   3  10
BRANCH   1  15
ATOM     15  C   UNL     1      28.112  26.536  11.866  1.00  0.00     0.011 C 
BRANCH  15  16
ATOM     16  C   UNL     1      28.565  28.020  12.245  1.00  0.00     0.001 CG0
ATOM     17  G   UNL     1      29.650  28.793  11.370  1.00  0.00     0.000 G0
ENDBRANCH  15  16
ENDBRANCH   1  15
TORSDOF 0
ENDMDL
MODEL 6
REMARK VINA RESULT:    -2.825      1.638      3.837
REMARK INTER + INTRA:          -3.216
REMARK INTER:                  -3.472
REMARK INTRA:                   0.256
REMARK UNBOUND:                 0.270
REMARK SMILES C=C1[C@@H]2CC[C@H]3[C@H]2C(C)(C)CCC[C@@]13C
REMARK SMILES IDX 14 1 6 2 7 3 3 4 2 5 1 6 4 7 5 8 15 9 8 10 9 11 10 12 11 13
REMARK SMILES IDX 13 15 12 16
REMARK H PARENT
REMARK Flexibility Score: 80.00
ROOT
ATOM      1  C   UNL     1      31.286  26.346  12.282  1.00  0.00    -0.008 C 
ATOM      2  C   UNL     1      29.796  26.313  12.612  1.00  0.00     0.003 C 
ATOM      3  C   UNL     1      29.357  25.356  11.491  1.00  0.00     0.006 C 
ATOM      4  C   UNL     1      29.672  26.342  10.379  1.00  0.00     0.019 C 
ATOM      5  C   UNL     1      31.144  26.613  10.770  1.00  0.00    -0.068 C 
ATOM      6  C   UNL     1      32.125  26.942   9.925  1.00  0.00     0.009 C 
ATOM      7  C   UNL     1      28.874  27.578  10.759  1.00  0.00     0.008 C 
ATOM      8  C   UNL     1      29.008  27.606  12.282  1.00  0.00     0.005 C 
ATOM      9  C   UNL     1      32.046  27.468  13.015  1.00  0.00     0.016 C 
ENDROOT
BRANCH   3  10
ATOM     10  C   UNL     1      28.593  24.134  12.047  1.00  0.00    -0.032 C 
ATOM     11  C   UNL     1      27.459  24.530  13.025  1.00  0.00     0.011 C 
ATOM     12  C   UNL     1      27.938  23.360  10.876  1.00  0.00     0.011 C 
BRANCH  10  13
ATOM     13  C   UNL     1      29.680  23.210  12.779  1.00  0.00     0.007 CG0
ATOM     14  G   UNL     1      30.928  23.883  13.506  1.00  0.00     0.000 G0
ENDBRANCH  10  13
ENDBRANCH   3  10
BRANCH   1  15
ATOM     15  C   UNL     1      31.880  24.899  12.636  1.00  0.00     0.011 C 
BRANCH  15  16
ATOM     16  C   UNL     1      30.961  23.906  13.484  1.00  0.00     0.001 CG0
ATOM     17  G   UNL     1      29.685  23.212  12.828  1.00  0.00     0.000 G0
ENDBRANCH  15  16
ENDBRANCH   1  15
TORSDOF 0
ENDMDL
MODEL 7
REMARK VINA RESULT:    -2.736      1.750      3.967
REMARK INTER + INTRA:          -3.106
REMARK INTER:                  -3.316
REMARK INTRA:                   0.210
REMARK UNBOUND:                 0.270
REMARK SMILES C=C1[C@@H]2CC[C@H]3[C@H]2C(C)(C)CCC[C@@]13C
REMARK SMILES IDX 14 1 6 2 7 3 3 4 2 5 1 6 4 7 5 8 15 9 8 10 9 11 10 12 11 13
REMARK SMILES IDX 13 15 12 16
REMARK H PARENT
REMARK Flexibility Score: 80.00
ROOT
ATOM      1  C   UNL     1      30.358  27.430  11.833  1.00  0.00    -0.008 C 
ATOM      2  C   UNL     1      30.108  26.171  11.007  1.00  0.00     0.003 C 
ATOM      3  C   UNL     1      29.862  25.202  12.174  1.00  0.00     0.006 C 
ATOM      4  C   UNL     1      31.294  25.276  12.678  1.00  0.00     0.019 C 
ATOM      5  C   UNL     1      31.369  26.815  12.821  1.00  0.00    -0.068 C 
ATOM      6  C   UNL     1      32.124  27.477  13.702  1.00  0.00     0.009 C 
ATOM      7  C   UNL     1      32.122  24.898  11.461  1.00  0.00     0.008 C 
ATOM      8  C   UNL     1      31.356  25.563  10.318  1.00  0.00     0.005 C 
ATOM      9  C   UNL     1      30.958  28.587  11.011  1.00  0.00     0.016 C 
ENDROOT
BRANCH   3  10
ATOM     10  C   UNL     1      28.505  24.477  12.042  1.00  0.00    -0.032 C 
ATOM     11  C   UNL     1      28.335  23.767  10.676  1.00  0.00     0.011 C 
ATOM     12  C   UNL     1      28.392  23.390  13.140  1.00  0.00     0.011 C 
BRANCH  10  13
ATOM     13  C   UNL     1      27.369  25.590  12.250  1.00  0.00     0.007 CG0
ATOM     14  G   UNL     1      27.692  27.117  11.928  1.00  0.00     0.000 G0
ENDBRANCH  10  13
ENDBRANCH   3  10
BRANCH   1  15
ATOM     15  C   UNL     1      28.961  27.841  12.503  1.00  0.00     0.011 C 
BRANCH  15  16
ATOM     16  C   UNL     1      27.637  27.139  11.948  1.00  0.00     0.001 CG0
ATOM     17  G   UNL     1      27.342  25.602  12.243  1.00  0.00     0.000 G0
ENDBRANCH  15  16
ENDBRANCH   1  15
TORSDOF 0
ENDMDL
MODEL 8
REMARK VINA RESULT:    -2.126      2.096      4.210
REMARK INTER + INTRA:          -2.354
REMARK INTER:                  -2.614
REMARK INTRA:                   0.260
REMARK UNBOUND:                 0.270
REMARK SMILES C=C1[C@@H]2CC[C@H]3[C@H]2C(C)(C)CCC[C@@]13C
REMARK SMILES IDX 14 1 6 2 7 3 3 4 2 5 1 6 4 7 5 8 15 9 8 10 9 11 10 12 11 13
REMARK SMILES IDX 13 15 12 16
REMARK H PARENT
REMARK Flexibility Score: 80.00
ROOT
ATOM      1  C   UNL     1      28.101  24.518  11.896  1.00  0.00    -0.008 C 
ATOM      2  C   UNL     1      29.398  23.785  11.565  1.00  0.00     0.003 C 
ATOM      3  C   UNL     1      30.310  24.514  12.564  1.00  0.00     0.006 C 
ATOM      4  C   UNL     1      30.211  25.849  11.845  1.00  0.00     0.019 C 
ATOM      5  C   UNL     1      28.667  25.951  11.836  1.00  0.00    -0.068 C 
ATOM      6  C   UNL     1      27.963  27.086  11.851  1.00  0.00     0.009 C 
ATOM      7  C   UNL     1      30.647  25.525  10.426  1.00  0.00     0.008 C 
ATOM      8  C   UNL     1      30.038  24.141  10.199  1.00  0.00     0.005 C 
ATOM      9  C   UNL     1      26.985  24.275  10.862  1.00  0.00     0.016 C 
ENDROOT
BRANCH   3  10
ATOM     10  C   UNL     1      31.041  23.527  13.500  1.00  0.00    -0.032 C 
ATOM     11  C   UNL     1      31.763  22.394  12.730  1.00  0.00     0.011 C 
ATOM     12  C   UNL     1      32.120  24.288  14.311  1.00  0.00     0.011 C 
BRANCH  10  13
ATOM     13  C   UNL     1      29.931  22.927  14.489  1.00  0.00     0.007 CG0
ATOM     14  G   UNL     1      28.423  22.789  13.992  1.00  0.00     0.000 G0
ENDBRANCH  10  13
ENDBRANCH   3  10
BRANCH   1  15
ATOM     15  C   UNL     1      27.659  24.054  13.366  1.00  0.00     0.011 C 
BRANCH  15  16
ATOM     16  C   UNL     1      28.414  22.801  14.007  1.00  0.00     0.001 CG0
ATOM     17  G   UNL     1      29.931  22.915  14.482  1.00  0.00     0.000 G0
ENDBRANCH  15  16
ENDBRANCH   1  15
TORSDOF 0
ENDMDL
MODEL 9
REMARK VINA RESULT:    -1.392      1.626      3.312
REMARK INTER + INTRA:          -1.448
REMARK INTER:                  -1.670
REMARK INTRA:                   0.222
REMARK UNBOUND:                 0.270
REMARK SMILES C=C1[C@@H]2CC[C@H]3[C@H]2C(C)(C)CCC[C@@]13C
REMARK SMILES IDX 14 1 6 2 7 3 3 4 2 5 1 6 4 7 5 8 15 9 8 10 9 11 10 12 11 13
REMARK SMILES IDX 13 15 12 16
REMARK H PARENT
REMARK Flexibility Score: 80.00
ROOT
ATOM      1  C   UNL     1      29.102  23.949  13.198  1.00  0.00    -0.008 C 
ATOM      2  C   UNL     1      30.191  25.006  13.366  1.00  0.00     0.003 C 
ATOM      3  C   UNL     1      30.960  24.720  12.066  1.00  0.00     0.006 C 
ATOM      4  C   UNL     1      31.426  23.346  12.518  1.00  0.00     0.019 C 
ATOM      5  C   UNL     1      30.030  22.768  12.852  1.00  0.00    -0.068 C 
ATOM      6  C   UNL     1      29.683  21.480  12.776  1.00  0.00     0.009 C 
ATOM      7  C   UNL     1      32.125  23.621  13.839  1.00  0.00     0.008 C 
ATOM      8  C   UNL     1      31.249  24.709  14.459  1.00  0.00     0.005 C 
ATOM      9  C   UNL     1      28.285  23.709  14.482  1.00  0.00     0.016 C 
ENDROOT
BRANCH   3  10
ATOM     10  C   UNL     1      31.114  25.989  11.199  1.00  0.00    -0.032 C 
ATOM     11  C   UNL     1      31.711  27.183  11.984  1.00  0.00     0.011 C 
ATOM     12  C   UNL     1      32.071  25.694  10.018  1.00  0.00     0.011 C 
BRANCH  10  13
ATOM     13  C   UNL     1      29.651  26.345  10.647  1.00  0.00     0.007 CG0
ATOM     14  G   UNL     1      28.364  25.911  11.481  1.00  0.00     0.000 G0
ENDBRANCH  10  13
ENDBRANCH   3  10
BRANCH   1  15
ATOM     15  C   UNL     1      28.169  24.423  11.983  1.00  0.00     0.011 C 
BRANCH  15  16
ATOM     16  C   UNL     1      28.326  25.926  11.468  1.00  0.00     0.001 CG0
ATOM     17  G   UNL     1      29.608  26.376  10.636  1.00  0.00     0.000 G0
ENDBRANCH  15  16
ENDBRANCH   1  15
TORSDOF 0
ENDMDL
