MODEL 1
REMARK VINA RESULT:    -4.887      0.000      0.000
REMARK INTER + INTRA:          -6.315
REMARK INTER:                  -6.886
REMARK INTRA:                   0.571
REMARK UNBOUND:                 0.571
REMARK SMILES CC1=CCC(=C(C)C)C(=O)CC(C)=CCC1
REMARK SMILES IDX 12 1 14 2 13 3 15 4 16 5 2 6 1 7 3 8 11 10 9 11 10 12 5 13
REMARK SMILES IDX 6 14 7 15 8 16 4 17
REMARK H PARENT
REMARK Flexibility Score: 60.00
ROOT
ATOM      1  C   UNL     1      17.380 -31.259  21.600  1.00  0.00    -0.070 C 
ATOM      2  C   UNL     1      17.888 -31.747  20.447  1.00  0.00    -0.027 C 
ATOM      3  C   UNL     1      17.194 -29.767  21.714  1.00  0.00     0.039 C 
ENDROOT
BRANCH   2   4
ATOM      4  C   UNL     1      18.237 -33.194  20.178  1.00  0.00     0.032 C 
BRANCH   4   5
ATOM      5  C   UNL     1      17.294 -33.915  19.193  1.00  0.00     0.034 C 
BRANCH   5   6
ATOM      6  C   UNL     1      16.292 -34.824  19.882  1.00  0.00    -0.077 C 
ATOM      7  C   UNL     1      16.626 -36.291  19.974  1.00  0.00     0.039 C 
ATOM      8  C   UNL     1      15.090 -34.415  20.358  1.00  0.00    -0.023 CG0
ATOM      9  G   UNL     1      14.554 -32.998  20.391  1.00  0.00     0.000 G0
ENDBRANCH   5   6
ENDBRANCH   4   5
ENDBRANCH   2   4
BRANCH   1  10
ATOM     10  C   UNL     1      17.076 -32.124  22.806  1.00  0.00     0.111 C 
BRANCH  10  11
ATOM     11  C   UNL     1      15.764 -32.848  22.655  1.00  0.00     0.163 C 
ATOM     12  O   UNL     1      15.614 -33.939  23.269  1.00  0.00    -0.294 OA
BRANCH  11  13
ATOM     13  C   UNL     1      14.674 -32.353  21.763  1.00  0.00    -0.002 C 
ATOM     14  C   UNL     1      13.790 -31.405  22.199  1.00  0.00    -0.069 C 
ATOM     15  C   UNL     1      12.584 -30.998  21.381  1.00  0.00     0.039 C 
ATOM     16  C   UNL     1      13.976 -30.714  23.532  1.00  0.00     0.039 C 
BRANCH  13  17
ATOM     17  C   UNL     1      14.537 -33.012  20.400  1.00  0.00     0.066 CG0
ATOM     18  G   UNL     1      15.093 -34.422  20.383  1.00  0.00     0.000 G0
ENDBRANCH  13  17
ENDBRANCH  11  13
ENDBRANCH  10  11
ENDBRANCH   1  10
TORSDOF 0
ENDMDL
MODEL 2
REMARK VINA RESULT:    -4.737      1.544      4.053
REMARK INTER + INTRA:          -6.104
REMARK INTER:                  -6.311
REMARK INTRA:                   0.207
REMARK UNBOUND:                 0.571
REMARK SMILES CC1=CCC(=C(C)C)C(=O)CC(C)=CCC1
REMARK SMILES IDX 12 1 14 2 13 3 15 4 16 5 2 6 1 7 3 8 11 10 9 11 10 12 5 13
REMARK SMILES IDX 6 14 7 15 8 16 4 17
REMARK H PARENT
REMARK Flexibility Score: 60.00
ROOT
ATOM      1  C   UNL     1      18.173 -29.994  21.263  1.00  0.00    -0.070 C 
ATOM      2  C   UNL     1      17.268 -29.205  21.884  1.00  0.00    -0.027 C 
ATOM      3  C   UNL     1      19.616 -29.557  21.277  1.00  0.00     0.039 C 
ENDROOT
BRANCH   2   4
ATOM      4  C   UNL     1      15.770 -29.420  21.896  1.00  0.00     0.032 C 
BRANCH   4   5
ATOM      5  C   UNL     1      15.289 -30.572  22.802  1.00  0.00     0.034 C 
BRANCH   5   6
ATOM      6  C   UNL     1      14.369 -31.547  22.090  1.00  0.00    -0.077 C 
ATOM      7  C   UNL     1      13.049 -31.023  21.584  1.00  0.00     0.039 C 
ATOM      8  C   UNL     1      14.625 -32.870  21.941  1.00  0.00    -0.023 CG0
ATOM      9  G   UNL     1      15.883 -33.610  22.350  1.00  0.00     0.000 G0
ENDBRANCH   5   6
ENDBRANCH   4   5
ENDBRANCH   2   4
BRANCH   1  10
ATOM     10  C   UNL     1      17.797 -31.237  20.484  1.00  0.00     0.111 C 
BRANCH  10  11
ATOM     11  C   UNL     1      17.946 -32.482  21.318  1.00  0.00     0.163 C 
ATOM     12  O   UNL     1      18.974 -32.593  22.040  1.00  0.00    -0.294 OA
BRANCH  11  13
ATOM     13  C   UNL     1      16.959 -33.601  21.271  1.00  0.00    -0.002 C 
ATOM     14  C   UNL     1      16.990 -34.518  20.257  1.00  0.00    -0.069 C 
ATOM     15  C   UNL     1      15.913 -35.568  20.094  1.00  0.00     0.039 C 
ATOM     16  C   UNL     1      18.110 -34.525  19.240  1.00  0.00     0.039 C 
BRANCH  13  17
ATOM     17  C   UNL     1      15.876 -33.619  22.337  1.00  0.00     0.066 CG0
ATOM     18  G   UNL     1      14.636 -32.859  21.911  1.00  0.00     0.000 G0
ENDBRANCH  13  17
ENDBRANCH  11  13
ENDBRANCH  10  11
ENDBRANCH   1  10
TORSDOF 0
ENDMDL
MODEL 3
REMARK VINA RESULT:    -4.729      2.229      4.921
REMARK INTER + INTRA:          -6.094
REMARK INTER:                  -6.419
REMARK INTRA:                   0.326
REMARK UNBOUND:                 0.571
REMARK SMILES CC1=CCC(=C(C)C)C(=O)CC(C)=CCC1
REMARK SMILES IDX 12 1 14 2 13 3 15 4 16 5 2 6 1 7 3 8 11 10 9 11 10 12 5 13
REMARK SMILES IDX 6 14 7 15 8 16 4 17
REMARK H PARENT
REMARK Flexibility Score: 60.00
ROOT
ATOM      1  C   UNL     1      15.145 -33.884  20.939  1.00  0.00    -0.070 C 
ATOM      2  C   UNL     1      14.250 -33.035  20.386  1.00  0.00    -0.027 C 
ATOM      3  C   UNL     1      15.522 -35.118  20.157  1.00  0.00     0.039 C 
ENDROOT
BRANCH   2   4
ATOM      4  C   UNL     1      13.674 -31.803  21.050  1.00  0.00     0.032 C 
BRANCH   4   5
ATOM      5  C   UNL     1      14.694 -30.676  21.317  1.00  0.00     0.034 C 
BRANCH   5   6
ATOM      6  C   UNL     1      14.732 -30.238  22.770  1.00  0.00    -0.077 C 
ATOM      7  C   UNL     1      13.444 -29.766  23.394  1.00  0.00     0.039 C 
ATOM      8  C   UNL     1      15.860 -30.178  23.521  1.00  0.00    -0.023 CG0
ATOM      9  G   UNL     1      17.253 -30.615  23.114  1.00  0.00     0.000 G0
ENDBRANCH   5   6
ENDBRANCH   4   5
ENDBRANCH   2   4
BRANCH   1  10
ATOM     10  C   UNL     1      15.711 -33.704  22.332  1.00  0.00     0.111 C 
BRANCH  10  11
ATOM     11  C   UNL     1      17.066 -33.046  22.300  1.00  0.00     0.163 C 
ATOM     12  O   UNL     1      17.855 -33.358  21.366  1.00  0.00    -0.294 OA
BRANCH  11  13
ATOM     13  C   UNL     1      17.522 -32.098  23.359  1.00  0.00    -0.002 C 
ATOM     14  C   UNL     1      18.067 -32.562  24.524  1.00  0.00    -0.069 C 
ATOM     15  C   UNL     1      18.394 -31.639  25.678  1.00  0.00     0.039 C 
ATOM     16  C   UNL     1      18.371 -34.031  24.718  1.00  0.00     0.039 C 
BRANCH  13  17
ATOM     17  C   UNL     1      17.269 -30.618  23.123  1.00  0.00     0.066 CG0
ATOM     18  G   UNL     1      15.865 -30.204  23.512  1.00  0.00     0.000 G0
ENDBRANCH  13  17
ENDBRANCH  11  13
ENDBRANCH  10  11
ENDBRANCH   1  10
TORSDOF 0
ENDMDL
MODEL 4
REMARK VINA RESULT:    -4.674      1.951      4.705
REMARK INTER + INTRA:          -6.016
REMARK INTER:                  -6.641
REMARK INTRA:                   0.624
REMARK UNBOUND:                 0.571
REMARK SMILES CC1=CCC(=C(C)C)C(=O)CC(C)=CCC1
REMARK SMILES IDX 12 1 14 2 13 3 15 4 16 5 2 6 1 7 3 8 11 10 9 11 10 12 5 13
REMARK SMILES IDX 6 14 7 15 8 16 4 17
REMARK H PARENT
REMARK Flexibility Score: 60.00
ROOT
ATOM      1  C   UNL     1      16.158 -33.889  23.566  1.00  0.00    -0.070 C 
ATOM      2  C   UNL     1      15.298 -33.221  24.366  1.00  0.00    -0.027 C 
ATOM      3  C   UNL     1      17.565 -34.103  24.065  1.00  0.00     0.039 C 
ENDROOT
BRANCH   2   4
ATOM      4  C   UNL     1      13.883 -32.824  24.006  1.00  0.00     0.032 C 
BRANCH   4   5
ATOM      5  C   UNL     1      13.618 -31.304  24.005  1.00  0.00     0.034 C 
BRANCH   5   6
ATOM      6  C   UNL     1      13.394 -30.738  22.614  1.00  0.00    -0.077 C 
ATOM      7  C   UNL     1      11.974 -30.467  22.188  1.00  0.00     0.039 C 
ATOM      8  C   UNL     1      14.380 -30.526  21.708  1.00  0.00    -0.023 CG0
ATOM      9  G   UNL     1      15.870 -30.708  21.918  1.00  0.00     0.000 G0
ENDBRANCH   5   6
ENDBRANCH   4   5
ENDBRANCH   2   4
BRANCH   1  10
ATOM     10  C   UNL     1      15.805 -34.348  22.166  1.00  0.00     0.111 C 
BRANCH  10  11
ATOM     11  C   UNL     1      15.568 -33.181  21.243  1.00  0.00     0.163 C 
ATOM     12  O   UNL     1      14.631 -33.270  20.403  1.00  0.00    -0.294 OA
BRANCH  11  13
ATOM     13  C   UNL     1      16.434 -31.965  21.249  1.00  0.00    -0.002 C 
ATOM     14  C   UNL     1      17.703 -32.009  20.740  1.00  0.00    -0.069 C 
ATOM     15  C   UNL     1      18.659 -30.843  20.872  1.00  0.00     0.039 C 
ATOM     16  C   UNL     1      18.216 -33.234  20.017  1.00  0.00     0.039 C 
BRANCH  13  17
ATOM     17  C   UNL     1      15.881 -30.720  21.922  1.00  0.00     0.066 CG0
ATOM     18  G   UNL     1      14.398 -30.539  21.671  1.00  0.00     0.000 G0
ENDBRANCH  13  17
ENDBRANCH  11  13
ENDBRANCH  10  11
ENDBRANCH   1  10
TORSDOF 0
ENDMDL
MODEL 5
REMARK VINA RESULT:    -4.668      2.110      3.720
REMARK INTER + INTRA:          -6.008
REMARK INTER:                  -6.308
REMARK INTRA:                   0.301
REMARK UNBOUND:                 0.571
REMARK SMILES CC1=CCC(=C(C)C)C(=O)CC(C)=CCC1
REMARK SMILES IDX 12 1 14 2 13 3 15 4 16 5 2 6 1 7 3 8 11 10 9 11 10 12 5 13
REMARK SMILES IDX 6 14 7 15 8 16 4 17
REMARK H PARENT
REMARK Flexibility Score: 60.00
ROOT
ATOM      1  C   UNL     1      14.374 -32.522  21.366  1.00  0.00    -0.070 C 
ATOM      2  C   UNL     1      14.496 -33.243  20.230  1.00  0.00    -0.027 C 
ATOM      3  C   UNL     1      13.866 -31.106  21.253  1.00  0.00     0.039 C 
ENDROOT
BRANCH   2   4
ATOM      4  C   UNL     1      15.075 -34.637  20.126  1.00  0.00     0.032 C 
BRANCH   4   5
ATOM      5  C   UNL     1      16.464 -34.713  19.459  1.00  0.00     0.034 C 
BRANCH   5   6
ATOM      6  C   UNL     1      17.437 -35.607  20.206  1.00  0.00    -0.077 C 
ATOM      7  C   UNL     1      17.549 -37.044  19.765  1.00  0.00     0.039 C 
ATOM      8  C   UNL     1      18.159 -35.216  21.285  1.00  0.00    -0.023 CG0
ATOM      9  G   UNL     1      18.221 -33.829  21.890  1.00  0.00     0.000 G0
ENDBRANCH   5   6
ENDBRANCH   4   5
ENDBRANCH   2   4
BRANCH   1  10
ATOM     10  C   UNL     1      14.806 -33.033  22.725  1.00  0.00     0.111 C 
BRANCH  10  11
ATOM     11  C   UNL     1      16.230 -32.651  23.035  1.00  0.00     0.163 C 
ATOM     12  O   UNL     1      16.499 -31.426  23.174  1.00  0.00    -0.294 OA
BRANCH  11  13
ATOM     13  C   UNL     1      17.330 -33.656  23.118  1.00  0.00    -0.002 C 
ATOM     14  C   UNL     1      17.566 -34.339  24.278  1.00  0.00    -0.069 C 
ATOM     15  C   UNL     1      18.766 -35.246  24.444  1.00  0.00     0.039 C 
ATOM     16  C   UNL     1      16.633 -34.220  25.463  1.00  0.00     0.039 C 
BRANCH  13  17
ATOM     17  C   UNL     1      18.223 -33.813  21.897  1.00  0.00     0.066 CG0
ATOM     18  G   UNL     1      18.147 -35.205  21.303  1.00  0.00     0.000 G0
ENDBRANCH  13  17
ENDBRANCH  11  13
ENDBRANCH  10  11
ENDBRANCH   1  10
TORSDOF 0
ENDMDL
MODEL 6
REMARK VINA RESULT:    -4.569      1.819      4.366
REMARK INTER + INTRA:          -5.868
REMARK INTER:                  -6.164
REMARK INTRA:                   0.296
REMARK UNBOUND:                 0.571
REMARK SMILES CC1=CCC(=C(C)C)C(=O)CC(C)=CCC1
REMARK SMILES IDX 12 1 14 2 13 3 15 4 16 5 2 6 1 7 3 8 11 10 9 11 10 12 5 13
REMARK SMILES IDX 6 14 7 15 8 16 4 17
REMARK H PARENT
REMARK Flexibility Score: 60.00
ROOT
ATOM      1  C   UNL     1      14.013 -30.972  21.970  1.00  0.00    -0.070 C 
ATOM      2  C   UNL     1      14.896 -29.950  22.018  1.00  0.00    -0.027 C 
ATOM      3  C   UNL     1      12.681 -30.786  22.652  1.00  0.00     0.039 C 
ENDROOT
BRANCH   2   4
ATOM      4  C   UNL     1      16.311 -29.978  21.483  1.00  0.00     0.032 C 
BRANCH   4   5
ATOM      5  C   UNL     1      17.398 -30.258  22.541  1.00  0.00     0.034 C 
BRANCH   5   6
ATOM      6  C   UNL     1      18.525 -31.132  22.021  1.00  0.00    -0.077 C 
ATOM      7  C   UNL     1      19.646 -30.458  21.272  1.00  0.00     0.039 C 
ATOM      8  C   UNL     1      18.556 -32.483  22.128  1.00  0.00    -0.023 CG0
ATOM      9  G   UNL     1      17.558 -33.367  22.849  1.00  0.00     0.000 G0
ENDBRANCH   5   6
ENDBRANCH   4   5
ENDBRANCH   2   4
BRANCH   1  10
ATOM     10  C   UNL     1      14.332 -32.316  21.350  1.00  0.00     0.111 C 
BRANCH  10  11
ATOM     11  C   UNL     1      15.063 -33.214  22.314  1.00  0.00     0.163 C 
ATOM     12  O   UNL     1      14.544 -33.416  23.446  1.00  0.00    -0.294 OA
BRANCH  11  13
ATOM     13  C   UNL     1      16.393 -33.813  22.001  1.00  0.00    -0.002 C 
ATOM     14  C   UNL     1      16.520 -34.764  21.027  1.00  0.00    -0.069 C 
ATOM     15  C   UNL     1      17.820 -35.502  20.792  1.00  0.00     0.039 C 
ATOM     16  C   UNL     1      15.356 -35.129  20.131  1.00  0.00     0.039 C 
BRANCH  13  17
ATOM     17  C   UNL     1      17.568 -33.390  22.868  1.00  0.00     0.066 CG0
ATOM     18  G   UNL     1      18.539 -32.495  22.125  1.00  0.00     0.000 G0
ENDBRANCH  13  17
ENDBRANCH  11  13
ENDBRANCH  10  11
ENDBRANCH   1  10
TORSDOF 0
ENDMDL
MODEL 7
REMARK VINA RESULT:    -4.484      1.456      3.969
REMARK INTER + INTRA:          -5.748
REMARK INTER:                  -6.173
REMARK INTRA:                   0.425
REMARK UNBOUND:                 0.571
REMARK SMILES CC1=CCC(=C(C)C)C(=O)CC(C)=CCC1
REMARK SMILES IDX 12 1 14 2 13 3 15 4 16 5 2 6 1 7 3 8 11 10 9 11 10 12 5 13
REMARK SMILES IDX 6 14 7 15 8 16 4 17
REMARK H PARENT
REMARK Flexibility Score: 60.00
ROOT
ATOM      1  C   UNL     1      17.667 -31.303  23.620  1.00  0.00    -0.070 C 
ATOM      2  C   UNL     1      16.866 -30.341  23.110  1.00  0.00    -0.027 C 
ATOM      3  C   UNL     1      18.131 -31.150  25.047  1.00  0.00     0.039 C 
ENDROOT
BRANCH   2   4
ATOM      4  C   UNL     1      16.380 -30.264  21.679  1.00  0.00     0.032 C 
BRANCH   4   5
ATOM      5  C   UNL     1      14.846 -30.301  21.514  1.00  0.00     0.034 C 
BRANCH   5   6
ATOM      6  C   UNL     1      14.197 -31.476  22.224  1.00  0.00    -0.077 C 
ATOM      7  C   UNL     1      13.193 -31.172  23.306  1.00  0.00     0.039 C 
ATOM      8  C   UNL     1      14.512 -32.775  21.996  1.00  0.00    -0.023 CG0
ATOM      9  G   UNL     1      15.470 -33.314  20.953  1.00  0.00     0.000 G0
ENDBRANCH   5   6
ENDBRANCH   4   5
ENDBRANCH   2   4
BRANCH   1  10
ATOM     10  C   UNL     1      18.191 -32.467  22.806  1.00  0.00     0.111 C 
BRANCH  10  11
ATOM     11  C   UNL     1      17.227 -33.625  22.810  1.00  0.00     0.163 C 
ATOM     12  O   UNL     1      16.996 -34.201  23.908  1.00  0.00    -0.294 OA
BRANCH  11  13
ATOM     13  C   UNL     1      16.596 -34.147  21.562  1.00  0.00    -0.002 C 
ATOM     14  C   UNL     1      17.071 -35.278  20.958  1.00  0.00    -0.069 C 
ATOM     15  C   UNL     1      16.557 -35.743  19.613  1.00  0.00     0.039 C 
ATOM     16  C   UNL     1      18.143 -36.124  21.609  1.00  0.00     0.039 C 
BRANCH  13  17
ATOM     17  C   UNL     1      15.475 -33.320  20.951  1.00  0.00     0.066 CG0
ATOM     18  G   UNL     1      14.523 -32.779  21.998  1.00  0.00     0.000 G0
ENDBRANCH  13  17
ENDBRANCH  11  13
ENDBRANCH  10  11
ENDBRANCH   1  10
TORSDOF 0
ENDMDL
MODEL 8
REMARK VINA RESULT:    -4.438      2.248      4.306
REMARK INTER + INTRA:          -5.683
REMARK INTER:                  -5.981
REMARK INTRA:                   0.298
REMARK UNBOUND:                 0.571
REMARK SMILES CC1=CCC(=C(C)C)C(=O)CC(C)=CCC1
REMARK SMILES IDX 12 1 14 2 13 3 15 4 16 5 2 6 1 7 3 8 11 10 9 11 10 12 5 13
REMARK SMILES IDX 6 14 7 15 8 16 4 17
REMARK H PARENT
REMARK Flexibility Score: 60.00
ROOT
ATOM      1  C   UNL     1      14.993 -30.933  23.211  1.00  0.00    -0.070 C 
ATOM      2  C   UNL     1      15.401 -29.988  22.336  1.00  0.00    -0.027 C 
ATOM      3  C   UNL     1      13.556 -30.899  23.667  1.00  0.00     0.039 C 
ENDROOT
BRANCH   2   4
ATOM      4  C   UNL     1      16.818 -29.796  21.839  1.00  0.00     0.032 C 
BRANCH   4   5
ATOM      5  C   UNL     1      17.333 -30.912  20.906  1.00  0.00     0.034 C 
BRANCH   5   6
ATOM      6  C   UNL     1      18.651 -31.511  21.363  1.00  0.00    -0.077 C 
ATOM      7  C   UNL     1      19.832 -30.585  21.497  1.00  0.00     0.039 C 
ATOM      8  C   UNL     1      18.851 -32.832  21.592  1.00  0.00    -0.023 CG0
ATOM      9  G   UNL     1      17.814 -33.937  21.538  1.00  0.00     0.000 G0
ENDBRANCH   5   6
ENDBRANCH   4   5
ENDBRANCH   2   4
BRANCH   1  10
ATOM     10  C   UNL     1      15.926 -31.959  23.822  1.00  0.00     0.111 C 
BRANCH  10  11
ATOM     11  C   UNL     1      15.866 -33.272  23.086  1.00  0.00     0.163 C 
ATOM     12  O   UNL     1      14.738 -33.685  22.702  1.00  0.00    -0.294 OA
BRANCH  11  13
ATOM     13  C   UNL     1      17.073 -34.118  22.855  1.00  0.00    -0.002 C 
ATOM     14  C   UNL     1      17.536 -34.956  23.832  1.00  0.00    -0.069 C 
ATOM     15  C   UNL     1      18.842 -35.707  23.689  1.00  0.00     0.039 C 
ATOM     16  C   UNL     1      16.760 -35.173  25.112  1.00  0.00     0.039 C 
BRANCH  13  17
ATOM     17  C   UNL     1      17.809 -33.936  21.537  1.00  0.00     0.066 CG0
ATOM     18  G   UNL     1      18.849 -32.837  21.605  1.00  0.00     0.000 G0
ENDBRANCH  13  17
ENDBRANCH  11  13
ENDBRANCH  10  11
ENDBRANCH   1  10
TORSDOF 0
ENDMDL
MODEL 9
REMARK VINA RESULT:    -4.392      1.590      3.090
REMARK INTER + INTRA:          -5.619
REMARK INTER:                  -6.215
REMARK INTRA:                   0.596
REMARK UNBOUND:                 0.571
REMARK SMILES CC1=CCC(=C(C)C)C(=O)CC(C)=CCC1
REMARK SMILES IDX 12 1 14 2 13 3 15 4 16 5 2 6 1 7 3 8 11 10 9 11 10 12 5 13
REMARK SMILES IDX 6 14 7 15 8 16 4 17
REMARK H PARENT
REMARK Flexibility Score: 60.00
ROOT
ATOM      1  C   UNL     1      14.434 -32.768  21.137  1.00  0.00    -0.070 C 
ATOM      2  C   UNL     1      14.583 -33.628  20.104  1.00  0.00    -0.027 C 
ATOM      3  C   UNL     1      13.895 -31.392  20.837  1.00  0.00     0.039 C 
ENDROOT
BRANCH   2   4
ATOM      4  C   UNL     1      15.195 -35.009  20.185  1.00  0.00     0.032 C 
BRANCH   4   5
ATOM      5  C   UNL     1      16.499 -35.187  19.380  1.00  0.00     0.034 C 
BRANCH   5   6
ATOM      6  C   UNL     1      17.737 -35.251  20.255  1.00  0.00    -0.077 C 
ATOM      7  C   UNL     1      18.315 -36.610  20.554  1.00  0.00     0.039 C 
ATOM      8  C   UNL     1      18.315 -34.173  20.840  1.00  0.00    -0.023 CG0
ATOM      9  G   UNL     1      17.922 -32.719  20.670  1.00  0.00     0.000 G0
ENDBRANCH   5   6
ENDBRANCH   4   5
ENDBRANCH   2   4
BRANCH   1  10
ATOM     10  C   UNL     1      14.867 -33.088  22.552  1.00  0.00     0.111 C 
BRANCH  10  11
ATOM     11  C   UNL     1      16.367 -33.075  22.691  1.00  0.00     0.163 C 
ATOM     12  O   UNL     1      16.891 -33.843  23.543  1.00  0.00    -0.294 OA
BRANCH  11  13
ATOM     13  C   UNL     1      17.237 -32.149  21.906  1.00  0.00    -0.002 C 
ATOM     14  C   UNL     1      17.336 -30.829  22.246  1.00  0.00    -0.069 C 
ATOM     15  C   UNL     1      18.081 -29.834  21.382  1.00  0.00     0.039 C 
ATOM     16  C   UNL     1      16.699 -30.293  23.510  1.00  0.00     0.039 C 
BRANCH  13  17
ATOM     17  C   UNL     1      17.922 -32.716  20.674  1.00  0.00     0.066 CG0
ATOM     18  G   UNL     1      18.327 -34.165  20.854  1.00  0.00     0.000 G0
ENDBRANCH  13  17
ENDBRANCH  11  13
ENDBRANCH  10  11
ENDBRANCH   1  10
TORSDOF 0
ENDMDL
