MODEL 1
REMARK VINA RESULT:    -3.829      0.000      0.000
REMARK INTER + INTRA:          -5.395
REMARK INTER:                  -5.172
REMARK INTRA:                  -0.223
REMARK UNBOUND:                -0.223
REMARK SMILES CCCCCCC=CC(=O)[O-]
REMARK SMILES IDX 5 1 6 2 7 3 8 4 9 5 10 6 11 7 4 8 3 9 2 10 1 11
REMARK H PARENT
REMARK Flexibility Score: inf
ROOT
ATOM      1  C   UNL     1      -0.522   9.223   3.757  1.00  0.00     0.004 C 
ENDROOT
BRANCH   1   2
ATOM      2  C   UNL     1       0.750   9.168   4.616  1.00  0.00     0.027 C 
BRANCH   2   3
ATOM      3  C   UNL     1       0.606   9.966   5.887  1.00  0.00    -0.025 C 
ATOM      4  C   UNL     1       1.483  10.034   6.904  1.00  0.00     0.020 C 
BRANCH   4   5
ATOM      5  C   UNL     1       2.791   9.354   7.010  1.00  0.00     0.064 C 
ATOM      6  O   UNL     1       3.859   9.979   7.229  1.00  0.00    -0.545 OA
ATOM      7  O   UNL     1       2.836   7.971   6.890  1.00  0.00    -0.545 OA
ENDBRANCH   4   5
ENDBRANCH   2   3
ENDBRANCH   1   2
BRANCH   1   8
ATOM      8  C   UNL     1      -1.744   8.626   4.473  1.00  0.00     0.000 C 
BRANCH   8   9
ATOM      9  C   UNL     1      -2.817   9.680   4.789  1.00  0.00    -0.000 C 
BRANCH   9  10
ATOM     10  C   UNL     1      -4.168   9.365   4.131  1.00  0.00    -0.003 C 
ATOM     11  C   UNL     1      -4.415   7.860   4.078  1.00  0.00     0.004 C 
ENDBRANCH   9  10
ENDBRANCH   8   9
ENDBRANCH   1   8
TORSDOF 6
ENDMDL
MODEL 2
REMARK VINA RESULT:    -3.677      3.612      6.066
REMARK INTER + INTRA:          -5.190
REMARK INTER:                  -4.890
REMARK INTRA:                  -0.299
REMARK UNBOUND:                -0.223
REMARK SMILES CCCCCCC=CC(=O)[O-]
REMARK SMILES IDX 5 1 6 2 7 3 8 4 9 5 10 6 11 7 4 8 3 9 2 10 1 11
REMARK H PARENT
REMARK Flexibility Score: inf
ROOT
ATOM      1  C   UNL     1       0.216   9.444   4.619  1.00  0.00     0.004 C 
ENDROOT
BRANCH   1   2
ATOM      2  C   UNL     1      -1.213   8.899   4.473  1.00  0.00     0.027 C 
BRANCH   2   3
ATOM      3  C   UNL     1      -2.247   9.913   4.891  1.00  0.00    -0.025 C 
ATOM      4  C   UNL     1      -3.570   9.863   4.657  1.00  0.00     0.020 C 
BRANCH   4   5
ATOM      5  C   UNL     1      -4.318   8.803   3.949  1.00  0.00     0.064 C 
ATOM      6  O   UNL     1      -4.891   9.004   2.848  1.00  0.00    -0.545 OA
ATOM      7  O   UNL     1      -4.368   7.533   4.508  1.00  0.00    -0.545 OA
ENDBRANCH   4   5
ENDBRANCH   2   3
ENDBRANCH   1   2
BRANCH   1   8
ATOM      8  C   UNL     1       0.481  10.039   6.011  1.00  0.00     0.000 C 
BRANCH   8   9
ATOM      9  C   UNL     1       1.966   9.978   6.407  1.00  0.00    -0.000 C 
BRANCH   9  10
ATOM     10  C   UNL     1       2.315   8.710   7.199  1.00  0.00    -0.003 C 
ATOM     11  C   UNL     1       2.892   7.633   6.284  1.00  0.00     0.004 C 
ENDBRANCH   9  10
ENDBRANCH   8   9
ENDBRANCH   1   8
TORSDOF 6
ENDMDL
MODEL 3
REMARK VINA RESULT:    -3.656     15.781     16.748
REMARK INTER + INTRA:          -5.162
REMARK INTER:                  -4.394
REMARK INTRA:                  -0.768
REMARK UNBOUND:                -0.223
REMARK SMILES CCCCCCC=CC(=O)[O-]
REMARK SMILES IDX 5 1 6 2 7 3 8 4 9 5 10 6 11 7 4 8 3 9 2 10 1 11
REMARK H PARENT
REMARK Flexibility Score: inf
ROOT
ATOM      1  C   UNL     1       5.970  -2.165  -7.977  1.00  0.00     0.004 C 
ENDROOT
BRANCH   1   2
ATOM      2  C   UNL     1       6.750  -1.499  -6.834  1.00  0.00     0.027 C 
BRANCH   2   3
ATOM      3  C   UNL     1       7.185  -0.100  -7.190  1.00  0.00    -0.025 C 
ATOM      4  C   UNL     1       6.482   1.033  -7.023  1.00  0.00     0.020 C 
BRANCH   4   5
ATOM      5  C   UNL     1       5.129   1.175  -6.443  1.00  0.00     0.064 C 
ATOM      6  O   UNL     1       4.938   1.337  -5.211  1.00  0.00    -0.545 OA
ATOM      7  O   UNL     1       4.033   1.155  -7.295  1.00  0.00    -0.545 OA
ENDBRANCH   4   5
ENDBRANCH   2   3
ENDBRANCH   1   2
BRANCH   1   8
ATOM      8  C   UNL     1       4.476  -2.328  -7.656  1.00  0.00     0.000 C 
BRANCH   8   9
ATOM      9  C   UNL     1       4.213  -2.536  -6.156  1.00  0.00    -0.000 C 
BRANCH   9  10
ATOM     10  C   UNL     1       2.905  -1.880  -5.687  1.00  0.00    -0.003 C 
ATOM     11  C   UNL     1       2.017  -1.520  -6.875  1.00  0.00     0.004 C 
ENDBRANCH   9  10
ENDBRANCH   8   9
ENDBRANCH   1   8
TORSDOF 6
ENDMDL
MODEL 4
REMARK VINA RESULT:    -3.576      1.572      2.154
REMARK INTER + INTRA:          -5.053
REMARK INTER:                  -4.722
REMARK INTRA:                  -0.331
REMARK UNBOUND:                -0.223
REMARK SMILES CCCCCCC=CC(=O)[O-]
REMARK SMILES IDX 5 1 6 2 7 3 8 4 9 5 10 6 11 7 4 8 3 9 2 10 1 11
REMARK H PARENT
REMARK Flexibility Score: inf
ROOT
ATOM      1  C   UNL     1      -2.824   8.876   4.303  1.00  0.00     0.004 C 
ENDROOT
BRANCH   1   2
ATOM      2  C   UNL     1      -1.330   9.230   4.331  1.00  0.00     0.027 C 
BRANCH   2   3
ATOM      3  C   UNL     1      -0.979  10.097   5.513  1.00  0.00    -0.025 C 
ATOM      4  C   UNL     1       0.189  10.125   6.178  1.00  0.00     0.020 C 
BRANCH   4   5
ATOM      5  C   UNL     1       1.401   9.324   5.901  1.00  0.00     0.064 C 
ATOM      6  O   UNL     1       2.320   9.732   5.146  1.00  0.00    -0.545 OA
ATOM      7  O   UNL     1       1.539   8.088   6.518  1.00  0.00    -0.545 OA
ENDBRANCH   4   5
ENDBRANCH   2   3
ENDBRANCH   1   2
BRANCH   1   8
ATOM      8  C   UNL     1      -3.727  10.118   4.355  1.00  0.00     0.000 C 
BRANCH   8   9
ATOM      9  C   UNL     1      -4.860  10.070   3.317  1.00  0.00    -0.000 C 
BRANCH   9  10
ATOM     10  C   UNL     1      -5.229   8.636   2.910  1.00  0.00    -0.003 C 
ATOM     11  C   UNL     1      -6.657   8.568   2.376  1.00  0.00     0.004 C 
ENDBRANCH   9  10
ENDBRANCH   8   9
ENDBRANCH   1   8
TORSDOF 6
ENDMDL
MODEL 5
REMARK VINA RESULT:    -3.510      3.937      6.526
REMARK INTER + INTRA:          -4.964
REMARK INTER:                  -4.780
REMARK INTRA:                  -0.184
REMARK UNBOUND:                -0.223
REMARK SMILES CCCCCCC=CC(=O)[O-]
REMARK SMILES IDX 5 1 6 2 7 3 8 4 9 5 10 6 11 7 4 8 3 9 2 10 1 11
REMARK H PARENT
REMARK Flexibility Score: inf
ROOT
ATOM      1  C   UNL     1      -1.352   9.700   5.002  1.00  0.00     0.004 C 
ENDROOT
BRANCH   1   2
ATOM      2  C   UNL     1      -2.121   8.686   4.142  1.00  0.00     0.027 C 
BRANCH   2   3
ATOM      3  C   UNL     1      -3.606   8.741   4.401  1.00  0.00    -0.025 C 
ATOM      4  C   UNL     1      -4.536   7.876   3.961  1.00  0.00     0.020 C 
BRANCH   4   5
ATOM      5  C   UNL     1      -4.323   6.669   3.135  1.00  0.00     0.064 C 
ATOM      6  O   UNL     1      -4.180   5.525   3.637  1.00  0.00    -0.545 OA
ATOM      7  O   UNL     1      -4.306   6.801   1.752  1.00  0.00    -0.545 OA
ENDBRANCH   4   5
ENDBRANCH   2   3
ENDBRANCH   1   2
BRANCH   1   8
ATOM      8  C   UNL     1       0.146   9.372   5.103  1.00  0.00     0.000 C 
BRANCH   8   9
ATOM      9  C   UNL     1       0.821  10.055   6.304  1.00  0.00    -0.000 C 
BRANCH   9  10
ATOM     10  C   UNL     1       1.965   9.219   6.895  1.00  0.00    -0.003 C 
ATOM     11  C   UNL     1       3.265  10.017   6.932  1.00  0.00     0.004 C 
ENDBRANCH   9  10
ENDBRANCH   8   9
ENDBRANCH   1   8
TORSDOF 6
ENDMDL
MODEL 6
REMARK VINA RESULT:    -3.502      1.467      2.014
REMARK INTER + INTRA:          -4.953
REMARK INTER:                  -4.470
REMARK INTRA:                  -0.483
REMARK UNBOUND:                -0.223
REMARK SMILES CCCCCCC=CC(=O)[O-]
REMARK SMILES IDX 5 1 6 2 7 3 8 4 9 5 10 6 11 7 4 8 3 9 2 10 1 11
REMARK H PARENT
REMARK Flexibility Score: inf
ROOT
ATOM      1  C   UNL     1      -1.438   9.868   5.194  1.00  0.00     0.004 C 
ENDROOT
BRANCH   1   2
ATOM      2  C   UNL     1      -0.813   8.760   4.333  1.00  0.00     0.027 C 
BRANCH   2   3
ATOM      3  C   UNL     1       0.605   9.087   3.939  1.00  0.00    -0.025 C 
ATOM      4  C   UNL     1       1.720   8.834   4.647  1.00  0.00     0.020 C 
BRANCH   4   5
ATOM      5  C   UNL     1       1.818   8.171   5.965  1.00  0.00     0.064 C 
ATOM      6  O   UNL     1       2.168   6.970   6.090  1.00  0.00    -0.545 OA
ATOM      7  O   UNL     1       1.537   8.911   7.106  1.00  0.00    -0.545 OA
ENDBRANCH   4   5
ENDBRANCH   2   3
ENDBRANCH   1   2
BRANCH   1   8
ATOM      8  C   UNL     1      -2.947  10.028   4.949  1.00  0.00     0.000 C 
BRANCH   8   9
ATOM      9  C   UNL     1      -3.424   9.273   3.697  1.00  0.00    -0.000 C 
BRANCH   9  10
ATOM     10  C   UNL     1      -4.510   8.234   4.011  1.00  0.00    -0.003 C 
ATOM     11  C   UNL     1      -4.085   6.841   3.552  1.00  0.00     0.004 C 
ENDBRANCH   9  10
ENDBRANCH   8   9
ENDBRANCH   1   8
TORSDOF 6
ENDMDL
MODEL 7
REMARK VINA RESULT:    -3.466      2.251      3.322
REMARK INTER + INTRA:          -4.905
REMARK INTER:                  -4.464
REMARK INTRA:                  -0.441
REMARK UNBOUND:                -0.223
REMARK SMILES CCCCCCC=CC(=O)[O-]
REMARK SMILES IDX 5 1 6 2 7 3 8 4 9 5 10 6 11 7 4 8 3 9 2 10 1 11
REMARK H PARENT
REMARK Flexibility Score: inf
ROOT
ATOM      1  C   UNL     1       1.408  10.125   6.273  1.00  0.00     0.004 C 
ENDROOT
BRANCH   1   2
ATOM      2  C   UNL     1       1.895   8.801   6.880  1.00  0.00     0.027 C 
BRANCH   2   3
ATOM      3  C   UNL     1       3.093   8.253   6.147  1.00  0.00    -0.025 C 
ATOM      4  C   UNL     1       3.195   7.056   5.544  1.00  0.00     0.020 C 
BRANCH   4   5
ATOM      5  C   UNL     1       2.158   6.006   5.449  1.00  0.00     0.064 C 
ATOM      6  O   UNL     1       1.197   6.079   4.642  1.00  0.00    -0.545 OA
ATOM      7  O   UNL     1       2.266   4.886   6.263  1.00  0.00    -0.545 OA
ENDBRANCH   4   5
ENDBRANCH   2   3
ENDBRANCH   1   2
BRANCH   1   8
ATOM      8  C   UNL     1      -0.085  10.094   5.910  1.00  0.00     0.000 C 
BRANCH   8   9
ATOM      9  C   UNL     1      -0.386   9.165   4.723  1.00  0.00    -0.000 C 
BRANCH   9  10
ATOM     10  C   UNL     1      -1.890   9.022   4.448  1.00  0.00    -0.003 C 
ATOM     11  C   UNL     1      -2.681  10.125   5.147  1.00  0.00     0.004 C 
ENDBRANCH   9  10
ENDBRANCH   8   9
ENDBRANCH   1   8
TORSDOF 6
ENDMDL
MODEL 8
REMARK VINA RESULT:    -3.411     12.355     14.071
REMARK INTER + INTRA:          -4.831
REMARK INTER:                  -4.563
REMARK INTRA:                  -0.268
REMARK UNBOUND:                -0.223
REMARK SMILES CCCCCCC=CC(=O)[O-]
REMARK SMILES IDX 5 1 6 2 7 3 8 4 9 5 10 6 11 7 4 8 3 9 2 10 1 11
REMARK H PARENT
REMARK Flexibility Score: inf
ROOT
ATOM      1  C   UNL     1       3.960   7.780  -6.278  1.00  0.00     0.004 C 
ENDROOT
BRANCH   1   2
ATOM      2  C   UNL     1       2.507   7.375  -5.990  1.00  0.00     0.027 C 
BRANCH   2   3
ATOM      3  C   UNL     1       1.562   7.877  -7.052  1.00  0.00    -0.025 C 
ATOM      4  C   UNL     1       0.457   7.262  -7.508  1.00  0.00     0.020 C 
BRANCH   4   5
ATOM      5  C   UNL     1      -0.095   5.963  -7.069  1.00  0.00     0.064 C 
ATOM      6  O   UNL     1      -0.294   5.011  -7.866  1.00  0.00    -0.545 OA
ATOM      7  O   UNL     1      -0.381   5.780  -5.723  1.00  0.00    -0.545 OA
ENDBRANCH   4   5
ENDBRANCH   2   3
ENDBRANCH   1   2
BRANCH   1   8
ATOM      8  C   UNL     1       4.078   8.768  -7.450  1.00  0.00     0.000 C 
BRANCH   8   9
ATOM      9  C   UNL     1       5.516   9.266  -7.661  1.00  0.00    -0.000 C 
BRANCH   9  10
ATOM     10  C   UNL     1       6.277   9.454  -6.341  1.00  0.00    -0.003 C 
ATOM     11  C   UNL     1       7.764   9.689  -6.594  1.00  0.00     0.004 C 
ENDBRANCH   9  10
ENDBRANCH   8   9
ENDBRANCH   1   8
TORSDOF 6
ENDMDL
MODEL 9
REMARK VINA RESULT:    -3.395      1.426      1.920
REMARK INTER + INTRA:          -4.810
REMARK INTER:                  -4.402
REMARK INTRA:                  -0.408
REMARK UNBOUND:                -0.223
REMARK SMILES CCCCCCC=CC(=O)[O-]
REMARK SMILES IDX 5 1 6 2 7 3 8 4 9 5 10 6 11 7 4 8 3 9 2 10 1 11
REMARK H PARENT
REMARK Flexibility Score: inf
ROOT
ATOM      1  C   UNL     1       0.034   8.241   2.982  1.00  0.00     0.004 C 
ENDROOT
BRANCH   1   2
ATOM      2  C   UNL     1       1.345   8.502   3.738  1.00  0.00     0.027 C 
BRANCH   2   3
ATOM      3  C   UNL     1       1.553   7.516   4.860  1.00  0.00    -0.025 C 
ATOM      4  C   UNL     1       1.796   7.799   6.151  1.00  0.00     0.020 C 
BRANCH   4   5
ATOM      5  C   UNL     1       1.905   9.135   6.774  1.00  0.00     0.064 C 
ATOM      6  O   UNL     1       0.914   9.896   6.915  1.00  0.00    -0.545 OA
ATOM      7  O   UNL     1       3.144   9.553   7.242  1.00  0.00    -0.545 OA
ENDBRANCH   4   5
ENDBRANCH   2   3
ENDBRANCH   1   2
BRANCH   1   8
ATOM      8  C   UNL     1      -1.006   9.351   3.203  1.00  0.00     0.000 C 
BRANCH   8   9
ATOM      9  C   UNL     1      -1.627   9.307   4.608  1.00  0.00    -0.000 C 
BRANCH   9  10
ATOM     10  C   UNL     1      -3.116   8.935   4.587  1.00  0.00    -0.003 C 
ATOM     11  C   UNL     1      -3.973  10.125   4.162  1.00  0.00     0.004 C 
ENDBRANCH   9  10
ENDBRANCH   8   9
ENDBRANCH   1   8
TORSDOF 6
ENDMDL
