MODEL 1
REMARK VINA RESULT:    -2.963      0.000      0.000
REMARK INTER + INTRA:          -3.565
REMARK INTER:                  -3.482
REMARK INTRA:                  -0.082
REMARK UNBOUND:                -0.082
REMARK SMILES O=C([O-])CCC(=O)[O-]
REMARK SMILES IDX 4 1 2 2 1 3 3 4 5 5 6 6 7 7 8 8
REMARK H PARENT
REMARK Flexibility Score: inf
ROOT
ATOM      1  C   UNL     1       1.306  64.670   7.485  1.00  0.00     0.059 C 
ENDROOT
BRANCH   1   2
ATOM      2  C   UNL     1       0.176  65.346   8.195  1.00  0.00     0.042 C 
ATOM      3  O   UNL     1       0.346  65.817   9.351  1.00  0.00    -0.550 OA
ATOM      4  O   UNL     1      -1.050  65.500   7.562  1.00  0.00    -0.550 OA
ENDBRANCH   1   2
BRANCH   1   5
ATOM      5  C   UNL     1       1.335  63.179   7.823  1.00  0.00     0.059 C 
BRANCH   5   6
ATOM      6  C   UNL     1       2.600  62.828   8.541  1.00  0.00     0.042 C 
ATOM      7  O   UNL     1       3.593  63.602   8.490  1.00  0.00    -0.550 OA
ATOM      8  O   UNL     1       2.699  61.625   9.227  1.00  0.00    -0.550 OA
ENDBRANCH   5   6
ENDBRANCH   1   5
TORSDOF 3
ENDMDL
MODEL 2
REMARK VINA RESULT:    -2.960     13.362     14.037
REMARK INTER + INTRA:          -3.561
REMARK INTER:                  -3.504
REMARK INTRA:                  -0.057
REMARK UNBOUND:                -0.082
REMARK SMILES O=C([O-])CCC(=O)[O-]
REMARK SMILES IDX 4 1 2 2 1 3 3 4 5 5 6 6 7 7 8 8
REMARK H PARENT
REMARK Flexibility Score: inf
ROOT
ATOM      1  C   UNL     1       2.607  70.368  19.482  1.00  0.00     0.059 C 
ENDROOT
BRANCH   1   2
ATOM      2  C   UNL     1       3.279  69.704  20.642  1.00  0.00     0.042 C 
ATOM      3  O   UNL     1       4.534  69.726  20.745  1.00  0.00    -0.550 OA
ATOM      4  O   UNL     1       2.517  69.103  21.635  1.00  0.00    -0.550 OA
ENDBRANCH   1   2
BRANCH   1   5
ATOM      5  C   UNL     1       3.426  71.568  19.003  1.00  0.00     0.059 C 
BRANCH   5   6
ATOM      6  C   UNL     1       2.539  72.752  18.779  1.00  0.00     0.042 C 
ATOM      7  O   UNL     1       2.909  73.686  18.019  1.00  0.00    -0.550 OA
ATOM      8  O   UNL     1       1.325  72.847  19.447  1.00  0.00    -0.550 OA
ENDBRANCH   5   6
ENDBRANCH   1   5
TORSDOF 3
ENDMDL
MODEL 3
REMARK VINA RESULT:    -2.951      2.347      2.958
REMARK INTER + INTRA:          -3.551
REMARK INTER:                  -3.497
REMARK INTRA:                  -0.054
REMARK UNBOUND:                -0.082
REMARK SMILES O=C([O-])CCC(=O)[O-]
REMARK SMILES IDX 4 1 2 2 1 3 3 4 5 5 6 6 7 7 8 8
REMARK H PARENT
REMARK Flexibility Score: inf
ROOT
ATOM      1  C   UNL     1       2.290  65.243   7.471  1.00  0.00     0.059 C 
ENDROOT
BRANCH   1   2
ATOM      2  C   UNL     1       3.036  65.947   6.382  1.00  0.00     0.042 C 
ATOM      3  O   UNL     1       4.294  65.896   6.341  1.00  0.00    -0.550 OA
ATOM      4  O   UNL     1       2.341  66.619   5.386  1.00  0.00    -0.550 OA
ENDBRANCH   1   2
BRANCH   1   5
ATOM      5  C   UNL     1       3.124  64.092   8.035  1.00  0.00     0.059 C 
BRANCH   5   6
ATOM      6  C   UNL     1       2.267  62.889   8.271  1.00  0.00     0.042 C 
ATOM      7  O   UNL     1       2.643  61.989   9.068  1.00  0.00    -0.550 OA
ATOM      8  O   UNL     1       1.075  62.739   7.575  1.00  0.00    -0.550 OA
ENDBRANCH   5   6
ENDBRANCH   1   5
TORSDOF 3
ENDMDL
MODEL 4
REMARK VINA RESULT:    -2.944      0.094      3.961
REMARK INTER + INTRA:          -3.543
REMARK INTER:                  -3.458
REMARK INTRA:                  -0.085
REMARK UNBOUND:                -0.082
REMARK SMILES O=C([O-])CCC(=O)[O-]
REMARK SMILES IDX 4 1 2 2 1 3 3 4 5 5 6 6 7 7 8 8
REMARK H PARENT
REMARK Flexibility Score: inf
ROOT
ATOM      1  C   UNL     1       1.313  63.165   7.867  1.00  0.00     0.059 C 
ENDROOT
BRANCH   1   2
ATOM      2  C   UNL     1       2.571  62.778   8.578  1.00  0.00     0.042 C 
ATOM      3  O   UNL     1       2.646  61.673   9.177  1.00  0.00    -0.550 OA
ATOM      4  O   UNL     1       3.678  63.616   8.537  1.00  0.00    -0.550 OA
ENDBRANCH   1   2
BRANCH   1   5
ATOM      5  C   UNL     1       1.333  64.653   7.514  1.00  0.00     0.059 C 
BRANCH   5   6
ATOM      6  C   UNL     1       0.254  65.382   8.251  1.00  0.00     0.042 C 
ATOM      7  O   UNL     1       0.467  65.826   9.410  1.00  0.00    -0.550 OA
ATOM      8  O   UNL     1      -1.002  65.527   7.677  1.00  0.00    -0.550 OA
ENDBRANCH   5   6
ENDBRANCH   1   5
TORSDOF 3
ENDMDL
MODEL 5
REMARK VINA RESULT:    -2.932      2.292      3.799
REMARK INTER + INTRA:          -3.529
REMARK INTER:                  -3.471
REMARK INTRA:                  -0.058
REMARK UNBOUND:                -0.082
REMARK SMILES O=C([O-])CCC(=O)[O-]
REMARK SMILES IDX 4 1 2 2 1 3 3 4 5 5 6 6 7 7 8 8
REMARK H PARENT
REMARK Flexibility Score: inf
ROOT
ATOM      1  C   UNL     1       3.255  64.010   8.077  1.00  0.00     0.059 C 
ENDROOT
BRANCH   1   2
ATOM      2  C   UNL     1       2.331  62.858   8.317  1.00  0.00     0.042 C 
ATOM      3  O   UNL     1       2.645  61.954   9.136  1.00  0.00    -0.550 OA
ATOM      4  O   UNL     1       1.102  62.808   7.673  1.00  0.00    -0.550 OA
ENDBRANCH   1   2
BRANCH   1   5
ATOM      5  C   UNL     1       2.461  65.271   7.731  1.00  0.00     0.059 C 
BRANCH   5   6
ATOM      6  C   UNL     1       3.028  65.930   6.513  1.00  0.00     0.042 C 
ATOM      7  O   UNL     1       4.275  65.978   6.341  1.00  0.00    -0.550 OA
ATOM      8  O   UNL     1       2.181  66.533   5.593  1.00  0.00    -0.550 OA
ENDBRANCH   5   6
ENDBRANCH   1   5
TORSDOF 3
ENDMDL
MODEL 6
REMARK VINA RESULT:    -2.904     13.356     13.615
REMARK INTER + INTRA:          -3.495
REMARK INTER:                  -3.447
REMARK INTRA:                  -0.049
REMARK UNBOUND:                -0.082
REMARK SMILES O=C([O-])CCC(=O)[O-]
REMARK SMILES IDX 4 1 2 2 1 3 3 4 5 5 6 6 7 7 8 8
REMARK H PARENT
REMARK Flexibility Score: inf
ROOT
ATOM      1  C   UNL     1       3.411  71.476  19.076  1.00  0.00     0.059 C 
ENDROOT
BRANCH   1   2
ATOM      2  C   UNL     1       2.654  72.707  18.690  1.00  0.00     0.042 C 
ATOM      3  O   UNL     1       3.115  73.486  17.813  1.00  0.00    -0.550 OA
ATOM      4  O   UNL     1       1.416  72.969  19.261  1.00  0.00    -0.550 OA
ENDBRANCH   1   2
BRANCH   1   5
ATOM      5  C   UNL     1       2.457  70.404  19.604  1.00  0.00     0.059 C 
BRANCH   5   6
ATOM      6  C   UNL     1       3.099  69.629  20.711  1.00  0.00     0.042 C 
ATOM      7  O   UNL     1       2.391  68.968  21.516  1.00  0.00    -0.550 OA
ATOM      8  O   UNL     1       4.476  69.678  20.884  1.00  0.00    -0.550 OA
ENDBRANCH   5   6
ENDBRANCH   1   5
TORSDOF 3
ENDMDL
MODEL 7
REMARK VINA RESULT:    -2.892      1.640      3.414
REMARK INTER + INTRA:          -3.481
REMARK INTER:                  -3.331
REMARK INTRA:                  -0.151
REMARK UNBOUND:                -0.082
REMARK SMILES O=C([O-])CCC(=O)[O-]
REMARK SMILES IDX 4 1 2 2 1 3 3 4 5 5 6 6 7 7 8 8
REMARK H PARENT
REMARK Flexibility Score: inf
ROOT
ATOM      1  C   UNL     1       3.203  64.028   8.023  1.00  0.00     0.059 C 
ENDROOT
BRANCH   1   2
ATOM      2  C   UNL     1       2.312  62.851   8.266  1.00  0.00     0.042 C 
ATOM      3  O   UNL     1       2.648  61.962   9.093  1.00  0.00    -0.550 OA
ATOM      4  O   UNL     1       1.089  62.760   7.616  1.00  0.00    -0.550 OA
ENDBRANCH   1   2
BRANCH   1   5
ATOM      5  C   UNL     1       2.392  65.325   8.032  1.00  0.00     0.059 C 
BRANCH   5   6
ATOM      6  C   UNL     1       1.856  65.599   9.401  1.00  0.00     0.042 C 
ATOM      7  O   UNL     1       2.627  65.589  10.397  1.00  0.00    -0.550 OA
ATOM      8  O   UNL     1       0.497  65.817   9.584  1.00  0.00    -0.550 OA
ENDBRANCH   5   6
ENDBRANCH   1   5
TORSDOF 3
ENDMDL
MODEL 8
REMARK VINA RESULT:    -2.844      1.603      2.057
REMARK INTER + INTRA:          -3.426
REMARK INTER:                  -3.270
REMARK INTRA:                  -0.155
REMARK UNBOUND:                -0.082
REMARK SMILES O=C([O-])CCC(=O)[O-]
REMARK SMILES IDX 4 1 2 2 1 3 3 4 5 5 6 6 7 7 8 8
REMARK H PARENT
REMARK Flexibility Score: inf
ROOT
ATOM      1  C   UNL     1       2.308  65.213   7.959  1.00  0.00     0.059 C 
ENDROOT
BRANCH   1   2
ATOM      2  C   UNL     1       1.913  65.698   9.318  1.00  0.00     0.042 C 
ATOM      3  O   UNL     1       2.795  65.971  10.175  1.00  0.00    -0.550 OA
ATOM      4  O   UNL     1       0.572  65.895   9.623  1.00  0.00    -0.550 OA
ENDBRANCH   1   2
BRANCH   1   5
ATOM      5  C   UNL     1       3.147  63.939   8.067  1.00  0.00     0.059 C 
BRANCH   5   6
ATOM      6  C   UNL     1       2.279  62.765   8.391  1.00  0.00     0.042 C 
ATOM      7  O   UNL     1       2.684  61.878   9.188  1.00  0.00    -0.550 OA
ATOM      8  O   UNL     1       1.043  62.625   7.774  1.00  0.00    -0.550 OA
ENDBRANCH   5   6
ENDBRANCH   1   5
TORSDOF 3
ENDMDL
MODEL 9
REMARK VINA RESULT:    -2.843     11.452     12.548
REMARK INTER + INTRA:          -3.424
REMARK INTER:                  -3.286
REMARK INTRA:                  -0.138
REMARK UNBOUND:                -0.082
REMARK SMILES O=C([O-])CCC(=O)[O-]
REMARK SMILES IDX 4 1 2 2 1 3 3 4 5 5 6 6 7 7 8 8
REMARK H PARENT
REMARK Flexibility Score: inf
ROOT
ATOM      1  C   UNL     1       3.381  71.641  18.958  1.00  0.00     0.059 C 
ENDROOT
BRANCH   1   2
ATOM      2  C   UNL     1       2.502  72.832  18.745  1.00  0.00     0.042 C 
ATOM      3  O   UNL     1       1.403  72.925  19.352  1.00  0.00    -0.550 OA
ATOM      4  O   UNL     1       2.919  73.863  17.913  1.00  0.00    -0.550 OA
ENDBRANCH   1   2
BRANCH   1   5
ATOM      5  C   UNL     1       2.557  70.353  18.925  1.00  0.00     0.059 C 
BRANCH   5   6
ATOM      6  C   UNL     1       2.082  70.070  17.534  1.00  0.00     0.042 C 
ATOM      7  O   UNL     1       0.896  69.698  17.333  1.00  0.00    -0.550 OA
ATOM      8  O   UNL     1       2.963  70.170  16.466  1.00  0.00    -0.550 OA
ENDBRANCH   5   6
ENDBRANCH   1   5
TORSDOF 3
ENDMDL
