MODEL 1
REMARK VINA RESULT:    -4.427      0.000      0.000
REMARK INTER + INTRA:          -8.173
REMARK INTER:                  -7.015
REMARK INTRA:                  -1.158
REMARK UNBOUND:                -1.158
REMARK SMILES C=CCCCCCCCCCCC
REMARK SMILES IDX 7 1 8 2 9 3 10 4 11 5 12 6 13 7 6 8 5 9 4 10 3 11 2 12 1 13
REMARK H PARENT
REMARK Flexibility Score: inf
ROOT
ATOM      1  C   UNL     1     144.486 143.503 164.179  1.00  0.00     0.000 C 
ENDROOT
BRANCH   1   2
ATOM      2  C   UNL     1     143.515 142.907 165.206  1.00  0.00     0.000 C 
BRANCH   2   3
ATOM      3  C   UNL     1     143.260 141.420 164.924  1.00  0.00    -0.000 C 
BRANCH   3   4
ATOM      4  C   UNL     1     144.541 140.571 164.983  1.00  0.00    -0.000 C 
BRANCH   4   5
ATOM      5  C   UNL     1     144.809 139.702 163.738  1.00  0.00    -0.000 C 
BRANCH   5   6
ATOM      6  C   UNL     1     145.423 140.452 162.542  1.00  0.00    -0.003 C 
ATOM      7  C   UNL     1     144.435 140.650 161.393  1.00  0.00     0.004 C 
ENDBRANCH   5   6
ENDBRANCH   4   5
ENDBRANCH   3   4
ENDBRANCH   2   3
ENDBRANCH   1   2
BRANCH   1   8
ATOM      8  C   UNL     1     145.703 144.134 164.874  1.00  0.00     0.000 C 
BRANCH   8   9
ATOM      9  C   UNL     1     146.918 143.194 164.905  1.00  0.00     0.000 C 
BRANCH   9  10
ATOM     10  C   UNL     1     147.678 143.165 163.567  1.00  0.00     0.004 C 
BRANCH  10  11
ATOM     11  C   UNL     1     149.198 143.077 163.770  1.00  0.00     0.027 C 
BRANCH  11  12
ATOM     12  C   UNL     1     149.660 143.829 164.990  1.00  0.00    -0.035 C 
ATOM     13  C   UNL     1     150.728 144.630 164.960  1.00  0.00     0.004 C 
ENDBRANCH  11  12
ENDBRANCH  10  11
ENDBRANCH   9  10
ENDBRANCH   8   9
ENDBRANCH   1   8
TORSDOF 10
ENDMDL
MODEL 2
REMARK VINA RESULT:    -4.418      5.020      6.670
REMARK INTER + INTRA:          -8.159
REMARK INTER:                  -6.629
REMARK INTRA:                  -1.530
REMARK UNBOUND:                -1.158
REMARK SMILES C=CCCCCCCCCCCC
REMARK SMILES IDX 7 1 8 2 9 3 10 4 11 5 12 6 13 7 6 8 5 9 4 10 3 11 2 12 1 13
REMARK H PARENT
REMARK Flexibility Score: inf
ROOT
ATOM      1  C   UNL     1     145.715 146.751 163.730  1.00  0.00     0.000 C 
ENDROOT
BRANCH   1   2
ATOM      2  C   UNL     1     144.954 146.780 165.062  1.00  0.00     0.000 C 
BRANCH   2   3
ATOM      3  C   UNL     1     143.681 147.631 164.951  1.00  0.00    -0.000 C 
BRANCH   3   4
ATOM      4  C   UNL     1     143.183 147.776 163.503  1.00  0.00    -0.000 C 
BRANCH   4   5
ATOM      5  C   UNL     1     141.763 147.233 163.242  1.00  0.00    -0.000 C 
BRANCH   5   6
ATOM      6  C   UNL     1     141.370 146.007 164.086  1.00  0.00    -0.003 C 
ATOM      7  C   UNL     1     140.132 146.251 164.948  1.00  0.00     0.004 C 
ENDBRANCH   5   6
ENDBRANCH   4   5
ENDBRANCH   3   4
ENDBRANCH   2   3
ENDBRANCH   1   2
BRANCH   1   8
ATOM      8  C   UNL     1     147.169 147.211 163.917  1.00  0.00     0.000 C 
BRANCH   8   9
ATOM      9  C   UNL     1     147.359 148.068 165.179  1.00  0.00     0.000 C 
BRANCH   9  10
ATOM     10  C   UNL     1     147.541 149.562 164.859  1.00  0.00     0.004 C 
BRANCH  10  11
ATOM     11  C   UNL     1     146.255 150.364 165.105  1.00  0.00     0.027 C 
BRANCH  11  12
ATOM     12  C   UNL     1     145.776 151.076 163.867  1.00  0.00    -0.035 C 
ATOM     13  C   UNL     1     145.737 150.470 162.677  1.00  0.00     0.004 C 
ENDBRANCH  11  12
ENDBRANCH  10  11
ENDBRANCH   9  10
ENDBRANCH   8   9
ENDBRANCH   1   8
TORSDOF 10
ENDMDL
MODEL 3
REMARK VINA RESULT:    -4.395      4.736      6.830
REMARK INTER + INTRA:          -8.121
REMARK INTER:                  -7.116
REMARK INTRA:                  -1.005
REMARK UNBOUND:                -1.158
REMARK SMILES C=CCCCCCCCCCCC
REMARK SMILES IDX 7 1 8 2 9 3 10 4 11 5 12 6 13 7 6 8 5 9 4 10 3 11 2 12 1 13
REMARK H PARENT
REMARK Flexibility Score: inf
ROOT
ATOM      1  C   UNL     1     147.302 147.695 165.235  1.00  0.00     0.000 C 
ENDROOT
BRANCH   1   2
ATOM      2  C   UNL     1     147.661 148.968 164.458  1.00  0.00     0.000 C 
BRANCH   2   3
ATOM      3  C   UNL     1     146.930 150.189 165.035  1.00  0.00    -0.000 C 
BRANCH   3   4
ATOM      4  C   UNL     1     145.863 150.754 164.081  1.00  0.00    -0.000 C 
BRANCH   4   5
ATOM      5  C   UNL     1     145.437 149.806 162.942  1.00  0.00    -0.000 C 
BRANCH   5   6
ATOM      6  C   UNL     1     145.788 150.295 161.524  1.00  0.00    -0.003 C 
ATOM      7  C   UNL     1     146.899 149.474 160.870  1.00  0.00     0.004 C 
ENDBRANCH   5   6
ENDBRANCH   4   5
ENDBRANCH   3   4
ENDBRANCH   2   3
ENDBRANCH   1   2
BRANCH   1   8
ATOM      8  C   UNL     1     147.452 146.449 164.347  1.00  0.00     0.000 C 
BRANCH   8   9
ATOM      9  C   UNL     1     148.476 146.648 163.219  1.00  0.00     0.000 C 
BRANCH   9  10
ATOM     10  C   UNL     1     148.993 145.316 162.648  1.00  0.00     0.004 C 
BRANCH  10  11
ATOM     11  C   UNL     1     150.494 145.120 162.911  1.00  0.00     0.027 C 
BRANCH  11  12
ATOM     12  C   UNL     1     150.786 144.786 164.349  1.00  0.00    -0.035 C 
ATOM     13  C   UNL     1     150.328 143.668 164.920  1.00  0.00     0.004 C 
ENDBRANCH  11  12
ENDBRANCH  10  11
ENDBRANCH   9  10
ENDBRANCH   8   9
ENDBRANCH   1   8
TORSDOF 10
ENDMDL
MODEL 4
REMARK VINA RESULT:    -4.391      5.720      6.667
REMARK INTER + INTRA:          -8.116
REMARK INTER:                  -6.859
REMARK INTRA:                  -1.256
REMARK UNBOUND:                -1.158
REMARK SMILES C=CCCCCCCCCCCC
REMARK SMILES IDX 7 1 8 2 9 3 10 4 11 5 12 6 13 7 6 8 5 9 4 10 3 11 2 12 1 13
REMARK H PARENT
REMARK Flexibility Score: inf
ROOT
ATOM      1  C   UNL     1     143.849 147.306 163.719  1.00  0.00     0.000 C 
ENDROOT
BRANCH   1   2
ATOM      2  C   UNL     1     142.901 147.365 164.923  1.00  0.00     0.000 C 
BRANCH   2   3
ATOM      3  C   UNL     1     141.460 147.650 164.476  1.00  0.00    -0.000 C 
BRANCH   3   4
ATOM      4  C   UNL     1     140.446 146.641 165.043  1.00  0.00    -0.000 C 
BRANCH   4   5
ATOM      5  C   UNL     1     139.706 145.794 163.988  1.00  0.00    -0.000 C 
BRANCH   5   6
ATOM      6  C   UNL     1     140.219 145.960 162.545  1.00  0.00    -0.003 C 
ATOM      7  C   UNL     1     141.124 144.812 162.100  1.00  0.00     0.004 C 
ENDBRANCH   5   6
ENDBRANCH   4   5
ENDBRANCH   3   4
ENDBRANCH   2   3
ENDBRANCH   1   2
BRANCH   1   8
ATOM      8  C   UNL     1     143.238 148.020 162.503  1.00  0.00     0.000 C 
BRANCH   8   9
ATOM      9  C   UNL     1     144.305 148.568 161.542  1.00  0.00     0.000 C 
BRANCH   9  10
ATOM     10  C   UNL     1     145.613 148.940 162.261  1.00  0.00     0.004 C 
BRANCH  10  11
ATOM     11  C   UNL     1     145.652 150.425 162.653  1.00  0.00     0.027 C 
BRANCH  11  12
ATOM     12  C   UNL     1     146.376 150.657 163.953  1.00  0.00    -0.035 C 
ATOM     13  C   UNL     1     145.799 150.412 165.133  1.00  0.00     0.004 C 
ENDBRANCH  11  12
ENDBRANCH  10  11
ENDBRANCH   9  10
ENDBRANCH   8   9
ENDBRANCH   1   8
TORSDOF 10
ENDMDL
MODEL 5
REMARK VINA RESULT:    -4.385      3.262      5.757
REMARK INTER + INTRA:          -8.107
REMARK INTER:                  -6.862
REMARK INTRA:                  -1.245
REMARK UNBOUND:                -1.158
REMARK SMILES C=CCCCCCCCCCCC
REMARK SMILES IDX 7 1 8 2 9 3 10 4 11 5 12 6 13 7 6 8 5 9 4 10 3 11 2 12 1 13
REMARK H PARENT
REMARK Flexibility Score: inf
ROOT
ATOM      1  C   UNL     1     143.812 142.220 164.855  1.00  0.00     0.000 C 
ENDROOT
BRANCH   1   2
ATOM      2  C   UNL     1     142.833 143.142 164.118  1.00  0.00     0.000 C 
BRANCH   2   3
ATOM      3  C   UNL     1     143.567 144.336 163.491  1.00  0.00    -0.000 C 
BRANCH   3   4
ATOM      4  C   UNL     1     142.610 145.429 162.986  1.00  0.00    -0.000 C 
BRANCH   4   5
ATOM      5  C   UNL     1     141.160 144.965 162.739  1.00  0.00    -0.000 C 
BRANCH   5   6
ATOM      6  C   UNL     1     140.084 145.763 163.498  1.00  0.00    -0.003 C 
ATOM      7  C   UNL     1     140.380 145.889 164.992  1.00  0.00     0.004 C 
ENDBRANCH   5   6
ENDBRANCH   4   5
ENDBRANCH   3   4
ENDBRANCH   2   3
ENDBRANCH   1   2
BRANCH   1   8
ATOM      8  C   UNL     1     143.444 140.743 164.640  1.00  0.00     0.000 C 
BRANCH   8   9
ATOM      9  C   UNL     1     144.635 139.903 164.151  1.00  0.00     0.000 C 
BRANCH   9  10
ATOM     10  C   UNL     1     145.381 140.562 162.977  1.00  0.00     0.004 C 
BRANCH  10  11
ATOM     11  C   UNL     1     144.757 140.199 161.622  1.00  0.00     0.027 C 
BRANCH  11  12
ATOM     12  C   UNL     1     143.967 141.336 161.030  1.00  0.00    -0.035 C 
ATOM     13  C   UNL     1     142.751 141.152 160.509  1.00  0.00     0.004 C 
ENDBRANCH  11  12
ENDBRANCH  10  11
ENDBRANCH   9  10
ENDBRANCH   8   9
ENDBRANCH   1   8
TORSDOF 10
ENDMDL
MODEL 6
REMARK VINA RESULT:    -4.379      3.844      6.563
REMARK INTER + INTRA:          -8.097
REMARK INTER:                  -6.807
REMARK INTRA:                  -1.290
REMARK UNBOUND:                -1.158
REMARK SMILES C=CCCCCCCCCCCC
REMARK SMILES IDX 7 1 8 2 9 3 10 4 11 5 12 6 13 7 6 8 5 9 4 10 3 11 2 12 1 13
REMARK H PARENT
REMARK Flexibility Score: inf
ROOT
ATOM      1  C   UNL     1     148.267 145.945 162.042  1.00  0.00     0.000 C 
ENDROOT
BRANCH   1   2
ATOM      2  C   UNL     1     147.962 147.287 162.719  1.00  0.00     0.000 C 
BRANCH   2   3
ATOM      3  C   UNL     1     147.366 147.075 164.119  1.00  0.00    -0.000 C 
BRANCH   3   4
ATOM      4  C   UNL     1     147.437 148.336 164.996  1.00  0.00    -0.000 C 
BRANCH   4   5
ATOM      5  C   UNL     1     146.228 149.286 164.876  1.00  0.00    -0.000 C 
BRANCH   5   6
ATOM      6  C   UNL     1     146.413 150.453 163.889  1.00  0.00    -0.003 C 
ATOM      7  C   UNL     1     145.498 150.352 162.670  1.00  0.00     0.004 C 
ENDBRANCH   5   6
ENDBRANCH   4   5
ENDBRANCH   3   4
ENDBRANCH   2   3
ENDBRANCH   1   2
BRANCH   1   8
ATOM      8  C   UNL     1     149.778 145.771 161.823  1.00  0.00     0.000 C 
BRANCH   8   9
ATOM      9  C   UNL     1     150.348 144.560 162.579  1.00  0.00     0.000 C 
BRANCH   9  10
ATOM     10  C   UNL     1     150.981 144.947 163.927  1.00  0.00     0.004 C 
BRANCH  10  11
ATOM     11  C   UNL     1     150.049 144.645 165.109  1.00  0.00     0.027 C 
BRANCH  11  12
ATOM     12  C   UNL     1     149.139 143.476 164.839  1.00  0.00    -0.035 C 
ATOM     13  C   UNL     1     147.844 143.502 165.169  1.00  0.00     0.004 C 
ENDBRANCH  11  12
ENDBRANCH  10  11
ENDBRANCH   9  10
ENDBRANCH   8   9
ENDBRANCH   1   8
TORSDOF 10
ENDMDL
MODEL 7
REMARK VINA RESULT:    -4.342      5.245      7.106
REMARK INTER + INTRA:          -8.038
REMARK INTER:                  -5.979
REMARK INTRA:                  -2.059
REMARK UNBOUND:                -1.158
REMARK SMILES C=CCCCCCCCCCCC
REMARK SMILES IDX 7 1 8 2 9 3 10 4 11 5 12 6 13 7 6 8 5 9 4 10 3 11 2 12 1 13
REMARK H PARENT
REMARK Flexibility Score: inf
ROOT
ATOM      1  C   UNL     1     147.299 147.680 164.762  1.00  0.00     0.000 C 
ENDROOT
BRANCH   1   2
ATOM      2  C   UNL     1     147.787 147.265 163.368  1.00  0.00     0.000 C 
BRANCH   2   3
ATOM      3  C   UNL     1     146.666 146.576 162.575  1.00  0.00    -0.000 C 
BRANCH   3   4
ATOM      4  C   UNL     1     145.355 146.460 163.370  1.00  0.00    -0.000 C 
BRANCH   4   5
ATOM      5  C   UNL     1     144.127 147.116 162.706  1.00  0.00    -0.000 C 
BRANCH   5   6
ATOM      6  C   UNL     1     143.134 147.773 163.682  1.00  0.00    -0.003 C 
ATOM      7  C   UNL     1     143.376 147.373 165.137  1.00  0.00     0.004 C 
ENDBRANCH   5   6
ENDBRANCH   4   5
ENDBRANCH   3   4
ENDBRANCH   2   3
ENDBRANCH   1   2
BRANCH   1   8
ATOM      8  C   UNL     1     147.432 149.197 164.961  1.00  0.00     0.000 C 
BRANCH   8   9
ATOM      9  C   UNL     1     146.074 149.916 164.949  1.00  0.00     0.000 C 
BRANCH   9  10
ATOM     10  C   UNL     1     145.973 150.972 163.834  1.00  0.00     0.004 C 
BRANCH  10  11
ATOM     11  C   UNL     1     145.521 150.360 162.500  1.00  0.00     0.027 C 
BRANCH  11  12
ATOM     12  C   UNL     1     146.627 150.328 161.478  1.00  0.00    -0.035 C 
ATOM     13  C   UNL     1     146.604 149.484 160.442  1.00  0.00     0.004 C 
ENDBRANCH  11  12
ENDBRANCH  10  11
ENDBRANCH   9  10
ENDBRANCH   8   9
ENDBRANCH   1   8
TORSDOF 10
ENDMDL
MODEL 8
REMARK VINA RESULT:    -4.330      1.217      5.415
REMARK INTER + INTRA:          -8.018
REMARK INTER:                  -6.600
REMARK INTRA:                  -1.418
REMARK UNBOUND:                -1.158
REMARK SMILES C=CCCCCCCCCCCC
REMARK SMILES IDX 7 1 8 2 9 3 10 4 11 5 12 6 13 7 6 8 5 9 4 10 3 11 2 12 1 13
REMARK H PARENT
REMARK Flexibility Score: inf
ROOT
ATOM      1  C   UNL     1     146.180 143.109 162.196  1.00  0.00     0.000 C 
ENDROOT
BRANCH   1   2
ATOM      2  C   UNL     1     146.812 143.964 163.301  1.00  0.00     0.000 C 
BRANCH   2   3
ATOM      3  C   UNL     1     147.238 143.096 164.494  1.00  0.00    -0.000 C 
BRANCH   3   4
ATOM      4  C   UNL     1     148.619 143.483 165.052  1.00  0.00    -0.000 C 
BRANCH   4   5
ATOM      5  C   UNL     1     149.796 143.292 164.074  1.00  0.00    -0.000 C 
BRANCH   5   6
ATOM      6  C   UNL     1     150.579 144.575 163.741  1.00  0.00    -0.003 C 
ATOM      7  C   UNL     1     150.381 145.034 162.296  1.00  0.00     0.004 C 
ENDBRANCH   5   6
ENDBRANCH   4   5
ENDBRANCH   3   4
ENDBRANCH   2   3
ENDBRANCH   1   2
BRANCH   1   8
ATOM      8  C   UNL     1     146.387 141.612 162.474  1.00  0.00     0.000 C 
BRANCH   8   9
ATOM      9  C   UNL     1     145.086 140.803 162.347  1.00  0.00     0.000 C 
BRANCH   9  10
ATOM     10  C   UNL     1     144.849 139.872 163.549  1.00  0.00     0.004 C 
BRANCH  10  11
ATOM     11  C   UNL     1     144.549 140.657 164.835  1.00  0.00     0.027 C 
BRANCH  11  12
ATOM     12  C   UNL     1     143.390 141.604 164.673  1.00  0.00    -0.035 C 
ATOM     13  C   UNL     1     143.432 142.855 165.140  1.00  0.00     0.004 C 
ENDBRANCH  11  12
ENDBRANCH  10  11
ENDBRANCH   9  10
ENDBRANCH   8   9
ENDBRANCH   1   8
TORSDOF 10
ENDMDL
MODEL 9
REMARK VINA RESULT:    -4.288      4.680      7.036
REMARK INTER + INTRA:          -7.952
REMARK INTER:                  -6.756
REMARK INTRA:                  -1.196
REMARK UNBOUND:                -1.158
REMARK SMILES C=CCCCCCCCCCCC
REMARK SMILES IDX 7 1 8 2 9 3 10 4 11 5 12 6 13 7 6 8 5 9 4 10 3 11 2 12 1 13
REMARK H PARENT
REMARK Flexibility Score: inf
ROOT
ATOM      1  C   UNL     1     147.929 147.419 164.112  1.00  0.00     0.000 C 
ENDROOT
BRANCH   1   2
ATOM      2  C   UNL     1     147.562 146.618 162.857  1.00  0.00     0.000 C 
BRANCH   2   3
ATOM      3  C   UNL     1     148.814 146.271 162.039  1.00  0.00    -0.000 C 
BRANCH   3   4
ATOM      4  C   UNL     1     149.446 144.931 162.452  1.00  0.00    -0.000 C 
BRANCH   4   5
ATOM      5  C   UNL     1     150.719 145.046 163.315  1.00  0.00    -0.000 C 
BRANCH   5   6
ATOM      6  C   UNL     1     150.594 144.473 164.738  1.00  0.00    -0.003 C 
ATOM      7  C   UNL     1     149.290 143.709 164.960  1.00  0.00     0.004 C 
ENDBRANCH   5   6
ENDBRANCH   4   5
ENDBRANCH   3   4
ENDBRANCH   2   3
ENDBRANCH   1   2
BRANCH   1   8
ATOM      8  C   UNL     1     146.751 148.294 164.570  1.00  0.00     0.000 C 
BRANCH   8   9
ATOM      9  C   UNL     1     147.165 149.751 164.831  1.00  0.00     0.000 C 
BRANCH   9  10
ATOM     10  C   UNL     1     146.280 150.762 164.081  1.00  0.00     0.004 C 
BRANCH  10  11
ATOM     11  C   UNL     1     145.390 150.079 163.031  1.00  0.00     0.027 C 
BRANCH  11  12
ATOM     12  C   UNL     1     145.822 150.389 161.622  1.00  0.00    -0.035 C 
ATOM     13  C   UNL     1     146.936 149.871 161.098  1.00  0.00     0.004 C 
ENDBRANCH  11  12
ENDBRANCH  10  11
ENDBRANCH   9  10
ENDBRANCH   8   9
ENDBRANCH   1   8
TORSDOF 10
ENDMDL
