MODEL 1
REMARK VINA RESULT:    -4.784      0.000      0.000
REMARK INTER + INTRA:          -6.291
REMARK INTER:                  -5.903
REMARK INTRA:                  -0.388
REMARK UNBOUND:                -0.388
REMARK SMILES COc1cc(C=O)ccc1OC(C)=O
REMARK SMILES IDX 10 1 3 2 4 3 5 4 8 5 9 6 11 7 12 8 13 9 14 10 2 11 1 12 6 13
REMARK SMILES IDX 7 14
REMARK H PARENT
REMARK Flexibility Score: inf
ROOT
ATOM      1  C   UNL     1     -19.493 -19.452  18.902  1.00  0.00     0.172 A 
ATOM      2  C   UNL     1     -19.702 -19.258  17.521  1.00  0.00     0.162 A 
ATOM      3  C   UNL     1     -18.706 -18.612  16.759  1.00  0.00     0.062 A 
ATOM      4  C   UNL     1     -17.507 -18.191  17.357  1.00  0.00     0.018 A 
ATOM      5  C   UNL     1     -17.301 -18.425  18.722  1.00  0.00     0.015 A 
ATOM      6  C   UNL     1     -18.284 -19.056  19.485  1.00  0.00     0.052 A 
ENDROOT
BRANCH   1   7
ATOM      7  O   UNL     1     -20.450 -20.073  19.718  1.00  0.00    -0.423 OA
BRANCH   7   8
ATOM      8  C   UNL     1     -21.296 -19.392  20.600  1.00  0.00     0.308 C 
ATOM      9  C   UNL     1     -21.227 -19.691  22.059  1.00  0.00     0.139 C 
ATOM     10  O   UNL     1     -22.051 -18.468  20.190  1.00  0.00    -0.252 OA
ENDBRANCH   7   8
ENDBRANCH   1   7
BRANCH   2  11
ATOM     11  O   UNL     1     -20.883 -19.741  16.936  1.00  0.00    -0.493 OA
ATOM     12  C   UNL     1     -21.987 -18.930  16.549  1.00  0.00     0.278 C 
ENDBRANCH   2  11
BRANCH   4  13
ATOM     13  C   UNL     1     -16.456 -17.518  16.570  1.00  0.00     0.260 C 
ATOM     14  O   UNL     1     -16.310 -16.267  16.613  1.00  0.00    -0.298 OA
ENDBRANCH   4  13
TORSDOF 4
ENDMDL
MODEL 2
REMARK VINA RESULT:    -4.725     10.628     12.739
REMARK INTER + INTRA:          -6.218
REMARK INTER:                  -5.948
REMARK INTRA:                  -0.270
REMARK UNBOUND:                -0.388
REMARK SMILES COc1cc(C=O)ccc1OC(C)=O
REMARK SMILES IDX 10 1 3 2 4 3 5 4 8 5 9 6 11 7 12 8 13 9 14 10 2 11 1 12 6 13
REMARK SMILES IDX 7 14
REMARK H PARENT
REMARK Flexibility Score: inf
ROOT
ATOM      1  C   UNL     1      -9.473 -12.022  15.859  1.00  0.00     0.172 A 
ATOM      2  C   UNL     1      -9.826 -12.252  17.205  1.00  0.00     0.162 A 
ATOM      3  C   UNL     1      -9.900 -11.158  18.093  1.00  0.00     0.062 A 
ATOM      4  C   UNL     1      -9.655  -9.851  17.641  1.00  0.00     0.018 A 
ATOM      5  C   UNL     1      -9.341  -9.638  16.293  1.00  0.00     0.015 A 
ATOM      6  C   UNL     1      -9.258 -10.715  15.410  1.00  0.00     0.052 A 
ENDROOT
BRANCH   1   7
ATOM      7  O   UNL     1      -9.367 -13.068  14.930  1.00  0.00    -0.423 OA
BRANCH   7   8
ATOM      8  C   UNL     1     -10.372 -13.424  14.024  1.00  0.00     0.308 C 
ATOM      9  C   UNL     1     -11.777 -13.551  14.503  1.00  0.00     0.139 C 
ATOM     10  O   UNL     1     -10.119 -13.552  12.795  1.00  0.00    -0.252 OA
ENDBRANCH   7   8
ENDBRANCH   1   7
BRANCH   2  11
ATOM     11  O   UNL     1     -10.126 -13.561  17.618  1.00  0.00    -0.493 OA
ATOM     12  C   UNL     1      -9.156 -14.571  17.875  1.00  0.00     0.278 C 
ENDBRANCH   2  11
BRANCH   4  13
ATOM     13  C   UNL     1      -9.733  -8.699  18.559  1.00  0.00     0.260 C 
ATOM     14  O   UNL     1      -9.298  -8.775  19.739  1.00  0.00    -0.298 OA
ENDBRANCH   4  13
TORSDOF 4
ENDMDL
MODEL 3
REMARK VINA RESULT:    -4.695     10.595     12.863
REMARK INTER + INTRA:          -6.181
REMARK INTER:                  -5.840
REMARK INTRA:                  -0.341
REMARK UNBOUND:                -0.388
REMARK SMILES COc1cc(C=O)ccc1OC(C)=O
REMARK SMILES IDX 10 1 3 2 4 3 5 4 8 5 9 6 11 7 12 8 13 9 14 10 2 11 1 12 6 13
REMARK SMILES IDX 7 14
REMARK H PARENT
REMARK Flexibility Score: inf
ROOT
ATOM      1  C   UNL     1     -10.221 -10.950  17.393  1.00  0.00     0.172 A 
ATOM      2  C   UNL     1      -9.815 -10.812  16.050  1.00  0.00     0.162 A 
ATOM      3  C   UNL     1     -10.208 -11.787  15.109  1.00  0.00     0.062 A 
ATOM      4  C   UNL     1     -11.018 -12.868  15.493  1.00  0.00     0.018 A 
ATOM      5  C   UNL     1     -11.442 -12.970  16.824  1.00  0.00     0.015 A 
ATOM      6  C   UNL     1     -11.051 -12.014  17.763  1.00  0.00     0.052 A 
ENDROOT
BRANCH   1   7
ATOM      7  O   UNL     1      -9.851 -10.025  18.380  1.00  0.00    -0.423 OA
BRANCH   7   8
ATOM      8  C   UNL     1      -8.696 -10.128  19.164  1.00  0.00     0.308 C 
ATOM      9  C   UNL     1      -8.476  -9.157  20.273  1.00  0.00     0.139 C 
ATOM     10  O   UNL     1      -7.886 -11.081  19.002  1.00  0.00    -0.252 OA
ENDBRANCH   7   8
ENDBRANCH   1   7
BRANCH   2  11
ATOM     11  O   UNL     1      -9.056  -9.690  15.679  1.00  0.00    -0.493 OA
ATOM     12  C   UNL     1      -7.655  -9.707  15.424  1.00  0.00     0.278 C 
ENDBRANCH   2  11
BRANCH   4  13
ATOM     13  C   UNL     1     -11.439 -13.891  14.517  1.00  0.00     0.260 C 
ATOM     14  O   UNL     1     -11.004 -13.881  13.335  1.00  0.00    -0.298 OA
ENDBRANCH   4  13
TORSDOF 4
ENDMDL
MODEL 4
REMARK VINA RESULT:    -4.673      8.987     11.764
REMARK INTER + INTRA:          -6.154
REMARK INTER:                  -5.765
REMARK INTRA:                  -0.390
REMARK UNBOUND:                -0.388
REMARK SMILES COc1cc(C=O)ccc1OC(C)=O
REMARK SMILES IDX 10 1 3 2 4 3 5 4 8 5 9 6 11 7 12 8 13 9 14 10 2 11 1 12 6 13
REMARK SMILES IDX 7 14
REMARK H PARENT
REMARK Flexibility Score: inf
ROOT
ATOM      1  C   UNL     1     -10.664 -12.966  17.392  1.00  0.00     0.172 A 
ATOM      2  C   UNL     1      -9.363 -12.454  17.209  1.00  0.00     0.162 A 
ATOM      3  C   UNL     1      -9.061 -11.158  17.679  1.00  0.00     0.062 A 
ATOM      4  C   UNL     1     -10.031 -10.395  18.348  1.00  0.00     0.018 A 
ATOM      5  C   UNL     1     -11.307 -10.934  18.554  1.00  0.00     0.015 A 
ATOM      6  C   UNL     1     -11.617 -12.211  18.084  1.00  0.00     0.052 A 
ENDROOT
BRANCH   1   7
ATOM      7  O   UNL     1     -11.033 -14.239  16.934  1.00  0.00    -0.423 OA
BRANCH   7   8
ATOM      8  C   UNL     1     -12.021 -14.476  15.973  1.00  0.00     0.308 C 
ATOM      9  C   UNL     1     -11.927 -13.805  14.645  1.00  0.00     0.139 C 
ATOM     10  O   UNL     1     -12.940 -15.314  16.182  1.00  0.00    -0.252 OA
ENDBRANCH   7   8
ENDBRANCH   1   7
BRANCH   2  11
ATOM     11  O   UNL     1      -8.394 -13.260  16.590  1.00  0.00    -0.493 OA
ATOM     12  C   UNL     1      -8.175 -13.332  15.185  1.00  0.00     0.278 C 
ENDBRANCH   2  11
BRANCH   4  13
ATOM     13  C   UNL     1      -9.726  -9.041  18.848  1.00  0.00     0.260 C 
ATOM     14  O   UNL     1      -9.241  -8.160  18.088  1.00  0.00    -0.298 OA
ENDBRANCH   4  13
TORSDOF 4
ENDMDL
MODEL 5
REMARK VINA RESULT:    -4.613      9.367     13.477
REMARK INTER + INTRA:          -6.080
REMARK INTER:                  -5.810
REMARK INTRA:                  -0.270
REMARK UNBOUND:                -0.388
REMARK SMILES COc1cc(C=O)ccc1OC(C)=O
REMARK SMILES IDX 10 1 3 2 4 3 5 4 8 5 9 6 11 7 12 8 13 9 14 10 2 11 1 12 6 13
REMARK SMILES IDX 7 14
REMARK H PARENT
REMARK Flexibility Score: inf
ROOT
ATOM      1  C   UNL     1      -9.680 -10.610  16.169  1.00  0.00     0.172 A 
ATOM      2  C   UNL     1      -9.898 -11.129  17.463  1.00  0.00     0.162 A 
ATOM      3  C   UNL     1     -10.627 -12.328  17.608  1.00  0.00     0.062 A 
ATOM      4  C   UNL     1     -11.106 -13.017  16.481  1.00  0.00     0.018 A 
ATOM      5  C   UNL     1     -10.848 -12.506  15.203  1.00  0.00     0.015 A 
ATOM      6  C   UNL     1     -10.136 -11.316  15.051  1.00  0.00     0.052 A 
ENDROOT
BRANCH   1   7
ATOM      7  O   UNL     1      -8.978  -9.414  15.958  1.00  0.00    -0.423 OA
BRANCH   7   8
ATOM      8  C   UNL     1      -7.692  -9.340  15.410  1.00  0.00     0.308 C 
ATOM      9  C   UNL     1      -7.289  -8.123  14.651  1.00  0.00     0.139 C 
ATOM     10  O   UNL     1      -6.844 -10.249  15.625  1.00  0.00    -0.252 OA
ENDBRANCH   7   8
ENDBRANCH   1   7
BRANCH   2  11
ATOM     11  O   UNL     1      -9.357 -10.454  18.569  1.00  0.00    -0.493 OA
ATOM     12  C   UNL     1      -9.948  -9.319  19.194  1.00  0.00     0.278 C 
ENDBRANCH   2  11
BRANCH   4  13
ATOM     13  C   UNL     1     -11.865 -14.274  16.621  1.00  0.00     0.260 C 
ATOM     14  O   UNL     1     -12.627 -14.680  15.703  1.00  0.00    -0.298 OA
ENDBRANCH   4  13
TORSDOF 4
ENDMDL
MODEL 6
REMARK VINA RESULT:    -4.528     10.046     13.294
REMARK INTER + INTRA:          -5.975
REMARK INTER:                  -5.602
REMARK INTRA:                  -0.373
REMARK UNBOUND:                -0.388
REMARK SMILES COc1cc(C=O)ccc1OC(C)=O
REMARK SMILES IDX 10 1 3 2 4 3 5 4 8 5 9 6 11 7 12 8 13 9 14 10 2 11 1 12 6 13
REMARK SMILES IDX 7 14
REMARK H PARENT
REMARK Flexibility Score: inf
ROOT
ATOM      1  C   UNL     1      -9.228 -11.126  17.195  1.00  0.00     0.172 A 
ATOM      2  C   UNL     1      -8.216 -11.578  16.324  1.00  0.00     0.162 A 
ATOM      3  C   UNL     1      -7.551 -10.646  15.500  1.00  0.00     0.062 A 
ATOM      4  C   UNL     1      -7.869  -9.279  15.563  1.00  0.00     0.018 A 
ATOM      5  C   UNL     1      -8.852  -8.844  16.461  1.00  0.00     0.015 A 
ATOM      6  C   UNL     1      -9.520  -9.760  17.273  1.00  0.00     0.052 A 
ENDROOT
BRANCH   1   7
ATOM      7  O   UNL     1      -9.938 -12.004  18.028  1.00  0.00    -0.423 OA
BRANCH   7   8
ATOM      8  C   UNL     1     -11.285 -12.341  17.853  1.00  0.00     0.308 C 
ATOM      9  C   UNL     1     -11.642 -13.503  16.990  1.00  0.00     0.139 C 
ATOM     10  O   UNL     1     -12.192 -11.733  18.485  1.00  0.00    -0.252 OA
ENDBRANCH   7   8
ENDBRANCH   1   7
BRANCH   2  11
ATOM     11  O   UNL     1      -7.875 -12.941  16.323  1.00  0.00    -0.493 OA
ATOM     12  C   UNL     1      -8.323 -13.888  15.359  1.00  0.00     0.278 C 
ENDBRANCH   2  11
BRANCH   4  13
ATOM     13  C   UNL     1      -7.178  -8.294  14.710  1.00  0.00     0.260 C 
ATOM     14  O   UNL     1      -7.696  -7.174  14.456  1.00  0.00    -0.298 OA
ENDBRANCH   4  13
TORSDOF 4
ENDMDL
MODEL 7
REMARK VINA RESULT:    -4.399      2.084      4.983
REMARK INTER + INTRA:          -5.816
REMARK INTER:                  -5.484
REMARK INTRA:                  -0.332
REMARK UNBOUND:                -0.388
REMARK SMILES COc1cc(C=O)ccc1OC(C)=O
REMARK SMILES IDX 10 1 3 2 4 3 5 4 8 5 9 6 11 7 12 8 13 9 14 10 2 11 1 12 6 13
REMARK SMILES IDX 7 14
REMARK H PARENT
REMARK Flexibility Score: inf
ROOT
ATOM      1  C   UNL     1     -20.519 -19.405  18.435  1.00  0.00     0.172 A 
ATOM      2  C   UNL     1     -21.202 -19.213  19.654  1.00  0.00     0.162 A 
ATOM      3  C   UNL     1     -22.393 -18.459  19.663  1.00  0.00     0.062 A 
ATOM      4  C   UNL     1     -22.915 -17.927  18.471  1.00  0.00     0.018 A 
ATOM      5  C   UNL     1     -22.243 -18.159  17.265  1.00  0.00     0.015 A 
ATOM      6  C   UNL     1     -21.058 -18.897  17.248  1.00  0.00     0.052 A 
ENDROOT
BRANCH   1   7
ATOM      7  O   UNL     1     -19.321 -20.131  18.361  1.00  0.00    -0.423 OA
BRANCH   7   8
ATOM      8  C   UNL     1     -18.050 -19.550  18.291  1.00  0.00     0.308 C 
ATOM      9  C   UNL     1     -17.468 -18.915  19.508  1.00  0.00     0.139 C 
ATOM     10  O   UNL     1     -17.356 -19.634  17.241  1.00  0.00    -0.252 OA
ENDBRANCH   7   8
ENDBRANCH   1   7
BRANCH   2  11
ATOM     11  O   UNL     1     -20.692 -19.805  20.821  1.00  0.00    -0.493 OA
ATOM     12  C   UNL     1     -21.225 -19.611  22.127  1.00  0.00     0.278 C 
ENDBRANCH   2  11
BRANCH   4  13
ATOM     13  C   UNL     1     -24.162 -17.141  18.468  1.00  0.00     0.260 C 
ATOM     14  O   UNL     1     -24.281 -16.110  17.752  1.00  0.00    -0.298 OA
ENDBRANCH   4  13
TORSDOF 4
ENDMDL
MODEL 8
REMARK VINA RESULT:    -4.289      1.493      4.698
REMARK INTER + INTRA:          -5.680
REMARK INTER:                  -5.340
REMARK INTRA:                  -0.340
REMARK UNBOUND:                -0.388
REMARK SMILES COc1cc(C=O)ccc1OC(C)=O
REMARK SMILES IDX 10 1 3 2 4 3 5 4 8 5 9 6 11 7 12 8 13 9 14 10 2 11 1 12 6 13
REMARK SMILES IDX 7 14
REMARK H PARENT
REMARK Flexibility Score: inf
ROOT
ATOM      1  C   UNL     1     -18.539 -18.933  17.938  1.00  0.00     0.172 A 
ATOM      2  C   UNL     1     -19.918 -19.227  17.904  1.00  0.00     0.162 A 
ATOM      3  C   UNL     1     -20.584 -19.542  19.106  1.00  0.00     0.062 A 
ATOM      4  C   UNL     1     -19.894 -19.536  20.330  1.00  0.00     0.018 A 
ATOM      5  C   UNL     1     -18.534 -19.206  20.350  1.00  0.00     0.015 A 
ATOM      6  C   UNL     1     -17.865 -18.901  19.163  1.00  0.00     0.052 A 
ENDROOT
BRANCH   1   7
ATOM      7  O   UNL     1     -17.816 -18.628  16.776  1.00  0.00    -0.423 OA
BRANCH   7   8
ATOM      8  C   UNL     1     -17.615 -17.331  16.289  1.00  0.00     0.308 C 
ATOM      9  C   UNL     1     -16.359 -16.606  16.634  1.00  0.00     0.139 C 
ATOM     10  O   UNL     1     -18.439 -16.804  15.492  1.00  0.00    -0.252 OA
ENDBRANCH   7   8
ENDBRANCH   1   7
BRANCH   2  11
ATOM     11  O   UNL     1     -20.598 -19.167  16.676  1.00  0.00    -0.493 OA
ATOM     12  C   UNL     1     -20.903 -20.295  15.863  1.00  0.00     0.278 C 
ENDBRANCH   2  11
BRANCH   4  13
ATOM     13  C   UNL     1     -20.581 -19.860  21.595  1.00  0.00     0.260 C 
ATOM     14  O   UNL     1     -21.839 -19.858  21.672  1.00  0.00    -0.298 OA
ENDBRANCH   4  13
TORSDOF 4
ENDMDL
MODEL 9
REMARK VINA RESULT:    -4.238     10.512     12.941
REMARK INTER + INTRA:          -5.618
REMARK INTER:                  -5.296
REMARK INTRA:                  -0.322
REMARK UNBOUND:                -0.388
REMARK SMILES COc1cc(C=O)ccc1OC(C)=O
REMARK SMILES IDX 10 1 3 2 4 3 5 4 8 5 9 6 11 7 12 8 13 9 14 10 2 11 1 12 6 13
REMARK SMILES IDX 7 14
REMARK H PARENT
REMARK Flexibility Score: inf
ROOT
ATOM      1  C   UNL     1      -9.241 -11.969  15.875  1.00  0.00     0.172 A 
ATOM      2  C   UNL     1      -9.437 -11.603  17.223  1.00  0.00     0.162 A 
ATOM      3  C   UNL     1      -8.343 -11.641  18.112  1.00  0.00     0.062 A 
ATOM      4  C   UNL     1      -7.065 -12.011  17.661  1.00  0.00     0.018 A 
ATOM      5  C   UNL     1      -6.881 -12.336  16.311  1.00  0.00     0.015 A 
ATOM      6  C   UNL     1      -7.960 -12.309  15.427  1.00  0.00     0.052 A 
ENDROOT
BRANCH   1   7
ATOM      7  O   UNL     1     -10.290 -11.968  14.945  1.00  0.00    -0.423 OA
BRANCH   7   8
ATOM      8  C   UNL     1     -10.793 -13.115  14.321  1.00  0.00     0.308 C 
ATOM      9  C   UNL     1     -11.985 -13.799  14.898  1.00  0.00     0.139 C 
ATOM     10  O   UNL     1     -10.306 -13.526  13.232  1.00  0.00    -0.252 OA
ENDBRANCH   7   8
ENDBRANCH   1   7
BRANCH   2  11
ATOM     11  O   UNL     1     -10.711 -11.180  17.636  1.00  0.00    -0.493 OA
ATOM     12  C   UNL     1     -11.712 -12.034  18.180  1.00  0.00     0.278 C 
ENDBRANCH   2  11
BRANCH   4  13
ATOM     13  C   UNL     1      -5.912 -12.050  18.580  1.00  0.00     0.260 C 
ATOM     14  O   UNL     1      -5.814 -11.236  19.537  1.00  0.00    -0.298 OA
ENDBRANCH   4  13
TORSDOF 4
ENDMDL
