MODEL 1
REMARK VINA RESULT:    -3.799      0.000      0.000
REMARK INTER + INTRA:          -4.406
REMARK INTER:                  -4.354
REMARK INTRA:                  -0.051
REMARK UNBOUND:                -0.051
REMARK SMILES COc1cc(C=O)ccc1O
REMARK SMILES IDX 3 1 10 2 9 3 8 4 5 5 4 6 2 7 1 8 11 9 6 11 7 12
REMARK H PARENT 11 10
REMARK Flexibility Score: inf
ROOT
ATOM      1  C   UNL     1      45.970  18.433  74.552  1.00  0.00     0.161 A 
ATOM      2  C   UNL     1      45.971  17.038  74.739  1.00  0.00     0.157 A 
ATOM      3  C   UNL     1      45.755  16.503  76.013  1.00  0.00     0.051 A 
ATOM      4  C   UNL     1      45.539  17.344  77.106  1.00  0.00     0.015 A 
ATOM      5  C   UNL     1      45.534  18.736  76.937  1.00  0.00     0.018 A 
ATOM      6  C   UNL     1      45.750  19.276  75.660  1.00  0.00     0.062 A 
ENDROOT
BRANCH   1   7
ATOM      7  O   UNL     1      46.189  18.942  73.262  1.00  0.00    -0.493 OA
ATOM      8  C   UNL     1      46.228  20.328  72.936  1.00  0.00     0.278 C 
ENDBRANCH   1   7
BRANCH   2   9
ATOM      9  O   UNL     1      46.185  16.168  73.671  1.00  0.00    -0.504 OA
ATOM     10  H   UNL     1      46.684  16.449  72.836  1.00  0.00     0.293 HD
ENDBRANCH   2   9
BRANCH   5  11
ATOM     11  C   UNL     1      45.306  19.640  78.081  1.00  0.00     0.260 C 
ATOM     12  O   UNL     1      44.158  19.780  78.581  1.00  0.00    -0.298 OA
ENDBRANCH   5  11
TORSDOF 3
ENDMDL
MODEL 2
REMARK VINA RESULT:    -3.586      7.342      9.057
REMARK INTER + INTRA:          -4.162
REMARK INTER:                  -4.102
REMARK INTRA:                  -0.060
REMARK UNBOUND:                -0.051
REMARK SMILES COc1cc(C=O)ccc1O
REMARK SMILES IDX 3 1 10 2 9 3 8 4 5 5 4 6 2 7 1 8 11 9 6 11 7 12
REMARK H PARENT 11 10
REMARK Flexibility Score: inf
ROOT
ATOM      1  C   UNL     1      39.168  19.820  79.773  1.00  0.00     0.161 A 
ATOM      2  C   UNL     1      38.288  18.725  79.864  1.00  0.00     0.157 A 
ATOM      3  C   UNL     1      37.132  18.820  80.644  1.00  0.00     0.051 A 
ATOM      4  C   UNL     1      36.840  19.995  81.338  1.00  0.00     0.015 A 
ATOM      5  C   UNL     1      37.706  21.096  81.259  1.00  0.00     0.018 A 
ATOM      6  C   UNL     1      38.867  21.004  80.475  1.00  0.00     0.062 A 
ENDROOT
BRANCH   1   7
ATOM      7  O   UNL     1      40.321  19.696  78.982  1.00  0.00    -0.493 OA
ATOM      8  C   UNL     1      41.634  20.041  79.410  1.00  0.00     0.278 C 
ENDBRANCH   1   7
BRANCH   2   9
ATOM      9  O   UNL     1      38.547  17.534  79.186  1.00  0.00    -0.504 OA
ATOM     10  H   UNL     1      38.314  16.629  79.575  1.00  0.00     0.293 HD
ENDBRANCH   2   9
BRANCH   5  11
ATOM     11  C   UNL     1      37.413  22.347  81.984  1.00  0.00     0.260 C 
ATOM     12  O   UNL     1      37.610  22.441  83.225  1.00  0.00    -0.298 OA
ENDBRANCH   5  11
TORSDOF 3
ENDMDL
MODEL 3
REMARK VINA RESULT:    -3.480     18.107     20.149
REMARK INTER + INTRA:          -4.040
REMARK INTER:                  -3.989
REMARK INTRA:                  -0.052
REMARK UNBOUND:                -0.051
REMARK SMILES COc1cc(C=O)ccc1O
REMARK SMILES IDX 3 1 10 2 9 3 8 4 5 5 4 6 2 7 1 8 11 9 6 11 7 12
REMARK H PARENT 11 10
REMARK Flexibility Score: inf
ROOT
ATOM      1  C   UNL     1      45.166  31.198  91.180  1.00  0.00     0.161 A 
ATOM      2  C   UNL     1      44.410  31.749  92.230  1.00  0.00     0.157 A 
ATOM      3  C   UNL     1      43.462  30.967  92.896  1.00  0.00     0.051 A 
ATOM      4  C   UNL     1      43.256  29.637  92.525  1.00  0.00     0.015 A 
ATOM      5  C   UNL     1      44.001  29.071  91.480  1.00  0.00     0.018 A 
ATOM      6  C   UNL     1      44.954  29.854  90.811  1.00  0.00     0.062 A 
ENDROOT
BRANCH   1   7
ATOM      7  O   UNL     1      46.111  32.007  90.530  1.00  0.00    -0.493 OA
ATOM      8  C   UNL     1      46.642  31.748  89.234  1.00  0.00     0.278 C 
ENDBRANCH   1   7
BRANCH   2   9
ATOM      9  O   UNL     1      44.588  33.074  92.628  1.00  0.00    -0.504 OA
ATOM     10  H   UNL     1      45.256  33.688  92.179  1.00  0.00     0.293 HD
ENDBRANCH   2   9
BRANCH   5  11
ATOM     11  C   UNL     1      43.798  27.667  91.075  1.00  0.00     0.260 C 
ATOM     12  O   UNL     1      42.863  27.343  90.295  1.00  0.00    -0.298 OA
ENDBRANCH   5  11
TORSDOF 3
ENDMDL
MODEL 4
REMARK VINA RESULT:    -3.441      2.041      4.478
REMARK INTER + INTRA:          -3.995
REMARK INTER:                  -3.920
REMARK INTRA:                  -0.075
REMARK UNBOUND:                -0.051
REMARK SMILES COc1cc(C=O)ccc1O
REMARK SMILES IDX 3 1 10 2 9 3 8 4 5 5 4 6 2 7 1 8 11 9 6 11 7 12
REMARK H PARENT 11 10
REMARK Flexibility Score: inf
ROOT
ATOM      1  C   UNL     1      46.016  18.890  76.424  1.00  0.00     0.161 A 
ATOM      2  C   UNL     1      46.742  19.651  77.360  1.00  0.00     0.157 A 
ATOM      3  C   UNL     1      47.455  20.779  76.942  1.00  0.00     0.051 A 
ATOM      4  C   UNL     1      47.456  21.158  75.599  1.00  0.00     0.015 A 
ATOM      5  C   UNL     1      46.739  20.411  74.653  1.00  0.00     0.018 A 
ATOM      6  C   UNL     1      46.021  19.279  75.070  1.00  0.00     0.062 A 
ENDROOT
BRANCH   1   7
ATOM      7  O   UNL     1      45.310  17.763  76.872  1.00  0.00    -0.493 OA
ATOM      8  C   UNL     1      45.712  16.415  76.648  1.00  0.00     0.278 C 
ENDBRANCH   1   7
BRANCH   2   9
ATOM      9  O   UNL     1      46.764  19.302  78.710  1.00  0.00    -0.504 OA
ATOM     10  H   UNL     1      45.922  19.077  79.224  1.00  0.00     0.293 HD
ENDBRANCH   2   9
BRANCH   5  11
ATOM     11  C   UNL     1      46.727  20.797  73.229  1.00  0.00     0.260 C 
ATOM     12  O   UNL     1      46.552  21.996  72.880  1.00  0.00    -0.298 OA
ENDBRANCH   5  11
TORSDOF 3
ENDMDL
MODEL 5
REMARK VINA RESULT:    -3.421      1.656      2.018
REMARK INTER + INTRA:          -3.973
REMARK INTER:                  -3.919
REMARK INTRA:                  -0.053
REMARK UNBOUND:                -0.051
REMARK SMILES COc1cc(C=O)ccc1O
REMARK SMILES IDX 3 1 10 2 9 3 8 4 5 5 4 6 2 7 1 8 11 9 6 11 7 12
REMARK H PARENT 11 10
REMARK Flexibility Score: inf
ROOT
ATOM      1  C   UNL     1      45.769  19.113  75.249  1.00  0.00     0.161 A 
ATOM      2  C   UNL     1      45.794  18.042  76.163  1.00  0.00     0.157 A 
ATOM      3  C   UNL     1      45.415  18.248  77.492  1.00  0.00     0.051 A 
ATOM      4  C   UNL     1      45.011  19.512  77.926  1.00  0.00     0.015 A 
ATOM      5  C   UNL     1      44.980  20.590  77.029  1.00  0.00     0.018 A 
ATOM      6  C   UNL     1      45.359  20.386  75.694  1.00  0.00     0.062 A 
ENDROOT
BRANCH   1   7
ATOM      7  O   UNL     1      46.154  18.877  73.920  1.00  0.00    -0.493 OA
ATOM      8  C   UNL     1      46.456  19.897  72.974  1.00  0.00     0.278 C 
ENDBRANCH   1   7
BRANCH   2   9
ATOM      9  O   UNL     1      46.193  16.766  75.766  1.00  0.00    -0.504 OA
ATOM     10  H   UNL     1      46.845  16.615  75.007  1.00  0.00     0.293 HD
ENDBRANCH   2   9
BRANCH   5  11
ATOM     11  C   UNL     1      44.555  21.933  77.469  1.00  0.00     0.260 C 
ATOM     12  O   UNL     1      44.217  22.815  76.635  1.00  0.00    -0.298 OA
ENDBRANCH   5  11
TORSDOF 3
ENDMDL
MODEL 6
REMARK VINA RESULT:    -3.272      7.294      9.494
REMARK INTER + INTRA:          -3.801
REMARK INTER:                  -3.751
REMARK INTRA:                  -0.051
REMARK UNBOUND:                -0.051
REMARK SMILES COc1cc(C=O)ccc1O
REMARK SMILES IDX 3 1 10 2 9 3 8 4 5 5 4 6 2 7 1 8 11 9 6 11 7 12
REMARK H PARENT 11 10
REMARK Flexibility Score: inf
ROOT
ATOM      1  C   UNL     1      37.457  21.120  80.223  1.00  0.00     0.161 A 
ATOM      2  C   UNL     1      37.617  19.815  80.726  1.00  0.00     0.157 A 
ATOM      3  C   UNL     1      38.759  19.076  80.405  1.00  0.00     0.051 A 
ATOM      4  C   UNL     1      39.748  19.622  79.584  1.00  0.00     0.015 A 
ATOM      5  C   UNL     1      39.605  20.920  79.073  1.00  0.00     0.018 A 
ATOM      6  C   UNL     1      38.460  21.665  79.395  1.00  0.00     0.062 A 
ENDROOT
BRANCH   1   7
ATOM      7  O   UNL     1      36.300  21.839  80.562  1.00  0.00    -0.493 OA
ATOM      8  C   UNL     1      36.043  23.185  80.176  1.00  0.00     0.278 C 
ENDBRANCH   1   7
BRANCH   2   9
ATOM      9  O   UNL     1      36.650  19.237  81.548  1.00  0.00    -0.504 OA
ATOM     10  H   UNL     1      35.764  19.688  81.739  1.00  0.00     0.293 HD
ENDBRANCH   2   9
BRANCH   5  11
ATOM     11  C   UNL     1      40.640  21.514  78.206  1.00  0.00     0.260 C 
ATOM     12  O   UNL     1      40.611  21.355  76.955  1.00  0.00    -0.298 OA
ENDBRANCH   5  11
TORSDOF 3
ENDMDL
MODEL 7
REMARK VINA RESULT:    -3.250     19.053     20.160
REMARK INTER + INTRA:          -3.777
REMARK INTER:                  -3.703
REMARK INTRA:                  -0.073
REMARK UNBOUND:                -0.051
REMARK SMILES COc1cc(C=O)ccc1O
REMARK SMILES IDX 3 1 10 2 9 3 8 4 5 5 4 6 2 7 1 8 11 9 6 11 7 12
REMARK H PARENT 11 10
REMARK Flexibility Score: inf
ROOT
ATOM      1  C   UNL     1      44.659  29.265  92.060  1.00  0.00     0.161 A 
ATOM      2  C   UNL     1      43.907  30.452  92.131  1.00  0.00     0.157 A 
ATOM      3  C   UNL     1      44.383  31.620  91.528  1.00  0.00     0.051 A 
ATOM      4  C   UNL     1      45.605  31.620  90.853  1.00  0.00     0.015 A 
ATOM      5  C   UNL     1      46.368  30.446  90.772  1.00  0.00     0.018 A 
ATOM      6  C   UNL     1      45.891  29.272  91.376  1.00  0.00     0.062 A 
ENDROOT
BRANCH   1   7
ATOM      7  O   UNL     1      44.156  28.107  92.674  1.00  0.00    -0.493 OA
ATOM      8  C   UNL     1      43.437  27.081  91.997  1.00  0.00     0.278 C 
ENDBRANCH   1   7
BRANCH   2   9
ATOM      9  O   UNL     1      42.682  30.490  92.797  1.00  0.00    -0.504 OA
ATOM     10  H   UNL     1      42.577  30.910  93.712  1.00  0.00     0.293 HD
ENDBRANCH   2   9
BRANCH   5  11
ATOM     11  C   UNL     1      47.662  30.427  90.063  1.00  0.00     0.260 C 
ATOM     12  O   UNL     1      48.713  30.852  90.613  1.00  0.00    -0.298 OA
ENDBRANCH   5  11
TORSDOF 3
ENDMDL
MODEL 8
REMARK VINA RESULT:    -3.233      2.733      4.424
REMARK INTER + INTRA:          -3.757
REMARK INTER:                  -3.705
REMARK INTRA:                  -0.052
REMARK UNBOUND:                -0.051
REMARK SMILES COc1cc(C=O)ccc1O
REMARK SMILES IDX 3 1 10 2 9 3 8 4 5 5 4 6 2 7 1 8 11 9 6 11 7 12
REMARK H PARENT 11 10
REMARK Flexibility Score: inf
ROOT
ATOM      1  C   UNL     1      47.879  20.396  77.267  1.00  0.00     0.161 A 
ATOM      2  C   UNL     1      47.143  19.635  78.194  1.00  0.00     0.157 A 
ATOM      3  C   UNL     1      46.052  18.873  77.764  1.00  0.00     0.051 A 
ATOM      4  C   UNL     1      45.682  18.862  76.418  1.00  0.00     0.015 A 
ATOM      5  C   UNL     1      46.404  19.615  75.481  1.00  0.00     0.018 A 
ATOM      6  C   UNL     1      47.501  20.380  75.909  1.00  0.00     0.062 A 
ENDROOT
BRANCH   1   7
ATOM      7  O   UNL     1      48.970  21.151  77.726  1.00  0.00    -0.493 OA
ATOM      8  C   UNL     1      49.811  21.944  76.894  1.00  0.00     0.278 C 
ENDBRANCH   1   7
BRANCH   2   9
ATOM      9  O   UNL     1      47.483  19.622  79.546  1.00  0.00    -0.504 OA
ATOM     10  H   UNL     1      48.423  19.425  79.865  1.00  0.00     0.293 HD
ENDBRANCH   2   9
BRANCH   5  11
ATOM     11  C   UNL     1      46.029  19.615  74.054  1.00  0.00     0.260 C 
ATOM     12  O   UNL     1      46.071  18.557  73.370  1.00  0.00    -0.298 OA
ENDBRANCH   5  11
TORSDOF 3
ENDMDL
MODEL 9
REMARK VINA RESULT:    -3.230     18.318     20.245
REMARK INTER + INTRA:          -3.753
REMARK INTER:                  -3.680
REMARK INTRA:                  -0.073
REMARK UNBOUND:                -0.051
REMARK SMILES COc1cc(C=O)ccc1O
REMARK SMILES IDX 3 1 10 2 9 3 8 4 5 5 4 6 2 7 1 8 11 9 6 11 7 12
REMARK H PARENT 11 10
REMARK Flexibility Score: inf
ROOT
ATOM      1  C   UNL     1      50.648  34.347  85.053  1.00  0.00     0.161 A 
ATOM      2  C   UNL     1      49.363  34.643  85.545  1.00  0.00     0.157 A 
ATOM      3  C   UNL     1      49.218  35.306  86.767  1.00  0.00     0.051 A 
ATOM      4  C   UNL     1      50.340  35.679  87.509  1.00  0.00     0.015 A 
ATOM      5  C   UNL     1      51.629  35.391  87.033  1.00  0.00     0.018 A 
ATOM      6  C   UNL     1      51.777  34.726  85.806  1.00  0.00     0.062 A 
ENDROOT
BRANCH   1   7
ATOM      7  O   UNL     1      50.763  33.680  83.823  1.00  0.00    -0.493 OA
ATOM      8  C   UNL     1      50.955  34.326  82.569  1.00  0.00     0.278 C 
ENDBRANCH   1   7
BRANCH   2   9
ATOM      9  O   UNL     1      48.218  34.286  84.833  1.00  0.00    -0.504 OA
ATOM     10  H   UNL     1      47.290  34.357  85.231  1.00  0.00     0.293 HD
ENDBRANCH   2   9
BRANCH   5  11
ATOM     11  C   UNL     1      52.827  35.778  87.802  1.00  0.00     0.260 C 
ATOM     12  O   UNL     1      53.869  35.069  87.785  1.00  0.00    -0.298 OA
ENDBRANCH   5  11
TORSDOF 3
ENDMDL
