MODEL 1
REMARK VINA RESULT:     2.204      0.000      0.000
REMARK INTER + INTRA:           2.946
REMARK INTER:                   3.106
REMARK INTRA:                  -0.160
REMARK UNBOUND:                -0.160
REMARK SMILES C=CCCCCCCC(=O)[O-]
REMARK SMILES IDX 6 1 7 2 8 3 9 4 10 5 11 6 5 7 4 8 3 9 2 10 1 11
REMARK H PARENT
REMARK Flexibility Score: inf
ROOT
ATOM      1  C   UNL     1      -4.643 110.555  66.918  1.00  0.00     0.000 C 
ENDROOT
BRANCH   1   2
ATOM      2  C   UNL     1      -4.284 109.294  66.118  1.00  0.00     0.006 C 
BRANCH   2   3
ATOM      3  C   UNL     1      -5.385 108.236  66.240  1.00  0.00     0.053 C 
BRANCH   3   4
ATOM      4  C   UNL     1      -4.982 107.170  67.210  1.00  0.00     0.041 C 
ATOM      5  O   UNL     1      -5.613 106.080  67.252  1.00  0.00    -0.550 OA
ATOM      6  O   UNL     1      -3.881 107.359  68.035  1.00  0.00    -0.550 OA
ENDBRANCH   3   4
ENDBRANCH   2   3
ENDBRANCH   1   2
BRANCH   1   7
ATOM      7  C   UNL     1      -3.909 111.811  66.418  1.00  0.00     0.000 C 
BRANCH   7   8
ATOM      8  C   UNL     1      -4.062 113.056  67.317  1.00  0.00     0.004 C 
BRANCH   8   9
ATOM      9  C   UNL     1      -5.442 113.731  67.240  1.00  0.00     0.027 C 
BRANCH   9  10
ATOM     10  C   UNL     1      -5.405 115.178  67.654  1.00  0.00    -0.035 C 
ATOM     11  C   UNL     1      -5.843 115.579  68.851  1.00  0.00     0.004 C 
ENDBRANCH   9  10
ENDBRANCH   8   9
ENDBRANCH   7   8
ENDBRANCH   1   7
TORSDOF 7
ENDMDL
MODEL 2
REMARK VINA RESULT:     3.037      3.896      6.533
REMARK INTER + INTRA:           4.120
REMARK INTER:                   4.315
REMARK INTRA:                  -0.195
REMARK UNBOUND:                -0.160
REMARK SMILES C=CCCCCCCC(=O)[O-]
REMARK SMILES IDX 6 1 7 2 8 3 9 4 10 5 11 6 5 7 4 8 3 9 2 10 1 11
REMARK H PARENT
REMARK Flexibility Score: inf
ROOT
ATOM      1  C   UNL     1      -3.874 112.104  66.413  1.00  0.00     0.000 C 
ENDROOT
BRANCH   1   2
ATOM      2  C   UNL     1      -4.120 113.339  67.293  1.00  0.00     0.006 C 
BRANCH   2   3
ATOM      3  C   UNL     1      -5.609 113.696  67.333  1.00  0.00     0.053 C 
BRANCH   3   4
ATOM      4  C   UNL     1      -5.790 115.155  67.612  1.00  0.00     0.041 C 
ATOM      5  O   UNL     1      -5.578 115.610  68.767  1.00  0.00    -0.550 OA
ATOM      6  O   UNL     1      -6.147 116.020  66.586  1.00  0.00    -0.550 OA
ENDBRANCH   3   4
ENDBRANCH   2   3
ENDBRANCH   1   2
BRANCH   1   7
ATOM      7  C   UNL     1      -4.572 110.840  66.945  1.00  0.00     0.000 C 
BRANCH   7   8
ATOM      8  C   UNL     1      -4.271 109.549  66.156  1.00  0.00     0.004 C 
BRANCH   8   9
ATOM      9  C   UNL     1      -5.384 108.488  66.222  1.00  0.00     0.027 C 
BRANCH   9  10
ATOM     10  C   UNL     1      -5.036 107.339  67.130  1.00  0.00    -0.035 C 
ATOM     11  C   UNL     1      -3.967 107.372  67.930  1.00  0.00     0.004 C 
ENDBRANCH   9  10
ENDBRANCH   8   9
ENDBRANCH   7   8
ENDBRANCH   1   7
TORSDOF 7
ENDMDL
MODEL 3
REMARK VINA RESULT:     3.457      3.283      5.448
REMARK INTER + INTRA:           4.712
REMARK INTER:                   5.156
REMARK INTRA:                  -0.444
REMARK UNBOUND:                -0.160
REMARK SMILES C=CCCCCCCC(=O)[O-]
REMARK SMILES IDX 6 1 7 2 8 3 9 4 10 5 11 6 5 7 4 8 3 9 2 10 1 11
REMARK H PARENT
REMARK Flexibility Score: inf
ROOT
ATOM      1  C   UNL     1      -4.230 109.276  66.077  1.00  0.00     0.000 C 
ENDROOT
BRANCH   1   2
ATOM      2  C   UNL     1      -4.394 110.533  66.942  1.00  0.00     0.006 C 
BRANCH   2   3
ATOM      3  C   UNL     1      -3.839 111.769  66.227  1.00  0.00     0.053 C 
BRANCH   3   4
ATOM      4  C   UNL     1      -4.095 113.002  67.035  1.00  0.00     0.041 C 
ATOM      5  O   UNL     1      -5.269 113.436  67.174  1.00  0.00    -0.550 OA
ATOM      6  O   UNL     1      -3.044 113.644  67.676  1.00  0.00    -0.550 OA
ENDBRANCH   3   4
ENDBRANCH   2   3
ENDBRANCH   1   2
BRANCH   1   7
ATOM      7  C   UNL     1      -4.371 107.972  66.880  1.00  0.00     0.000 C 
BRANCH   7   8
ATOM      8  C   UNL     1      -5.824 107.545  67.181  1.00  0.00     0.004 C 
BRANCH   8   9
ATOM      9  C   UNL     1      -6.864 108.075  66.178  1.00  0.00     0.027 C 
BRANCH   9  10
ATOM     10  C   UNL     1      -8.120 108.562  66.848  1.00  0.00    -0.035 C 
ATOM     11  C   UNL     1      -8.125 109.639  67.638  1.00  0.00     0.004 C 
ENDBRANCH   9  10
ENDBRANCH   8   9
ENDBRANCH   7   8
ENDBRANCH   1   7
TORSDOF 7
ENDMDL
MODEL 4
REMARK VINA RESULT:     3.922      4.411      5.526
REMARK INTER + INTRA:           5.366
REMARK INTER:                   5.620
REMARK INTRA:                  -0.254
REMARK UNBOUND:                -0.160
REMARK SMILES C=CCCCCCCC(=O)[O-]
REMARK SMILES IDX 6 1 7 2 8 3 9 4 10 5 11 6 5 7 4 8 3 9 2 10 1 11
REMARK H PARENT
REMARK Flexibility Score: inf
ROOT
ATOM      1  C   UNL     1      -3.941 107.223  64.536  1.00  0.00     0.000 C 
ENDROOT
BRANCH   1   2
ATOM      2  C   UNL     1      -4.089 105.698  64.429  1.00  0.00     0.006 C 
BRANCH   2   3
ATOM      3  C   UNL     1      -4.081 105.249  62.965  1.00  0.00     0.053 C 
BRANCH   3   4
ATOM      4  C   UNL     1      -4.387 103.787  62.864  1.00  0.00     0.041 C 
ATOM      5  O   UNL     1      -3.971 102.991  63.747  1.00  0.00    -0.550 OA
ATOM      6  O   UNL     1      -5.172 103.310  61.823  1.00  0.00    -0.550 OA
ENDBRANCH   3   4
ENDBRANCH   2   3
ENDBRANCH   1   2
BRANCH   1   7
ATOM      7  C   UNL     1      -3.898 107.721  65.992  1.00  0.00     0.000 C 
BRANCH   7   8
ATOM      8  C   UNL     1      -5.097 108.593  66.419  1.00  0.00     0.004 C 
BRANCH   8   9
ATOM      9  C   UNL     1      -6.379 107.802  66.733  1.00  0.00     0.027 C 
BRANCH   9  10
ATOM     10  C   UNL     1      -7.630 108.588  66.444  1.00  0.00    -0.035 C 
ATOM     11  C   UNL     1      -8.120 109.476  67.313  1.00  0.00     0.004 C 
ENDBRANCH   9  10
ENDBRANCH   8   9
ENDBRANCH   7   8
ENDBRANCH   1   7
TORSDOF 7
ENDMDL
MODEL 5
REMARK VINA RESULT:     4.221     15.847     18.042
REMARK INTER + INTRA:           5.789
REMARK INTER:                   6.068
REMARK INTRA:                  -0.279
REMARK UNBOUND:                -0.160
REMARK SMILES C=CCCCCCCC(=O)[O-]
REMARK SMILES IDX 6 1 7 2 8 3 9 4 10 5 11 6 5 7 4 8 3 9 2 10 1 11
REMARK H PARENT
REMARK Flexibility Score: inf
ROOT
ATOM      1  C   UNL     1      10.213 101.847  69.250  1.00  0.00     0.000 C 
ENDROOT
BRANCH   1   2
ATOM      2  C   UNL     1       9.440 103.094  69.702  1.00  0.00     0.006 C 
BRANCH   2   3
ATOM      3  C   UNL     1      10.305 104.352  69.574  1.00  0.00     0.053 C 
BRANCH   3   4
ATOM      4  C   UNL     1       9.542 105.560  70.018  1.00  0.00     0.041 C 
ATOM      5  O   UNL     1       9.264 106.472  69.195  1.00  0.00    -0.550 OA
ATOM      6  O   UNL     1       9.094 105.657  71.329  1.00  0.00    -0.550 OA
ENDBRANCH   3   4
ENDBRANCH   2   3
ENDBRANCH   1   2
BRANCH   1   7
ATOM      7  C   UNL     1       9.345 100.861  68.449  1.00  0.00     0.000 C 
BRANCH   7   8
ATOM      8  C   UNL     1       8.135 100.285  69.214  1.00  0.00     0.004 C 
BRANCH   8   9
ATOM      9  C   UNL     1       8.294  98.817  69.645  1.00  0.00     0.027 C 
BRANCH   9  10
ATOM     10  C   UNL     1       9.682  98.288  69.404  1.00  0.00    -0.035 C 
ATOM     11  C   UNL     1       9.894  97.076  68.886  1.00  0.00     0.004 C 
ENDBRANCH   9  10
ENDBRANCH   8   9
ENDBRANCH   7   8
ENDBRANCH   1   7
TORSDOF 7
ENDMDL
MODEL 6
REMARK VINA RESULT:     4.274      4.138      8.148
REMARK INTER + INTRA:           5.863
REMARK INTER:                   5.933
REMARK INTRA:                  -0.069
REMARK UNBOUND:                -0.160
REMARK SMILES C=CCCCCCCC(=O)[O-]
REMARK SMILES IDX 6 1 7 2 8 3 9 4 10 5 11 6 5 7 4 8 3 9 2 10 1 11
REMARK H PARENT
REMARK Flexibility Score: inf
ROOT
ATOM      1  C   UNL     1      -4.250 106.283  64.735  1.00  0.00     0.000 C 
ENDROOT
BRANCH   1   2
ATOM      2  C   UNL     1      -3.548 107.508  65.340  1.00  0.00     0.006 C 
BRANCH   2   3
ATOM      3  C   UNL     1      -4.569 108.548  65.812  1.00  0.00     0.053 C 
BRANCH   3   4
ATOM      4  C   UNL     1      -5.567 107.921  66.734  1.00  0.00     0.041 C 
ATOM      5  O   UNL     1      -6.789 108.212  66.638  1.00  0.00    -0.550 OA
ATOM      6  O   UNL     1      -5.157 106.978  67.667  1.00  0.00    -0.550 OA
ENDBRANCH   3   4
ENDBRANCH   2   3
ENDBRANCH   1   2
BRANCH   1   7
ATOM      7  C   UNL     1      -3.610 105.815  63.417  1.00  0.00     0.000 C 
BRANCH   7   8
ATOM      8  C   UNL     1      -4.368 104.684  62.690  1.00  0.00     0.004 C 
BRANCH   8   9
ATOM      9  C   UNL     1      -4.449 103.364  63.477  1.00  0.00     0.027 C 
BRANCH   9  10
ATOM     10  C   UNL     1      -3.564 102.291  62.901  1.00  0.00    -0.035 C 
ATOM     11  C   UNL     1      -3.240 101.197  63.597  1.00  0.00     0.004 C 
ENDBRANCH   9  10
ENDBRANCH   8   9
ENDBRANCH   7   8
ENDBRANCH   1   7
TORSDOF 7
ENDMDL
MODEL 7
REMARK VINA RESULT:     4.587     16.168     17.282
REMARK INTER + INTRA:           6.304
REMARK INTER:                   6.050
REMARK INTRA:                   0.254
REMARK UNBOUND:                -0.160
REMARK SMILES C=CCCCCCCC(=O)[O-]
REMARK SMILES IDX 6 1 7 2 8 3 9 4 10 5 11 6 5 7 4 8 3 9 2 10 1 11
REMARK H PARENT
REMARK Flexibility Score: inf
ROOT
ATOM      1  C   UNL     1       9.302 100.718  68.502  1.00  0.00     0.000 C 
ENDROOT
BRANCH   1   2
ATOM      2  C   UNL     1       8.038 100.326  69.281  1.00  0.00     0.006 C 
BRANCH   2   3
ATOM      3  C   UNL     1       8.064  98.842  69.658  1.00  0.00     0.053 C 
BRANCH   3   4
ATOM      4  C   UNL     1       9.372  98.226  69.272  1.00  0.00     0.041 C 
ATOM      5  O   UNL     1      10.408  98.466  69.946  1.00  0.00    -0.550 OA
ATOM      6  O   UNL     1       9.438  97.349  68.197  1.00  0.00    -0.550 OA
ENDBRANCH   3   4
ENDBRANCH   2   3
ENDBRANCH   1   2
BRANCH   1   7
ATOM      7  C   UNL     1      10.162 101.759  69.238  1.00  0.00     0.000 C 
BRANCH   7   8
ATOM      8  C   UNL     1       9.431 103.068  69.604  1.00  0.00     0.004 C 
BRANCH   8   9
ATOM      9  C   UNL     1      10.309 104.330  69.531  1.00  0.00     0.027 C 
BRANCH   9  10
ATOM     10  C   UNL     1       9.533 105.592  69.795  1.00  0.00    -0.035 C 
ATOM     11  C   UNL     1       9.202 105.969  71.033  1.00  0.00     0.004 C 
ENDBRANCH   9  10
ENDBRANCH   8   9
ENDBRANCH   7   8
ENDBRANCH   1   7
TORSDOF 7
ENDMDL
MODEL 8
REMARK VINA RESULT:     4.716     15.649     16.714
REMARK INTER + INTRA:           6.486
REMARK INTER:                   6.744
REMARK INTRA:                  -0.258
REMARK UNBOUND:                -0.160
REMARK SMILES C=CCCCCCCC(=O)[O-]
REMARK SMILES IDX 6 1 7 2 8 3 9 4 10 5 11 6 5 7 4 8 3 9 2 10 1 11
REMARK H PARENT
REMARK Flexibility Score: inf
ROOT
ATOM      1  C   UNL     1      10.258 101.696  69.266  1.00  0.00     0.000 C 
ENDROOT
BRANCH   1   2
ATOM      2  C   UNL     1       9.473 100.708  68.390  1.00  0.00     0.006 C 
BRANCH   2   3
ATOM      3  C   UNL     1       8.213 100.218  69.109  1.00  0.00     0.053 C 
BRANCH   3   4
ATOM      4  C   UNL     1       8.420  98.836  69.645  1.00  0.00     0.041 C 
ATOM      5  O   UNL     1       7.482  98.240  70.239  1.00  0.00    -0.550 OA
ATOM      6  O   UNL     1       9.631  98.186  69.446  1.00  0.00    -0.550 OA
ENDBRANCH   3   4
ENDBRANCH   2   3
ENDBRANCH   1   2
BRANCH   1   7
ATOM      7  C   UNL     1       9.468 102.978  69.577  1.00  0.00     0.000 C 
BRANCH   7   8
ATOM      8  C   UNL     1      10.304 104.276  69.574  1.00  0.00     0.004 C 
BRANCH   8   9
ATOM      9  C   UNL     1       9.472 105.570  69.600  1.00  0.00     0.027 C 
BRANCH   9  10
ATOM     10  C   UNL     1       9.445 106.215  70.959  1.00  0.00    -0.035 C 
ATOM     11  C   UNL     1       8.612 105.801  71.918  1.00  0.00     0.004 C 
ENDBRANCH   9  10
ENDBRANCH   8   9
ENDBRANCH   7   8
ENDBRANCH   1   7
TORSDOF 7
ENDMDL
