MODEL 1
REMARK VINA RESULT:     1.221      0.000      0.000
REMARK INTER + INTRA:           1.377
REMARK INTER:                   2.649
REMARK INTRA:                  -1.272
REMARK UNBOUND:                -1.272
REMARK SMILES CCCCCCCCCCCCCCCCCCCCCC(=O)[O-]
REMARK SMILES IDX 12 1 11 2 10 3 9 4 8 5 7 6 6 7 5 8 4 9 3 10 2 11 1 12 13 13
REMARK SMILES IDX 14 14 15 15 16 16 17 17 18 18 19 19 20 20 21 21 22 22 23 23
REMARK SMILES IDX 24 24
REMARK H PARENT
REMARK Flexibility Score: inf
ROOT
ATOM      1  C   UNL     1       4.586   4.546   1.103  1.00  0.00     0.000 C 
ENDROOT
BRANCH   1   2
ATOM      2  C   UNL     1       3.574   3.465   1.536  1.00  0.00     0.000 C 
BRANCH   2   3
ATOM      3  C   UNL     1       2.728   2.875   0.384  1.00  0.00     0.000 C 
BRANCH   3   4
ATOM      4  C   UNL     1       2.857   1.347   0.241  1.00  0.00    -0.000 C 
BRANCH   4   5
ATOM      5  C   UNL     1       2.209   0.759  -1.026  1.00  0.00    -0.000 C 
BRANCH   5   6
ATOM      6  C   UNL     1       1.422  -0.551  -0.813  1.00  0.00    -0.000 C 
BRANCH   6   7
ATOM      7  C   UNL     1       1.499  -1.142   0.606  1.00  0.00    -0.000 C 
BRANCH   7   8
ATOM      8  C   UNL     1       0.696  -2.446   0.755  1.00  0.00    -0.000 C 
BRANCH   8   9
ATOM      9  C   UNL     1       0.398  -2.789   2.224  1.00  0.00    -0.000 C 
BRANCH   9  10
ATOM     10  C   UNL     1      -1.109  -2.922   2.511  1.00  0.00    -0.000 C 
BRANCH  10  11
ATOM     11  C   UNL     1      -1.537  -2.155   3.771  1.00  0.00    -0.003 C 
ATOM     12  C   UNL     1      -1.761  -3.072   4.973  1.00  0.00     0.004 C 
ENDBRANCH  10  11
ENDBRANCH   9  10
ENDBRANCH   8   9
ENDBRANCH   7   8
ENDBRANCH   6   7
ENDBRANCH   5   6
ENDBRANCH   4   5
ENDBRANCH   3   4
ENDBRANCH   2   3
ENDBRANCH   1   2
BRANCH   1  13
ATOM     13  C   UNL     1       5.340   5.253   2.251  1.00  0.00     0.000 C 
BRANCH  13  14
ATOM     14  C   UNL     1       6.425   6.253   1.813  1.00  0.00     0.000 C 
BRANCH  14  15
ATOM     15  C   UNL     1       7.445   5.640   0.838  1.00  0.00     0.000 C 
BRANCH  15  16
ATOM     16  C   UNL     1       8.895   5.828   1.315  1.00  0.00     0.000 C 
BRANCH  16  17
ATOM     17  C   UNL     1       9.475   4.556   1.959  1.00  0.00     0.000 C 
BRANCH  17  18
ATOM     18  C   UNL     1      10.007   4.808   3.379  1.00  0.00     0.000 C 
BRANCH  18  19
ATOM     19  C   UNL     1      10.027   6.304   3.741  1.00  0.00     0.000 C 
BRANCH  19  20
ATOM     20  C   UNL     1       9.408   6.586   5.119  1.00  0.00     0.006 C 
BRANCH  20  21
ATOM     21  C   UNL     1       7.889   6.789   5.050  1.00  0.00     0.053 C 
BRANCH  21  22
ATOM     22  C   UNL     1       7.564   8.236   4.854  1.00  0.00     0.041 C 
ATOM     23  O   UNL     1       6.366   8.625   4.878  1.00  0.00    -0.550 OA
ATOM     24  O   UNL     1       8.579   9.151   4.604  1.00  0.00    -0.550 OA
ENDBRANCH  21  22
ENDBRANCH  20  21
ENDBRANCH  19  20
ENDBRANCH  18  19
ENDBRANCH  17  18
ENDBRANCH  16  17
ENDBRANCH  15  16
ENDBRANCH  14  15
ENDBRANCH  13  14
ENDBRANCH   1  13
TORSDOF 20
ENDMDL
MODEL 2
REMARK VINA RESULT:     1.353      0.605      1.369
REMARK INTER + INTRA:           1.663
REMARK INTER:                   2.640
REMARK INTRA:                  -0.978
REMARK UNBOUND:                -1.272
REMARK SMILES CCCCCCCCCCCCCCCCCCCCCC(=O)[O-]
REMARK SMILES IDX 12 1 11 2 10 3 9 4 8 5 7 6 6 7 5 8 4 9 3 10 2 11 1 12 13 13
REMARK SMILES IDX 14 14 15 15 16 16 17 17 18 18 19 19 20 20 21 21 22 22 23 23
REMARK SMILES IDX 24 24
REMARK H PARENT
REMARK Flexibility Score: inf
ROOT
ATOM      1  C   UNL     1       3.962   3.491   1.496  1.00  0.00     0.000 C 
ENDROOT
BRANCH   1   2
ATOM      2  C   UNL     1       2.827   2.972   0.589  1.00  0.00     0.000 C 
BRANCH   2   3
ATOM      3  C   UNL     1       2.953   1.485   0.184  1.00  0.00     0.000 C 
BRANCH   3   4
ATOM      4  C   UNL     1       1.949   1.052  -0.900  1.00  0.00    -0.000 C 
BRANCH   4   5
ATOM      5  C   UNL     1       1.575  -0.442  -0.874  1.00  0.00    -0.000 C 
BRANCH   5   6
ATOM      6  C   UNL     1       1.507  -1.076   0.532  1.00  0.00    -0.000 C 
BRANCH   6   7
ATOM      7  C   UNL     1       0.953  -2.511   0.581  1.00  0.00    -0.000 C 
BRANCH   7   8
ATOM      8  C   UNL     1       0.551  -2.949   2.001  1.00  0.00    -0.000 C 
BRANCH   8   9
ATOM      9  C   UNL     1      -0.909  -2.602   2.332  1.00  0.00    -0.000 C 
BRANCH   9  10
ATOM     10  C   UNL     1      -1.497  -3.495   3.439  1.00  0.00    -0.000 C 
BRANCH  10  11
ATOM     11  C   UNL     1      -2.198  -2.682   4.539  1.00  0.00    -0.003 C 
ATOM     12  C   UNL     1      -2.585  -1.276   4.079  1.00  0.00     0.004 C 
ENDBRANCH  10  11
ENDBRANCH   9  10
ENDBRANCH   8   9
ENDBRANCH   7   8
ENDBRANCH   6   7
ENDBRANCH   5   6
ENDBRANCH   4   5
ENDBRANCH   3   4
ENDBRANCH   2   3
ENDBRANCH   1   2
BRANCH   1  13
ATOM     13  C   UNL     1       4.510   4.892   1.145  1.00  0.00     0.000 C 
BRANCH  13  14
ATOM     14  C   UNL     1       5.734   5.347   1.959  1.00  0.00     0.000 C 
BRANCH  14  15
ATOM     15  C   UNL     1       6.757   6.126   1.115  1.00  0.00     0.000 C 
BRANCH  15  16
ATOM     16  C   UNL     1       8.128   5.431   1.070  1.00  0.00     0.000 C 
BRANCH  16  17
ATOM     17  C   UNL     1       9.148   6.073   2.026  1.00  0.00     0.000 C 
BRANCH  17  18
ATOM     18  C   UNL     1       9.896   5.031   2.872  1.00  0.00     0.000 C 
BRANCH  18  19
ATOM     19  C   UNL     1       9.545   5.128   4.368  1.00  0.00     0.000 C 
BRANCH  19  20
ATOM     20  C   UNL     1       9.375   6.581   4.840  1.00  0.00     0.006 C 
BRANCH  20  21
ATOM     21  C   UNL     1       7.906   6.952   5.081  1.00  0.00     0.053 C 
BRANCH  21  22
ATOM     22  C   UNL     1       7.687   8.411   4.832  1.00  0.00     0.041 C 
ATOM     23  O   UNL     1       8.652   9.150   4.504  1.00  0.00    -0.550 OA
ATOM     24  O   UNL     1       6.423   8.964   4.999  1.00  0.00    -0.550 OA
ENDBRANCH  21  22
ENDBRANCH  20  21
ENDBRANCH  19  20
ENDBRANCH  18  19
ENDBRANCH  17  18
ENDBRANCH  16  17
ENDBRANCH  15  16
ENDBRANCH  14  15
ENDBRANCH  13  14
ENDBRANCH   1  13
TORSDOF 20
ENDMDL
MODEL 3
REMARK VINA RESULT:     1.423      4.416     11.241
REMARK INTER + INTRA:           1.815
REMARK INTER:                   3.283
REMARK INTRA:                  -1.468
REMARK UNBOUND:                -1.272
REMARK SMILES CCCCCCCCCCCCCCCCCCCCCC(=O)[O-]
REMARK SMILES IDX 12 1 11 2 10 3 9 4 8 5 7 6 6 7 5 8 4 9 3 10 2 11 1 12 13 13
REMARK SMILES IDX 14 14 15 15 16 16 17 17 18 18 19 19 20 20 21 21 22 22 23 23
REMARK SMILES IDX 24 24
REMARK H PARENT
REMARK Flexibility Score: inf
ROOT
ATOM      1  C   UNL     1       2.901   2.987   0.983  1.00  0.00     0.000 C 
ENDROOT
BRANCH   1   2
ATOM      2  C   UNL     1       3.962   4.086   0.768  1.00  0.00     0.000 C 
BRANCH   2   3
ATOM      3  C   UNL     1       4.664   4.568   2.058  1.00  0.00     0.000 C 
BRANCH   3   4
ATOM      4  C   UNL     1       5.863   5.499   1.799  1.00  0.00    -0.000 C 
BRANCH   4   5
ATOM      5  C   UNL     1       6.009   6.657   2.804  1.00  0.00    -0.000 C 
BRANCH   5   6
ATOM      6  C   UNL     1       6.591   6.264   4.178  1.00  0.00    -0.000 C 
BRANCH   6   7
ATOM      7  C   UNL     1       7.684   7.200   4.723  1.00  0.00    -0.000 C 
BRANCH   7   8
ATOM      8  C   UNL     1       9.000   6.466   5.034  1.00  0.00    -0.000 C 
BRANCH   8   9
ATOM      9  C   UNL     1       9.580   5.752   3.802  1.00  0.00    -0.000 C 
BRANCH   9  10
ATOM     10  C   UNL     1       9.907   6.721   2.651  1.00  0.00    -0.000 C 
BRANCH  10  11
ATOM     11  C   UNL     1       9.771   6.061   1.270  1.00  0.00    -0.003 C 
ATOM     12  C   UNL     1       9.360   4.591   1.356  1.00  0.00     0.004 C 
ENDBRANCH  10  11
ENDBRANCH   9  10
ENDBRANCH   8   9
ENDBRANCH   7   8
ENDBRANCH   6   7
ENDBRANCH   5   6
ENDBRANCH   4   5
ENDBRANCH   3   4
ENDBRANCH   2   3
ENDBRANCH   1   2
BRANCH   1  13
ATOM     13  C   UNL     1       3.232   1.608   0.372  1.00  0.00     0.000 C 
BRANCH  13  14
ATOM     14  C   UNL     1       2.467   1.253  -0.915  1.00  0.00     0.000 C 
BRANCH  14  15
ATOM     15  C   UNL     1       1.711  -0.082  -0.812  1.00  0.00     0.000 C 
BRANCH  15  16
ATOM     16  C   UNL     1       1.799  -0.696   0.595  1.00  0.00     0.000 C 
BRANCH  16  17
ATOM     17  C   UNL     1       1.018  -2.017   0.714  1.00  0.00     0.000 C 
BRANCH  17  18
ATOM     18  C   UNL     1       0.656  -2.355   2.168  1.00  0.00     0.000 C 
BRANCH  18  19
ATOM     19  C   UNL     1      -0.387  -3.482   2.267  1.00  0.00     0.000 C 
BRANCH  19  20
ATOM     20  C   UNL     1      -1.740  -2.988   2.804  1.00  0.00     0.006 C 
BRANCH  20  21
ATOM     21  C   UNL     1      -1.585  -1.957   3.928  1.00  0.00     0.053 C 
BRANCH  21  22
ATOM     22  C   UNL     1      -1.981  -2.553   5.242  1.00  0.00     0.041 C 
ATOM     23  O   UNL     1      -1.195  -3.327   5.850  1.00  0.00    -0.550 OA
ATOM     24  O   UNL     1      -3.234  -2.285   5.779  1.00  0.00    -0.550 OA
ENDBRANCH  21  22
ENDBRANCH  20  21
ENDBRANCH  19  20
ENDBRANCH  18  19
ENDBRANCH  17  18
ENDBRANCH  16  17
ENDBRANCH  15  16
ENDBRANCH  14  15
ENDBRANCH  13  14
ENDBRANCH   1  13
TORSDOF 20
ENDMDL
MODEL 4
REMARK VINA RESULT:     1.430      4.249     11.035
REMARK INTER + INTRA:           1.830
REMARK INTER:                   3.162
REMARK INTRA:                  -1.332
REMARK UNBOUND:                -1.272
REMARK SMILES CCCCCCCCCCCCCCCCCCCCCC(=O)[O-]
REMARK SMILES IDX 12 1 11 2 10 3 9 4 8 5 7 6 6 7 5 8 4 9 3 10 2 11 1 12 13 13
REMARK SMILES IDX 14 14 15 15 16 16 17 17 18 18 19 19 20 20 21 21 22 22 23 23
REMARK SMILES IDX 24 24
REMARK H PARENT
REMARK Flexibility Score: inf
ROOT
ATOM      1  C   UNL     1       3.402   3.273   1.411  1.00  0.00     0.000 C 
ENDROOT
BRANCH   1   2
ATOM      2  C   UNL     1       4.328   4.440   1.008  1.00  0.00     0.000 C 
BRANCH   2   3
ATOM      3  C   UNL     1       5.257   4.946   2.135  1.00  0.00     0.000 C 
BRANCH   3   4
ATOM      4  C   UNL     1       6.193   6.089   1.700  1.00  0.00    -0.000 C 
BRANCH   4   5
ATOM      5  C   UNL     1       7.394   5.649   0.842  1.00  0.00    -0.000 C 
BRANCH   5   6
ATOM      6  C   UNL     1       8.780   5.932   1.461  1.00  0.00    -0.000 C 
BRANCH   6   7
ATOM      7  C   UNL     1       9.474   4.718   2.105  1.00  0.00    -0.000 C 
BRANCH   7   8
ATOM      8  C   UNL     1       9.729   4.904   3.610  1.00  0.00    -0.000 C 
BRANCH   8   9
ATOM      9  C   UNL     1       9.944   6.377   3.993  1.00  0.00    -0.000 C 
BRANCH   9  10
ATOM     10  C   UNL     1       9.106   6.805   5.211  1.00  0.00    -0.000 C 
BRANCH  10  11
ATOM     11  C   UNL     1       7.604   6.878   4.896  1.00  0.00    -0.003 C 
ATOM     12  C   UNL     1       7.067   8.310   4.912  1.00  0.00     0.004 C 
ENDBRANCH  10  11
ENDBRANCH   9  10
ENDBRANCH   8   9
ENDBRANCH   7   8
ENDBRANCH   6   7
ENDBRANCH   5   6
ENDBRANCH   4   5
ENDBRANCH   3   4
ENDBRANCH   2   3
ENDBRANCH   1   2
BRANCH   1  13
ATOM     13  C   UNL     1       2.529   2.691   0.278  1.00  0.00     0.000 C 
BRANCH  13  14
ATOM     14  C   UNL     1       2.777   1.209  -0.054  1.00  0.00     0.000 C 
BRANCH  14  15
ATOM     15  C   UNL     1       1.689   0.609  -0.961  1.00  0.00     0.000 C 
BRANCH  15  16
ATOM     16  C   UNL     1       1.477  -0.892  -0.706  1.00  0.00     0.000 C 
BRANCH  16  17
ATOM     17  C   UNL     1       1.452  -1.239   0.792  1.00  0.00     0.000 C 
BRANCH  17  18
ATOM     18  C   UNL     1       0.813  -2.610   1.065  1.00  0.00     0.000 C 
BRANCH  18  19
ATOM     19  C   UNL     1       0.296  -2.739   2.510  1.00  0.00     0.000 C 
BRANCH  19  20
ATOM     20  C   UNL     1      -1.221  -2.509   2.615  1.00  0.00     0.006 C 
BRANCH  20  21
ATOM     21  C   UNL     1      -1.894  -3.476   3.598  1.00  0.00     0.053 C 
BRANCH  21  22
ATOM     22  C   UNL     1      -1.904  -2.896   4.977  1.00  0.00     0.041 C 
ATOM     23  O   UNL     1      -2.879  -2.200   5.365  1.00  0.00    -0.550 OA
ATOM     24  O   UNL     1      -0.819  -3.091   5.823  1.00  0.00    -0.550 OA
ENDBRANCH  21  22
ENDBRANCH  20  21
ENDBRANCH  19  20
ENDBRANCH  18  19
ENDBRANCH  17  18
ENDBRANCH  16  17
ENDBRANCH  15  16
ENDBRANCH  14  15
ENDBRANCH  13  14
ENDBRANCH   1  13
TORSDOF 20
ENDMDL
MODEL 5
REMARK VINA RESULT:     1.552      4.193     11.034
REMARK INTER + INTRA:           2.095
REMARK INTER:                   3.722
REMARK INTRA:                  -1.628
REMARK UNBOUND:                -1.272
REMARK SMILES CCCCCCCCCCCCCCCCCCCCCC(=O)[O-]
REMARK SMILES IDX 12 1 11 2 10 3 9 4 8 5 7 6 6 7 5 8 4 9 3 10 2 11 1 12 13 13
REMARK SMILES IDX 14 14 15 15 16 16 17 17 18 18 19 19 20 20 21 21 22 22 23 23
REMARK SMILES IDX 24 24
REMARK H PARENT
REMARK Flexibility Score: inf
ROOT
ATOM      1  C   UNL     1       4.274   4.455   0.967  1.00  0.00     0.000 C 
ENDROOT
BRANCH   1   2
ATOM      2  C   UNL     1       5.227   4.984   2.060  1.00  0.00     0.000 C 
BRANCH   2   3
ATOM      3  C   UNL     1       6.267   6.015   1.566  1.00  0.00     0.000 C 
BRANCH   3   4
ATOM      4  C   UNL     1       7.645   5.402   1.252  1.00  0.00    -0.000 C 
BRANCH   4   5
ATOM      5  C   UNL     1       8.804   6.414   1.193  1.00  0.00    -0.000 C 
BRANCH   5   6
ATOM      6  C   UNL     1       9.982   6.119   2.145  1.00  0.00    -0.000 C 
BRANCH   6   7
ATOM      7  C   UNL     1       9.979   4.718   2.782  1.00  0.00    -0.000 C 
BRANCH   7   8
ATOM      8  C   UNL     1       9.683   4.748   4.291  1.00  0.00    -0.000 C 
BRANCH   8   9
ATOM      9  C   UNL     1       9.467   6.175   4.820  1.00  0.00    -0.000 C 
BRANCH   9  10
ATOM     10  C   UNL     1       7.984   6.497   5.076  1.00  0.00    -0.000 C 
BRANCH  10  11
ATOM     11  C   UNL     1       7.621   7.939   4.689  1.00  0.00    -0.003 C 
ATOM     12  C   UNL     1       8.850   8.830   4.509  1.00  0.00     0.004 C 
ENDBRANCH  10  11
ENDBRANCH   9  10
ENDBRANCH   8   9
ENDBRANCH   7   8
ENDBRANCH   6   7
ENDBRANCH   5   6
ENDBRANCH   4   5
ENDBRANCH   3   4
ENDBRANCH   2   3
ENDBRANCH   1   2
BRANCH   1  13
ATOM     13  C   UNL     1       3.368   3.276   1.383  1.00  0.00     0.000 C 
BRANCH  13  14
ATOM     14  C   UNL     1       2.634   2.567   0.231  1.00  0.00     0.000 C 
BRANCH  14  15
ATOM     15  C   UNL     1       3.087   1.109   0.041  1.00  0.00     0.000 C 
BRANCH  15  16
ATOM     16  C   UNL     1       1.904   0.153  -0.182  1.00  0.00     0.000 C 
BRANCH  16  17
ATOM     17  C   UNL     1       1.694  -0.815   0.995  1.00  0.00     0.000 C 
BRANCH  17  18
ATOM     18  C   UNL     1       1.004  -2.119   0.566  1.00  0.00     0.000 C 
BRANCH  18  19
ATOM     19  C   UNL     1       0.590  -2.986   1.768  1.00  0.00     0.000 C 
BRANCH  19  20
ATOM     20  C   UNL     1      -0.864  -2.737   2.202  1.00  0.00     0.006 C 
BRANCH  20  21
ATOM     21  C   UNL     1      -1.173  -3.323   3.585  1.00  0.00     0.053 C 
BRANCH  21  22
ATOM     22  C   UNL     1      -2.068  -2.404   4.354  1.00  0.00     0.041 C 
ATOM     23  O   UNL     1      -2.396  -2.681   5.538  1.00  0.00    -0.550 OA
ATOM     24  O   UNL     1      -2.575  -1.259   3.751  1.00  0.00    -0.550 OA
ENDBRANCH  21  22
ENDBRANCH  20  21
ENDBRANCH  19  20
ENDBRANCH  18  19
ENDBRANCH  17  18
ENDBRANCH  16  17
ENDBRANCH  15  16
ENDBRANCH  14  15
ENDBRANCH  13  14
ENDBRANCH   1  13
TORSDOF 20
ENDMDL
MODEL 6
REMARK VINA RESULT:     1.857      4.162     11.086
REMARK INTER + INTRA:           2.757
REMARK INTER:                   3.735
REMARK INTRA:                  -0.978
REMARK UNBOUND:                -1.272
REMARK SMILES CCCCCCCCCCCCCCCCCCCCCC(=O)[O-]
REMARK SMILES IDX 12 1 11 2 10 3 9 4 8 5 7 6 6 7 5 8 4 9 3 10 2 11 1 12 13 13
REMARK SMILES IDX 14 14 15 15 16 16 17 17 18 18 19 19 20 20 21 21 22 22 23 23
REMARK SMILES IDX 24 24
REMARK H PARENT
REMARK Flexibility Score: inf
ROOT
ATOM      1  C   UNL     1       3.727   3.942   0.848  1.00  0.00     0.000 C 
ENDROOT
BRANCH   1   2
ATOM      2  C   UNL     1       4.748   4.196   1.977  1.00  0.00     0.000 C 
BRANCH   2   3
ATOM      3  C   UNL     1       5.503   5.541   1.874  1.00  0.00     0.000 C 
BRANCH   3   4
ATOM      4  C   UNL     1       5.722   6.233   3.232  1.00  0.00    -0.000 C 
BRANCH   4   5
ATOM      5  C   UNL     1       7.132   6.056   3.827  1.00  0.00    -0.000 C 
BRANCH   5   6
ATOM      6  C   UNL     1       7.710   7.305   4.527  1.00  0.00    -0.000 C 
BRANCH   6   7
ATOM      7  C   UNL     1       9.049   7.815   3.965  1.00  0.00    -0.000 C 
BRANCH   7   8
ATOM      8  C   UNL     1       9.822   6.735   3.188  1.00  0.00    -0.000 C 
BRANCH   8   9
ATOM      9  C   UNL     1       9.443   6.699   1.698  1.00  0.00    -0.000 C 
BRANCH   9  10
ATOM     10  C   UNL     1      10.125   5.547   0.938  1.00  0.00    -0.000 C 
BRANCH  10  11
ATOM     11  C   UNL     1       9.377   4.215   1.097  1.00  0.00    -0.003 C 
ATOM     12  C   UNL     1      10.082   3.252   2.053  1.00  0.00     0.004 C 
ENDBRANCH  10  11
ENDBRANCH   9  10
ENDBRANCH   8   9
ENDBRANCH   7   8
ENDBRANCH   6   7
ENDBRANCH   5   6
ENDBRANCH   4   5
ENDBRANCH   3   4
ENDBRANCH   2   3
ENDBRANCH   1   2
BRANCH   1  13
ATOM     13  C   UNL     1       2.730   2.789   1.095  1.00  0.00     0.000 C 
BRANCH  13  14
ATOM     14  C   UNL     1       3.079   1.454   0.413  1.00  0.00     0.000 C 
BRANCH  14  15
ATOM     15  C   UNL     1       2.253   1.200  -0.860  1.00  0.00     0.000 C 
BRANCH  15  16
ATOM     16  C   UNL     1       1.660  -0.217  -0.899  1.00  0.00     0.000 C 
BRANCH  16  17
ATOM     17  C   UNL     1       1.556  -0.854   0.498  1.00  0.00     0.000 C 
BRANCH  17  18
ATOM     18  C   UNL     1       1.031  -2.297   0.447  1.00  0.00     0.000 C 
BRANCH  18  19
ATOM     19  C   UNL     1       0.676  -2.842   1.842  1.00  0.00     0.000 C 
BRANCH  19  20
ATOM     20  C   UNL     1      -0.747  -2.457   2.280  1.00  0.00     0.006 C 
BRANCH  20  21
ATOM     21  C   UNL     1      -1.262  -3.327   3.434  1.00  0.00     0.053 C 
BRANCH  21  22
ATOM     22  C   UNL     1      -2.062  -2.505   4.393  1.00  0.00     0.041 C 
ATOM     23  O   UNL     1      -2.611  -3.047   5.389  1.00  0.00    -0.550 OA
ATOM     24  O   UNL     1      -2.236  -1.145   4.167  1.00  0.00    -0.550 OA
ENDBRANCH  21  22
ENDBRANCH  20  21
ENDBRANCH  19  20
ENDBRANCH  18  19
ENDBRANCH  17  18
ENDBRANCH  16  17
ENDBRANCH  15  16
ENDBRANCH  14  15
ENDBRANCH  13  14
ENDBRANCH   1  13
TORSDOF 20
ENDMDL
MODEL 7
REMARK VINA RESULT:     2.016      1.836      3.008
REMARK INTER + INTRA:           3.101
REMARK INTER:                   3.674
REMARK INTRA:                  -0.573
REMARK UNBOUND:                -1.272
REMARK SMILES CCCCCCCCCCCCCCCCCCCCCC(=O)[O-]
REMARK SMILES IDX 12 1 11 2 10 3 9 4 8 5 7 6 6 7 5 8 4 9 3 10 2 11 1 12 13 13
REMARK SMILES IDX 14 14 15 15 16 16 17 17 18 18 19 19 20 20 21 21 22 22 23 23
REMARK SMILES IDX 24 24
REMARK H PARENT
REMARK Flexibility Score: inf
ROOT
ATOM      1  C   UNL     1       2.750   2.807   1.237  1.00  0.00     0.000 C 
ENDROOT
BRANCH   1   2
ATOM      2  C   UNL     1       3.050   1.393   0.698  1.00  0.00     0.000 C 
BRANCH   2   3
ATOM      3  C   UNL     1       2.466   1.099  -0.703  1.00  0.00     0.000 C 
BRANCH   3   4
ATOM      4  C   UNL     1       1.507  -0.106  -0.733  1.00  0.00    -0.000 C 
BRANCH   4   5
ATOM      5  C   UNL     1       1.532  -0.982   0.533  1.00  0.00    -0.000 C 
BRANCH   5   6
ATOM      6  C   UNL     1       0.730  -2.297   0.437  1.00  0.00    -0.000 C 
BRANCH   6   7
ATOM      7  C   UNL     1       0.425  -2.984   1.781  1.00  0.00    -0.000 C 
BRANCH   7   8
ATOM      8  C   UNL     1      -0.815  -2.402   2.482  1.00  0.00    -0.000 C 
BRANCH   8   9
ATOM      9  C   UNL     1      -1.455  -3.395   3.464  1.00  0.00    -0.000 C 
BRANCH   9  10
ATOM     10  C   UNL     1      -1.151  -3.059   4.935  1.00  0.00    -0.000 C 
BRANCH  10  11
ATOM     11  C   UNL     1      -2.392  -2.560   5.692  1.00  0.00    -0.003 C 
ATOM     12  C   UNL     1      -3.347  -1.765   4.802  1.00  0.00     0.004 C 
ENDBRANCH  10  11
ENDBRANCH   9  10
ENDBRANCH   8   9
ENDBRANCH   7   8
ENDBRANCH   6   7
ENDBRANCH   5   6
ENDBRANCH   4   5
ENDBRANCH   3   4
ENDBRANCH   2   3
ENDBRANCH   1   2
BRANCH   1  13
ATOM     13  C   UNL     1       3.717   3.918   0.773  1.00  0.00     0.000 C 
BRANCH  13  14
ATOM     14  C   UNL     1       4.633   4.498   1.866  1.00  0.00     0.000 C 
BRANCH  14  15
ATOM     15  C   UNL     1       5.614   5.552   1.326  1.00  0.00     0.000 C 
BRANCH  15  16
ATOM     16  C   UNL     1       6.745   5.861   2.321  1.00  0.00     0.000 C 
BRANCH  16  17
ATOM     17  C   UNL     1       6.220   6.224   3.721  1.00  0.00     0.000 C 
BRANCH  17  18
ATOM     18  C   UNL     1       7.100   7.269   4.425  1.00  0.00     0.000 C 
BRANCH  18  19
ATOM     19  C   UNL     1       8.181   6.624   5.310  1.00  0.00     0.000 C 
BRANCH  19  20
ATOM     20  C   UNL     1       9.604   6.897   4.795  1.00  0.00     0.006 C 
BRANCH  20  21
ATOM     21  C   UNL     1       9.865   6.260   3.424  1.00  0.00     0.053 C 
BRANCH  21  22
ATOM     22  C   UNL     1      10.026   4.779   3.557  1.00  0.00     0.041 C 
ATOM     23  O   UNL     1      10.045   4.048   2.532  1.00  0.00    -0.550 OA
ATOM     24  O   UNL     1      10.116   4.199   4.816  1.00  0.00    -0.550 OA
ENDBRANCH  21  22
ENDBRANCH  20  21
ENDBRANCH  19  20
ENDBRANCH  18  19
ENDBRANCH  17  18
ENDBRANCH  16  17
ENDBRANCH  15  16
ENDBRANCH  14  15
ENDBRANCH  13  14
ENDBRANCH   1  13
TORSDOF 20
ENDMDL
MODEL 8
REMARK VINA RESULT:     3.585      6.186     12.136
REMARK INTER + INTRA:           6.505
REMARK INTER:                   7.361
REMARK INTRA:                  -0.856
REMARK UNBOUND:                -1.272
REMARK SMILES CCCCCCCCCCCCCCCCCCCCCC(=O)[O-]
REMARK SMILES IDX 12 1 11 2 10 3 9 4 8 5 7 6 6 7 5 8 4 9 3 10 2 11 1 12 13 13
REMARK SMILES IDX 14 14 15 15 16 16 17 17 18 18 19 19 20 20 21 21 22 22 23 23
REMARK SMILES IDX 24 24
REMARK H PARENT
REMARK Flexibility Score: inf
ROOT
ATOM      1  C   UNL     1      -3.229  -2.617   6.266  1.00  0.00     0.000 C 
ENDROOT
BRANCH   1   2
ATOM      2  C   UNL     1      -4.633  -2.667   6.905  1.00  0.00     0.000 C 
BRANCH   2   3
ATOM      3  C   UNL     1      -4.756  -3.616   8.119  1.00  0.00     0.000 C 
BRANCH   3   4
ATOM      4  C   UNL     1      -5.723  -3.109   9.205  1.00  0.00    -0.000 C 
BRANCH   4   5
ATOM      5  C   UNL     1      -6.801  -4.122   9.633  1.00  0.00    -0.000 C 
BRANCH   5   6
ATOM      6  C   UNL     1      -8.134  -3.502  10.104  1.00  0.00    -0.000 C 
BRANCH   6   7
ATOM      7  C   UNL     1      -8.297  -1.997   9.822  1.00  0.00    -0.000 C 
BRANCH   7   8
ATOM      8  C   UNL     1      -9.614  -1.663   9.101  1.00  0.00    -0.000 C 
BRANCH   8   9
ATOM      9  C   UNL     1      -9.557  -0.312   8.370  1.00  0.00    -0.000 C 
BRANCH   9  10
ATOM     10  C   UNL     1     -10.086   0.852   9.228  1.00  0.00    -0.000 C 
BRANCH  10  11
ATOM     11  C   UNL     1      -8.964   1.788   9.704  1.00  0.00    -0.003 C 
ATOM     12  C   UNL     1      -9.254   3.258   9.401  1.00  0.00     0.004 C 
ENDBRANCH  10  11
ENDBRANCH   9  10
ENDBRANCH   8   9
ENDBRANCH   7   8
ENDBRANCH   6   7
ENDBRANCH   5   6
ENDBRANCH   4   5
ENDBRANCH   3   4
ENDBRANCH   2   3
ENDBRANCH   1   2
BRANCH   1  13
ATOM     13  C   UNL     1      -3.008  -1.497   5.226  1.00  0.00     0.000 C 
BRANCH  13  14
ATOM     14  C   UNL     1      -1.861  -1.738   4.228  1.00  0.00     0.000 C 
BRANCH  14  15
ATOM     15  C   UNL     1      -1.857  -3.165   3.655  1.00  0.00     0.000 C 
BRANCH  15  16
ATOM     16  C   UNL     1      -1.195  -3.237   2.269  1.00  0.00     0.000 C 
BRANCH  16  17
ATOM     17  C   UNL     1       0.325  -3.008   2.328  1.00  0.00     0.000 C 
BRANCH  17  18
ATOM     18  C   UNL     1       0.984  -3.089   0.942  1.00  0.00     0.000 C 
BRANCH  18  19
ATOM     19  C   UNL     1       0.666  -1.862   0.068  1.00  0.00     0.000 C 
BRANCH  19  20
ATOM     20  C   UNL     1       1.568  -0.660   0.389  1.00  0.00     0.006 C 
BRANCH  20  21
ATOM     21  C   UNL     1       1.653   0.338  -0.772  1.00  0.00     0.053 C 
BRANCH  21  22
ATOM     22  C   UNL     1       2.826   1.249  -0.595  1.00  0.00     0.041 C 
ATOM     23  O   UNL     1       3.796   1.196  -1.397  1.00  0.00    -0.550 OA
ATOM     24  O   UNL     1       2.869   2.129   0.478  1.00  0.00    -0.550 OA
ENDBRANCH  21  22
ENDBRANCH  20  21
ENDBRANCH  19  20
ENDBRANCH  18  19
ENDBRANCH  17  18
ENDBRANCH  16  17
ENDBRANCH  15  16
ENDBRANCH  14  15
ENDBRANCH  13  14
ENDBRANCH   1  13
TORSDOF 20
ENDMDL
