MODEL 1
REMARK VINA RESULT:    -3.000      0.000      0.000
REMARK INTER + INTRA:          -4.832
REMARK INTER:                  -4.578
REMARK INTRA:                  -0.254
REMARK UNBOUND:                -0.254
REMARK SMILES CC1=CCC[C@@H](C)C(=O)C[C@@H](C(C)C)C(=O)C1
REMARK SMILES IDX 8 1 9 2 6 3 7 4 5 5 4 6 3 7 2 8 1 9 10 11 11 12 15 13 16 14
REMARK SMILES IDX 17 15 12 17 13 18 14 19
REMARK H PARENT
REMARK Flexibility Score: 70.00
ROOT
ATOM      1  C   UNL     1      82.869  -4.709  27.922  1.00  0.00     0.136 C 
ATOM      2  O   UNL     1      83.380  -3.822  27.254  1.00  0.00    -0.299 OA
ENDROOT
BRANCH   1   3
ATOM      3  C   UNL     1      83.737  -5.390  29.013  1.00  0.00     0.053 C 
ATOM      4  C   UNL     1      84.342  -4.355  29.972  1.00  0.00     0.016 C 
BRANCH   3   5
ATOM      5  C   UNL     1      84.840  -6.364  28.455  1.00  0.00     0.015 C 
BRANCH   5   6
ATOM      6  C   UNL     1      84.165  -7.657  28.069  1.00  0.00     0.028 C 
BRANCH   6   7
ATOM      7  C   UNL     1      83.853  -8.088  26.689  1.00  0.00    -0.028 C 
ATOM      8  C   UNL     1      82.563  -8.431  26.416  1.00  0.00    -0.070 CG0
ATOM      9  C   UNL     1      82.200  -8.723  24.984  1.00  0.00     0.039 C 
ATOM     10  G   UNL     1      81.503  -8.658  27.525  1.00  0.00     0.000 G0
ENDBRANCH   6   7
ENDBRANCH   5   6
ENDBRANCH   3   5
ENDBRANCH   1   3
BRANCH   1  11
ATOM     11  C   UNL     1      81.395  -5.058  27.649  1.00  0.00     0.087 C 
BRANCH  11  12
ATOM     12  C   UNL     1      80.813  -6.235  28.534  1.00  0.00     0.066 C 
BRANCH  12  13
ATOM     13  C   UNL     1      80.462  -7.506  27.726  1.00  0.00     0.140 C 
ATOM     14  O   UNL     1      79.357  -7.608  27.214  1.00  0.00    -0.299 OA
BRANCH  13  15
ATOM     15  C   UNL     1      81.463  -8.651  27.530  1.00  0.00     0.106 CG0
ATOM     16  G   UNL     1      82.532  -8.436  26.427  1.00  0.00     0.000 G0
ENDBRANCH  13  15
ENDBRANCH  12  13
BRANCH  12  17
ATOM     17  C   UNL     1      79.595  -5.810  29.413  1.00  0.00    -0.006 C 
ATOM     18  C   UNL     1      80.032  -5.349  30.813  1.00  0.00     0.008 C 
ATOM     19  C   UNL     1      78.688  -4.749  28.761  1.00  0.00     0.008 C 
ENDBRANCH  12  17
ENDBRANCH  11  12
ENDBRANCH   1  11
TORSDOF 1
ENDMDL
MODEL 2
REMARK VINA RESULT:    -2.817      2.327      3.562
REMARK INTER + INTRA:          -4.552
REMARK INTER:                  -4.253
REMARK INTRA:                  -0.299
REMARK UNBOUND:                -0.254
REMARK SMILES CC1=CCC[C@@H](C)C(=O)C[C@@H](C(C)C)C(=O)C1
REMARK SMILES IDX 8 1 9 2 6 3 7 4 5 5 4 6 3 7 2 8 1 9 10 11 11 12 15 13 16 14
REMARK SMILES IDX 17 15 12 17 13 18 14 19
REMARK H PARENT
REMARK Flexibility Score: 70.00
ROOT
ATOM      1  C   UNL     1      81.752  -5.233  28.434  1.00  0.00     0.136 C 
ATOM      2  O   UNL     1      80.631  -5.082  27.973  1.00  0.00    -0.299 OA
ENDROOT
BRANCH   1   3
ATOM      3  C   UNL     1      82.955  -5.184  27.456  1.00  0.00     0.053 C 
ATOM      4  C   UNL     1      83.120  -3.784  26.845  1.00  0.00     0.016 C 
BRANCH   3   5
ATOM      5  C   UNL     1      82.935  -6.294  26.341  1.00  0.00     0.015 C 
BRANCH   5   6
ATOM      6  C   UNL     1      83.459  -7.571  26.949  1.00  0.00     0.028 C 
BRANCH   6   7
ATOM      7  C   UNL     1      82.636  -8.717  27.390  1.00  0.00    -0.028 C 
ATOM      8  C   UNL     1      82.693  -9.062  28.706  1.00  0.00    -0.070 CG0
ATOM      9  C   UNL     1      81.748 -10.125  29.199  1.00  0.00     0.039 C 
ATOM     10  G   UNL     1      83.771  -8.504  29.673  1.00  0.00     0.000 G0
ENDBRANCH   6   7
ENDBRANCH   5   6
ENDBRANCH   3   5
ENDBRANCH   1   3
BRANCH   1  11
ATOM     11  C   UNL     1      81.884  -5.429  29.956  1.00  0.00     0.087 C 
BRANCH  11  12
ATOM     12  C   UNL     1      83.290  -5.974  30.438  1.00  0.00     0.066 C 
BRANCH  12  13
ATOM     13  C   UNL     1      83.302  -7.495  30.726  1.00  0.00     0.140 C 
ATOM     14  O   UNL     1      82.914  -7.906  31.809  1.00  0.00    -0.299 OA
BRANCH  13  15
ATOM     15  C   UNL     1      83.775  -8.518  29.687  1.00  0.00     0.106 CG0
ATOM     16  G   UNL     1      82.692  -9.042  28.708  1.00  0.00     0.000 G0
ENDBRANCH  13  15
ENDBRANCH  12  13
BRANCH  12  17
ATOM     17  C   UNL     1      83.875  -5.198  31.660  1.00  0.00    -0.006 C 
ATOM     18  C   UNL     1      85.412  -5.180  31.644  1.00  0.00     0.008 C 
ATOM     19  C   UNL     1      83.326  -3.767  31.816  1.00  0.00     0.008 C 
ENDBRANCH  12  17
ENDBRANCH  11  12
ENDBRANCH   1  11
TORSDOF 1
ENDMDL
MODEL 3
REMARK VINA RESULT:    -2.806      3.372      5.709
REMARK INTER + INTRA:          -4.537
REMARK INTER:                  -4.299
REMARK INTRA:                  -0.238
REMARK UNBOUND:                -0.254
REMARK SMILES CC1=CCC[C@@H](C)C(=O)C[C@@H](C(C)C)C(=O)C1
REMARK SMILES IDX 8 1 9 2 6 3 7 4 5 5 4 6 3 7 2 8 1 9 10 11 11 12 15 13 16 14
REMARK SMILES IDX 17 15 12 17 13 18 14 19
REMARK H PARENT
REMARK Flexibility Score: 70.00
ROOT
ATOM      1  C   UNL     1      78.042  -8.087  27.372  1.00  0.00     0.136 C 
ATOM      2  O   UNL     1      78.521  -8.642  26.395  1.00  0.00    -0.299 OA
ENDROOT
BRANCH   1   3
ATOM      3  C   UNL     1      77.023  -6.942  27.133  1.00  0.00     0.053 C 
ATOM      4  C   UNL     1      75.881  -7.394  26.211  1.00  0.00     0.016 C 
BRANCH   3   5
ATOM      5  C   UNL     1      77.662  -5.595  26.630  1.00  0.00     0.015 C 
BRANCH   5   6
ATOM      6  C   UNL     1      78.339  -4.935  27.806  1.00  0.00     0.028 C 
BRANCH   6   7
ATOM      7  C   UNL     1      79.797  -4.900  28.053  1.00  0.00    -0.028 C 
ATOM      8  C   UNL     1      80.236  -5.312  29.274  1.00  0.00    -0.070 CG0
ATOM      9  C   UNL     1      81.722  -5.426  29.487  1.00  0.00     0.039 C 
ATOM     10  G   UNL     1      79.283  -5.534  30.477  1.00  0.00     0.000 G0
ENDBRANCH   6   7
ENDBRANCH   5   6
ENDBRANCH   3   5
ENDBRANCH   1   3
BRANCH   1  11
ATOM     11  C   UNL     1      78.464  -8.591  28.765  1.00  0.00     0.087 C 
BRANCH  11  12
ATOM     12  C   UNL     1      77.866  -7.770  29.980  1.00  0.00     0.066 C 
BRANCH  12  13
ATOM     13  C   UNL     1      78.931  -6.995  30.791  1.00  0.00     0.140 C 
ATOM     14  O   UNL     1      79.518  -7.555  31.705  1.00  0.00    -0.299 OA
BRANCH  13  15
ATOM     15  C   UNL     1      79.291  -5.537  30.481  1.00  0.00     0.106 CG0
ATOM     16  G   UNL     1      80.225  -5.314  29.262  1.00  0.00     0.000 G0
ENDBRANCH  13  15
ENDBRANCH  12  13
BRANCH  12  17
ATOM     17  C   UNL     1      76.988  -8.631  30.941  1.00  0.00    -0.006 C 
ATOM     18  C   UNL     1      76.013  -7.765  31.757  1.00  0.00     0.008 C 
ATOM     19  C   UNL     1      76.228  -9.776  30.244  1.00  0.00     0.008 C 
ENDBRANCH  12  17
ENDBRANCH  11  12
ENDBRANCH   1  11
TORSDOF 1
ENDMDL
MODEL 4
REMARK VINA RESULT:    -2.784      2.299      4.143
REMARK INTER + INTRA:          -4.503
REMARK INTER:                  -4.783
REMARK INTRA:                   0.280
REMARK UNBOUND:                -0.254
REMARK SMILES CC1=CCC[C@@H](C)C(=O)C[C@@H](C(C)C)C(=O)C1
REMARK SMILES IDX 8 1 9 2 6 3 7 4 5 5 4 6 3 7 2 8 1 9 10 11 11 12 15 13 16 14
REMARK SMILES IDX 17 15 12 17 13 18 14 19
REMARK H PARENT
REMARK Flexibility Score: 70.00
ROOT
ATOM      1  C   UNL     1      84.119  -5.349  28.860  1.00  0.00     0.136 C 
ATOM      2  O   UNL     1      84.031  -4.619  29.836  1.00  0.00    -0.299 OA
ENDROOT
BRANCH   1   3
ATOM      3  C   UNL     1      83.056  -5.198  27.740  1.00  0.00     0.053 C 
ATOM      4  C   UNL     1      83.051  -3.774  27.164  1.00  0.00     0.016 C 
BRANCH   3   5
ATOM      5  C   UNL     1      81.607  -5.653  28.150  1.00  0.00     0.015 C 
BRANCH   5   6
ATOM      6  C   UNL     1      81.372  -7.027  27.575  1.00  0.00     0.028 C 
BRANCH   6   7
ATOM      7  C   UNL     1      82.379  -7.851  26.871  1.00  0.00    -0.028 C 
ATOM      8  C   UNL     1      82.973  -8.854  27.575  1.00  0.00    -0.070 CG0
ATOM      9  C   UNL     1      83.884  -9.795  26.832  1.00  0.00     0.039 C 
ATOM     10  G   UNL     1      82.852  -8.982  29.116  1.00  0.00     0.000 G0
ENDBRANCH   6   7
ENDBRANCH   5   6
ENDBRANCH   3   5
ENDBRANCH   1   3
BRANCH   1  11
ATOM     11  C   UNL     1      85.297  -6.339  28.805  1.00  0.00     0.087 C 
BRANCH  11  12
ATOM     12  C   UNL     1      85.110  -7.645  29.682  1.00  0.00     0.066 C 
BRANCH  12  13
ATOM     13  C   UNL     1      83.631  -7.994  29.971  1.00  0.00     0.140 C 
ATOM     14  O   UNL     1      83.053  -7.446  30.897  1.00  0.00    -0.299 OA
BRANCH  13  15
ATOM     15  C   UNL     1      82.849  -9.004  29.122  1.00  0.00     0.106 CG0
ATOM     16  G   UNL     1      82.985  -8.846  27.585  1.00  0.00     0.000 G0
ENDBRANCH  13  15
ENDBRANCH  12  13
BRANCH  12  17
ATOM     17  C   UNL     1      85.922  -7.622  31.015  1.00  0.00    -0.006 C 
ATOM     18  C   UNL     1      86.543  -8.993  31.330  1.00  0.00     0.008 C 
ATOM     19  C   UNL     1      86.997  -6.522  31.078  1.00  0.00     0.008 C 
ENDBRANCH  12  17
ENDBRANCH  11  12
ENDBRANCH   1  11
TORSDOF 1
ENDMDL
MODEL 5
REMARK VINA RESULT:    -2.602      2.190      4.766
REMARK INTER + INTRA:          -4.224
REMARK INTER:                  -4.006
REMARK INTRA:                  -0.219
REMARK UNBOUND:                -0.254
REMARK SMILES CC1=CCC[C@@H](C)C(=O)C[C@@H](C(C)C)C(=O)C1
REMARK SMILES IDX 8 1 9 2 6 3 7 4 5 5 4 6 3 7 2 8 1 9 10 11 11 12 15 13 16 14
REMARK SMILES IDX 17 15 12 17 13 18 14 19
REMARK H PARENT
REMARK Flexibility Score: 70.00
ROOT
ATOM      1  C   UNL     1      83.125  -6.490  27.222  1.00  0.00     0.136 C 
ATOM      2  O   UNL     1      82.706  -5.573  26.531  1.00  0.00    -0.299 OA
ENDROOT
BRANCH   1   3
ATOM      3  C   UNL     1      82.730  -7.937  26.829  1.00  0.00     0.053 C 
ATOM      4  C   UNL     1      83.524  -8.420  25.607  1.00  0.00     0.016 C 
BRANCH   3   5
ATOM      5  C   UNL     1      81.186  -8.161  26.630  1.00  0.00     0.015 C 
BRANCH   5   6
ATOM      6  C   UNL     1      80.539  -8.176  27.993  1.00  0.00     0.028 C 
BRANCH   6   7
ATOM      7  C   UNL     1      79.807  -7.050  28.612  1.00  0.00    -0.028 C 
ATOM      8  C   UNL     1      80.289  -6.559  29.787  1.00  0.00    -0.070 CG0
ATOM      9  C   UNL     1      79.647  -5.319  30.350  1.00  0.00     0.039 C 
ATOM     10  G   UNL     1      81.368  -7.295  30.624  1.00  0.00     0.000 G0
ENDBRANCH   6   7
ENDBRANCH   5   6
ENDBRANCH   3   5
ENDBRANCH   1   3
BRANCH   1  11
ATOM     11  C   UNL     1      84.037  -6.136  28.411  1.00  0.00     0.087 C 
BRANCH  11  12
ATOM     12  C   UNL     1      83.886  -7.082  29.672  1.00  0.00     0.066 C 
BRANCH  12  13
ATOM     13  C   UNL     1      82.767  -6.644  30.647  1.00  0.00     0.140 C 
ATOM     14  O   UNL     1      82.984  -5.749  31.449  1.00  0.00    -0.299 OA
BRANCH  13  15
ATOM     15  C   UNL     1      81.377  -7.290  30.636  1.00  0.00     0.106 CG0
ATOM     16  G   UNL     1      80.295  -6.557  29.799  1.00  0.00     0.000 G0
ENDBRANCH  13  15
ENDBRANCH  12  13
BRANCH  12  17
ATOM     17  C   UNL     1      85.220  -7.295  30.455  1.00  0.00    -0.006 C 
ATOM     18  C   UNL     1      85.591  -8.784  30.558  1.00  0.00     0.008 C 
ATOM     19  C   UNL     1      86.409  -6.486  29.904  1.00  0.00     0.008 C 
ENDBRANCH  12  17
ENDBRANCH  11  12
ENDBRANCH   1  11
TORSDOF 1
ENDMDL
MODEL 6
REMARK VINA RESULT:    -2.540      2.293      4.541
REMARK INTER + INTRA:          -4.130
REMARK INTER:                  -4.314
REMARK INTRA:                   0.184
REMARK UNBOUND:                -0.254
REMARK SMILES CC1=CCC[C@@H](C)C(=O)C[C@@H](C(C)C)C(=O)C1
REMARK SMILES IDX 8 1 9 2 6 3 7 4 5 5 4 6 3 7 2 8 1 9 10 11 11 12 15 13 16 14
REMARK SMILES IDX 17 15 12 17 13 18 14 19
REMARK H PARENT
REMARK Flexibility Score: 70.00
ROOT
ATOM      1  C   UNL     1      78.836  -5.136  28.809  1.00  0.00     0.136 C 
ATOM      2  O   UNL     1      78.861  -5.121  30.030  1.00  0.00    -0.299 OA
ENDROOT
BRANCH   1   3
ATOM      3  C   UNL     1      77.476  -5.400  28.111  1.00  0.00     0.053 C 
ATOM      4  C   UNL     1      76.618  -6.387  28.916  1.00  0.00     0.016 C 
BRANCH   3   5
ATOM      5  C   UNL     1      77.589  -5.839  26.605  1.00  0.00     0.015 C 
BRANCH   5   6
ATOM      6  C   UNL     1      77.584  -7.347  26.560  1.00  0.00     0.028 C 
BRANCH   6   7
ATOM      7  C   UNL     1      78.578  -8.192  25.863  1.00  0.00    -0.028 C 
ATOM      8  C   UNL     1      79.508  -8.828  26.628  1.00  0.00    -0.070 CG0
ATOM      9  C   UNL     1      80.428  -9.808  25.952  1.00  0.00     0.039 C 
ATOM     10  G   UNL     1      79.740  -8.485  28.124  1.00  0.00     0.000 G0
ENDBRANCH   6   7
ENDBRANCH   5   6
ENDBRANCH   3   5
ENDBRANCH   1   3
BRANCH   1  11
ATOM     11  C   UNL     1      80.152  -4.861  28.059  1.00  0.00     0.087 C 
BRANCH  11  12
ATOM     12  C   UNL     1      80.904  -6.153  27.537  1.00  0.00     0.066 C 
BRANCH  12  13
ATOM     13  C   UNL     1      80.735  -7.385  28.457  1.00  0.00     0.140 C 
ATOM     14  O   UNL     1      81.406  -7.474  29.474  1.00  0.00    -0.299 OA
BRANCH  13  15
ATOM     15  C   UNL     1      79.737  -8.506  28.144  1.00  0.00     0.106 CG0
ATOM     16  G   UNL     1      79.515  -8.818  26.640  1.00  0.00     0.000 G0
ENDBRANCH  13  15
ENDBRANCH  12  13
BRANCH  12  17
ATOM     17  C   UNL     1      82.418  -5.916  27.239  1.00  0.00    -0.006 C 
ATOM     18  C   UNL     1      82.904  -6.752  26.044  1.00  0.00     0.008 C 
ATOM     19  C   UNL     1      82.796  -4.436  27.043  1.00  0.00     0.008 C 
ENDBRANCH  12  17
ENDBRANCH  11  12
ENDBRANCH   1  11
TORSDOF 1
ENDMDL
MODEL 7
REMARK VINA RESULT:    -2.511      2.738      4.925
REMARK INTER + INTRA:          -4.085
REMARK INTER:                  -4.228
REMARK INTRA:                   0.143
REMARK UNBOUND:                -0.254
REMARK SMILES CC1=CCC[C@@H](C)C(=O)C[C@@H](C(C)C)C(=O)C1
REMARK SMILES IDX 8 1 9 2 6 3 7 4 5 5 4 6 3 7 2 8 1 9 10 11 11 12 15 13 16 14
REMARK SMILES IDX 17 15 12 17 13 18 14 19
REMARK H PARENT
REMARK Flexibility Score: 70.00
ROOT
ATOM      1  C   UNL     1      84.034  -7.603  27.881  1.00  0.00     0.136 C 
ATOM      2  O   UNL     1      84.126  -8.817  27.778  1.00  0.00    -0.299 OA
ENDROOT
BRANCH   1   3
ATOM      3  C   UNL     1      82.929  -6.884  27.063  1.00  0.00     0.053 C 
ATOM      4  C   UNL     1      83.000  -7.264  25.577  1.00  0.00     0.016 C 
BRANCH   3   5
ATOM      5  C   UNL     1      82.890  -5.323  27.251  1.00  0.00     0.015 C 
BRANCH   5   6
ATOM      6  C   UNL     1      82.014  -5.021  28.442  1.00  0.00     0.028 C 
BRANCH   6   7
ATOM      7  C   UNL     1      80.943  -5.895  28.968  1.00  0.00    -0.028 C 
ATOM      8  C   UNL     1      81.103  -6.398  30.223  1.00  0.00    -0.070 CG0
ATOM      9  C   UNL     1      79.956  -7.162  30.829  1.00  0.00     0.039 C 
ATOM     10  G   UNL     1      82.452  -6.331  30.987  1.00  0.00     0.000 G0
ENDBRANCH   6   7
ENDBRANCH   5   6
ENDBRANCH   3   5
ENDBRANCH   1   3
BRANCH   1  11
ATOM     11  C   UNL     1      85.002  -6.887  28.841  1.00  0.00     0.087 C 
BRANCH  11  12
ATOM     12  C   UNL     1      84.876  -7.317  30.359  1.00  0.00     0.066 C 
BRANCH  12  13
ATOM     13  C   UNL     1      83.414  -7.496  30.835  1.00  0.00     0.140 C 
ATOM     14  O   UNL     1      83.002  -8.614  31.106  1.00  0.00    -0.299 OA
BRANCH  13  15
ATOM     15  C   UNL     1      82.457  -6.310  30.993  1.00  0.00     0.106 CG0
ATOM     16  G   UNL     1      81.119  -6.409  30.213  1.00  0.00     0.000 G0
ENDBRANCH  13  15
ENDBRANCH  12  13
BRANCH  12  17
ATOM     17  C   UNL     1      85.643  -6.376  31.340  1.00  0.00    -0.006 C 
ATOM     18  C   UNL     1      87.076  -6.866  31.601  1.00  0.00     0.008 C 
ATOM     19  C   UNL     1      85.655  -4.896  30.911  1.00  0.00     0.008 C 
ENDBRANCH  12  17
ENDBRANCH  11  12
ENDBRANCH   1  11
TORSDOF 1
ENDMDL
MODEL 8
REMARK VINA RESULT:    -2.481      2.025      3.749
REMARK INTER + INTRA:          -4.040
REMARK INTER:                  -3.839
REMARK INTRA:                  -0.200
REMARK UNBOUND:                -0.254
REMARK SMILES CC1=CCC[C@@H](C)C(=O)C[C@@H](C(C)C)C(=O)C1
REMARK SMILES IDX 8 1 9 2 6 3 7 4 5 5 4 6 3 7 2 8 1 9 10 11 11 12 15 13 16 14
REMARK SMILES IDX 17 15 12 17 13 18 14 19
REMARK H PARENT
REMARK Flexibility Score: 70.00
ROOT
ATOM      1  C   UNL     1      82.558  -6.187  27.047  1.00  0.00     0.136 C 
ATOM      2  O   UNL     1      83.000  -5.764  25.989  1.00  0.00    -0.299 OA
ENDROOT
BRANCH   1   3
ATOM      3  C   UNL     1      82.586  -7.719  27.288  1.00  0.00     0.053 C 
ATOM      4  C   UNL     1      84.014  -8.274  27.185  1.00  0.00     0.016 C 
BRANCH   3   5
ATOM      5  C   UNL     1      81.590  -8.539  26.389  1.00  0.00     0.015 C 
BRANCH   5   6
ATOM      6  C   UNL     1      80.303  -8.710  27.158  1.00  0.00     0.028 C 
BRANCH   6   7
ATOM      7  C   UNL     1      79.064  -7.931  26.949  1.00  0.00    -0.028 C 
ATOM      8  C   UNL     1      78.686  -7.075  27.938  1.00  0.00    -0.070 CG0
ATOM      9  C   UNL     1      77.515  -6.166  27.676  1.00  0.00     0.039 C 
ATOM     10  G   UNL     1      79.323  -7.096  29.353  1.00  0.00     0.000 G0
ENDBRANCH   6   7
ENDBRANCH   5   6
ENDBRANCH   3   5
ENDBRANCH   1   3
BRANCH   1  11
ATOM     11  C   UNL     1      82.037  -5.161  28.070  1.00  0.00     0.087 C 
BRANCH  11  12
ATOM     12  C   UNL     1      81.658  -5.764  29.485  1.00  0.00     0.066 C 
BRANCH  12  13
ATOM     13  C   UNL     1      80.134  -5.847  29.737  1.00  0.00     0.140 C 
ATOM     14  O   UNL     1      79.553  -4.895  30.234  1.00  0.00    -0.299 OA
BRANCH  13  15
ATOM     15  C   UNL     1      79.313  -7.089  29.370  1.00  0.00     0.106 CG0
ATOM     16  G   UNL     1      78.684  -7.093  27.952  1.00  0.00     0.000 G0
ENDBRANCH  13  15
ENDBRANCH  12  13
BRANCH  12  17
ATOM     17  C   UNL     1      82.355  -5.039  30.679  1.00  0.00    -0.006 C 
ATOM     18  C   UNL     1      82.209  -5.827  31.991  1.00  0.00     0.008 C 
ATOM     19  C   UNL     1      83.835  -4.693  30.427  1.00  0.00     0.008 C 
ENDBRANCH  12  17
ENDBRANCH  11  12
ENDBRANCH   1  11
TORSDOF 1
ENDMDL
MODEL 9
REMARK VINA RESULT:    -2.317      2.096      5.120
REMARK INTER + INTRA:          -3.790
REMARK INTER:                  -3.889
REMARK INTRA:                   0.098
REMARK UNBOUND:                -0.254
REMARK SMILES CC1=CCC[C@@H](C)C(=O)C[C@@H](C(C)C)C(=O)C1
REMARK SMILES IDX 8 1 9 2 6 3 7 4 5 5 4 6 3 7 2 8 1 9 10 11 11 12 15 13 16 14
REMARK SMILES IDX 17 15 12 17 13 18 14 19
REMARK H PARENT
REMARK Flexibility Score: 70.00
ROOT
ATOM      1  C   UNL     1      79.712  -6.498  27.803  1.00  0.00     0.136 C 
ATOM      2  O   UNL     1      79.048  -7.254  27.110  1.00  0.00    -0.299 OA
ENDROOT
BRANCH   1   3
ATOM      3  C   UNL     1      79.102  -6.015  29.145  1.00  0.00     0.053 C 
ATOM      4  C   UNL     1      78.785  -4.512  29.105  1.00  0.00     0.016 C 
BRANCH   3   5
ATOM      5  C   UNL     1      79.948  -6.385  30.418  1.00  0.00     0.015 C 
BRANCH   5   6
ATOM      6  C   UNL     1      80.660  -5.138  30.881  1.00  0.00     0.028 C 
BRANCH   6   7
ATOM      7  C   UNL     1      81.959  -5.099  31.586  1.00  0.00    -0.028 C 
ATOM      8  C   UNL     1      83.072  -4.861  30.839  1.00  0.00    -0.070 CG0
ATOM      9  C   UNL     1      84.379  -4.666  31.560  1.00  0.00     0.039 C 
ATOM     10  G   UNL     1      83.068  -4.915  29.288  1.00  0.00     0.000 G0
ENDBRANCH   6   7
ENDBRANCH   5   6
ENDBRANCH   3   5
ENDBRANCH   1   3
BRANCH   1  11
ATOM     11  C   UNL     1      81.116  -6.109  27.304  1.00  0.00     0.087 C 
BRANCH  11  12
ATOM     12  C   UNL     1      82.288  -7.042  27.817  1.00  0.00     0.066 C 
BRANCH  12  13
ATOM     13  C   UNL     1      83.348  -6.300  28.665  1.00  0.00     0.140 C 
ATOM     14  O   UNL     1      84.441  -6.814  28.849  1.00  0.00    -0.299 OA
BRANCH  13  15
ATOM     15  C   UNL     1      83.080  -4.921  29.281  1.00  0.00     0.106 CG0
ATOM     16  G   UNL     1      83.075  -4.860  30.831  1.00  0.00     0.000 G0
ENDBRANCH  13  15
ENDBRANCH  12  13
BRANCH  12  17
ATOM     17  C   UNL     1      82.988  -7.848  26.678  1.00  0.00    -0.006 C 
ATOM     18  C   UNL     1      83.119  -9.339  27.028  1.00  0.00     0.008 C 
ATOM     19  C   UNL     1      82.332  -7.681  25.294  1.00  0.00     0.008 C 
ENDBRANCH  12  17
ENDBRANCH  11  12
ENDBRANCH   1  11
TORSDOF 1
ENDMDL
