MODEL 1
REMARK VINA RESULT:    -4.885      0.000      0.000
REMARK INTER + INTRA:          -5.412
REMARK INTER:                  -5.313
REMARK INTRA:                  -0.098
REMARK UNBOUND:                -0.098
REMARK SMILES Cc1ccc(C(C)C)cc1O
REMARK SMILES IDX 1 1 2 2 10 3 9 4 5 5 4 6 3 7 11 8 6 10 7 11 8 12
REMARK H PARENT 11 9
REMARK Flexibility Score: inf
ROOT
ATOM      1  C   UNL     1      17.139 -45.167  27.153  1.00  0.00     0.048 C 
ATOM      2  C   UNL     1      16.556 -45.101  28.537  1.00  0.00    -0.009 A 
ATOM      3  C   UNL     1      17.400 -45.036  29.659  1.00  0.00     0.118 A 
ATOM      4  C   UNL     1      16.849 -44.975  30.947  1.00  0.00     0.050 A 
ATOM      5  C   UNL     1      15.454 -44.978  31.132  1.00  0.00    -0.042 A 
ATOM      6  C   UNL     1      14.619 -45.043  30.004  1.00  0.00     0.004 A 
ATOM      7  C   UNL     1      15.165 -45.105  28.720  1.00  0.00     0.007 A 
ENDROOT
BRANCH   3   8
ATOM      8  O   UNL     1      18.785 -45.033  29.491  1.00  0.00    -0.508 OA
ATOM      9  H   UNL     1      19.303 -44.170  29.364  1.00  0.00     0.293 HD
ENDBRANCH   3   8
BRANCH   5  10
ATOM     10  C   UNL     1      14.848 -44.913  32.522  1.00  0.00     0.013 C 
ATOM     11  C   UNL     1      15.211 -43.599  33.222  1.00  0.00     0.012 C 
ATOM     12  C   UNL     1      15.266 -46.122  33.365  1.00  0.00     0.012 C 
ENDBRANCH   5  10
TORSDOF 2
ENDMDL
MODEL 2
REMARK VINA RESULT:    -4.649      5.267      6.407
REMARK INTER + INTRA:          -5.154
REMARK INTER:                  -5.051
REMARK INTRA:                  -0.104
REMARK UNBOUND:                -0.098
REMARK SMILES Cc1ccc(C(C)C)cc1O
REMARK SMILES IDX 1 1 2 2 10 3 9 4 5 5 4 6 3 7 11 8 6 10 7 11 8 12
REMARK H PARENT 11 9
REMARK Flexibility Score: inf
ROOT
ATOM      1  C   UNL     1      18.529 -43.244  25.082  1.00  0.00     0.048 C 
ATOM      2  C   UNL     1      18.517 -42.009  25.938  1.00  0.00    -0.009 A 
ATOM      3  C   UNL     1      18.452 -42.116  27.337  1.00  0.00     0.118 A 
ATOM      4  C   UNL     1      18.441 -40.958  28.128  1.00  0.00     0.050 A 
ATOM      5  C   UNL     1      18.493 -39.683  27.536  1.00  0.00    -0.042 A 
ATOM      6  C   UNL     1      18.557 -39.586  26.136  1.00  0.00     0.004 A 
ATOM      7  C   UNL     1      18.568 -40.738  25.345  1.00  0.00     0.007 A 
ENDROOT
BRANCH   3   8
ATOM      8  O   UNL     1      18.401 -43.373  27.939  1.00  0.00    -0.508 OA
ATOM      9  H   UNL     1      18.699 -43.517  28.897  1.00  0.00     0.293 HD
ENDBRANCH   3   8
BRANCH   5  10
ATOM     10  C   UNL     1      18.481 -38.424  28.383  1.00  0.00     0.013 C 
ATOM     11  C   UNL     1      19.905 -37.975  28.727  1.00  0.00     0.012 C 
ATOM     12  C   UNL     1      17.642 -38.619  29.651  1.00  0.00     0.012 C 
ENDBRANCH   5  10
TORSDOF 2
ENDMDL
MODEL 3
REMARK VINA RESULT:    -4.628      2.367      3.903
REMARK INTER + INTRA:          -5.133
REMARK INTER:                  -5.017
REMARK INTRA:                  -0.116
REMARK UNBOUND:                -0.098
REMARK SMILES Cc1ccc(C(C)C)cc1O
REMARK SMILES IDX 1 1 2 2 10 3 9 4 5 5 4 6 3 7 11 8 6 10 7 11 8 12
REMARK H PARENT 11 9
REMARK Flexibility Score: inf
ROOT
ATOM      1  C   UNL     1      18.958 -42.494  24.742  1.00  0.00     0.048 C 
ATOM      2  C   UNL     1      18.269 -43.161  25.899  1.00  0.00    -0.009 A 
ATOM      3  C   UNL     1      18.116 -42.483  27.120  1.00  0.00     0.118 A 
ATOM      4  C   UNL     1      17.471 -43.112  28.195  1.00  0.00     0.050 A 
ATOM      5  C   UNL     1      16.974 -44.422  28.067  1.00  0.00    -0.042 A 
ATOM      6  C   UNL     1      17.132 -45.092  26.842  1.00  0.00     0.004 A 
ATOM      7  C   UNL     1      17.773 -44.468  25.769  1.00  0.00     0.007 A 
ENDROOT
BRANCH   3   8
ATOM      8  O   UNL     1      18.604 -41.184  27.262  1.00  0.00    -0.508 OA
ATOM      9  H   UNL     1      19.585 -40.966  27.126  1.00  0.00     0.293 HD
ENDBRANCH   3   8
BRANCH   5  10
ATOM     10  C   UNL     1      16.276 -45.112  29.224  1.00  0.00     0.013 C 
ATOM     11  C   UNL     1      14.836 -45.489  28.855  1.00  0.00     0.012 C 
ATOM     12  C   UNL     1      16.312 -44.245  30.488  1.00  0.00     0.012 C 
ENDBRANCH   5  10
TORSDOF 2
ENDMDL
MODEL 4
REMARK VINA RESULT:    -4.568      1.940      3.815
REMARK INTER + INTRA:          -5.067
REMARK INTER:                  -4.939
REMARK INTRA:                  -0.127
REMARK UNBOUND:                -0.098
REMARK SMILES Cc1ccc(C(C)C)cc1O
REMARK SMILES IDX 1 1 2 2 10 3 9 4 5 5 4 6 3 7 11 8 6 10 7 11 8 12
REMARK H PARENT 11 9
REMARK Flexibility Score: inf
ROOT
ATOM      1  C   UNL     1      20.007 -45.301  33.461  1.00  0.00     0.048 C 
ATOM      2  C   UNL     1      18.866 -45.124  32.499  1.00  0.00    -0.009 A 
ATOM      3  C   UNL     1      19.116 -44.765  31.163  1.00  0.00     0.118 A 
ATOM      4  C   UNL     1      18.046 -44.601  30.271  1.00  0.00     0.050 A 
ATOM      5  C   UNL     1      16.719 -44.791  30.697  1.00  0.00    -0.042 A 
ATOM      6  C   UNL     1      16.480 -45.150  32.035  1.00  0.00     0.004 A 
ATOM      7  C   UNL     1      17.543 -45.314  32.926  1.00  0.00     0.007 A 
ENDROOT
BRANCH   3   8
ATOM      8  O   UNL     1      20.426 -44.572  30.725  1.00  0.00    -0.508 OA
ATOM      9  H   UNL     1      20.908 -45.269  30.168  1.00  0.00     0.293 HD
ENDBRANCH   3   8
BRANCH   5  10
ATOM     10  C   UNL     1      15.554 -44.617  29.741  1.00  0.00     0.013 C 
ATOM     11  C   UNL     1      14.270 -45.224  30.316  1.00  0.00     0.012 C 
ATOM     12  C   UNL     1      15.877 -45.209  28.364  1.00  0.00     0.012 C 
ENDBRANCH   5  10
TORSDOF 2
ENDMDL
MODEL 5
REMARK VINA RESULT:    -4.567      1.308      3.415
REMARK INTER + INTRA:          -5.066
REMARK INTER:                  -4.938
REMARK INTRA:                  -0.128
REMARK UNBOUND:                -0.098
REMARK SMILES Cc1ccc(C(C)C)cc1O
REMARK SMILES IDX 1 1 2 2 10 3 9 4 5 5 4 6 3 7 11 8 6 10 7 11 8 12
REMARK H PARENT 11 9
REMARK Flexibility Score: inf
ROOT
ATOM      1  C   UNL     1      18.208 -45.129  32.531  1.00  0.00     0.048 C 
ATOM      2  C   UNL     1      17.062 -45.122  31.559  1.00  0.00    -0.009 A 
ATOM      3  C   UNL     1      17.307 -45.100  30.175  1.00  0.00     0.118 A 
ATOM      4  C   UNL     1      16.232 -45.094  29.274  1.00  0.00     0.050 A 
ATOM      5  C   UNL     1      14.904 -45.109  29.739  1.00  0.00    -0.042 A 
ATOM      6  C   UNL     1      14.670 -45.131  31.125  1.00  0.00     0.004 A 
ATOM      7  C   UNL     1      15.739 -45.137  32.025  1.00  0.00     0.007 A 
ENDROOT
BRANCH   3   8
ATOM      8  O   UNL     1      18.617 -45.085  29.698  1.00  0.00    -0.508 OA
ATOM      9  H   UNL     1      18.953 -44.346  29.090  1.00  0.00     0.293 HD
ENDBRANCH   3   8
BRANCH   5  10
ATOM     10  C   UNL     1      13.734 -45.102  28.773  1.00  0.00     0.013 C 
ATOM     11  C   UNL     1      13.810 -43.902  27.822  1.00  0.00     0.012 C 
ATOM     12  C   UNL     1      12.398 -45.128  29.524  1.00  0.00     0.012 C 
ENDBRANCH   5  10
TORSDOF 2
ENDMDL
MODEL 6
REMARK VINA RESULT:    -4.531      1.973      3.100
REMARK INTER + INTRA:          -5.027
REMARK INTER:                  -4.899
REMARK INTRA:                  -0.128
REMARK UNBOUND:                -0.098
REMARK SMILES Cc1ccc(C(C)C)cc1O
REMARK SMILES IDX 1 1 2 2 10 3 9 4 5 5 4 6 3 7 11 8 6 10 7 11 8 12
REMARK H PARENT 11 9
REMARK Flexibility Score: inf
ROOT
ATOM      1  C   UNL     1      14.213 -45.332  29.111  1.00  0.00     0.048 C 
ATOM      2  C   UNL     1      15.460 -45.163  29.932  1.00  0.00    -0.009 A 
ATOM      3  C   UNL     1      16.724 -45.367  29.352  1.00  0.00     0.118 A 
ATOM      4  C   UNL     1      17.883 -45.207  30.125  1.00  0.00     0.050 A 
ATOM      5  C   UNL     1      17.797 -44.844  31.482  1.00  0.00    -0.042 A 
ATOM      6  C   UNL     1      16.529 -44.642  32.052  1.00  0.00     0.004 A 
ATOM      7  C   UNL     1      15.372 -44.801  31.285  1.00  0.00     0.007 A 
ENDROOT
BRANCH   3   8
ATOM      8  O   UNL     1      16.825 -45.728  28.009  1.00  0.00    -0.508 OA
ATOM      9  H   UNL     1      17.033 -46.679  27.728  1.00  0.00     0.293 HD
ENDBRANCH   3   8
BRANCH   5  10
ATOM     10  C   UNL     1      19.045 -44.668  32.327  1.00  0.00     0.013 C 
ATOM     11  C   UNL     1      19.240 -45.855  33.278  1.00  0.00     0.012 C 
ATOM     12  C   UNL     1      19.008 -43.344  33.098  1.00  0.00     0.012 C 
ENDBRANCH   5  10
TORSDOF 2
ENDMDL
MODEL 7
REMARK VINA RESULT:    -4.514      2.257      3.147
REMARK INTER + INTRA:          -5.008
REMARK INTER:                  -4.880
REMARK INTRA:                  -0.128
REMARK UNBOUND:                -0.098
REMARK SMILES Cc1ccc(C(C)C)cc1O
REMARK SMILES IDX 1 1 2 2 10 3 9 4 5 5 4 6 3 7 11 8 6 10 7 11 8 12
REMARK H PARENT 11 9
REMARK Flexibility Score: inf
ROOT
ATOM      1  C   UNL     1      20.377 -41.873  30.268  1.00  0.00     0.048 C 
ATOM      2  C   UNL     1      19.179 -42.706  30.629  1.00  0.00    -0.009 A 
ATOM      3  C   UNL     1      19.296 -44.101  30.749  1.00  0.00     0.118 A 
ATOM      4  C   UNL     1      18.173 -44.871  31.087  1.00  0.00     0.050 A 
ATOM      5  C   UNL     1      16.925 -44.262  31.308  1.00  0.00    -0.042 A 
ATOM      6  C   UNL     1      16.819 -42.866  31.185  1.00  0.00     0.004 A 
ATOM      7  C   UNL     1      17.935 -42.096  30.849  1.00  0.00     0.007 A 
ENDROOT
BRANCH   3   8
ATOM      8  O   UNL     1      20.527 -44.719  30.533  1.00  0.00    -0.508 OA
ATOM      9  H   UNL     1      20.592 -45.650  30.137  1.00  0.00     0.293 HD
ENDBRANCH   3   8
BRANCH   5  10
ATOM     10  C   UNL     1      15.704 -45.085  31.674  1.00  0.00     0.013 C 
ATOM     11  C   UNL     1      14.714 -45.156  30.505  1.00  0.00     0.012 C 
ATOM     12  C   UNL     1      15.028 -44.540  32.937  1.00  0.00     0.012 C 
ENDBRANCH   5  10
TORSDOF 2
ENDMDL
MODEL 8
REMARK VINA RESULT:    -4.454      3.804      6.201
REMARK INTER + INTRA:          -4.942
REMARK INTER:                  -4.817
REMARK INTRA:                  -0.126
REMARK UNBOUND:                -0.098
REMARK SMILES Cc1ccc(C(C)C)cc1O
REMARK SMILES IDX 1 1 2 2 10 3 9 4 5 5 4 6 3 7 11 8 6 10 7 11 8 12
REMARK H PARENT 11 9
REMARK Flexibility Score: inf
ROOT
ATOM      1  C   UNL     1      17.116 -45.504  27.574  1.00  0.00     0.048 C 
ATOM      2  C   UNL     1      17.503 -44.124  27.121  1.00  0.00    -0.009 A 
ATOM      3  C   UNL     1      17.491 -43.051  28.029  1.00  0.00     0.118 A 
ATOM      4  C   UNL     1      17.853 -41.767  27.599  1.00  0.00     0.050 A 
ATOM      5  C   UNL     1      18.230 -41.536  26.263  1.00  0.00    -0.042 A 
ATOM      6  C   UNL     1      18.239 -42.615  25.364  1.00  0.00     0.004 A 
ATOM      7  C   UNL     1      17.878 -43.896  25.789  1.00  0.00     0.007 A 
ENDROOT
BRANCH   3   8
ATOM      8  O   UNL     1      17.119 -43.264  29.356  1.00  0.00    -0.508 OA
ATOM      9  H   UNL     1      17.498 -42.703  30.111  1.00  0.00     0.293 HD
ENDBRANCH   3   8
BRANCH   5  10
ATOM     10  C   UNL     1      18.624 -40.150  25.787  1.00  0.00     0.013 C 
ATOM     11  C   UNL     1      17.995 -39.063  26.668  1.00  0.00     0.012 C 
ATOM     12  C   UNL     1      18.255 -39.947  24.313  1.00  0.00     0.012 C 
ENDBRANCH   5  10
TORSDOF 2
ENDMDL
MODEL 9
REMARK VINA RESULT:    -4.441      2.324      5.048
REMARK INTER + INTRA:          -4.928
REMARK INTER:                  -4.828
REMARK INTRA:                  -0.100
REMARK UNBOUND:                -0.098
REMARK SMILES Cc1ccc(C(C)C)cc1O
REMARK SMILES IDX 1 1 2 2 10 3 9 4 5 5 4 6 3 7 11 8 6 10 7 11 8 12
REMARK H PARENT 11 9
REMARK Flexibility Score: inf
ROOT
ATOM      1  C   UNL     1      17.629 -44.963  31.553  1.00  0.00     0.048 C 
ATOM      2  C   UNL     1      17.564 -44.663  30.081  1.00  0.00    -0.009 A 
ATOM      3  C   UNL     1      17.776 -43.354  29.615  1.00  0.00     0.118 A 
ATOM      4  C   UNL     1      17.714 -43.082  28.241  1.00  0.00     0.050 A 
ATOM      5  C   UNL     1      17.440 -44.108  27.317  1.00  0.00    -0.042 A 
ATOM      6  C   UNL     1      17.230 -45.413  27.794  1.00  0.00     0.004 A 
ATOM      7  C   UNL     1      17.291 -45.687  29.162  1.00  0.00     0.007 A 
ENDROOT
BRANCH   3   8
ATOM      8  O   UNL     1      18.048 -42.327  30.519  1.00  0.00    -0.508 OA
ATOM      9  H   UNL     1      18.959 -41.884  30.561  1.00  0.00     0.293 HD
ENDBRANCH   3   8
BRANCH   5  10
ATOM     10  C   UNL     1      17.370 -43.824  25.828  1.00  0.00     0.013 C 
ATOM     11  C   UNL     1      18.548 -42.954  25.375  1.00  0.00     0.012 C 
ATOM     12  C   UNL     1      16.031 -43.180  25.451  1.00  0.00     0.012 C 
ENDBRANCH   5  10
TORSDOF 2
ENDMDL
