MODEL 1
REMARK VINA RESULT:    13.946      0.000      0.000
REMARK INTER + INTRA:          16.587
REMARK INTER:                  16.800
REMARK INTRA:                  -0.213
REMARK UNBOUND:                -0.213
REMARK SMILES O=c1c(O)c(-c2ccc(O)c(O)c2)oc2cc(O)cc(O)c12
REMARK SMILES IDX 5 1 3 2 2 3 1 4 22 5 20 6 19 7 17 8 16 9 15 10 14 11 6 12
REMARK SMILES IDX 7 13 8 14 9 15 13 16 11 17 10 18 12 20 4 22 21 24 18 26
REMARK H PARENT 10 19 12 21 4 23 21 25 18 27
REMARK Flexibility Score: inf
ROOT
ATOM      1  C   UNL     1     -19.431  -7.024  12.086  1.00  0.00     0.180 A 
ATOM      2  C   UNL     1     -20.347  -7.750  12.867  1.00  0.00     0.208 A 
ATOM      3  C   UNL     1     -20.638  -9.079  12.516  1.00  0.00     0.238 A 
ATOM      4  O   UNL     1     -21.500  -9.706  13.187  1.00  0.00    -0.285 OA
ATOM      5  C   UNL     1     -19.999  -9.669  11.400  1.00  0.00     0.111 A 
ATOM      6  C   UNL     1     -20.187 -11.020  10.979  1.00  0.00     0.134 A 
ATOM      7  C   UNL     1     -19.604 -11.458   9.784  1.00  0.00     0.093 A 
ATOM      8  C   UNL     1     -18.785 -10.617   9.031  1.00  0.00     0.123 A 
ATOM      9  C   UNL     1     -18.545  -9.312   9.465  1.00  0.00     0.094 A 
ATOM     10  C   UNL     1     -19.144  -8.835  10.634  1.00  0.00     0.146 A 
ATOM     11  O   UNL     1     -18.898  -7.584  11.008  1.00  0.00    -0.452 OA
ENDROOT
BRANCH   1  12
ATOM     12  C   UNL     1     -19.055  -5.629  12.408  1.00  0.00     0.025 A 
ATOM     13  C   UNL     1     -19.982  -4.597  12.193  1.00  0.00     0.016 A 
ATOM     14  C   UNL     1     -19.641  -3.270  12.470  1.00  0.00     0.051 A 
ATOM     15  C   UNL     1     -18.365  -2.954  12.952  1.00  0.00     0.157 A 
ATOM     16  C   UNL     1     -17.768  -5.306  12.872  1.00  0.00     0.062 A 
ATOM     17  C   UNL     1     -17.422  -3.977  13.149  1.00  0.00     0.158 A 
BRANCH  15  18
ATOM     18  O   UNL     1     -18.028  -1.630  13.230  1.00  0.00    -0.504 OA
ATOM     19  H   UNL     1     -17.937  -0.940  12.493  1.00  0.00     0.293 HD
ENDBRANCH  15  18
BRANCH  17  20
ATOM     20  O   UNL     1     -16.138  -3.695  13.614  1.00  0.00    -0.504 OA
ATOM     21  H   UNL     1     -15.896  -3.757  14.595  1.00  0.00     0.293 HD
ENDBRANCH  17  20
ENDBRANCH   1  12
BRANCH   2  22
ATOM     22  O   UNL     1     -20.984  -7.141  13.952  1.00  0.00    -0.502 OA
ATOM     23  H   UNL     1     -20.557  -6.389  14.481  1.00  0.00     0.293 HD
ENDBRANCH   2  22
BRANCH   6  24
ATOM     24  O   UNL     1     -20.911 -11.970  11.705  1.00  0.00    -0.507 OA
ATOM     25  H   UNL     1     -21.422 -11.778  12.553  1.00  0.00     0.293 HD
ENDBRANCH   6  24
BRANCH   8  26
ATOM     26  O   UNL     1     -18.208 -11.092   7.855  1.00  0.00    -0.508 OA
ATOM     27  H   UNL     1     -17.488 -11.806   7.870  1.00  0.00     0.293 HD
ENDBRANCH   8  26
TORSDOF 6
ENDMDL
MODEL 2
REMARK VINA RESULT:    14.382      0.587      1.415
REMARK INTER + INTRA:          17.112
REMARK INTER:                  17.245
REMARK INTRA:                  -0.133
REMARK UNBOUND:                -0.213
REMARK SMILES O=c1c(O)c(-c2ccc(O)c(O)c2)oc2cc(O)cc(O)c12
REMARK SMILES IDX 5 1 3 2 2 3 1 4 22 5 20 6 19 7 17 8 16 9 15 10 14 11 6 12
REMARK SMILES IDX 7 13 8 14 9 15 13 16 11 17 10 18 12 20 4 22 21 24 18 26
REMARK H PARENT 10 19 12 21 4 23 21 25 18 27
REMARK Flexibility Score: inf
ROOT
ATOM      1  C   UNL     1     -19.196  -6.997  12.116  1.00  0.00     0.180 A 
ATOM      2  C   UNL     1     -20.211  -7.644  12.842  1.00  0.00     0.208 A 
ATOM      3  C   UNL     1     -20.590  -8.945  12.472  1.00  0.00     0.238 A 
ATOM      4  O   UNL     1     -21.537  -9.497  13.091  1.00  0.00    -0.285 OA
ATOM      5  C   UNL     1     -19.939  -9.588  11.392  1.00  0.00     0.111 A 
ATOM      6  C   UNL     1     -20.214 -10.919  10.957  1.00  0.00     0.134 A 
ATOM      7  C   UNL     1     -19.602 -11.406   9.795  1.00  0.00     0.093 A 
ATOM      8  C   UNL     1     -18.675 -10.637   9.092  1.00  0.00     0.123 A 
ATOM      9  C   UNL     1     -18.354  -9.355   9.544  1.00  0.00     0.094 A 
ATOM     10  C   UNL     1     -18.977  -8.829  10.678  1.00  0.00     0.146 A 
ATOM     11  O   UNL     1     -18.650  -7.602  11.068  1.00  0.00    -0.452 OA
ENDROOT
BRANCH   1  12
ATOM     12  C   UNL     1     -18.725  -5.637  12.463  1.00  0.00     0.025 A 
ATOM     13  C   UNL     1     -17.406  -5.458  12.911  1.00  0.00     0.016 A 
ATOM     14  C   UNL     1     -16.946  -4.187  13.264  1.00  0.00     0.051 A 
ATOM     15  C   UNL     1     -17.799  -3.079  13.189  1.00  0.00     0.157 A 
ATOM     16  C   UNL     1     -19.585  -4.527  12.409  1.00  0.00     0.062 A 
ATOM     17  C   UNL     1     -19.128  -3.251  12.764  1.00  0.00     0.158 A 
BRANCH  15  18
ATOM     18  O   UNL     1     -17.337  -1.812  13.540  1.00  0.00    -0.504 OA
ATOM     19  H   UNL     1     -16.627  -1.684  14.251  1.00  0.00     0.293 HD
ENDBRANCH  15  18
BRANCH  17  20
ATOM     20  O   UNL     1     -20.007  -2.173  12.692  1.00  0.00    -0.504 OA
ATOM     21  H   UNL     1     -20.381  -1.727  13.521  1.00  0.00     0.293 HD
ENDBRANCH  17  20
ENDBRANCH   1  12
BRANCH   2  22
ATOM     22  O   UNL     1     -20.856  -6.983  13.891  1.00  0.00    -0.502 OA
ATOM     23  H   UNL     1     -21.752  -6.522  13.775  1.00  0.00     0.293 HD
ENDBRANCH   2  22
BRANCH   6  24
ATOM     24  O   UNL     1     -21.054 -11.805  11.638  1.00  0.00    -0.507 OA
ATOM     25  H   UNL     1     -22.061 -11.749  11.648  1.00  0.00     0.293 HD
ENDBRANCH   6  24
BRANCH   8  26
ATOM     26  O   UNL     1     -18.073 -11.160   7.950  1.00  0.00    -0.508 OA
ATOM     27  H   UNL     1     -17.161 -10.843   7.640  1.00  0.00     0.293 HD
ENDBRANCH   8  26
TORSDOF 6
ENDMDL
MODEL 3
REMARK VINA RESULT:    14.440      1.287      3.203
REMARK INTER + INTRA:          17.182
REMARK INTER:                  17.348
REMARK INTRA:                  -0.166
REMARK UNBOUND:                -0.213
REMARK SMILES O=c1c(O)c(-c2ccc(O)c(O)c2)oc2cc(O)cc(O)c12
REMARK SMILES IDX 5 1 3 2 2 3 1 4 22 5 20 6 19 7 17 8 16 9 15 10 14 11 6 12
REMARK SMILES IDX 7 13 8 14 9 15 13 16 11 17 10 18 12 20 4 22 21 24 18 26
REMARK H PARENT 10 19 12 21 4 23 21 25 18 27
REMARK Flexibility Score: inf
ROOT
ATOM      1  C   UNL     1     -18.786  -6.920  11.415  1.00  0.00     0.180 A 
ATOM      2  C   UNL     1     -17.974  -7.287  10.328  1.00  0.00     0.208 A 
ATOM      3  C   UNL     1     -18.102  -8.578   9.788  1.00  0.00     0.238 A 
ATOM      4  O   UNL     1     -17.333  -8.919   8.851  1.00  0.00    -0.285 OA
ATOM      5  C   UNL     1     -19.051  -9.477  10.330  1.00  0.00     0.111 A 
ATOM      6  C   UNL     1     -19.294 -10.794   9.835  1.00  0.00     0.134 A 
ATOM      7  C   UNL     1     -20.163 -11.644  10.530  1.00  0.00     0.093 A 
ATOM      8  C   UNL     1     -20.849 -11.203  11.662  1.00  0.00     0.123 A 
ATOM      9  C   UNL     1     -20.664  -9.897  12.120  1.00  0.00     0.094 A 
ATOM     10  C   UNL     1     -19.775  -9.039  11.468  1.00  0.00     0.146 A 
ATOM     11  O   UNL     1     -19.620  -7.808  11.942  1.00  0.00    -0.452 OA
ENDROOT
BRANCH   1  12
ATOM     12  C   UNL     1     -18.727  -5.570  12.021  1.00  0.00     0.025 A 
ATOM     13  C   UNL     1     -17.574  -5.177  12.719  1.00  0.00     0.016 A 
ATOM     14  C   UNL     1     -17.504  -3.916  13.317  1.00  0.00     0.051 A 
ATOM     15  C   UNL     1     -18.590  -3.035  13.238  1.00  0.00     0.157 A 
ATOM     16  C   UNL     1     -19.823  -4.691  11.962  1.00  0.00     0.062 A 
ATOM     17  C   UNL     1     -19.757  -3.428  12.562  1.00  0.00     0.158 A 
BRANCH  15  18
ATOM     18  O   UNL     1     -18.516  -1.777  13.834  1.00  0.00    -0.504 OA
ATOM     19  H   UNL     1     -17.701  -1.485  14.358  1.00  0.00     0.293 HD
ENDBRANCH  15  18
BRANCH  17  20
ATOM     20  O   UNL     1     -20.861  -2.581  12.478  1.00  0.00    -0.504 OA
ATOM     21  H   UNL     1     -20.765  -1.572  12.465  1.00  0.00     0.293 HD
ENDBRANCH  17  20
ENDBRANCH   1  12
BRANCH   2  22
ATOM     22  O   UNL     1     -17.028  -6.391   9.823  1.00  0.00    -0.502 OA
ATOM     23  H   UNL     1     -17.183  -5.390   9.803  1.00  0.00     0.293 HD
ENDBRANCH   2  22
BRANCH   6  24
ATOM     24  O   UNL     1     -18.731 -11.302   8.661  1.00  0.00    -0.507 OA
ATOM     25  H   UNL     1     -19.191 -11.318   7.764  1.00  0.00     0.293 HD
ENDBRANCH   6  24
BRANCH   8  26
ATOM     26  O   UNL     1     -21.719 -12.070  12.319  1.00  0.00    -0.508 OA
ATOM     27  H   UNL     1     -21.497 -12.451  13.233  1.00  0.00     0.293 HD
ENDBRANCH   8  26
TORSDOF 6
ENDMDL
MODEL 4
REMARK VINA RESULT:    16.477      8.430     11.440
REMARK INTER + INTRA:          19.636
REMARK INTER:                  19.922
REMARK INTRA:                  -0.287
REMARK UNBOUND:                -0.213
REMARK SMILES O=c1c(O)c(-c2ccc(O)c(O)c2)oc2cc(O)cc(O)c12
REMARK SMILES IDX 5 1 3 2 2 3 1 4 22 5 20 6 19 7 17 8 16 9 15 10 14 11 6 12
REMARK SMILES IDX 7 13 8 14 9 15 13 16 11 17 10 18 12 20 4 22 21 24 18 26
REMARK H PARENT 10 19 12 21 4 23 21 25 18 27
REMARK Flexibility Score: inf
ROOT
ATOM      1  C   UNL     1     -20.698   2.768  13.214  1.00  0.00     0.180 A 
ATOM      2  C   UNL     1     -20.137   3.857  13.903  1.00  0.00     0.208 A 
ATOM      3  C   UNL     1     -18.874   3.708  14.499  1.00  0.00     0.238 A 
ATOM      4  O   UNL     1     -18.401   4.669  15.162  1.00  0.00    -0.285 OA
ATOM      5  C   UNL     1     -18.181   2.479  14.384  1.00  0.00     0.111 A 
ATOM      6  C   UNL     1     -16.879   2.231  14.913  1.00  0.00     0.134 A 
ATOM      7  C   UNL     1     -16.344   0.937  14.854  1.00  0.00     0.093 A 
ATOM      8  C   UNL     1     -17.035  -0.099  14.226  1.00  0.00     0.123 A 
ATOM      9  C   UNL     1     -18.283   0.147  13.653  1.00  0.00     0.094 A 
ATOM     10  C   UNL     1     -18.858   1.419  13.729  1.00  0.00     0.146 A 
ATOM     11  O   UNL     1     -20.052   1.609  13.179  1.00  0.00    -0.452 OA
ENDROOT
BRANCH   1  12
ATOM     12  C   UNL     1     -22.012   2.857  12.538  1.00  0.00     0.025 A 
ATOM     13  C   UNL     1     -22.062   3.087  11.154  1.00  0.00     0.016 A 
ATOM     14  C   UNL     1     -23.291   3.196  10.499  1.00  0.00     0.051 A 
ATOM     15  C   UNL     1     -24.488   3.090  11.218  1.00  0.00     0.157 A 
ATOM     16  C   UNL     1     -23.215   2.772  13.261  1.00  0.00     0.062 A 
ATOM     17  C   UNL     1     -24.449   2.882  12.608  1.00  0.00     0.158 A 
BRANCH  15  18
ATOM     18  O   UNL     1     -25.713   3.197  10.562  1.00  0.00    -0.504 OA
ATOM     19  H   UNL     1     -25.848   3.842   9.793  1.00  0.00     0.293 HD
ENDBRANCH  15  18
BRANCH  17  20
ATOM     20  O   UNL     1     -25.621   2.787  13.356  1.00  0.00    -0.504 OA
ATOM     21  H   UNL     1     -26.371   2.154  13.102  1.00  0.00     0.293 HD
ENDBRANCH  17  20
ENDBRANCH   1  12
BRANCH   2  22
ATOM     22  O   UNL     1     -20.848   5.054  14.024  1.00  0.00    -0.502 OA
ATOM     23  H   UNL     1     -21.024   5.664  13.234  1.00  0.00     0.293 HD
ENDBRANCH   2  22
BRANCH   6  24
ATOM     24  O   UNL     1     -16.065   3.216  15.479  1.00  0.00    -0.507 OA
ATOM     25  H   UNL     1     -16.402   4.070  15.896  1.00  0.00     0.293 HD
ENDBRANCH   6  24
BRANCH   8  26
ATOM     26  O   UNL     1     -16.466  -1.370  14.171  1.00  0.00    -0.508 OA
ATOM     27  H   UNL     1     -15.664  -1.566  13.583  1.00  0.00     0.293 HD
ENDBRANCH   8  26
TORSDOF 6
ENDMDL
MODEL 5
REMARK VINA RESULT:    16.895      1.565      2.686
REMARK INTER + INTRA:          20.139
REMARK INTER:                  20.272
REMARK INTRA:                  -0.133
REMARK UNBOUND:                -0.213
REMARK SMILES O=c1c(O)c(-c2ccc(O)c(O)c2)oc2cc(O)cc(O)c12
REMARK SMILES IDX 5 1 3 2 2 3 1 4 22 5 20 6 19 7 17 8 16 9 15 10 14 11 6 12
REMARK SMILES IDX 7 13 8 14 9 15 13 16 11 17 10 18 12 20 4 22 21 24 18 26
REMARK H PARENT 10 19 12 21 4 23 21 25 18 27
REMARK Flexibility Score: inf
ROOT
ATOM      1  C   UNL     1     -19.187  -6.683  11.859  1.00  0.00     0.180 A 
ATOM      2  C   UNL     1     -19.439  -7.043  10.525  1.00  0.00     0.208 A 
ATOM      3  C   UNL     1     -19.564  -8.404  10.198  1.00  0.00     0.238 A 
ATOM      4  O   UNL     1     -19.735  -8.722   8.992  1.00  0.00    -0.285 OA
ATOM      5  C   UNL     1     -19.452  -9.385  11.212  1.00  0.00     0.111 A 
ATOM      6  C   UNL     1     -19.602 -10.788  11.002  1.00  0.00     0.134 A 
ATOM      7  C   UNL     1     -19.341 -11.676  12.053  1.00  0.00     0.093 A 
ATOM      8  C   UNL     1     -19.001 -11.209  13.323  1.00  0.00     0.123 A 
ATOM      9  C   UNL     1     -18.910  -9.836  13.554  1.00  0.00     0.094 A 
ATOM     10  C   UNL     1     -19.129  -8.927  12.515  1.00  0.00     0.146 A 
ATOM     11  O   UNL     1     -19.023  -7.629  12.775  1.00  0.00    -0.452 OA
ENDROOT
BRANCH   1  12
ATOM     12  C   UNL     1     -19.069  -5.269  12.284  1.00  0.00     0.025 A 
ATOM     13  C   UNL     1     -20.165  -4.407  12.123  1.00  0.00     0.016 A 
ATOM     14  C   UNL     1     -20.069  -3.064  12.497  1.00  0.00     0.051 A 
ATOM     15  C   UNL     1     -18.874  -2.560  13.025  1.00  0.00     0.157 A 
ATOM     16  C   UNL     1     -17.864  -4.756  12.795  1.00  0.00     0.062 A 
ATOM     17  C   UNL     1     -17.764  -3.410  13.169  1.00  0.00     0.158 A 
BRANCH  15  18
ATOM     18  O   UNL     1     -18.782  -1.221  13.399  1.00  0.00    -0.504 OA
ATOM     19  H   UNL     1     -19.606  -0.639  13.495  1.00  0.00     0.293 HD
ENDBRANCH  15  18
BRANCH  17  20
ATOM     20  O   UNL     1     -16.555  -2.937  13.677  1.00  0.00    -0.504 OA
ATOM     21  H   UNL     1     -15.716  -2.889  13.111  1.00  0.00     0.293 HD
ENDBRANCH  17  20
ENDBRANCH   1  12
BRANCH   2  22
ATOM     22  O   UNL     1     -19.524  -6.060   9.535  1.00  0.00    -0.502 OA
ATOM     23  H   UNL     1     -18.825  -5.958   8.808  1.00  0.00     0.293 HD
ENDBRANCH   2  22
BRANCH   6  24
ATOM     24  O   UNL     1     -20.027 -11.356   9.798  1.00  0.00    -0.507 OA
ATOM     25  H   UNL     1     -19.585 -11.205   8.904  1.00  0.00     0.293 HD
ENDBRANCH   6  24
BRANCH   8  26
ATOM     26  O   UNL     1     -18.764 -12.120  14.349  1.00  0.00    -0.508 OA
ATOM     27  H   UNL     1     -18.933 -13.113  14.226  1.00  0.00     0.293 HD
ENDBRANCH   8  26
TORSDOF 6
ENDMDL
