MODEL 1
REMARK VINA RESULT:    -4.566      0.000      0.000
REMARK INTER + INTRA:          -6.280
REMARK INTER:                  -5.634
REMARK INTRA:                  -0.646
REMARK UNBOUND:                -0.646
REMARK SMILES C=CC(=C)CCC=C(C)C
REMARK SMILES IDX 5 1 6 2 7 3 9 4 8 5 10 6 3 7 4 8 2 9 1 10
REMARK H PARENT
REMARK Flexibility Score: inf
ROOT
ATOM      1  C   UNL     1      10.203   5.739  27.620  1.00  0.00     0.039 C 
ENDROOT
BRANCH   1   2
ATOM      2  C   UNL     1       9.026   6.653  27.990  1.00  0.00     0.032 C 
BRANCH   2   3
ATOM      3  C   UNL     1       9.483   7.957  28.599  1.00  0.00    -0.028 C 
ATOM      4  C   UNL     1       9.847   9.627  30.363  1.00  0.00     0.039 C 
ATOM      5  C   UNL     1       9.390   8.264  29.911  1.00  0.00    -0.080 C 
ATOM      6  C   UNL     1       8.850   7.285  30.926  1.00  0.00     0.039 C 
ENDBRANCH   2   3
ENDBRANCH   1   2
BRANCH   1   7
ATOM      7  C   UNL     1      10.039   4.341  28.187  1.00  0.00    -0.055 C 
ATOM      8  C   UNL     1       9.711   3.346  27.356  1.00  0.00     0.012 C 
BRANCH   7   9
ATOM      9  C   UNL     1      10.189   4.034  29.634  1.00  0.00    -0.005 C 
ATOM     10  C   UNL     1      11.227   4.408  30.383  1.00  0.00     0.009 C 
ENDBRANCH   7   9
ENDBRANCH   1   7
TORSDOF 4
ENDMDL
MODEL 2
REMARK VINA RESULT:    -4.492      1.354      3.636
REMARK INTER + INTRA:          -6.189
REMARK INTER:                  -5.321
REMARK INTRA:                  -0.868
REMARK UNBOUND:                -0.646
REMARK SMILES C=CC(=C)CCC=C(C)C
REMARK SMILES IDX 5 1 6 2 7 3 9 4 8 5 10 6 3 7 4 8 2 9 1 10
REMARK H PARENT
REMARK Flexibility Score: inf
ROOT
ATOM      1  C   UNL     1       9.356   4.143  29.264  1.00  0.00     0.039 C 
ENDROOT
BRANCH   1   2
ATOM      2  C   UNL     1      10.048   4.006  27.900  1.00  0.00     0.032 C 
BRANCH   2   3
ATOM      3  C   UNL     1       9.976   5.279  27.091  1.00  0.00    -0.028 C 
ATOM      4  C   UNL     1      10.790   7.352  26.055  1.00  0.00     0.039 C 
ATOM      5  C   UNL     1      11.028   6.088  26.840  1.00  0.00    -0.080 C 
ATOM      6  C   UNL     1      12.423   5.759  27.316  1.00  0.00     0.039 C 
ENDBRANCH   2   3
ENDBRANCH   1   2
BRANCH   1   7
ATOM      7  C   UNL     1      10.171   4.977  30.234  1.00  0.00    -0.055 C 
ATOM      8  C   UNL     1      11.349   4.505  30.655  1.00  0.00     0.012 C 
BRANCH   7   9
ATOM      9  C   UNL     1       9.701   6.283  30.768  1.00  0.00    -0.005 C 
ATOM     10  C   UNL     1       8.965   7.160  30.084  1.00  0.00     0.009 C 
ENDBRANCH   7   9
ENDBRANCH   1   7
TORSDOF 4
ENDMDL
MODEL 3
REMARK VINA RESULT:    -4.402     14.703     16.179
REMARK INTER + INTRA:          -6.078
REMARK INTER:                  -5.214
REMARK INTRA:                  -0.864
REMARK UNBOUND:                -0.646
REMARK SMILES C=CC(=C)CCC=C(C)C
REMARK SMILES IDX 5 1 6 2 7 3 9 4 8 5 10 6 3 7 4 8 2 9 1 10
REMARK H PARENT
REMARK Flexibility Score: inf
ROOT
ATOM      1  C   UNL     1       8.074   5.755  13.255  1.00  0.00     0.039 C 
ENDROOT
BRANCH   1   2
ATOM      2  C   UNL     1       7.040   5.497  14.360  1.00  0.00     0.032 C 
BRANCH   2   3
ATOM      3  C   UNL     1       6.635   6.765  15.072  1.00  0.00    -0.028 C 
ATOM      4  C   UNL     1       5.201   8.669  15.665  1.00  0.00     0.039 C 
ATOM      5  C   UNL     1       5.443   7.381  14.922  1.00  0.00    -0.080 C 
ATOM      6  C   UNL     1       4.355   6.815  14.039  1.00  0.00     0.039 C 
ENDBRANCH   2   3
ENDBRANCH   1   2
BRANCH   1   7
ATOM      7  C   UNL     1       7.455   6.419  12.039  1.00  0.00    -0.055 C 
ATOM      8  C   UNL     1       6.701   5.680  11.219  1.00  0.00     0.012 C 
BRANCH   7   9
ATOM      9  C   UNL     1       7.679   7.849  11.699  1.00  0.00    -0.005 C 
ATOM     10  C   UNL     1       8.422   8.691  12.418  1.00  0.00     0.009 C 
ENDBRANCH   7   9
ENDBRANCH   1   7
TORSDOF 4
ENDMDL
MODEL 4
REMARK VINA RESULT:    -4.384      1.698      3.460
REMARK INTER + INTRA:          -6.055
REMARK INTER:                  -5.263
REMARK INTRA:                  -0.792
REMARK UNBOUND:                -0.646
REMARK SMILES C=CC(=C)CCC=C(C)C
REMARK SMILES IDX 5 1 6 2 7 3 9 4 8 5 10 6 3 7 4 8 2 9 1 10
REMARK H PARENT
REMARK Flexibility Score: inf
ROOT
ATOM      1  C   UNL     1       9.401   4.374  28.913  1.00  0.00     0.039 C 
ENDROOT
BRANCH   1   2
ATOM      2  C   UNL     1       9.788   4.920  27.531  1.00  0.00     0.032 C 
BRANCH   2   3
ATOM      3  C   UNL     1      11.277   5.122  27.392  1.00  0.00    -0.028 C 
ATOM      4  C   UNL     1      13.367   6.347  26.982  1.00  0.00     0.039 C 
ATOM      5  C   UNL     1      11.869   6.310  27.141  1.00  0.00    -0.080 C 
ATOM      6  C   UNL     1      11.077   7.590  27.022  1.00  0.00     0.039 C 
ENDBRANCH   2   3
ENDBRANCH   1   2
BRANCH   1   7
ATOM      7  C   UNL     1       9.650   5.386  30.015  1.00  0.00    -0.055 C 
ATOM      8  C   UNL     1       9.003   6.556  29.971  1.00  0.00     0.012 C 
BRANCH   7   9
ATOM      9  C   UNL     1      10.612   5.150  31.125  1.00  0.00    -0.005 C 
ATOM     10  C   UNL     1      11.765   4.492  31.001  1.00  0.00     0.009 C 
ENDBRANCH   7   9
ENDBRANCH   1   7
TORSDOF 4
ENDMDL
MODEL 5
REMARK VINA RESULT:    -4.346     14.793     16.355
REMARK INTER + INTRA:          -6.009
REMARK INTER:                  -5.176
REMARK INTRA:                  -0.833
REMARK UNBOUND:                -0.646
REMARK SMILES C=CC(=C)CCC=C(C)C
REMARK SMILES IDX 5 1 6 2 7 3 9 4 8 5 10 6 3 7 4 8 2 9 1 10
REMARK H PARENT
REMARK Flexibility Score: inf
ROOT
ATOM      1  C   UNL     1       7.956   5.995  12.787  1.00  0.00     0.039 C 
ENDROOT
BRANCH   1   2
ATOM      2  C   UNL     1       7.901   6.301  14.291  1.00  0.00     0.032 C 
BRANCH   2   3
ATOM      3  C   UNL     1       6.574   5.924  14.903  1.00  0.00    -0.028 C 
ATOM      4  C   UNL     1       4.363   6.281  15.913  1.00  0.00     0.039 C 
ATOM      5  C   UNL     1       5.620   6.807  15.269  1.00  0.00    -0.080 C 
ATOM      6  C   UNL     1       5.777   8.293  15.048  1.00  0.00     0.039 C 
ENDBRANCH   2   3
ENDBRANCH   1   2
BRANCH   1   7
ATOM      7  C   UNL     1       7.568   7.196  11.947  1.00  0.00    -0.055 C 
ATOM      8  C   UNL     1       8.282   8.321  12.065  1.00  0.00     0.012 C 
BRANCH   7   9
ATOM      9  C   UNL     1       6.404   7.192  11.021  1.00  0.00    -0.005 C 
ATOM     10  C   UNL     1       5.314   6.439  11.178  1.00  0.00     0.009 C 
ENDBRANCH   7   9
ENDBRANCH   1   7
TORSDOF 4
ENDMDL
MODEL 6
REMARK VINA RESULT:    -4.297      1.920      3.692
REMARK INTER + INTRA:          -5.948
REMARK INTER:                  -5.147
REMARK INTRA:                  -0.800
REMARK UNBOUND:                -0.646
REMARK SMILES C=CC(=C)CCC=C(C)C
REMARK SMILES IDX 5 1 6 2 7 3 9 4 8 5 10 6 3 7 4 8 2 9 1 10
REMARK H PARENT
REMARK Flexibility Score: inf
ROOT
ATOM      1  C   UNL     1       9.004   6.432  28.093  1.00  0.00     0.039 C 
ENDROOT
BRANCH   1   2
ATOM      2  C   UNL     1      10.128   7.462  27.911  1.00  0.00     0.032 C 
BRANCH   2   3
ATOM      3  C   UNL     1      10.770   7.375  26.548  1.00  0.00    -0.028 C 
ATOM      4  C   UNL     1      12.459   6.753  24.876  1.00  0.00     0.039 C 
ATOM      5  C   UNL     1      11.916   6.711  26.281  1.00  0.00    -0.080 C 
ATOM      6  C   UNL     1      12.655   5.932  27.343  1.00  0.00     0.039 C 
ENDBRANCH   2   3
ENDBRANCH   1   2
BRANCH   1   7
ATOM      7  C   UNL     1       9.391   5.332  29.063  1.00  0.00    -0.055 C 
ATOM      8  C   UNL     1       9.457   5.621  30.368  1.00  0.00     0.012 C 
BRANCH   7   9
ATOM      9  C   UNL     1       9.737   3.954  28.626  1.00  0.00    -0.005 C 
ATOM     10  C   UNL     1       9.740   3.541  27.357  1.00  0.00     0.009 C 
ENDBRANCH   7   9
ENDBRANCH   1   7
TORSDOF 4
ENDMDL
MODEL 7
REMARK VINA RESULT:    -4.283      1.931      3.332
REMARK INTER + INTRA:          -5.930
REMARK INTER:                  -5.176
REMARK INTRA:                  -0.754
REMARK UNBOUND:                -0.646
REMARK SMILES C=CC(=C)CCC=C(C)C
REMARK SMILES IDX 5 1 6 2 7 3 9 4 8 5 10 6 3 7 4 8 2 9 1 10
REMARK H PARENT
REMARK Flexibility Score: inf
ROOT
ATOM      1  C   UNL     1       8.996   5.783  27.783  1.00  0.00     0.039 C 
ENDROOT
BRANCH   1   2
ATOM      2  C   UNL     1      10.084   6.866  27.811  1.00  0.00     0.032 C 
BRANCH   2   3
ATOM      3  C   UNL     1      10.833   6.959  26.504  1.00  0.00    -0.028 C 
ATOM      4  C   UNL     1      12.716   6.688  24.949  1.00  0.00     0.039 C 
ATOM      5  C   UNL     1      12.079   6.478  26.299  1.00  0.00    -0.080 C 
ATOM      6  C   UNL     1      12.840   5.740  27.374  1.00  0.00     0.039 C 
ENDBRANCH   2   3
ENDBRANCH   1   2
BRANCH   1   7
ATOM      7  C   UNL     1       9.518   4.439  28.254  1.00  0.00    -0.055 C 
ATOM      8  C   UNL     1       9.709   3.471  27.350  1.00  0.00     0.012 C 
BRANCH   7   9
ATOM      9  C   UNL     1       9.795   4.136  29.683  1.00  0.00    -0.005 C 
ATOM     10  C   UNL     1      10.973   4.315  30.281  1.00  0.00     0.009 C 
ENDBRANCH   7   9
ENDBRANCH   1   7
TORSDOF 4
ENDMDL
MODEL 8
REMARK VINA RESULT:    -4.281     14.306     15.781
REMARK INTER + INTRA:          -5.928
REMARK INTER:                  -5.154
REMARK INTRA:                  -0.774
REMARK UNBOUND:                -0.646
REMARK SMILES C=CC(=C)CCC=C(C)C
REMARK SMILES IDX 5 1 6 2 7 3 9 4 8 5 10 6 3 7 4 8 2 9 1 10
REMARK H PARENT
REMARK Flexibility Score: inf
ROOT
ATOM      1  C   UNL     1       8.039   7.872  14.426  1.00  0.00     0.039 C 
ENDROOT
BRANCH   1   2
ATOM      2  C   UNL     1       6.689   8.506  14.791  1.00  0.00     0.032 C 
BRANCH   2   3
ATOM      3  C   UNL     1       5.828   7.581  15.618  1.00  0.00    -0.028 C 
ATOM      4  C   UNL     1       3.991   6.021  16.095  1.00  0.00     0.039 C 
ATOM      5  C   UNL     1       4.788   6.867  15.135  1.00  0.00    -0.080 C 
ATOM      6  C   UNL     1       4.410   6.890  13.673  1.00  0.00     0.039 C 
ENDBRANCH   2   3
ENDBRANCH   1   2
BRANCH   1   7
ATOM      7  C   UNL     1       8.156   7.599  12.938  1.00  0.00    -0.055 C 
ATOM      8  C   UNL     1       8.414   8.622  12.116  1.00  0.00     0.012 C 
BRANCH   7   9
ATOM      9  C   UNL     1       7.961   6.248  12.348  1.00  0.00    -0.005 C 
ATOM     10  C   UNL     1       7.578   5.170  13.034  1.00  0.00     0.009 C 
ENDBRANCH   7   9
ENDBRANCH   1   7
TORSDOF 4
ENDMDL
MODEL 9
REMARK VINA RESULT:    -4.188     14.410     16.164
REMARK INTER + INTRA:          -5.813
REMARK INTER:                  -4.964
REMARK INTRA:                  -0.850
REMARK UNBOUND:                -0.646
REMARK SMILES C=CC(=C)CCC=C(C)C
REMARK SMILES IDX 5 1 6 2 7 3 9 4 8 5 10 6 3 7 4 8 2 9 1 10
REMARK H PARENT
REMARK Flexibility Score: inf
ROOT
ATOM      1  C   UNL     1       7.124   7.516  15.684  1.00  0.00     0.039 C 
ENDROOT
BRANCH   1   2
ATOM      2  C   UNL     1       8.253   7.452  14.645  1.00  0.00     0.032 C 
BRANCH   2   3
ATOM      3  C   UNL     1       7.876   6.623  13.441  1.00  0.00    -0.028 C 
ATOM      4  C   UNL     1       7.271   6.170  11.104  1.00  0.00     0.039 C 
ATOM      5  C   UNL     1       7.692   7.117  12.198  1.00  0.00    -0.080 C 
ATOM      6  C   UNL     1       7.902   8.578  11.877  1.00  0.00     0.039 C 
ENDBRANCH   2   3
ENDBRANCH   1   2
BRANCH   1   7
ATOM      7  C   UNL     1       5.990   8.420  15.238  1.00  0.00    -0.055 C 
ATOM      8  C   UNL     1       6.227   9.730  15.107  1.00  0.00     0.012 C 
BRANCH   7   9
ATOM      9  C   UNL     1       4.615   7.920  14.975  1.00  0.00    -0.005 C 
ATOM     10  C   UNL     1       4.330   6.724  14.458  1.00  0.00     0.009 C 
ENDBRANCH   7   9
ENDBRANCH   1   7
TORSDOF 4
ENDMDL
