MODEL 1
REMARK VINA RESULT:     2.422      0.000      0.000
REMARK INTER + INTRA:           3.702
REMARK INTER:                   2.563
REMARK INTRA:                   1.139
REMARK UNBOUND:                 1.139
REMARK SMILES CC1=C[C@@H]2C(=C(C)CC[C@@H]2C(C)C)CC1
REMARK SMILES IDX 1 1 2 2 3 3 4 4 10 5 9 6 8 7 6 8 5 9 14 10 15 11 7 12 11 13
REMARK SMILES IDX 12 14 13 15
REMARK H PARENT
REMARK Flexibility Score: inf
ROOT
ATOM      1  C   UNL     1     -17.246   0.954  17.792  1.00  0.00     0.039 C 
ATOM      2  C   UNL     1     -16.618  -0.238  17.123  1.00  0.00    -0.076 C 
ATOM      3  C   UNL     1     -15.291  -0.441  17.255  1.00  0.00    -0.020 C 
ATOM      4  C   UNL     1     -14.551  -1.602  16.616  1.00  0.00     0.041 C 
ATOM      5  C   UNL     1     -13.572  -2.274  17.611  1.00  0.00     0.003 C 
ATOM      6  C   UNL     1     -12.837  -3.418  16.884  1.00  0.00     0.009 C 
ATOM      7  C   UNL     1     -13.777  -4.445  16.242  1.00  0.00     0.031 C 
ATOM      8  C   UNL     1     -15.072  -3.880  15.682  1.00  0.00    -0.073 C 
ATOM      9  C   UNL     1     -15.469  -2.595  15.917  1.00  0.00    -0.064 C 
ATOM     10  C   UNL     1     -16.740  -2.012  15.329  1.00  0.00     0.036 C 
ATOM     11  C   UNL     1     -17.500  -1.232  16.402  1.00  0.00     0.035 C 
ATOM     12  C   UNL     1     -15.940  -4.848  14.916  1.00  0.00     0.039 C 
ENDROOT
BRANCH   5  13
ATOM     13  C   UNL     1     -14.162  -2.615  19.027  1.00  0.00    -0.013 C 
ATOM     14  C   UNL     1     -15.694  -2.488  19.062  1.00  0.00     0.007 C 
ATOM     15  C   UNL     1     -13.548  -1.855  20.214  1.00  0.00     0.007 C 
ENDBRANCH   5  13
TORSDOF 1
ENDMDL
MODEL 2
REMARK VINA RESULT:     2.680      1.380      3.948
REMARK INTER + INTRA:           3.975
REMARK INTER:                   3.968
REMARK INTRA:                   0.008
REMARK UNBOUND:                 1.139
REMARK SMILES CC1=C[C@@H]2C(=C(C)CC[C@@H]2C(C)C)CC1
REMARK SMILES IDX 1 1 2 2 3 3 4 4 10 5 9 6 8 7 6 8 5 9 14 10 15 11 7 12 11 13
REMARK SMILES IDX 12 14 13 15
REMARK H PARENT
REMARK Flexibility Score: inf
ROOT
ATOM      1  C   UNL     1     -14.733  -1.685  22.041  1.00  0.00     0.039 C 
ATOM      2  C   UNL     1     -14.589  -2.002  20.577  1.00  0.00    -0.076 C 
ATOM      3  C   UNL     1     -15.697  -2.102  19.815  1.00  0.00    -0.020 C 
ATOM      4  C   UNL     1     -15.671  -2.428  18.333  1.00  0.00     0.041 C 
ATOM      5  C   UNL     1     -16.613  -1.499  17.526  1.00  0.00     0.003 C 
ATOM      6  C   UNL     1     -16.558  -1.909  16.041  1.00  0.00     0.009 C 
ATOM      7  C   UNL     1     -15.141  -1.916  15.455  1.00  0.00     0.031 C 
ATOM      8  C   UNL     1     -14.043  -2.343  16.416  1.00  0.00    -0.073 C 
ATOM      9  C   UNL     1     -14.266  -2.504  17.753  1.00  0.00    -0.064 C 
ATOM     10  C   UNL     1     -13.185  -2.966  18.712  1.00  0.00     0.036 C 
ATOM     11  C   UNL     1     -13.205  -2.106  19.975  1.00  0.00     0.035 C 
ATOM     12  C   UNL     1     -12.665  -2.499  15.819  1.00  0.00     0.039 C 
ENDROOT
BRANCH   5  13
ATOM     13  C   UNL     1     -16.483   0.038  17.829  1.00  0.00    -0.013 C 
ATOM     14  C   UNL     1     -17.787   0.798  17.540  1.00  0.00     0.007 C 
ATOM     15  C   UNL     1     -15.301   0.758  17.160  1.00  0.00     0.007 C 
ENDBRANCH   5  13
TORSDOF 1
ENDMDL
