MODEL 1
REMARK VINA RESULT:    -4.552      0.000      0.000
REMARK INTER + INTRA:          -8.642
REMARK INTER:                  -7.214
REMARK INTRA:                  -1.429
REMARK UNBOUND:                -1.429
REMARK SMILES CCCCCCCCCCCC(=O)[O-]
REMARK SMILES IDX 7 1 8 2 9 3 10 4 11 5 12 6 13 7 14 8 6 9 5 10 4 11 3 12 2 13
REMARK SMILES IDX 1 14
REMARK H PARENT
REMARK Flexibility Score: inf
ROOT
ATOM      1  C   UNL     1      23.774  36.952 148.857  1.00  0.00     0.000 C 
ENDROOT
BRANCH   1   2
ATOM      2  C   UNL     1      23.968  36.353 147.458  1.00  0.00     0.000 C 
BRANCH   2   3
ATOM      3  C   UNL     1      25.335  35.669 147.337  1.00  0.00     0.000 C 
BRANCH   3   4
ATOM      4  C   UNL     1      25.908  35.339 148.724  1.00  0.00     0.006 C 
BRANCH   4   5
ATOM      5  C   UNL     1      26.060  33.829 148.945  1.00  0.00     0.053 C 
BRANCH   5   6
ATOM      6  C   UNL     1      24.731  33.142 149.024  1.00  0.00     0.041 C 
ATOM      7  O   UNL     1      23.987  33.314 150.025  1.00  0.00    -0.550 OA
ATOM      8  O   UNL     1      24.300  32.337 147.976  1.00  0.00    -0.550 OA
ENDBRANCH   5   6
ENDBRANCH   4   5
ENDBRANCH   3   4
ENDBRANCH   2   3
ENDBRANCH   1   2
BRANCH   1   9
ATOM      9  C   UNL     1      22.910  38.220 148.796  1.00  0.00     0.000 C 
BRANCH   9  10
ATOM     10  C   UNL     1      23.328  39.181 147.668  1.00  0.00    -0.000 C 
BRANCH  10  11
ATOM     11  C   UNL     1      24.269  40.321 148.097  1.00  0.00    -0.000 C 
BRANCH  11  12
ATOM     12  C   UNL     1      25.547  40.398 147.244  1.00  0.00    -0.000 C 
BRANCH  12  13
ATOM     13  C   UNL     1      26.451  39.168 147.426  1.00  0.00    -0.003 C 
ATOM     14  C   UNL     1      26.940  38.999 148.864  1.00  0.00     0.004 C 
ENDBRANCH  12  13
ENDBRANCH  11  12
ENDBRANCH  10  11
ENDBRANCH   9  10
ENDBRANCH   1   9
TORSDOF 10
ENDMDL
MODEL 2
REMARK VINA RESULT:    -4.544      3.211      5.623
REMARK INTER + INTRA:          -8.630
REMARK INTER:                  -7.642
REMARK INTRA:                  -0.988
REMARK UNBOUND:                -1.429
REMARK SMILES CCCCCCCCCCCC(=O)[O-]
REMARK SMILES IDX 7 1 8 2 9 3 10 4 11 5 12 6 13 7 14 8 6 9 5 10 4 11 3 12 2 13
REMARK SMILES IDX 1 14
REMARK H PARENT
REMARK Flexibility Score: inf
ROOT
ATOM      1  C   UNL     1      23.193  35.592 147.036  1.00  0.00     0.000 C 
ENDROOT
BRANCH   1   2
ATOM      2  C   UNL     1      23.644  36.898 147.701  1.00  0.00     0.000 C 
BRANCH   2   3
ATOM      3  C   UNL     1      25.147  37.127 147.501  1.00  0.00     0.000 C 
BRANCH   3   4
ATOM      4  C   UNL     1      25.611  38.398 148.227  1.00  0.00     0.006 C 
BRANCH   4   5
ATOM      5  C   UNL     1      25.130  39.676 147.528  1.00  0.00     0.053 C 
BRANCH   5   6
ATOM      6  C   UNL     1      24.369  40.568 148.462  1.00  0.00     0.041 C 
ATOM      7  O   UNL     1      24.278  40.276 149.683  1.00  0.00    -0.550 OA
ATOM      8  O   UNL     1      23.789  41.738 147.988  1.00  0.00    -0.550 OA
ENDBRANCH   5   6
ENDBRANCH   4   5
ENDBRANCH   3   4
ENDBRANCH   2   3
ENDBRANCH   1   2
BRANCH   1   9
ATOM      9  C   UNL     1      24.280  34.513 147.151  1.00  0.00     0.000 C 
BRANCH   9  10
ATOM     10  C   UNL     1      24.188  33.701 148.456  1.00  0.00    -0.000 C 
BRANCH  10  11
ATOM     11  C   UNL     1      25.539  33.274 149.057  1.00  0.00    -0.000 C 
BRANCH  11  12
ATOM     12  C   UNL     1      26.744  33.858 148.299  1.00  0.00    -0.000 C 
BRANCH  12  13
ATOM     13  C   UNL     1      27.890  34.262 149.239  1.00  0.00    -0.003 C 
ATOM     14  C   UNL     1      27.412  35.069 150.446  1.00  0.00     0.004 C 
ENDBRANCH  12  13
ENDBRANCH  11  12
ENDBRANCH  10  11
ENDBRANCH   9  10
ENDBRANCH   1   9
TORSDOF 10
ENDMDL
MODEL 3
REMARK VINA RESULT:    -4.507      3.582      5.667
REMARK INTER + INTRA:          -8.570
REMARK INTER:                  -7.402
REMARK INTRA:                  -1.168
REMARK UNBOUND:                -1.429
REMARK SMILES CCCCCCCCCCCC(=O)[O-]
REMARK SMILES IDX 7 1 8 2 9 3 10 4 11 5 12 6 13 7 14 8 6 9 5 10 4 11 3 12 2 13
REMARK SMILES IDX 1 14
REMARK H PARENT
REMARK Flexibility Score: inf
ROOT
ATOM      1  C   UNL     1      23.991  35.408 147.356  1.00  0.00     0.000 C 
ENDROOT
BRANCH   1   2
ATOM      2  C   UNL     1      23.872  36.610 148.302  1.00  0.00     0.000 C 
BRANCH   2   3
ATOM      3  C   UNL     1      23.574  37.896 147.522  1.00  0.00     0.000 C 
BRANCH   3   4
ATOM      4  C   UNL     1      24.745  38.885 147.627  1.00  0.00     0.006 C 
BRANCH   4   5
ATOM      5  C   UNL     1      24.698  39.707 148.922  1.00  0.00     0.053 C 
BRANCH   5   6
ATOM      6  C   UNL     1      24.214  41.103 148.678  1.00  0.00     0.041 C 
ATOM      7  O   UNL     1      23.856  41.457 147.524  1.00  0.00    -0.550 OA
ATOM      8  O   UNL     1      24.127  42.004 149.732  1.00  0.00    -0.550 OA
ENDBRANCH   5   6
ENDBRANCH   4   5
ENDBRANCH   3   4
ENDBRANCH   2   3
ENDBRANCH   1   2
BRANCH   1   9
ATOM      9  C   UNL     1      24.149  34.101 148.146  1.00  0.00     0.000 C 
BRANCH   9  10
ATOM     10  C   UNL     1      24.976  34.272 149.434  1.00  0.00    -0.000 C 
BRANCH  10  11
ATOM     11  C   UNL     1      26.502  34.202 149.245  1.00  0.00    -0.000 C 
BRANCH  11  12
ATOM     12  C   UNL     1      27.270  35.112 150.219  1.00  0.00    -0.000 C 
BRANCH  12  13
ATOM     13  C   UNL     1      27.350  36.566 149.728  1.00  0.00    -0.003 C 
ATOM     14  C   UNL     1      27.640  36.671 148.231  1.00  0.00     0.004 C 
ENDBRANCH  12  13
ENDBRANCH  11  12
ENDBRANCH  10  11
ENDBRANCH   9  10
ENDBRANCH   1   9
TORSDOF 10
ENDMDL
MODEL 4
REMARK VINA RESULT:    -4.480      2.025      4.452
REMARK INTER + INTRA:          -8.528
REMARK INTER:                  -7.387
REMARK INTRA:                  -1.141
REMARK UNBOUND:                -1.429
REMARK SMILES CCCCCCCCCCCC(=O)[O-]
REMARK SMILES IDX 7 1 8 2 9 3 10 4 11 5 12 6 13 7 14 8 6 9 5 10 4 11 3 12 2 13
REMARK SMILES IDX 1 14
REMARK H PARENT
REMARK Flexibility Score: inf
ROOT
ATOM      1  C   UNL     1      23.368  38.758 147.960  1.00  0.00     0.000 C 
ENDROOT
BRANCH   1   2
ATOM      2  C   UNL     1      24.821  39.059 147.570  1.00  0.00     0.000 C 
BRANCH   2   3
ATOM      3  C   UNL     1      25.752  38.937 148.783  1.00  0.00     0.000 C 
BRANCH   3   4
ATOM      4  C   UNL     1      26.838  37.879 148.538  1.00  0.00     0.006 C 
BRANCH   4   5
ATOM      5  C   UNL     1      27.357  37.266 149.845  1.00  0.00     0.053 C 
BRANCH   5   6
ATOM      6  C   UNL     1      27.607  35.795 149.709  1.00  0.00     0.041 C 
ATOM      7  O   UNL     1      27.943  35.310 148.596  1.00  0.00    -0.550 OA
ATOM      8  O   UNL     1      27.502  34.965 150.818  1.00  0.00    -0.550 OA
ENDBRANCH   5   6
ENDBRANCH   4   5
ENDBRANCH   3   4
ENDBRANCH   2   3
ENDBRANCH   1   2
BRANCH   1   9
ATOM      9  C   UNL     1      23.216  37.305 148.433  1.00  0.00     0.000 C 
BRANCH   9  10
ATOM     10  C   UNL     1      23.496  36.277 147.321  1.00  0.00    -0.000 C 
BRANCH  10  11
ATOM     11  C   UNL     1      24.482  35.157 147.700  1.00  0.00    -0.000 C 
BRANCH  11  12
ATOM     12  C   UNL     1      24.384  34.746 149.179  1.00  0.00    -0.000 C 
BRANCH  12  13
ATOM     13  C   UNL     1      24.482  33.225 149.375  1.00  0.00    -0.003 C 
ATOM     14  C   UNL     1      24.168  32.441 148.101  1.00  0.00     0.004 C 
ENDBRANCH  12  13
ENDBRANCH  11  12
ENDBRANCH  10  11
ENDBRANCH   9  10
ENDBRANCH   1   9
TORSDOF 10
ENDMDL
MODEL 5
REMARK VINA RESULT:    -4.474      3.283      6.082
REMARK INTER + INTRA:          -8.518
REMARK INTER:                  -7.357
REMARK INTRA:                  -1.161
REMARK UNBOUND:                -1.429
REMARK SMILES CCCCCCCCCCCC(=O)[O-]
REMARK SMILES IDX 7 1 8 2 9 3 10 4 11 5 12 6 13 7 14 8 6 9 5 10 4 11 3 12 2 13
REMARK SMILES IDX 1 14
REMARK H PARENT
REMARK Flexibility Score: inf
ROOT
ATOM      1  C   UNL     1      26.989  35.947 147.001  1.00  0.00     0.000 C 
ENDROOT
BRANCH   1   2
ATOM      2  C   UNL     1      26.206  37.159 147.524  1.00  0.00     0.000 C 
BRANCH   2   3
ATOM      3  C   UNL     1      24.695  36.928 147.408  1.00  0.00     0.000 C 
BRANCH   3   4
ATOM      4  C   UNL     1      23.927  37.811 148.403  1.00  0.00     0.006 C 
BRANCH   4   5
ATOM      5  C   UNL     1      23.368  39.078 147.744  1.00  0.00     0.053 C 
BRANCH   5   6
ATOM      6  C   UNL     1      24.269  40.257 147.953  1.00  0.00     0.041 C 
ATOM      7  O   UNL     1      25.185  40.508 147.127  1.00  0.00    -0.550 OA
ATOM      8  O   UNL     1      24.075  41.098 149.042  1.00  0.00    -0.550 OA
ENDBRANCH   5   6
ENDBRANCH   4   5
ENDBRANCH   3   4
ENDBRANCH   2   3
ENDBRANCH   1   2
BRANCH   1   9
ATOM      9  C   UNL     1      28.188  35.634 147.908  1.00  0.00     0.000 C 
BRANCH   9  10
ATOM     10  C   UNL     1      27.892  34.526 148.936  1.00  0.00    -0.000 C 
BRANCH  10  11
ATOM     11  C   UNL     1      26.582  33.751 148.702  1.00  0.00    -0.000 C 
BRANCH  11  12
ATOM     12  C   UNL     1      25.499  34.074 149.746  1.00  0.00    -0.000 C 
BRANCH  12  13
ATOM     13  C   UNL     1      24.102  33.607 149.308  1.00  0.00    -0.003 C 
ATOM     14  C   UNL     1      24.044  33.213 147.832  1.00  0.00     0.004 C 
ENDBRANCH  12  13
ENDBRANCH  11  12
ENDBRANCH  10  11
ENDBRANCH   9  10
ENDBRANCH   1   9
TORSDOF 10
ENDMDL
MODEL 6
REMARK VINA RESULT:    -4.451      1.068      2.436
REMARK INTER + INTRA:          -8.482
REMARK INTER:                  -6.822
REMARK INTRA:                  -1.660
REMARK UNBOUND:                -1.429
REMARK SMILES CCCCCCCCCCCC(=O)[O-]
REMARK SMILES IDX 7 1 8 2 9 3 10 4 11 5 12 6 13 7 14 8 6 9 5 10 4 11 3 12 2 13
REMARK SMILES IDX 1 14
REMARK H PARENT
REMARK Flexibility Score: inf
ROOT
ATOM      1  C   UNL     1      23.326  38.951 147.627  1.00  0.00     0.000 C 
ENDROOT
BRANCH   1   2
ATOM      2  C   UNL     1      23.031  38.221 148.944  1.00  0.00     0.000 C 
BRANCH   2   3
ATOM      3  C   UNL     1      23.535  36.774 148.895  1.00  0.00     0.000 C 
BRANCH   3   4
ATOM      4  C   UNL     1      23.819  36.339 147.449  1.00  0.00     0.006 C 
BRANCH   4   5
ATOM      5  C   UNL     1      24.968  35.326 147.361  1.00  0.00     0.053 C 
BRANCH   5   6
ATOM      6  C   UNL     1      24.633  34.043 148.058  1.00  0.00     0.041 C 
ATOM      7  O   UNL     1      23.612  33.387 147.723  1.00  0.00    -0.550 OA
ATOM      8  O   UNL     1      25.468  33.555 149.056  1.00  0.00    -0.550 OA
ENDBRANCH   5   6
ENDBRANCH   4   5
ENDBRANCH   3   4
ENDBRANCH   2   3
ENDBRANCH   1   2
BRANCH   1   9
ATOM      9  C   UNL     1      24.018  40.296 147.888  1.00  0.00     0.000 C 
BRANCH   9  10
ATOM     10  C   UNL     1      25.518  40.150 148.210  1.00  0.00    -0.000 C 
BRANCH  10  11
ATOM     11  C   UNL     1      26.282  39.154 147.319  1.00  0.00    -0.000 C 
BRANCH  11  12
ATOM     12  C   UNL     1      27.322  38.329 148.096  1.00  0.00    -0.000 C 
BRANCH  12  13
ATOM     13  C   UNL     1      26.835  37.944 149.503  1.00  0.00    -0.003 C 
ATOM     14  C   UNL     1      27.341  36.574 149.952  1.00  0.00     0.004 C 
ENDBRANCH  12  13
ENDBRANCH  11  12
ENDBRANCH  10  11
ENDBRANCH   9  10
ENDBRANCH   1   9
TORSDOF 10
ENDMDL
MODEL 7
REMARK VINA RESULT:    -4.425      1.511      2.207
REMARK INTER + INTRA:          -8.441
REMARK INTER:                  -7.273
REMARK INTRA:                  -1.168
REMARK UNBOUND:                -1.429
REMARK SMILES CCCCCCCCCCCC(=O)[O-]
REMARK SMILES IDX 7 1 8 2 9 3 10 4 11 5 12 6 13 7 14 8 6 9 5 10 4 11 3 12 2 13
REMARK SMILES IDX 1 14
REMARK H PARENT
REMARK Flexibility Score: inf
ROOT
ATOM      1  C   UNL     1      23.042  37.992 149.344  1.00  0.00     0.000 C 
ENDROOT
BRANCH   1   2
ATOM      2  C   UNL     1      23.575  38.321 147.943  1.00  0.00     0.000 C 
BRANCH   2   3
ATOM      3  C   UNL     1      24.388  37.152 147.375  1.00  0.00     0.000 C 
BRANCH   3   4
ATOM      4  C   UNL     1      23.589  35.842 147.444  1.00  0.00     0.006 C 
BRANCH   4   5
ATOM      5  C   UNL     1      24.477  34.608 147.237  1.00  0.00     0.053 C 
BRANCH   5   6
ATOM      6  C   UNL     1      24.307  33.609 148.340  1.00  0.00     0.041 C 
ATOM      7  O   UNL     1      24.217  33.994 149.535  1.00  0.00    -0.550 OA
ATOM      8  O   UNL     1      24.216  32.254 148.044  1.00  0.00    -0.550 OA
ENDBRANCH   5   6
ENDBRANCH   4   5
ENDBRANCH   3   4
ENDBRANCH   2   3
ENDBRANCH   1   2
BRANCH   1   9
ATOM      9  C   UNL     1      23.571  38.991 150.382  1.00  0.00     0.000 C 
BRANCH   9  10
ATOM     10  C   UNL     1      24.467  40.082 149.766  1.00  0.00    -0.000 C 
BRANCH  10  11
ATOM     11  C   UNL     1      25.684  40.486 150.617  1.00  0.00    -0.000 C 
BRANCH  11  12
ATOM     12  C   UNL     1      26.641  39.312 150.891  1.00  0.00    -0.000 C 
BRANCH  12  13
ATOM     13  C   UNL     1      27.110  38.622 149.601  1.00  0.00    -0.003 C 
ATOM     14  C   UNL     1      27.249  37.108 149.755  1.00  0.00     0.004 C 
ENDBRANCH  12  13
ENDBRANCH  11  12
ENDBRANCH  10  11
ENDBRANCH   9  10
ENDBRANCH   1   9
TORSDOF 10
ENDMDL
MODEL 8
REMARK VINA RESULT:    -4.421      2.961      5.205
REMARK INTER + INTRA:          -8.435
REMARK INTER:                  -7.331
REMARK INTRA:                  -1.104
REMARK UNBOUND:                -1.429
REMARK SMILES CCCCCCCCCCCC(=O)[O-]
REMARK SMILES IDX 7 1 8 2 9 3 10 4 11 5 12 6 13 7 14 8 6 9 5 10 4 11 3 12 2 13
REMARK SMILES IDX 1 14
REMARK H PARENT
REMARK Flexibility Score: inf
ROOT
ATOM      1  C   UNL     1      24.098  37.805 147.385  1.00  0.00     0.000 C 
ENDROOT
BRANCH   1   2
ATOM      2  C   UNL     1      25.533  38.331 147.516  1.00  0.00     0.000 C 
BRANCH   2   3
ATOM      3  C   UNL     1      26.153  37.908 148.853  1.00  0.00     0.000 C 
BRANCH   3   4
ATOM      4  C   UNL     1      26.729  39.120 149.600  1.00  0.00     0.006 C 
BRANCH   4   5
ATOM      5  C   UNL     1      25.900  39.487 150.838  1.00  0.00     0.053 C 
BRANCH   5   6
ATOM      6  C   UNL     1      24.497  39.869 150.476  1.00  0.00     0.041 C 
ATOM      7  O   UNL     1      23.548  39.071 150.694  1.00  0.00    -0.550 OA
ATOM      8  O   UNL     1      24.235  41.118 149.928  1.00  0.00    -0.550 OA
ENDBRANCH   5   6
ENDBRANCH   4   5
ENDBRANCH   3   4
ENDBRANCH   2   3
ENDBRANCH   1   2
BRANCH   1   9
ATOM      9  C   UNL     1      23.891  36.551 148.246  1.00  0.00     0.000 C 
BRANCH   9  10
ATOM     10  C   UNL     1      23.922  35.247 147.428  1.00  0.00    -0.000 C 
BRANCH  10  11
ATOM     11  C   UNL     1      24.367  33.996 148.208  1.00  0.00    -0.000 C 
BRANCH  11  12
ATOM     12  C   UNL     1      25.144  34.335 149.492  1.00  0.00    -0.000 C 
BRANCH  12  13
ATOM     13  C   UNL     1      26.667  34.300 149.284  1.00  0.00    -0.003 C 
ATOM     14  C   UNL     1      27.439  34.927 150.445  1.00  0.00     0.004 C 
ENDBRANCH  12  13
ENDBRANCH  11  12
ENDBRANCH  10  11
ENDBRANCH   9  10
ENDBRANCH   1   9
TORSDOF 10
ENDMDL
MODEL 9
REMARK VINA RESULT:    -4.358      2.292      3.183
REMARK INTER + INTRA:          -8.335
REMARK INTER:                  -7.448
REMARK INTRA:                  -0.886
REMARK UNBOUND:                -1.429
REMARK SMILES CCCCCCCCCCCC(=O)[O-]
REMARK SMILES IDX 7 1 8 2 9 3 10 4 11 5 12 6 13 7 14 8 6 9 5 10 4 11 3 12 2 13
REMARK SMILES IDX 1 14
REMARK H PARENT
REMARK Flexibility Score: inf
ROOT
ATOM      1  C   UNL     1      24.290  34.485 147.034  1.00  0.00     0.000 C 
ENDROOT
BRANCH   1   2
ATOM      2  C   UNL     1      23.930  33.294 147.932  1.00  0.00     0.000 C 
BRANCH   2   3
ATOM      3  C   UNL     1      25.085  32.953 148.881  1.00  0.00     0.000 C 
BRANCH   3   4
ATOM      4  C   UNL     1      26.302  33.849 148.610  1.00  0.00     0.006 C 
BRANCH   4   5
ATOM      5  C   UNL     1      26.635  34.754 149.803  1.00  0.00     0.053 C 
BRANCH   5   6
ATOM      6  C   UNL     1      27.381  35.982 149.378  1.00  0.00     0.041 C 
ATOM      7  O   UNL     1      27.370  37.012 150.103  1.00  0.00    -0.550 OA
ATOM      8  O   UNL     1      28.114  35.979 148.198  1.00  0.00    -0.550 OA
ENDBRANCH   5   6
ENDBRANCH   4   5
ENDBRANCH   3   4
ENDBRANCH   2   3
ENDBRANCH   1   2
BRANCH   1   9
ATOM      9  C   UNL     1      23.258  35.613 147.177  1.00  0.00     0.000 C 
BRANCH   9  10
ATOM     10  C   UNL     1      23.746  36.766 148.073  1.00  0.00    -0.000 C 
BRANCH  10  11
ATOM     11  C   UNL     1      24.730  37.743 147.402  1.00  0.00    -0.000 C 
BRANCH  11  12
ATOM     12  C   UNL     1      24.866  39.074 148.161  1.00  0.00    -0.000 C 
BRANCH  12  13
ATOM     13  C   UNL     1      25.656  40.126 147.366  1.00  0.00    -0.003 C 
ATOM     14  C   UNL     1      24.948  41.479 147.305  1.00  0.00     0.004 C 
ENDBRANCH  12  13
ENDBRANCH  11  12
ENDBRANCH  10  11
ENDBRANCH   9  10
ENDBRANCH   1   9
TORSDOF 10
ENDMDL
