MODEL 1
REMARK VINA RESULT:    -4.623      0.000      0.000
REMARK INTER + INTRA:          -6.298
REMARK INTER:                  -5.975
REMARK INTRA:                  -0.324
REMARK UNBOUND:                -0.324
REMARK SMILES CCCCCCC(=O)[O-]
REMARK SMILES IDX 5 1 6 2 7 3 8 4 9 5 4 6 3 7 2 8 1 9
REMARK H PARENT
REMARK Flexibility Score: inf
ROOT
ATOM      1  C   UNL     1      17.035  -0.622  -6.213  1.00  0.00     0.006 C 
ENDROOT
BRANCH   1   2
ATOM      2  C   UNL     1      16.945   0.104  -4.864  1.00  0.00     0.053 C 
BRANCH   2   3
ATOM      3  C   UNL     1      15.968  -0.586  -3.964  1.00  0.00     0.041 C 
ATOM      4  O   UNL     1      14.773  -0.742  -4.328  1.00  0.00    -0.550 OA
ATOM      5  O   UNL     1      16.366  -1.012  -2.703  1.00  0.00    -0.550 OA
ENDBRANCH   2   3
ENDBRANCH   1   2
BRANCH   1   6
ATOM      6  C   UNL     1      18.486  -0.872  -6.654  1.00  0.00     0.000 C 
BRANCH   6   7
ATOM      7  C   UNL     1      18.981  -2.280  -6.292  1.00  0.00    -0.000 C 
BRANCH   7   8
ATOM      8  C   UNL     1      19.723  -2.272  -4.951  1.00  0.00    -0.003 C 
ATOM      9  C   UNL     1      18.995  -3.122  -3.912  1.00  0.00     0.004 C 
ENDBRANCH   7   8
ENDBRANCH   6   7
ENDBRANCH   1   6
TORSDOF 5
ENDMDL
MODEL 2
REMARK VINA RESULT:    -4.361      1.135      2.714
REMARK INTER + INTRA:          -5.959
REMARK INTER:                  -5.660
REMARK INTRA:                  -0.299
REMARK UNBOUND:                -0.324
REMARK SMILES CCCCCCC(=O)[O-]
REMARK SMILES IDX 5 1 6 2 7 3 8 4 9 5 4 6 3 7 2 8 1 9
REMARK H PARENT
REMARK Flexibility Score: inf
ROOT
ATOM      1  C   UNL     1      18.514  -2.672  -3.819  1.00  0.00     0.006 C 
ENDROOT
BRANCH   1   2
ATOM      2  C   UNL     1      18.301  -1.509  -2.841  1.00  0.00     0.053 C 
BRANCH   2   3
ATOM      3  C   UNL     1      16.852  -1.141  -2.776  1.00  0.00     0.041 C 
ATOM      4  O   UNL     1      16.299  -0.939  -1.663  1.00  0.00    -0.550 OA
ATOM      5  O   UNL     1      16.099  -1.070  -3.942  1.00  0.00    -0.550 OA
ENDBRANCH   2   3
ENDBRANCH   1   2
BRANCH   1   6
ATOM      6  C   UNL     1      19.599  -2.372  -4.866  1.00  0.00     0.000 C 
BRANCH   6   7
ATOM      7  C   UNL     1      19.019  -2.139  -6.269  1.00  0.00    -0.000 C 
BRANCH   7   8
ATOM      8  C   UNL     1      18.939  -0.642  -6.587  1.00  0.00    -0.003 C 
ATOM      9  C   UNL     1      17.500  -0.213  -6.866  1.00  0.00     0.004 C 
ENDBRANCH   7   8
ENDBRANCH   6   7
ENDBRANCH   1   6
TORSDOF 5
ENDMDL
MODEL 3
REMARK VINA RESULT:    -4.242     10.286     12.033
REMARK INTER + INTRA:          -5.806
REMARK INTER:                  -5.531
REMARK INTRA:                  -0.275
REMARK UNBOUND:                -0.324
REMARK SMILES CCCCCCC(=O)[O-]
REMARK SMILES IDX 5 1 6 2 7 3 8 4 9 5 4 6 3 7 2 8 1 9
REMARK H PARENT
REMARK Flexibility Score: inf
ROOT
ATOM      1  C   UNL     1      28.472  -6.566  -5.078  1.00  0.00     0.006 C 
ENDROOT
BRANCH   1   2
ATOM      2  C   UNL     1      28.573  -7.873  -5.875  1.00  0.00     0.053 C 
BRANCH   2   3
ATOM      3  C   UNL     1      27.925  -7.718  -7.216  1.00  0.00     0.041 C 
ATOM      4  O   UNL     1      28.506  -8.138  -8.252  1.00  0.00    -0.550 OA
ATOM      5  O   UNL     1      26.704  -7.066  -7.327  1.00  0.00    -0.550 OA
ENDBRANCH   2   3
ENDBRANCH   1   2
BRANCH   1   6
ATOM      6  C   UNL     1      27.536  -6.684  -3.865  1.00  0.00     0.000 C 
BRANCH   6   7
ATOM      7  C   UNL     1      26.308  -5.768  -3.973  1.00  0.00    -0.000 C 
BRANCH   7   8
ATOM      8  C   UNL     1      26.549  -4.647  -4.990  1.00  0.00    -0.003 C 
ATOM      9  C   UNL     1      26.783  -3.309  -4.292  1.00  0.00     0.004 C 
ENDBRANCH   7   8
ENDBRANCH   6   7
ENDBRANCH   1   6
TORSDOF 5
ENDMDL
MODEL 4
REMARK VINA RESULT:    -4.238      2.630      4.307
REMARK INTER + INTRA:          -5.800
REMARK INTER:                  -5.572
REMARK INTRA:                  -0.228
REMARK UNBOUND:                -0.324
REMARK SMILES CCCCCCC(=O)[O-]
REMARK SMILES IDX 5 1 6 2 7 3 8 4 9 5 4 6 3 7 2 8 1 9
REMARK H PARENT
REMARK Flexibility Score: inf
ROOT
ATOM      1  C   UNL     1      18.608  -2.772  -4.020  1.00  0.00     0.006 C 
ENDROOT
BRANCH   1   2
ATOM      2  C   UNL     1      19.726  -2.223  -4.916  1.00  0.00     0.053 C 
BRANCH   2   3
ATOM      3  C   UNL     1      19.238  -2.062  -6.322  1.00  0.00     0.041 C 
ATOM      4  O   UNL     1      19.175  -3.060  -7.088  1.00  0.00    -0.550 OA
ATOM      5  O   UNL     1      18.902  -0.803  -6.801  1.00  0.00    -0.550 OA
ENDBRANCH   2   3
ENDBRANCH   1   2
BRANCH   1   6
ATOM      6  C   UNL     1      18.336  -1.879  -2.800  1.00  0.00     0.000 C 
BRANCH   6   7
ATOM      7  C   UNL     1      16.927  -1.268  -2.814  1.00  0.00    -0.000 C 
BRANCH   7   8
ATOM      8  C   UNL     1      16.701  -0.442  -4.085  1.00  0.00    -0.003 C 
ATOM      9  C   UNL     1      15.240  -0.494  -4.524  1.00  0.00     0.004 C 
ENDBRANCH   7   8
ENDBRANCH   6   7
ENDBRANCH   1   6
TORSDOF 5
ENDMDL
MODEL 5
REMARK VINA RESULT:    -4.229     10.465     11.905
REMARK INTER + INTRA:          -5.789
REMARK INTER:                  -5.524
REMARK INTRA:                  -0.265
REMARK UNBOUND:                -0.324
REMARK SMILES CCCCCCC(=O)[O-]
REMARK SMILES IDX 5 1 6 2 7 3 8 4 9 5 4 6 3 7 2 8 1 9
REMARK H PARENT
REMARK Flexibility Score: inf
ROOT
ATOM      1  C   UNL     1      27.546  -6.869  -3.993  1.00  0.00     0.006 C 
ENDROOT
BRANCH   1   2
ATOM      2  C   UNL     1      28.462  -6.643  -5.203  1.00  0.00     0.053 C 
BRANCH   2   3
ATOM      3  C   UNL     1      28.328  -7.772  -6.177  1.00  0.00     0.041 C 
ATOM      4  O   UNL     1      29.081  -8.777  -6.089  1.00  0.00    -0.550 OA
ATOM      5  O   UNL     1      27.406  -7.691  -7.213  1.00  0.00    -0.550 OA
ENDBRANCH   2   3
ENDBRANCH   1   2
BRANCH   1   6
ATOM      6  C   UNL     1      26.410  -5.838  -3.911  1.00  0.00     0.000 C 
BRANCH   6   7
ATOM      7  C   UNL     1      26.420  -4.850  -5.087  1.00  0.00    -0.000 C 
BRANCH   7   8
ATOM      8  C   UNL     1      26.663  -3.419  -4.597  1.00  0.00    -0.003 C 
ATOM      9  C   UNL     1      27.095  -3.402  -3.133  1.00  0.00     0.004 C 
ENDBRANCH   7   8
ENDBRANCH   6   7
ENDBRANCH   1   6
TORSDOF 5
ENDMDL
MODEL 6
REMARK VINA RESULT:    -4.199     10.959     12.041
REMARK INTER + INTRA:          -5.751
REMARK INTER:                  -5.363
REMARK INTRA:                  -0.387
REMARK UNBOUND:                -0.324
REMARK SMILES CCCCCCC(=O)[O-]
REMARK SMILES IDX 5 1 6 2 7 3 8 4 9 5 4 6 3 7 2 8 1 9
REMARK H PARENT
REMARK Flexibility Score: inf
ROOT
ATOM      1  C   UNL     1      27.510  -6.156  -6.902  1.00  0.00     0.006 C 
ENDROOT
BRANCH   1   2
ATOM      2  C   UNL     1      27.698  -7.668  -6.728  1.00  0.00     0.053 C 
BRANCH   2   3
ATOM      3  C   UNL     1      28.841  -7.950  -5.803  1.00  0.00     0.041 C 
ATOM      4  O   UNL     1      29.310  -9.115  -5.713  1.00  0.00    -0.550 OA
ATOM      5  O   UNL     1      29.355  -6.936  -5.005  1.00  0.00    -0.550 OA
ENDBRANCH   2   3
ENDBRANCH   1   2
BRANCH   1   6
ATOM      6  C   UNL     1      26.321  -5.611  -6.095  1.00  0.00     0.000 C 
BRANCH   6   7
ATOM      7  C   UNL     1      26.718  -4.456  -5.163  1.00  0.00    -0.000 C 
BRANCH   7   8
ATOM      8  C   UNL     1      26.741  -4.917  -3.701  1.00  0.00    -0.003 C 
ATOM      9  C   UNL     1      26.113  -6.300  -3.548  1.00  0.00     0.004 C 
ENDBRANCH   7   8
ENDBRANCH   6   7
ENDBRANCH   1   6
TORSDOF 5
ENDMDL
MODEL 7
REMARK VINA RESULT:    -4.111      1.629      3.285
REMARK INTER + INTRA:          -5.636
REMARK INTER:                  -5.226
REMARK INTRA:                  -0.410
REMARK UNBOUND:                -0.324
REMARK SMILES CCCCCCC(=O)[O-]
REMARK SMILES IDX 5 1 6 2 7 3 8 4 9 5 4 6 3 7 2 8 1 9
REMARK H PARENT
REMARK Flexibility Score: inf
ROOT
ATOM      1  C   UNL     1      18.907  -2.257  -6.103  1.00  0.00     0.006 C 
ENDROOT
BRANCH   1   2
ATOM      2  C   UNL     1      19.757  -2.165  -4.830  1.00  0.00     0.053 C 
BRANCH   2   3
ATOM      3  C   UNL     1      18.946  -1.618  -3.698  1.00  0.00     0.041 C 
ATOM      4  O   UNL     1      18.080  -2.338  -3.133  1.00  0.00    -0.550 OA
ATOM      5  O   UNL     1      19.109  -0.297  -3.299  1.00  0.00    -0.550 OA
ENDBRANCH   2   3
ENDBRANCH   1   2
BRANCH   1   6
ATOM      6  C   UNL     1      18.433  -0.882  -6.598  1.00  0.00     0.000 C 
BRANCH   6   7
ATOM      7  C   UNL     1      16.902  -0.761  -6.637  1.00  0.00    -0.000 C 
BRANCH   7   8
ATOM      8  C   UNL     1      16.407   0.257  -5.605  1.00  0.00    -0.003 C 
ATOM      9  C   UNL     1      15.502  -0.404  -4.568  1.00  0.00     0.004 C 
ENDBRANCH   7   8
ENDBRANCH   6   7
ENDBRANCH   1   6
TORSDOF 5
ENDMDL
MODEL 8
REMARK VINA RESULT:    -4.109     10.950     12.196
REMARK INTER + INTRA:          -5.633
REMARK INTER:                  -5.281
REMARK INTRA:                  -0.352
REMARK UNBOUND:                -0.324
REMARK SMILES CCCCCCC(=O)[O-]
REMARK SMILES IDX 5 1 6 2 7 3 8 4 9 5 4 6 3 7 2 8 1 9
REMARK H PARENT
REMARK Flexibility Score: inf
ROOT
ATOM      1  C   UNL     1      26.834  -5.864  -6.416  1.00  0.00     0.006 C 
ENDROOT
BRANCH   1   2
ATOM      2  C   UNL     1      26.865  -7.384  -6.213  1.00  0.00     0.053 C 
BRANCH   2   3
ATOM      3  C   UNL     1      28.110  -7.965  -6.806  1.00  0.00     0.041 C 
ATOM      4  O   UNL     1      28.317  -7.889  -8.046  1.00  0.00    -0.550 OA
ATOM      5  O   UNL     1      29.018  -8.636  -5.996  1.00  0.00    -0.550 OA
ENDBRANCH   2   3
ENDBRANCH   1   2
BRANCH   1   6
ATOM      6  C   UNL     1      26.364  -5.109  -5.163  1.00  0.00     0.000 C 
BRANCH   6   7
ATOM      7  C   UNL     1      27.135  -5.520  -3.900  1.00  0.00    -0.000 C 
BRANCH   7   8
ATOM      8  C   UNL     1      28.533  -4.891  -3.884  1.00  0.00    -0.003 C 
ATOM      9  C   UNL     1      29.619  -5.962  -3.832  1.00  0.00     0.004 C 
ENDBRANCH   7   8
ENDBRANCH   6   7
ENDBRANCH   1   6
TORSDOF 5
ENDMDL
MODEL 9
REMARK VINA RESULT:    -4.069      2.466      3.432
REMARK INTER + INTRA:          -5.582
REMARK INTER:                  -5.138
REMARK INTRA:                  -0.444
REMARK UNBOUND:                -0.324
REMARK SMILES CCCCCCC(=O)[O-]
REMARK SMILES IDX 5 1 6 2 7 3 8 4 9 5 4 6 3 7 2 8 1 9
REMARK H PARENT
REMARK Flexibility Score: inf
ROOT
ATOM      1  C   UNL     1      19.214  -2.396  -6.120  1.00  0.00     0.006 C 
ENDROOT
BRANCH   1   2
ATOM      2  C   UNL     1      18.037  -1.468  -6.446  1.00  0.00     0.053 C 
BRANCH   2   3
ATOM      3  C   UNL     1      18.481  -0.039  -6.438  1.00  0.00     0.041 C 
ATOM      4  O   UNL     1      18.003   0.768  -5.598  1.00  0.00    -0.550 OA
ATOM      5  O   UNL     1      19.385   0.414  -7.390  1.00  0.00    -0.550 OA
ENDBRANCH   2   3
ENDBRANCH   1   2
BRANCH   1   6
ATOM      6  C   UNL     1      19.711  -2.236  -4.675  1.00  0.00     0.000 C 
BRANCH   6   7
ATOM      7  C   UNL     1      18.685  -2.721  -3.639  1.00  0.00    -0.000 C 
BRANCH   7   8
ATOM      8  C   UNL     1      18.289  -1.586  -2.688  1.00  0.00    -0.003 C 
ATOM      9  C   UNL     1      16.826  -1.194  -2.875  1.00  0.00     0.004 C 
ENDBRANCH   7   8
ENDBRANCH   6   7
ENDBRANCH   1   6
TORSDOF 5
ENDMDL
