MODEL 1
REMARK VINA RESULT:    -4.183      0.000      0.000
REMARK INTER + INTRA:          -7.227
REMARK INTER:                  -6.628
REMARK INTRA:                  -0.599
REMARK UNBOUND:                -0.599
REMARK SMILES CCCCCCCCCCCC(=O)[O-]
REMARK SMILES IDX 7 1 8 2 9 3 10 4 11 5 12 6 13 7 14 8 6 9 5 10 4 11 3 12 2 13
REMARK SMILES IDX 1 14
REMARK H PARENT
REMARK Flexibility Score: inf
ROOT
ATOM      1  C   UNL     1     -16.288   4.572  30.327  1.00  0.00     0.000 C 
ENDROOT
BRANCH   1   2
ATOM      2  C   UNL     1     -16.564   5.809  31.196  1.00  0.00     0.000 C 
BRANCH   2   3
ATOM      3  C   UNL     1     -16.153   7.120  30.503  1.00  0.00     0.000 C 
BRANCH   3   4
ATOM      4  C   UNL     1     -14.992   6.926  29.515  1.00  0.00     0.006 C 
BRANCH   4   5
ATOM      5  C   UNL     1     -14.612   8.222  28.786  1.00  0.00     0.053 C 
BRANCH   5   6
ATOM      6  C   UNL     1     -13.240   8.109  28.200  1.00  0.00     0.041 C 
ATOM      7  O   UNL     1     -12.235   8.467  28.868  1.00  0.00    -0.550 OA
ATOM      8  O   UNL     1     -13.067   7.560  26.936  1.00  0.00    -0.550 OA
ENDBRANCH   5   6
ENDBRANCH   4   5
ENDBRANCH   3   4
ENDBRANCH   2   3
ENDBRANCH   1   2
BRANCH   1   9
ATOM      9  C   UNL     1     -16.922   3.291  30.898  1.00  0.00     0.000 C 
BRANCH   9  10
ATOM     10  C   UNL     1     -15.875   2.314  31.458  1.00  0.00    -0.000 C 
BRANCH  10  11
ATOM     11  C   UNL     1     -15.197   2.841  32.733  1.00  0.00    -0.000 C 
BRANCH  11  12
ATOM     12  C   UNL     1     -16.223   3.034  33.859  1.00  0.00    -0.000 C 
BRANCH  12  13
ATOM     13  C   UNL     1     -16.854   1.711  34.317  1.00  0.00    -0.003 C 
ATOM     14  C   UNL     1     -16.034   1.008  35.398  1.00  0.00     0.004 C 
ENDBRANCH  12  13
ENDBRANCH  11  12
ENDBRANCH  10  11
ENDBRANCH   9  10
ENDBRANCH   1   9
TORSDOF 10
ENDMDL
MODEL 2
REMARK VINA RESULT:    -4.105      4.115      7.507
REMARK INTER + INTRA:          -7.104
REMARK INTER:                  -6.634
REMARK INTRA:                  -0.470
REMARK UNBOUND:                -0.599
REMARK SMILES CCCCCCCCCCCC(=O)[O-]
REMARK SMILES IDX 7 1 8 2 9 3 10 4 11 5 12 6 13 7 14 8 6 9 5 10 4 11 3 12 2 13
REMARK SMILES IDX 1 14
REMARK H PARENT
REMARK Flexibility Score: inf
ROOT
ATOM      1  C   UNL     1     -16.578   4.890  29.806  1.00  0.00     0.000 C 
ENDROOT
BRANCH   1   2
ATOM      2  C   UNL     1     -16.484   3.501  30.459  1.00  0.00     0.000 C 
BRANCH   2   3
ATOM      3  C   UNL     1     -15.738   3.532  31.804  1.00  0.00     0.000 C 
BRANCH   3   4
ATOM      4  C   UNL     1     -16.655   3.209  32.994  1.00  0.00     0.006 C 
BRANCH   4   5
ATOM      5  C   UNL     1     -15.876   2.752  34.235  1.00  0.00     0.053 C 
BRANCH   5   6
ATOM      6  C   UNL     1     -16.299   1.375  34.639  1.00  0.00     0.041 C 
ATOM      7  O   UNL     1     -16.061   0.955  35.803  1.00  0.00    -0.550 OA
ATOM      8  O   UNL     1     -17.001   0.573  33.749  1.00  0.00    -0.550 OA
ENDBRANCH   5   6
ENDBRANCH   4   5
ENDBRANCH   3   4
ENDBRANCH   2   3
ENDBRANCH   1   2
BRANCH   1   9
ATOM      9  C   UNL     1     -16.354   6.035  30.810  1.00  0.00     0.000 C 
BRANCH   9  10
ATOM     10  C   UNL     1     -15.743   7.284  30.155  1.00  0.00    -0.000 C 
BRANCH  10  11
ATOM     11  C   UNL     1     -14.494   6.962  29.320  1.00  0.00    -0.000 C 
BRANCH  11  12
ATOM     12  C   UNL     1     -14.197   8.090  28.321  1.00  0.00    -0.000 C 
BRANCH  12  13
ATOM     13  C   UNL     1     -12.728   8.110  27.873  1.00  0.00    -0.003 C 
ATOM     14  C   UNL     1     -11.887   9.124  28.648  1.00  0.00     0.004 C 
ENDBRANCH  12  13
ENDBRANCH  11  12
ENDBRANCH  10  11
ENDBRANCH   9  10
ENDBRANCH   1   9
TORSDOF 10
ENDMDL
MODEL 3
REMARK VINA RESULT:    -4.064      3.778      7.364
REMARK INTER + INTRA:          -7.039
REMARK INTER:                  -6.655
REMARK INTRA:                  -0.383
REMARK UNBOUND:                -0.599
REMARK SMILES CCCCCCCCCCCC(=O)[O-]
REMARK SMILES IDX 7 1 8 2 9 3 10 4 11 5 12 6 13 7 14 8 6 9 5 10 4 11 3 12 2 13
REMARK SMILES IDX 1 14
REMARK H PARENT
REMARK Flexibility Score: inf
ROOT
ATOM      1  C   UNL     1     -15.991   4.175  32.251  1.00  0.00     0.000 C 
ENDROOT
BRANCH   1   2
ATOM      2  C   UNL     1     -16.824   3.470  33.334  1.00  0.00     0.000 C 
BRANCH   2   3
ATOM      3  C   UNL     1     -15.957   2.657  34.309  1.00  0.00     0.000 C 
BRANCH   3   4
ATOM      4  C   UNL     1     -16.357   1.173  34.357  1.00  0.00     0.006 C 
BRANCH   4   5
ATOM      5  C   UNL     1     -16.873   0.655  33.008  1.00  0.00     0.053 C 
BRANCH   5   6
ATOM      6  C   UNL     1     -15.753   0.065  32.211  1.00  0.00     0.041 C 
ATOM      7  O   UNL     1     -14.881   0.813  31.696  1.00  0.00    -0.550 OA
ATOM      8  O   UNL     1     -15.643  -1.313  32.080  1.00  0.00    -0.550 OA
ENDBRANCH   5   6
ENDBRANCH   4   5
ENDBRANCH   3   4
ENDBRANCH   2   3
ENDBRANCH   1   2
BRANCH   1   9
ATOM      9  C   UNL     1     -16.733   5.359  31.605  1.00  0.00     0.000 C 
BRANCH   9  10
ATOM     10  C   UNL     1     -16.202   5.694  30.202  1.00  0.00    -0.000 C 
BRANCH  10  11
ATOM     11  C   UNL     1     -15.691   7.139  30.094  1.00  0.00    -0.000 C 
BRANCH  11  12
ATOM     12  C   UNL     1     -14.508   7.229  29.119  1.00  0.00    -0.000 C 
BRANCH  12  13
ATOM     13  C   UNL     1     -14.042   8.675  28.887  1.00  0.00    -0.003 C 
ATOM     14  C   UNL     1     -12.931   8.778  27.842  1.00  0.00     0.004 C 
ENDBRANCH  12  13
ENDBRANCH  11  12
ENDBRANCH  10  11
ENDBRANCH   9  10
ENDBRANCH   1   9
TORSDOF 10
ENDMDL
MODEL 4
REMARK VINA RESULT:    -4.001      3.727      6.726
REMARK INTER + INTRA:          -6.939
REMARK INTER:                  -6.120
REMARK INTRA:                  -0.819
REMARK UNBOUND:                -0.599
REMARK SMILES CCCCCCCCCCCC(=O)[O-]
REMARK SMILES IDX 7 1 8 2 9 3 10 4 11 5 12 6 13 7 14 8 6 9 5 10 4 11 3 12 2 13
REMARK SMILES IDX 1 14
REMARK H PARENT
REMARK Flexibility Score: inf
ROOT
ATOM      1  C   UNL     1     -16.206   6.978  30.568  1.00  0.00     0.000 C 
ENDROOT
BRANCH   1   2
ATOM      2  C   UNL     1     -16.411   5.668  31.347  1.00  0.00     0.000 C 
BRANCH   2   3
ATOM      3  C   UNL     1     -15.426   4.567  30.917  1.00  0.00     0.000 C 
BRANCH   3   4
ATOM      4  C   UNL     1     -14.645   3.978  32.103  1.00  0.00     0.006 C 
BRANCH   4   5
ATOM      5  C   UNL     1     -14.847   2.464  32.252  1.00  0.00     0.053 C 
BRANCH   5   6
ATOM      6  C   UNL     1     -15.722   2.167  33.428  1.00  0.00     0.041 C 
ATOM      7  O   UNL     1     -16.151   3.105  34.151  1.00  0.00    -0.550 OA
ATOM      8  O   UNL     1     -16.107   0.859  33.697  1.00  0.00    -0.550 OA
ENDBRANCH   5   6
ENDBRANCH   4   5
ENDBRANCH   3   4
ENDBRANCH   2   3
ENDBRANCH   1   2
BRANCH   1   9
ATOM      9  C   UNL     1     -15.142   6.852  29.463  1.00  0.00     0.000 C 
BRANCH   9  10
ATOM     10  C   UNL     1     -14.572   8.214  29.034  1.00  0.00    -0.000 C 
BRANCH  10  11
ATOM     11  C   UNL     1     -13.326   8.079  28.145  1.00  0.00    -0.000 C 
BRANCH  11  12
ATOM     12  C   UNL     1     -12.080   7.776  28.990  1.00  0.00    -0.000 C 
BRANCH  12  13
ATOM     13  C   UNL     1     -11.661   6.300  28.917  1.00  0.00    -0.003 C 
ATOM     14  C   UNL     1     -11.705   5.605  30.278  1.00  0.00     0.004 C 
ENDBRANCH  12  13
ENDBRANCH  11  12
ENDBRANCH  10  11
ENDBRANCH   9  10
ENDBRANCH   1   9
TORSDOF 10
ENDMDL
MODEL 5
REMARK VINA RESULT:    -3.969      1.347      2.492
REMARK INTER + INTRA:          -6.888
REMARK INTER:                  -6.430
REMARK INTRA:                  -0.458
REMARK UNBOUND:                -0.599
REMARK SMILES CCCCCCCCCCCC(=O)[O-]
REMARK SMILES IDX 7 1 8 2 9 3 10 4 11 5 12 6 13 7 14 8 6 9 5 10 4 11 3 12 2 13
REMARK SMILES IDX 1 14
REMARK H PARENT
REMARK Flexibility Score: inf
ROOT
ATOM      1  C   UNL     1     -15.234   6.697  29.845  1.00  0.00     0.000 C 
ENDROOT
BRANCH   1   2
ATOM      2  C   UNL     1     -15.221   8.201  29.527  1.00  0.00     0.000 C 
BRANCH   2   3
ATOM      3  C   UNL     1     -14.380   8.533  28.283  1.00  0.00     0.000 C 
BRANCH   3   4
ATOM      4  C   UNL     1     -13.006   9.124  28.641  1.00  0.00     0.006 C 
BRANCH   4   5
ATOM      5  C   UNL     1     -11.846   8.367  27.981  1.00  0.00     0.053 C 
BRANCH   5   6
ATOM      6  C   UNL     1     -11.435   7.202  28.825  1.00  0.00     0.041 C 
ATOM      7  O   UNL     1     -10.677   7.374  29.816  1.00  0.00    -0.550 OA
ATOM      8  O   UNL     1     -11.931   5.934  28.550  1.00  0.00    -0.550 OA
ENDBRANCH   5   6
ENDBRANCH   4   5
ENDBRANCH   3   4
ENDBRANCH   2   3
ENDBRANCH   1   2
BRANCH   1   9
ATOM      9  C   UNL     1     -16.306   6.318  30.883  1.00  0.00     0.000 C 
BRANCH   9  10
ATOM     10  C   UNL     1     -16.567   4.804  30.937  1.00  0.00    -0.000 C 
BRANCH  10  11
ATOM     11  C   UNL     1     -16.857   4.305  32.361  1.00  0.00    -0.000 C 
BRANCH  11  12
ATOM     12  C   UNL     1     -15.717   3.410  32.871  1.00  0.00    -0.000 C 
BRANCH  12  13
ATOM     13  C   UNL     1     -15.983   2.861  34.280  1.00  0.00    -0.003 C 
ATOM     14  C   UNL     1     -16.878   1.622  34.274  1.00  0.00     0.004 C 
ENDBRANCH  12  13
ENDBRANCH  11  12
ENDBRANCH  10  11
ENDBRANCH   9  10
ENDBRANCH   1   9
TORSDOF 10
ENDMDL
MODEL 6
REMARK VINA RESULT:    -3.940      3.937      6.156
REMARK INTER + INTRA:          -6.841
REMARK INTER:                  -5.837
REMARK INTRA:                  -1.005
REMARK UNBOUND:                -0.599
REMARK SMILES CCCCCCCCCCCC(=O)[O-]
REMARK SMILES IDX 7 1 8 2 9 3 10 4 11 5 12 6 13 7 14 8 6 9 5 10 4 11 3 12 2 13
REMARK SMILES IDX 1 14
REMARK H PARENT
REMARK Flexibility Score: inf
ROOT
ATOM      1  C   UNL     1     -15.650   7.125  30.106  1.00  0.00     0.000 C 
ENDROOT
BRANCH   1   2
ATOM      2  C   UNL     1     -16.038   5.643  30.236  1.00  0.00     0.000 C 
BRANCH   2   3
ATOM      3  C   UNL     1     -16.576   5.295  31.634  1.00  0.00     0.000 C 
BRANCH   3   4
ATOM      4  C   UNL     1     -16.767   3.783  31.834  1.00  0.00     0.006 C 
BRANCH   4   5
ATOM      5  C   UNL     1     -16.959   3.400  33.307  1.00  0.00     0.053 C 
BRANCH   5   6
ATOM      6  C   UNL     1     -16.092   2.234  33.661  1.00  0.00     0.041 C 
ATOM      7  O   UNL     1     -15.624   1.495  32.755  1.00  0.00    -0.550 OA
ATOM      8  O   UNL     1     -15.758   1.992  34.988  1.00  0.00    -0.550 OA
ENDBRANCH   5   6
ENDBRANCH   4   5
ENDBRANCH   3   4
ENDBRANCH   2   3
ENDBRANCH   1   2
BRANCH   1   9
ATOM      9  C   UNL     1     -14.544   7.360  29.060  1.00  0.00     0.000 C 
BRANCH   9  10
ATOM     10  C   UNL     1     -13.612   6.148  28.904  1.00  0.00    -0.000 C 
BRANCH  10  11
ATOM     11  C   UNL     1     -12.162   6.463  29.304  1.00  0.00    -0.000 C 
BRANCH  11  12
ATOM     12  C   UNL     1     -11.684   5.521  30.419  1.00  0.00    -0.000 C 
BRANCH  12  13
ATOM     13  C   UNL     1     -12.239   4.097  30.267  1.00  0.00    -0.003 C 
ATOM     14  C   UNL     1     -13.105   3.671  31.453  1.00  0.00     0.004 C 
ENDBRANCH  12  13
ENDBRANCH  11  12
ENDBRANCH  10  11
ENDBRANCH   9  10
ENDBRANCH   1   9
TORSDOF 10
ENDMDL
MODEL 7
REMARK VINA RESULT:    -3.928      3.296      6.398
REMARK INTER + INTRA:          -6.823
REMARK INTER:                  -5.971
REMARK INTRA:                  -0.852
REMARK UNBOUND:                -0.599
REMARK SMILES CCCCCCCCCCCC(=O)[O-]
REMARK SMILES IDX 7 1 8 2 9 3 10 4 11 5 12 6 13 7 14 8 6 9 5 10 4 11 3 12 2 13
REMARK SMILES IDX 1 14
REMARK H PARENT
REMARK Flexibility Score: inf
ROOT
ATOM      1  C   UNL     1     -14.890   8.580  29.253  1.00  0.00     0.000 C 
ENDROOT
BRANCH   1   2
ATOM      2  C   UNL     1     -15.076   7.104  29.641  1.00  0.00     0.000 C 
BRANCH   2   3
ATOM      3  C   UNL     1     -16.280   6.887  30.573  1.00  0.00     0.000 C 
BRANCH   3   4
ATOM      4  C   UNL     1     -16.238   5.523  31.282  1.00  0.00     0.006 C 
BRANCH   4   5
ATOM      5  C   UNL     1     -14.937   4.755  31.014  1.00  0.00     0.053 C 
BRANCH   5   6
ATOM      6  C   UNL     1     -15.127   3.296  31.280  1.00  0.00     0.041 C 
ATOM      7  O   UNL     1     -14.400   2.706  32.122  1.00  0.00    -0.550 OA
ATOM      8  O   UNL     1     -16.141   2.597  30.637  1.00  0.00    -0.550 OA
ENDBRANCH   5   6
ENDBRANCH   4   5
ENDBRANCH   3   4
ENDBRANCH   2   3
ENDBRANCH   1   2
BRANCH   1   9
ATOM      9  C   UNL     1     -14.201   8.753  27.887  1.00  0.00     0.000 C 
BRANCH   9  10
ATOM     10  C   UNL     1     -12.991   7.821  27.714  1.00  0.00    -0.000 C 
BRANCH  10  11
ATOM     11  C   UNL     1     -11.656   8.526  27.999  1.00  0.00    -0.000 C 
BRANCH  11  12
ATOM     12  C   UNL     1     -11.053   8.043  29.326  1.00  0.00    -0.000 C 
BRANCH  12  13
ATOM     13  C   UNL     1     -11.415   6.584  29.643  1.00  0.00    -0.003 C 
ATOM     14  C   UNL     1     -10.487   5.958  30.684  1.00  0.00     0.004 C 
ENDBRANCH  12  13
ENDBRANCH  11  12
ENDBRANCH  10  11
ENDBRANCH   9  10
ENDBRANCH   1   9
TORSDOF 10
ENDMDL
MODEL 8
REMARK VINA RESULT:    -3.925      2.087      2.455
REMARK INTER + INTRA:          -6.818
REMARK INTER:                  -5.897
REMARK INTRA:                  -0.922
REMARK UNBOUND:                -0.599
REMARK SMILES CCCCCCCCCCCC(=O)[O-]
REMARK SMILES IDX 7 1 8 2 9 3 10 4 11 5 12 6 13 7 14 8 6 9 5 10 4 11 3 12 2 13
REMARK SMILES IDX 1 14
REMARK H PARENT
REMARK Flexibility Score: inf
ROOT
ATOM      1  C   UNL     1     -16.386   6.117  31.089  1.00  0.00     0.000 C 
ENDROOT
BRANCH   1   2
ATOM      2  C   UNL     1     -15.676   7.122  30.168  1.00  0.00     0.000 C 
BRANCH   2   3
ATOM      3  C   UNL     1     -14.779   6.434  29.124  1.00  0.00     0.000 C 
BRANCH   3   4
ATOM      4  C   UNL     1     -13.386   7.078  29.027  1.00  0.00     0.006 C 
BRANCH   4   5
ATOM      5  C   UNL     1     -12.287   6.062  28.689  1.00  0.00     0.053 C 
BRANCH   5   6
ATOM      6  C   UNL     1     -12.179   5.031  29.768  1.00  0.00     0.041 C 
ATOM      7  O   UNL     1     -11.801   5.361  30.923  1.00  0.00    -0.550 OA
ATOM      8  O   UNL     1     -12.544   3.716  29.513  1.00  0.00    -0.550 OA
ENDBRANCH   5   6
ENDBRANCH   4   5
ENDBRANCH   3   4
ENDBRANCH   2   3
ENDBRANCH   1   2
BRANCH   1   9
ATOM      9  C   UNL     1     -15.849   4.683  30.931  1.00  0.00     0.000 C 
BRANCH   9  10
ATOM     10  C   UNL     1     -14.998   4.236  32.130  1.00  0.00    -0.000 C 
BRANCH  10  11
ATOM     11  C   UNL     1     -15.074   2.721  32.375  1.00  0.00    -0.000 C 
BRANCH  11  12
ATOM     12  C   UNL     1     -16.533   2.256  32.486  1.00  0.00    -0.000 C 
BRANCH  12  13
ATOM     13  C   UNL     1     -17.068   2.327  33.924  1.00  0.00    -0.003 C 
ATOM     14  C   UNL     1     -16.332   1.384  34.876  1.00  0.00     0.004 C 
ENDBRANCH  12  13
ENDBRANCH  11  12
ENDBRANCH  10  11
ENDBRANCH   9  10
ENDBRANCH   1   9
TORSDOF 10
ENDMDL
MODEL 9
REMARK VINA RESULT:    -3.919      2.738      3.668
REMARK INTER + INTRA:          -6.809
REMARK INTER:                  -5.666
REMARK INTRA:                  -1.143
REMARK UNBOUND:                -0.599
REMARK SMILES CCCCCCCCCCCC(=O)[O-]
REMARK SMILES IDX 7 1 8 2 9 3 10 4 11 5 12 6 13 7 14 8 6 9 5 10 4 11 3 12 2 13
REMARK SMILES IDX 1 14
REMARK H PARENT
REMARK Flexibility Score: inf
ROOT
ATOM      1  C   UNL     1     -15.604   7.229  30.134  1.00  0.00     0.000 C 
ENDROOT
BRANCH   1   2
ATOM      2  C   UNL     1     -14.713   6.661  29.017  1.00  0.00     0.000 C 
BRANCH   2   3
ATOM      3  C   UNL     1     -13.246   6.505  29.455  1.00  0.00     0.000 C 
BRANCH   3   4
ATOM      4  C   UNL     1     -12.792   5.037  29.482  1.00  0.00     0.006 C 
BRANCH   4   5
ATOM      5  C   UNL     1     -12.730   4.462  30.903  1.00  0.00     0.053 C 
BRANCH   5   6
ATOM      6  C   UNL     1     -11.311   4.224  31.310  1.00  0.00     0.041 C 
ATOM      7  O   UNL     1     -10.903   3.054  31.533  1.00  0.00    -0.550 OA
ATOM      8  O   UNL     1     -10.424   5.290  31.394  1.00  0.00    -0.550 OA
ENDBRANCH   5   6
ENDBRANCH   4   5
ENDBRANCH   3   4
ENDBRANCH   2   3
ENDBRANCH   1   2
BRANCH   1   9
ATOM      9  C   UNL     1     -16.342   6.131  30.921  1.00  0.00     0.000 C 
BRANCH   9  10
ATOM     10  C   UNL     1     -16.535   4.845  30.102  1.00  0.00    -0.000 C 
BRANCH  10  11
ATOM     11  C   UNL     1     -16.504   3.580  30.972  1.00  0.00    -0.000 C 
BRANCH  11  12
ATOM     12  C   UNL     1     -16.007   3.901  32.389  1.00  0.00    -0.000 C 
BRANCH  12  13
ATOM     13  C   UNL     1     -15.380   2.685  33.086  1.00  0.00    -0.003 C 
ATOM     14  C   UNL     1     -16.202   2.196  34.278  1.00  0.00     0.004 C 
ENDBRANCH  12  13
ENDBRANCH  11  12
ENDBRANCH  10  11
ENDBRANCH   9  10
ENDBRANCH   1   9
TORSDOF 10
ENDMDL
