MODEL 1
REMARK VINA RESULT:    -5.997      0.000      0.000
REMARK INTER + INTRA:          -8.801
REMARK INTER:                  -8.101
REMARK INTRA:                  -0.699
REMARK UNBOUND:                -0.699
REMARK SMILES COc1ccc(-c2cc(=O)c3c(OC)c(OC)c(OC)c(OC)c3o2)cc1
REMARK SMILES IDX 7 1 8 2 9 3 10 4 11 5 24 6 25 7 21 8 18 9 15 10 12 11 6 12
REMARK SMILES IDX 3 13 4 14 27 15 5 16 26 17 2 18 1 19 22 20 23 21 13 22 14 23
REMARK SMILES IDX 19 24 20 25 16 26 17 27
REMARK H PARENT
REMARK Flexibility Score: inf
ROOT
ATOM      1  C   UNL     1     127.851 129.310 113.652  1.00  0.00     0.138 A 
ATOM      2  C   UNL     1     128.540 128.439 112.796  1.00  0.00     0.100 A 
ATOM      3  C   UNL     1     128.223 128.422 111.438  1.00  0.00     0.197 A 
ATOM      4  O   UNL     1     128.853 127.637 110.678  1.00  0.00    -0.289 OA
ATOM      5  C   UNL     1     127.220 129.283 110.943  1.00  0.00     0.115 A 
ATOM      6  C   UNL     1     126.578 130.137 111.864  1.00  0.00     0.188 A 
ATOM      7  O   UNL     1     126.918 130.114 113.151  1.00  0.00    -0.452 OA
ATOM      8  C   UNL     1     125.568 131.015 111.450  1.00  0.00     0.209 A 
ATOM      9  C   UNL     1     125.196 131.072 110.083  1.00  0.00     0.211 A 
ATOM     10  C   UNL     1     125.872 130.246 109.147  1.00  0.00     0.208 A 
ATOM     11  C   UNL     1     126.833 129.311 109.588  1.00  0.00     0.179 A 
ENDROOT
BRANCH   1  12
ATOM     12  C   UNL     1     128.143 129.377 115.107  1.00  0.00     0.018 A 
ATOM     13  C   UNL     1     128.636 129.480 117.886  1.00  0.00     0.118 A 
ATOM     14  C   UNL     1     127.329 129.544 117.395  1.00  0.00     0.047 A 
ATOM     15  C   UNL     1     129.704 129.355 116.979  1.00  0.00     0.047 A 
ATOM     16  C   UNL     1     127.081 129.489 116.020  1.00  0.00     0.016 A 
ATOM     17  C   UNL     1     129.458 129.300 115.603  1.00  0.00     0.016 A 
BRANCH  13  18
ATOM     18  O   UNL     1     128.831 129.540 119.274  1.00  0.00    -0.497 OA
ATOM     19  C   UNL     1     129.981 129.040 119.947  1.00  0.00     0.278 C 
ENDBRANCH  13  18
ENDBRANCH   1  12
BRANCH   8  20
ATOM     20  O   UNL     1     124.979 131.805 112.459  1.00  0.00    -0.490 OA
ATOM     21  C   UNL     1     123.733 131.578 113.108  1.00  0.00     0.278 C 
ENDBRANCH   8  20
BRANCH  11  22
ATOM     22  O   UNL     1     127.394 128.398 108.687  1.00  0.00    -0.492 OA
ATOM     23  C   UNL     1     126.671 127.274 108.196  1.00  0.00     0.278 C 
ENDBRANCH  11  22
BRANCH   9  24
ATOM     24  O   UNL     1     124.172 131.960 109.704  1.00  0.00    -0.490 OA
ATOM     25  C   UNL     1     122.796 131.655 109.504  1.00  0.00     0.279 C 
ENDBRANCH   9  24
BRANCH  10  26
ATOM     26  O   UNL     1     125.597 130.367 107.781  1.00  0.00    -0.490 OA
ATOM     27  C   UNL     1     126.288 131.283 106.936  1.00  0.00     0.278 C 
ENDBRANCH  10  26
TORSDOF 6
ENDMDL
MODEL 2
REMARK VINA RESULT:    -5.460      1.673      4.238
REMARK INTER + INTRA:          -8.075
REMARK INTER:                  -7.353
REMARK INTRA:                  -0.722
REMARK UNBOUND:                -0.699
REMARK SMILES COc1ccc(-c2cc(=O)c3c(OC)c(OC)c(OC)c(OC)c3o2)cc1
REMARK SMILES IDX 7 1 8 2 9 3 10 4 11 5 24 6 25 7 21 8 18 9 15 10 12 11 6 12
REMARK SMILES IDX 3 13 4 14 27 15 5 16 26 17 2 18 1 19 22 20 23 21 13 22 14 23
REMARK SMILES IDX 19 24 20 25 16 26 17 27
REMARK H PARENT
REMARK Flexibility Score: inf
ROOT
ATOM      1  C   UNL     1     127.869 129.272 113.670  1.00  0.00     0.138 A 
ATOM      2  C   UNL     1     126.917 130.083 113.036  1.00  0.00     0.100 A 
ATOM      3  C   UNL     1     126.740 129.977 111.656  1.00  0.00     0.197 A 
ATOM      4  O   UNL     1     125.878 130.709 111.098  1.00  0.00    -0.289 OA
ATOM      5  C   UNL     1     127.514 129.055 110.920  1.00  0.00     0.115 A 
ATOM      6  C   UNL     1     128.445 128.268 111.630  1.00  0.00     0.188 A 
ATOM      7  O   UNL     1     128.575 128.408 112.947  1.00  0.00    -0.452 OA
ATOM      8  C   UNL     1     129.254 127.335 110.969  1.00  0.00     0.209 A 
ATOM      9  C   UNL     1     129.125 127.154 109.569  1.00  0.00     0.211 A 
ATOM     10  C   UNL     1     128.158 127.913 108.859  1.00  0.00     0.208 A 
ATOM     11  C   UNL     1     127.404 128.904 109.523  1.00  0.00     0.179 A 
ENDROOT
BRANCH   1  12
ATOM     12  C   UNL     1     128.104 129.335 115.136  1.00  0.00     0.018 A 
ATOM     13  C   UNL     1     128.614 129.480 117.910  1.00  0.00     0.118 A 
ATOM     14  C   UNL     1     129.667 129.347 117.001  1.00  0.00     0.047 A 
ATOM     15  C   UNL     1     127.294 129.550 117.424  1.00  0.00     0.047 A 
ATOM     16  C   UNL     1     129.419 129.280 115.627  1.00  0.00     0.016 A 
ATOM     17  C   UNL     1     127.044 129.483 116.050  1.00  0.00     0.016 A 
BRANCH  13  18
ATOM     18  O   UNL     1     128.915 129.542 119.278  1.00  0.00    -0.497 OA
ATOM     19  C   UNL     1     130.070 128.962 119.875  1.00  0.00     0.278 C 
ENDBRANCH  13  18
ENDBRANCH   1  12
BRANCH   8  20
ATOM     20  O   UNL     1     130.164 126.620 111.774  1.00  0.00    -0.490 OA
ATOM     21  C   UNL     1     131.552 126.887 111.943  1.00  0.00     0.278 C 
ENDBRANCH   8  20
BRANCH  11  22
ATOM     22  O   UNL     1     126.555 129.748 108.798  1.00  0.00    -0.492 OA
ATOM     23  C   UNL     1     127.053 130.799 107.975  1.00  0.00     0.278 C 
ENDBRANCH  11  22
BRANCH   9  24
ATOM     24  O   UNL     1     129.960 126.213 108.935  1.00  0.00    -0.490 OA
ATOM     25  C   UNL     1     129.724 124.818 108.779  1.00  0.00     0.279 C 
ENDBRANCH   9  24
BRANCH  10  26
ATOM     26  O   UNL     1     127.939 127.670 107.498  1.00  0.00    -0.490 OA
ATOM     27  C   UNL     1     126.976 126.729 107.030  1.00  0.00     0.278 C 
ENDBRANCH  10  26
TORSDOF 6
ENDMDL
MODEL 3
REMARK VINA RESULT:    -5.388      2.898      5.354
REMARK INTER + INTRA:          -7.977
REMARK INTER:                  -7.382
REMARK INTRA:                  -0.595
REMARK UNBOUND:                -0.699
REMARK SMILES COc1ccc(-c2cc(=O)c3c(OC)c(OC)c(OC)c(OC)c3o2)cc1
REMARK SMILES IDX 7 1 8 2 9 3 10 4 11 5 24 6 25 7 21 8 18 9 15 10 12 11 6 12
REMARK SMILES IDX 3 13 4 14 27 15 5 16 26 17 2 18 1 19 22 20 23 21 13 22 14 23
REMARK SMILES IDX 19 24 20 25 16 26 17 27
REMARK H PARENT
REMARK Flexibility Score: inf
ROOT
ATOM      1  C   UNL     1     128.847 129.047 113.663  1.00  0.00     0.138 A 
ATOM      2  C   UNL     1     127.881 129.331 112.687  1.00  0.00     0.100 A 
ATOM      3  C   UNL     1     128.193 129.139 111.341  1.00  0.00     0.197 A 
ATOM      4  O   UNL     1     127.315 129.393 110.473  1.00  0.00    -0.289 OA
ATOM      5  C   UNL     1     129.471 128.659 110.981  1.00  0.00     0.115 A 
ATOM      6  C   UNL     1     130.386 128.388 112.020  1.00  0.00     0.188 A 
ATOM      7  O   UNL     1     130.038 128.588 113.289  1.00  0.00    -0.452 OA
ATOM      8  C   UNL     1     131.674 127.917 111.742  1.00  0.00     0.209 A 
ATOM      9  C   UNL     1     132.067 127.679 110.400  1.00  0.00     0.211 A 
ATOM     10  C   UNL     1     131.133 127.908 109.356  1.00  0.00     0.208 A 
ATOM     11  C   UNL     1     129.866 128.457 109.643  1.00  0.00     0.179 A 
ENDROOT
BRANCH   1  12
ATOM     12  C   UNL     1     128.575 129.228 115.113  1.00  0.00     0.018 A 
ATOM     13  C   UNL     1     128.121 129.602 117.875  1.00  0.00     0.118 A 
ATOM     14  C   UNL     1     129.424 129.535 117.373  1.00  0.00     0.047 A 
ATOM     15  C   UNL     1     127.037 129.490 116.984  1.00  0.00     0.047 A 
ATOM     16  C   UNL     1     129.653 129.355 116.006  1.00  0.00     0.016 A 
ATOM     17  C   UNL     1     127.264 129.309 115.617  1.00  0.00     0.016 A 
BRANCH  13  18
ATOM     18  O   UNL     1     127.945 129.784 119.255  1.00  0.00    -0.497 OA
ATOM     19  C   UNL     1     128.885 129.382 120.245  1.00  0.00     0.278 C 
ENDBRANCH  13  18
ENDBRANCH   1  12
BRANCH   8  20
ATOM     20  O   UNL     1     132.512 127.702 112.856  1.00  0.00    -0.490 OA
ATOM     21  C   UNL     1     133.104 126.472 113.260  1.00  0.00     0.278 C 
ENDBRANCH   8  20
BRANCH  11  22
ATOM     22  O   UNL     1     129.000 128.817 108.602  1.00  0.00    -0.492 OA
ATOM     23  C   UNL     1     129.221 129.971 107.797  1.00  0.00     0.278 C 
ENDBRANCH  11  22
BRANCH   9  24
ATOM     24  O   UNL     1     133.373 127.212 110.157  1.00  0.00    -0.490 OA
ATOM     25  C   UNL     1     134.548 127.995 109.974  1.00  0.00     0.279 C 
ENDBRANCH   9  24
BRANCH  10  26
ATOM     26  O   UNL     1     131.464 127.576 108.037  1.00  0.00    -0.490 OA
ATOM     27  C   UNL     1     131.262 126.272 107.499  1.00  0.00     0.278 C 
ENDBRANCH  10  26
TORSDOF 6
ENDMDL
MODEL 4
REMARK VINA RESULT:    -5.267      1.505      2.102
REMARK INTER + INTRA:          -7.814
REMARK INTER:                  -7.161
REMARK INTRA:                  -0.653
REMARK UNBOUND:                -0.699
REMARK SMILES COc1ccc(-c2cc(=O)c3c(OC)c(OC)c(OC)c(OC)c3o2)cc1
REMARK SMILES IDX 7 1 8 2 9 3 10 4 11 5 24 6 25 7 21 8 18 9 15 10 12 11 6 12
REMARK SMILES IDX 3 13 4 14 27 15 5 16 26 17 2 18 1 19 22 20 23 21 13 22 14 23
REMARK SMILES IDX 19 24 20 25 16 26 17 27
REMARK H PARENT
REMARK Flexibility Score: inf
ROOT
ATOM      1  C   UNL     1     128.627 129.146 113.748  1.00  0.00     0.138 A 
ATOM      2  C   UNL     1     129.812 128.597 113.237  1.00  0.00     0.100 A 
ATOM      3  C   UNL     1     129.980 128.500 111.855  1.00  0.00     0.197 A 
ATOM      4  O   UNL     1     131.051 128.009 111.408  1.00  0.00    -0.289 OA
ATOM      5  C   UNL     1     128.960 128.958 110.993  1.00  0.00     0.115 A 
ATOM      6  C   UNL     1     127.801 129.505 111.582  1.00  0.00     0.188 A 
ATOM      7  O   UNL     1     127.691 129.575 112.907  1.00  0.00    -0.452 OA
ATOM      8  C   UNL     1     126.744 129.974 110.793  1.00  0.00     0.209 A 
ATOM      9  C   UNL     1     126.841 129.927 109.379  1.00  0.00     0.211 A 
ATOM     10  C   UNL     1     128.024 129.418 108.784  1.00  0.00     0.208 A 
ATOM     11  C   UNL     1     129.050 128.877 109.589  1.00  0.00     0.179 A 
ENDROOT
BRANCH   1  12
ATOM     12  C   UNL     1     128.389 129.279 115.209  1.00  0.00     0.018 A 
ATOM     13  C   UNL     1     127.999 129.559 117.992  1.00  0.00     0.118 A 
ATOM     14  C   UNL     1     129.289 129.456 117.463  1.00  0.00     0.047 A 
ATOM     15  C   UNL     1     126.896 129.530 117.118  1.00  0.00     0.047 A 
ATOM     16  C   UNL     1     129.486 129.322 116.086  1.00  0.00     0.016 A 
ATOM     17  C   UNL     1     127.091 129.395 115.740  1.00  0.00     0.016 A 
BRANCH  13  18
ATOM     18  O   UNL     1     127.855 129.691 119.380  1.00  0.00    -0.497 OA
ATOM     19  C   UNL     1     128.862 129.356 120.330  1.00  0.00     0.278 C 
ENDBRANCH  13  18
ENDBRANCH   1  12
BRANCH   8  20
ATOM     20  O   UNL     1     125.626 130.479 111.488  1.00  0.00    -0.490 OA
ATOM     21  C   UNL     1     125.311 131.846 111.729  1.00  0.00     0.278 C 
ENDBRANCH   8  20
BRANCH  11  22
ATOM     22  O   UNL     1     130.151 128.246 108.998  1.00  0.00    -0.492 OA
ATOM     23  C   UNL     1     130.079 126.921 108.481  1.00  0.00     0.278 C 
ENDBRANCH  11  22
BRANCH   9  24
ATOM     24  O   UNL     1     125.755 130.400 108.617  1.00  0.00    -0.490 OA
ATOM     25  C   UNL     1     124.609 129.665 108.200  1.00  0.00     0.279 C 
ENDBRANCH   9  24
BRANCH  10  26
ATOM     26  O   UNL     1     128.184 129.465 107.395  1.00  0.00    -0.490 OA
ATOM     27  C   UNL     1     128.985 130.449 106.745  1.00  0.00     0.278 C 
ENDBRANCH  10  26
TORSDOF 6
ENDMDL
MODEL 5
REMARK VINA RESULT:    -5.037      2.730      5.200
REMARK INTER + INTRA:          -7.503
REMARK INTER:                  -6.935
REMARK INTRA:                  -0.568
REMARK UNBOUND:                -0.699
REMARK SMILES COc1ccc(-c2cc(=O)c3c(OC)c(OC)c(OC)c(OC)c3o2)cc1
REMARK SMILES IDX 7 1 8 2 9 3 10 4 11 5 24 6 25 7 21 8 18 9 15 10 12 11 6 12
REMARK SMILES IDX 3 13 4 14 27 15 5 16 26 17 2 18 1 19 22 20 23 21 13 22 14 23
REMARK SMILES IDX 19 24 20 25 16 26 17 27
REMARK H PARENT
REMARK Flexibility Score: inf
ROOT
ATOM      1  C   UNL     1     125.939 130.838 112.173  1.00  0.00     0.138 A 
ATOM      2  C   UNL     1     125.035 131.205 113.180  1.00  0.00     0.100 A 
ATOM      3  C   UNL     1     123.784 131.710 112.824  1.00  0.00     0.197 A 
ATOM      4  O   UNL     1     122.978 132.032 113.739  1.00  0.00    -0.289 OA
ATOM      5  C   UNL     1     123.444 131.841 111.461  1.00  0.00     0.115 A 
ATOM      6  C   UNL     1     124.403 131.443 110.506  1.00  0.00     0.188 A 
ATOM      7  O   UNL     1     125.583 130.967 110.898  1.00  0.00    -0.452 OA
ATOM      8  C   UNL     1     124.143 131.548 109.134  1.00  0.00     0.209 A 
ATOM      9  C   UNL     1     122.889 132.037 108.688  1.00  0.00     0.211 A 
ATOM     10  C   UNL     1     121.905 132.396 109.646  1.00  0.00     0.208 A 
ATOM     11  C   UNL     1     122.208 132.358 111.024  1.00  0.00     0.179 A 
ENDROOT
BRANCH   1  12
ATOM     12  C   UNL     1     127.285 130.292 112.486  1.00  0.00     0.018 A 
ATOM     13  C   UNL     1     129.814 129.209 113.124  1.00  0.00     0.118 A 
ATOM     14  C   UNL     1     128.748 129.097 114.021  1.00  0.00     0.047 A 
ATOM     15  C   UNL     1     129.609 129.861 111.894  1.00  0.00     0.047 A 
ATOM     16  C   UNL     1     127.494 129.627 113.707  1.00  0.00     0.016 A 
ATOM     17  C   UNL     1     128.355 130.393 111.578  1.00  0.00     0.016 A 
BRANCH  13  18
ATOM     18  O   UNL     1     131.053 128.660 113.487  1.00  0.00    -0.497 OA
ATOM     19  C   UNL     1     131.839 127.822 112.648  1.00  0.00     0.278 C 
ENDBRANCH  13  18
ENDBRANCH   1  12
BRANCH   8  20
ATOM     20  O   UNL     1     125.182 131.144 108.271  1.00  0.00    -0.490 OA
ATOM     21  C   UNL     1     125.297 129.897 107.593  1.00  0.00     0.278 C 
ENDBRANCH   8  20
BRANCH  11  22
ATOM     22  O   UNL     1     121.290 132.847 111.961  1.00  0.00    -0.492 OA
ATOM     23  C   UNL     1     120.080 132.161 112.267  1.00  0.00     0.278 C 
ENDBRANCH  11  22
BRANCH   9  24
ATOM     24  O   UNL     1     122.664 132.137 107.301  1.00  0.00    -0.490 OA
ATOM     25  C   UNL     1     122.966 133.243 106.456  1.00  0.00     0.279 C 
ENDBRANCH   9  24
BRANCH  10  26
ATOM     26  O   UNL     1     120.626 132.774 109.226  1.00  0.00    -0.490 OA
ATOM     27  C   UNL     1     120.275 134.128 108.951  1.00  0.00     0.278 C 
ENDBRANCH  10  26
TORSDOF 6
ENDMDL
MODEL 6
REMARK VINA RESULT:    -5.036      4.967      7.820
REMARK INTER + INTRA:          -7.501
REMARK INTER:                  -6.794
REMARK INTRA:                  -0.707
REMARK UNBOUND:                -0.699
REMARK SMILES COc1ccc(-c2cc(=O)c3c(OC)c(OC)c(OC)c(OC)c3o2)cc1
REMARK SMILES IDX 7 1 8 2 9 3 10 4 11 5 24 6 25 7 21 8 18 9 15 10 12 11 6 12
REMARK SMILES IDX 3 13 4 14 27 15 5 16 26 17 2 18 1 19 22 20 23 21 13 22 14 23
REMARK SMILES IDX 19 24 20 25 16 26 17 27
REMARK H PARENT
REMARK Flexibility Score: inf
ROOT
ATOM      1  C   UNL     1     125.950 134.312 110.892  1.00  0.00     0.138 A 
ATOM      2  C   UNL     1     126.029 135.668 110.542  1.00  0.00     0.100 A 
ATOM      3  C   UNL     1     127.227 136.176 110.041  1.00  0.00     0.197 A 
ATOM      4  O   UNL     1     127.283 137.395 109.726  1.00  0.00    -0.289 OA
ATOM      5  C   UNL     1     128.340 135.321 109.888  1.00  0.00     0.115 A 
ATOM      6  C   UNL     1     128.181 133.968 110.254  1.00  0.00     0.188 A 
ATOM      7  O   UNL     1     127.015 133.533 110.727  1.00  0.00    -0.452 OA
ATOM      8  C   UNL     1     129.241 133.060 110.137  1.00  0.00     0.209 A 
ATOM      9  C   UNL     1     130.489 133.492 109.621  1.00  0.00     0.211 A 
ATOM     10  C   UNL     1     130.638 134.843 109.210  1.00  0.00     0.208 A 
ATOM     11  C   UNL     1     129.587 135.765 109.406  1.00  0.00     0.179 A 
ENDROOT
BRANCH   1  12
ATOM     12  C   UNL     1     124.703 133.710 111.429  1.00  0.00     0.018 A 
ATOM     13  C   UNL     1     122.312 132.549 112.385  1.00  0.00     0.118 A 
ATOM     14  C   UNL     1     122.384 133.053 111.084  1.00  0.00     0.047 A 
ATOM     15  C   UNL     1     123.449 132.618 113.211  1.00  0.00     0.047 A 
ATOM     16  C   UNL     1     123.567 133.624 110.605  1.00  0.00     0.016 A 
ATOM     17  C   UNL     1     124.634 133.189 112.735  1.00  0.00     0.016 A 
BRANCH  13  18
ATOM     18  O   UNL     1     121.102 131.987 112.818  1.00  0.00    -0.497 OA
ATOM     19  C   UNL     1     119.877 132.062 112.097  1.00  0.00     0.278 C 
ENDBRANCH  13  18
ENDBRANCH   1  12
BRANCH   8  20
ATOM     20  O   UNL     1     128.977 131.739 110.553  1.00  0.00    -0.490 OA
ATOM     21  C   UNL     1     129.386 131.125 111.770  1.00  0.00     0.278 C 
ENDBRANCH   8  20
BRANCH  11  22
ATOM     22  O   UNL     1     129.783 137.125 109.134  1.00  0.00    -0.492 OA
ATOM     23  C   UNL     1     130.557 137.964 109.986  1.00  0.00     0.278 C 
ENDBRANCH  11  22
BRANCH   9  24
ATOM     24  O   UNL     1     131.535 132.554 109.525  1.00  0.00    -0.490 OA
ATOM     25  C   UNL     1     131.795 131.660 108.448  1.00  0.00     0.279 C 
ENDBRANCH   9  24
BRANCH  10  26
ATOM     26  O   UNL     1     131.824 135.261 108.597  1.00  0.00    -0.490 OA
ATOM     27  C   UNL     1     132.026 135.195 107.188  1.00  0.00     0.278 C 
ENDBRANCH  10  26
TORSDOF 6
ENDMDL
MODEL 7
REMARK VINA RESULT:    -4.991      4.062      6.585
REMARK INTER + INTRA:          -7.441
REMARK INTER:                  -6.848
REMARK INTRA:                  -0.594
REMARK UNBOUND:                -0.699
REMARK SMILES COc1ccc(-c2cc(=O)c3c(OC)c(OC)c(OC)c(OC)c3o2)cc1
REMARK SMILES IDX 7 1 8 2 9 3 10 4 11 5 24 6 25 7 21 8 18 9 15 10 12 11 6 12
REMARK SMILES IDX 3 13 4 14 27 15 5 16 26 17 2 18 1 19 22 20 23 21 13 22 14 23
REMARK SMILES IDX 19 24 20 25 16 26 17 27
REMARK H PARENT
REMARK Flexibility Score: inf
ROOT
ATOM      1  C   UNL     1     125.448 131.978 111.536  1.00  0.00     0.138 A 
ATOM      2  C   UNL     1     126.189 130.825 111.833  1.00  0.00     0.100 A 
ATOM      3  C   UNL     1     127.539 130.773 111.485  1.00  0.00     0.197 A 
ATOM      4  O   UNL     1     128.196 129.733 111.761  1.00  0.00    -0.289 OA
ATOM      5  C   UNL     1     128.140 131.878 110.845  1.00  0.00     0.115 A 
ATOM      6  C   UNL     1     127.332 133.005 110.587  1.00  0.00     0.188 A 
ATOM      7  O   UNL     1     126.048 133.004 110.940  1.00  0.00    -0.452 OA
ATOM      8  C   UNL     1     127.853 134.137 109.950  1.00  0.00     0.209 A 
ATOM      9  C   UNL     1     129.221 134.172 109.578  1.00  0.00     0.211 A 
ATOM     10  C   UNL     1     130.048 133.058 109.876  1.00  0.00     0.208 A 
ATOM     11  C   UNL     1     129.492 131.893 110.448  1.00  0.00     0.179 A 
ENDROOT
BRANCH   1  12
ATOM     12  C   UNL     1     124.008 132.097 111.882  1.00  0.00     0.018 A 
ATOM     13  C   UNL     1     121.255 132.286 112.484  1.00  0.00     0.118 A 
ATOM     14  C   UNL     1     121.681 132.092 111.168  1.00  0.00     0.047 A 
ATOM     15  C   UNL     1     122.215 132.376 113.509  1.00  0.00     0.047 A 
ATOM     16  C   UNL     1     123.042 131.993 110.866  1.00  0.00     0.016 A 
ATOM     17  C   UNL     1     123.578 132.278 113.210  1.00  0.00     0.016 A 
BRANCH  13  18
ATOM     18  O   UNL     1     119.878 132.379 112.734  1.00  0.00    -0.497 OA
ATOM     19  C   UNL     1     118.876 131.703 111.982  1.00  0.00     0.278 C 
ENDBRANCH  13  18
ENDBRANCH   1  12
BRANCH   8  20
ATOM     20  O   UNL     1     126.950 135.195 109.722  1.00  0.00    -0.490 OA
ATOM     21  C   UNL     1     126.258 135.487 108.513  1.00  0.00     0.278 C 
ENDBRANCH   8  20
BRANCH  11  22
ATOM     22  O   UNL     1     130.276 130.744 110.610  1.00  0.00    -0.492 OA
ATOM     23  C   UNL     1     130.551 129.855 109.531  1.00  0.00     0.278 C 
ENDBRANCH  11  22
BRANCH   9  24
ATOM     24  O   UNL     1     129.710 135.324 108.932  1.00  0.00    -0.490 OA
ATOM     25  C   UNL     1     130.208 136.510 109.543  1.00  0.00     0.279 C 
ENDBRANCH   9  24
BRANCH  10  26
ATOM     26  O   UNL     1     131.421 133.117 109.617  1.00  0.00    -0.490 OA
ATOM     27  C   UNL     1     131.967 132.940 108.312  1.00  0.00     0.278 C 
ENDBRANCH  10  26
TORSDOF 6
ENDMDL
MODEL 8
REMARK VINA RESULT:    -4.979      2.273      7.227
REMARK INTER + INTRA:          -7.424
REMARK INTER:                  -6.949
REMARK INTRA:                  -0.476
REMARK UNBOUND:                -0.699
REMARK SMILES COc1ccc(-c2cc(=O)c3c(OC)c(OC)c(OC)c(OC)c3o2)cc1
REMARK SMILES IDX 7 1 8 2 9 3 10 4 11 5 24 6 25 7 21 8 18 9 15 10 12 11 6 12
REMARK SMILES IDX 3 13 4 14 27 15 5 16 26 17 2 18 1 19 22 20 23 21 13 22 14 23
REMARK SMILES IDX 19 24 20 25 16 26 17 27
REMARK H PARENT
REMARK Flexibility Score: inf
ROOT
ATOM      1  C   UNL     1     124.670 131.239 112.172  1.00  0.00     0.138 A 
ATOM      2  C   UNL     1     124.959 130.904 113.503  1.00  0.00     0.100 A 
ATOM      3  C   UNL     1     126.187 130.316 113.808  1.00  0.00     0.197 A 
ATOM      4  O   UNL     1     126.437 130.023 115.009  1.00  0.00    -0.289 OA
ATOM      5  C   UNL     1     127.121 130.071 112.778  1.00  0.00     0.115 A 
ATOM      6  C   UNL     1     126.762 130.444 111.467  1.00  0.00     0.188 A 
ATOM      7  O   UNL     1     125.577 131.002 111.228  1.00  0.00    -0.452 OA
ATOM      8  C   UNL     1     127.632 130.227 110.391  1.00  0.00     0.209 A 
ATOM      9  C   UNL     1     128.906 129.649 110.617  1.00  0.00     0.211 A 
ATOM     10  C   UNL     1     129.288 129.315 111.943  1.00  0.00     0.208 A 
ATOM     11  C   UNL     1     128.373 129.466 113.006  1.00  0.00     0.179 A 
ENDROOT
BRANCH   1  12
ATOM     12  C   UNL     1     123.382 131.869 111.783  1.00  0.00     0.018 A 
ATOM     13  C   UNL     1     120.953 133.063 110.975  1.00  0.00     0.118 A 
ATOM     14  C   UNL     1     122.094 133.164 110.174  1.00  0.00     0.047 A 
ATOM     15  C   UNL     1     121.028 132.350 112.187  1.00  0.00     0.047 A 
ATOM     16  C   UNL     1     123.296 132.570 110.568  1.00  0.00     0.016 A 
ATOM     17  C   UNL     1     122.230 131.756 112.583  1.00  0.00     0.016 A 
BRANCH  13  18
ATOM     18  O   UNL     1     119.772 133.676 110.536  1.00  0.00    -0.497 OA
ATOM     19  C   UNL     1     119.019 133.255 109.404  1.00  0.00     0.278 C 
ENDBRANCH  13  18
ENDBRANCH   1  12
BRANCH   8  20
ATOM     20  O   UNL     1     127.160 130.617 109.121  1.00  0.00    -0.490 OA
ATOM     21  C   UNL     1     126.601 129.776 108.118  1.00  0.00     0.278 C 
ENDBRANCH   8  20
BRANCH  11  22
ATOM     22  O   UNL     1     128.698 129.003 114.287  1.00  0.00    -0.492 OA
ATOM     23  C   UNL     1     129.799 129.524 115.025  1.00  0.00     0.278 C 
ENDBRANCH  11  22
BRANCH   9  24
ATOM     24  O   UNL     1     129.752 129.439 109.512  1.00  0.00    -0.490 OA
ATOM     25  C   UNL     1     130.716 130.342 108.979  1.00  0.00     0.279 C 
ENDBRANCH   9  24
BRANCH  10  26
ATOM     26  O   UNL     1     130.581 128.847 112.201  1.00  0.00    -0.490 OA
ATOM     27  C   UNL     1     130.973 127.498 111.962  1.00  0.00     0.278 C 
ENDBRANCH  10  26
TORSDOF 6
ENDMDL
MODEL 9
REMARK VINA RESULT:    -4.938      2.400      4.373
REMARK INTER + INTRA:          -7.370
REMARK INTER:                  -7.041
REMARK INTRA:                  -0.329
REMARK UNBOUND:                -0.699
REMARK SMILES COc1ccc(-c2cc(=O)c3c(OC)c(OC)c(OC)c(OC)c3o2)cc1
REMARK SMILES IDX 7 1 8 2 9 3 10 4 11 5 24 6 25 7 21 8 18 9 15 10 12 11 6 12
REMARK SMILES IDX 3 13 4 14 27 15 5 16 26 17 2 18 1 19 22 20 23 21 13 22 14 23
REMARK SMILES IDX 19 24 20 25 16 26 17 27
REMARK H PARENT
REMARK Flexibility Score: inf
ROOT
ATOM      1  C   UNL     1     125.640 131.181 111.589  1.00  0.00     0.138 A 
ATOM      2  C   UNL     1     126.301 131.497 110.393  1.00  0.00     0.100 A 
ATOM      3  C   UNL     1     125.592 132.114 109.363  1.00  0.00     0.197 A 
ATOM      4  O   UNL     1     126.198 132.398 108.294  1.00  0.00    -0.289 OA
ATOM      5  C   UNL     1     124.224 132.416 109.538  1.00  0.00     0.115 A 
ATOM      6  C   UNL     1     123.631 132.075 110.772  1.00  0.00     0.188 A 
ATOM      7  O   UNL     1     124.353 131.487 111.724  1.00  0.00    -0.452 OA
ATOM      8  C   UNL     1     122.278 132.336 111.019  1.00  0.00     0.209 A 
ATOM      9  C   UNL     1     121.489 132.976 110.030  1.00  0.00     0.211 A 
ATOM     10  C   UNL     1     122.094 133.361 108.804  1.00  0.00     0.208 A 
ATOM     11  C   UNL     1     123.437 133.022 108.538  1.00  0.00     0.179 A 
ENDROOT
BRANCH   1  12
ATOM     12  C   UNL     1     126.340 130.526 112.724  1.00  0.00     0.018 A 
ATOM     13  C   UNL     1     127.730 129.291 114.850  1.00  0.00     0.118 A 
ATOM     14  C   UNL     1     128.281 129.323 113.566  1.00  0.00     0.047 A 
ATOM     15  C   UNL     1     126.477 129.891 115.073  1.00  0.00     0.047 A 
ATOM     16  C   UNL     1     127.599 129.937 112.513  1.00  0.00     0.016 A 
ATOM     17  C   UNL     1     125.791 130.506 114.020  1.00  0.00     0.016 A 
BRANCH  13  18
ATOM     18  O   UNL     1     128.455 128.662 115.873  1.00  0.00    -0.497 OA
ATOM     19  C   UNL     1     129.409 129.315 116.702  1.00  0.00     0.278 C 
ENDBRANCH  13  18
ENDBRANCH   1  12
BRANCH   8  20
ATOM     20  O   UNL     1     121.786 131.932 112.277  1.00  0.00    -0.490 OA
ATOM     21  C   UNL     1     122.166 132.441 113.551  1.00  0.00     0.278 C 
ENDBRANCH   8  20
BRANCH  11  22
ATOM     22  O   UNL     1     123.991 133.273 107.277  1.00  0.00    -0.492 OA
ATOM     23  C   UNL     1     123.763 132.415 106.163  1.00  0.00     0.278 C 
ENDBRANCH  11  22
BRANCH   9  24
ATOM     24  O   UNL     1     120.129 133.216 110.309  1.00  0.00    -0.490 OA
ATOM     25  C   UNL     1     119.045 132.305 110.160  1.00  0.00     0.279 C 
ENDBRANCH   9  24
BRANCH  10  26
ATOM     26  O   UNL     1     121.361 134.090 107.862  1.00  0.00    -0.490 OA
ATOM     27  C   UNL     1     120.445 133.478 106.958  1.00  0.00     0.278 C 
ENDBRANCH  10  26
TORSDOF 6
ENDMDL
