MODEL 1
REMARK VINA RESULT:    -7.366      0.000      0.000
REMARK INTER + INTRA:          -9.805
REMARK INTER:                  -9.304
REMARK INTRA:                  -0.500
REMARK UNBOUND:                -0.500
REMARK SMILES Oc1cc(O)cc(CCc2ccccc2O)c1
REMARK SMILES IDX 9 1 10 2 12 3 13 4 11 5 14 6 15 7 16 8 8 10 7 11 6 12 17 13
REMARK SMILES IDX 4 14 2 15 3 16 5 17 1 19
REMARK H PARENT 16 9 5 18 1 20
REMARK Flexibility Score: inf
ROOT
ATOM      1  C   UNL     1     -10.760  61.675  39.055  1.00  0.00     0.044 C 
ENDROOT
BRANCH   1   2
ATOM      2  C   UNL     1     -10.210  62.827  39.860  1.00  0.00    -0.006 A 
ATOM      3  C   UNL     1      -9.625  63.742  42.041  1.00  0.00     0.001 A 
ATOM      4  C   UNL     1      -9.231  64.938  41.441  1.00  0.00     0.004 A 
ATOM      5  C   UNL     1     -10.116  62.694  41.258  1.00  0.00     0.007 A 
ATOM      6  C   UNL     1      -9.333  65.092  40.058  1.00  0.00     0.046 A 
ATOM      7  C   UNL     1      -9.828  64.053  39.259  1.00  0.00     0.118 A 
BRANCH   7   8
ATOM      8  O   UNL     1      -9.928  64.276  37.884  1.00  0.00    -0.508 OA
ATOM      9  H   UNL     1     -10.365  65.094  37.479  1.00  0.00     0.293 HD
ENDBRANCH   7   8
ENDBRANCH   1   2
BRANCH   1  10
ATOM     10  C   UNL     1     -11.886  60.967  39.815  1.00  0.00     0.040 C 
BRANCH  10  11
ATOM     11  C   UNL     1     -13.224  61.301  39.213  1.00  0.00    -0.040 A 
ATOM     12  C   UNL     1     -14.156  60.285  38.953  1.00  0.00     0.050 A 
ATOM     13  C   UNL     1     -13.573  62.639  38.962  1.00  0.00     0.050 A 
ATOM     14  C   UNL     1     -15.415  60.598  38.423  1.00  0.00     0.119 A 
ATOM     15  C   UNL     1     -14.829  62.954  38.433  1.00  0.00     0.119 A 
ATOM     16  C   UNL     1     -15.748  61.931  38.162  1.00  0.00     0.092 A 
BRANCH  14  17
ATOM     17  O   UNL     1     -16.343  59.593  38.155  1.00  0.00    -0.508 OA
ATOM     18  H   UNL     1     -16.372  59.125  37.258  1.00  0.00     0.293 HD
ENDBRANCH  14  17
BRANCH  15  19
ATOM     19  O   UNL     1     -15.155  64.285  38.184  1.00  0.00    -0.508 OA
ATOM     20  H   UNL     1     -14.454  64.959  37.904  1.00  0.00     0.293 HD
ENDBRANCH  15  19
ENDBRANCH  10  11
ENDBRANCH   1  10
TORSDOF 6
ENDMDL
MODEL 2
REMARK VINA RESULT:    -7.349      0.099      2.037
REMARK INTER + INTRA:          -9.783
REMARK INTER:                  -9.285
REMARK INTRA:                  -0.498
REMARK UNBOUND:                -0.500
REMARK SMILES Oc1cc(O)cc(CCc2ccccc2O)c1
REMARK SMILES IDX 9 1 10 2 12 3 13 4 11 5 14 6 15 7 16 8 8 10 7 11 6 12 17 13
REMARK SMILES IDX 4 14 2 15 3 16 5 17 1 19
REMARK H PARENT 16 9 5 18 1 20
REMARK Flexibility Score: inf
ROOT
ATOM      1  C   UNL     1     -10.774  61.821  39.010  1.00  0.00     0.044 C 
ENDROOT
BRANCH   1   2
ATOM      2  C   UNL     1     -10.198  62.948  39.833  1.00  0.00    -0.006 A 
ATOM      3  C   UNL     1      -9.603  63.820  42.028  1.00  0.00     0.001 A 
ATOM      4  C   UNL     1      -9.170  65.011  41.445  1.00  0.00     0.004 A 
ATOM      5  C   UNL     1     -10.118  62.796  41.229  1.00  0.00     0.007 A 
ATOM      6  C   UNL     1      -9.257  65.184  40.063  1.00  0.00     0.046 A 
ATOM      7  C   UNL     1      -9.775  64.169  39.248  1.00  0.00     0.118 A 
BRANCH   7   8
ATOM      8  O   UNL     1      -9.858  64.411  37.875  1.00  0.00    -0.508 OA
ATOM      9  H   UNL     1      -9.662  63.712  37.171  1.00  0.00     0.293 HD
ENDBRANCH   7   8
ENDBRANCH   1   2
BRANCH   1  10
ATOM     10  C   UNL     1     -11.856  61.071  39.795  1.00  0.00     0.040 C 
BRANCH  10  11
ATOM     11  C   UNL     1     -13.221  61.382  39.245  1.00  0.00    -0.040 A 
ATOM     12  C   UNL     1     -13.579  62.707  38.950  1.00  0.00     0.050 A 
ATOM     13  C   UNL     1     -14.126  60.344  38.968  1.00  0.00     0.050 A 
ATOM     14  C   UNL     1     -14.839  62.994  38.406  1.00  0.00     0.119 A 
ATOM     15  C   UNL     1     -15.383  60.628  38.425  1.00  0.00     0.119 A 
ATOM     16  C   UNL     1     -15.739  61.955  38.147  1.00  0.00     0.092 A 
BRANCH  14  17
ATOM     17  O   UNL     1     -15.204  64.308  38.117  1.00  0.00    -0.508 OA
ATOM     18  H   UNL     1     -15.952  64.519  37.468  1.00  0.00     0.293 HD
ENDBRANCH  14  17
BRANCH  15  19
ATOM     19  O   UNL     1     -16.270  59.588  38.163  1.00  0.00    -0.508 OA
ATOM     20  H   UNL     1     -16.324  58.773  38.763  1.00  0.00     0.293 HD
ENDBRANCH  15  19
ENDBRANCH  10  11
ENDBRANCH   1  10
TORSDOF 6
ENDMDL
MODEL 3
REMARK VINA RESULT:    -7.249      1.402      1.889
REMARK INTER + INTRA:          -9.656
REMARK INTER:                  -9.237
REMARK INTRA:                  -0.419
REMARK UNBOUND:                -0.500
REMARK SMILES Oc1cc(O)cc(CCc2ccccc2O)c1
REMARK SMILES IDX 9 1 10 2 12 3 13 4 11 5 14 6 15 7 16 8 8 10 7 11 6 12 17 13
REMARK SMILES IDX 4 14 2 15 3 16 5 17 1 19
REMARK H PARENT 16 9 5 18 1 20
REMARK Flexibility Score: inf
ROOT
ATOM      1  C   UNL     1     -11.226  60.749  39.890  1.00  0.00     0.044 C 
ENDROOT
BRANCH   1   2
ATOM      2  C   UNL     1     -10.420  62.023  39.803  1.00  0.00    -0.006 A 
ATOM      3  C   UNL     1      -9.629  63.890  38.453  1.00  0.00     0.001 A 
ATOM      4  C   UNL     1      -8.914  64.384  39.544  1.00  0.00     0.004 A 
ATOM      5  C   UNL     1     -10.374  62.714  38.579  1.00  0.00     0.007 A 
ATOM      6  C   UNL     1      -8.937  63.702  40.761  1.00  0.00     0.046 A 
ATOM      7  C   UNL     1      -9.675  62.520  40.903  1.00  0.00     0.118 A 
BRANCH   7   8
ATOM      8  O   UNL     1      -9.639  61.870  42.139  1.00  0.00    -0.508 OA
ATOM      9  H   UNL     1     -10.426  61.372  42.532  1.00  0.00     0.293 HD
ENDBRANCH   7   8
ENDBRANCH   1   2
BRANCH   1  10
ATOM     10  C   UNL     1     -12.526  60.978  40.668  1.00  0.00     0.040 C 
BRANCH  10  11
ATOM     11  C   UNL     1     -13.658  61.290  39.728  1.00  0.00    -0.040 A 
ATOM     12  C   UNL     1     -14.594  60.299  39.396  1.00  0.00     0.050 A 
ATOM     13  C   UNL     1     -13.820  62.590  39.222  1.00  0.00     0.050 A 
ATOM     14  C   UNL     1     -15.669  60.597  38.546  1.00  0.00     0.119 A 
ATOM     15  C   UNL     1     -14.892  62.890  38.374  1.00  0.00     0.119 A 
ATOM     16  C   UNL     1     -15.814  61.890  38.035  1.00  0.00     0.092 A 
BRANCH  14  17
ATOM     17  O   UNL     1     -16.599  59.615  38.207  1.00  0.00    -0.508 OA
ATOM     18  H   UNL     1     -17.001  59.003  38.906  1.00  0.00     0.293 HD
ENDBRANCH  14  17
BRANCH  15  19
ATOM     19  O   UNL     1     -15.033  64.183  37.875  1.00  0.00    -0.508 OA
ATOM     20  H   UNL     1     -14.346  64.902  38.064  1.00  0.00     0.293 HD
ENDBRANCH  15  19
ENDBRANCH  10  11
ENDBRANCH   1  10
TORSDOF 6
ENDMDL
MODEL 4
REMARK VINA RESULT:    -7.192      1.770      3.168
REMARK INTER + INTRA:          -9.585
REMARK INTER:                  -9.189
REMARK INTRA:                  -0.396
REMARK UNBOUND:                -0.500
REMARK SMILES Oc1cc(O)cc(CCc2ccccc2O)c1
REMARK SMILES IDX 9 1 10 2 12 3 13 4 11 5 14 6 15 7 16 8 8 10 7 11 6 12 17 13
REMARK SMILES IDX 4 14 2 15 3 16 5 17 1 19
REMARK H PARENT 16 9 5 18 1 20
REMARK Flexibility Score: inf
ROOT
ATOM      1  C   UNL     1     -12.555  60.192  40.449  1.00  0.00     0.044 C 
ENDROOT
BRANCH   1   2
ATOM      2  C   UNL     1     -11.403  61.162  40.556  1.00  0.00    -0.006 A 
ATOM      3  C   UNL     1      -9.703  62.497  39.433  1.00  0.00     0.001 A 
ATOM      4  C   UNL     1      -9.227  62.941  40.667  1.00  0.00     0.004 A 
ATOM      5  C   UNL     1     -10.780  61.609  39.376  1.00  0.00     0.007 A 
ATOM      6  C   UNL     1      -9.823  62.495  41.846  1.00  0.00     0.046 A 
ATOM      7  C   UNL     1     -10.902  61.602  41.808  1.00  0.00     0.118 A 
BRANCH   7   8
ATOM      8  O   UNL     1     -11.441  61.173  43.023  1.00  0.00    -0.508 OA
ATOM      9  H   UNL     1     -10.942  60.591  43.683  1.00  0.00     0.293 HD
ENDBRANCH   7   8
ENDBRANCH   1   2
BRANCH   1  10
ATOM     10  C   UNL     1     -13.020  60.058  38.995  1.00  0.00     0.040 C 
BRANCH  10  11
ATOM     11  C   UNL     1     -14.231  60.915  38.745  1.00  0.00    -0.040 A 
ATOM     12  C   UNL     1     -14.094  62.302  38.581  1.00  0.00     0.050 A 
ATOM     13  C   UNL     1     -15.500  60.327  38.616  1.00  0.00     0.050 A 
ATOM     14  C   UNL     1     -15.217  63.098  38.315  1.00  0.00     0.119 A 
ATOM     15  C   UNL     1     -16.623  61.119  38.351  1.00  0.00     0.119 A 
ATOM     16  C   UNL     1     -16.478  62.505  38.203  1.00  0.00     0.092 A 
BRANCH  14  17
ATOM     17  O   UNL     1     -15.089  64.477  38.158  1.00  0.00    -0.508 OA
ATOM     18  H   UNL     1     -15.506  65.125  38.814  1.00  0.00     0.293 HD
ENDBRANCH  14  17
BRANCH  15  19
ATOM     19  O   UNL     1     -17.874  60.520  38.233  1.00  0.00    -0.508 OA
ATOM     20  H   UNL     1     -18.495  60.428  39.027  1.00  0.00     0.293 HD
ENDBRANCH  15  19
ENDBRANCH  10  11
ENDBRANCH   1  10
TORSDOF 6
ENDMDL
MODEL 5
REMARK VINA RESULT:    -7.116      2.059      6.140
REMARK INTER + INTRA:          -9.488
REMARK INTER:                  -8.895
REMARK INTRA:                  -0.593
REMARK UNBOUND:                -0.500
REMARK SMILES Oc1cc(O)cc(CCc2ccccc2O)c1
REMARK SMILES IDX 9 1 10 2 12 3 13 4 11 5 14 6 15 7 16 8 8 10 7 11 6 12 17 13
REMARK SMILES IDX 4 14 2 15 3 16 5 17 1 19
REMARK H PARENT 16 9 5 18 1 20
REMARK Flexibility Score: inf
ROOT
ATOM      1  C   UNL     1     -10.138  61.501  39.907  1.00  0.00     0.044 C 
ENDROOT
BRANCH   1   2
ATOM      2  C   UNL     1     -11.641  61.410  39.807  1.00  0.00    -0.006 A 
ATOM      3  C   UNL     1     -13.696  60.254  40.421  1.00  0.00     0.001 A 
ATOM      4  C   UNL     1     -14.437  61.145  39.646  1.00  0.00     0.004 A 
ATOM      5  C   UNL     1     -12.306  60.381  40.499  1.00  0.00     0.007 A 
ATOM      6  C   UNL     1     -13.792  62.162  38.941  1.00  0.00     0.046 A 
ATOM      7  C   UNL     1     -12.399  62.301  39.004  1.00  0.00     0.118 A 
BRANCH   7   8
ATOM      8  O   UNL     1     -11.809  63.323  38.258  1.00  0.00    -0.508 OA
ATOM      9  H   UNL     1     -11.239  63.161  37.438  1.00  0.00     0.293 HD
ENDBRANCH   7   8
ENDBRANCH   1   2
BRANCH   1  10
ATOM     10  C   UNL     1      -9.722  62.321  41.133  1.00  0.00     0.040 C 
BRANCH  10  11
ATOM     11  C   UNL     1      -9.222  63.678  40.717  1.00  0.00    -0.040 A 
ATOM     12  C   UNL     1      -9.348  64.773  41.585  1.00  0.00     0.050 A 
ATOM     13  C   UNL     1      -8.574  63.846  39.482  1.00  0.00     0.050 A 
ATOM     14  C   UNL     1      -8.853  66.031  41.213  1.00  0.00     0.119 A 
ATOM     15  C   UNL     1      -8.079  65.100  39.109  1.00  0.00     0.119 A 
ATOM     16  C   UNL     1      -8.222  66.192  39.976  1.00  0.00     0.092 A 
BRANCH  14  17
ATOM     17  O   UNL     1      -8.980  67.125  42.068  1.00  0.00    -0.508 OA
ATOM     18  H   UNL     1      -9.260  68.036  41.724  1.00  0.00     0.293 HD
ENDBRANCH  14  17
BRANCH  15  19
ATOM     19  O   UNL     1      -7.445  65.250  37.878  1.00  0.00    -0.508 OA
ATOM     20  H   UNL     1      -7.730  65.964  37.219  1.00  0.00     0.293 HD
ENDBRANCH  15  19
ENDBRANCH  10  11
ENDBRANCH   1  10
TORSDOF 6
ENDMDL
MODEL 6
REMARK VINA RESULT:    -7.104      2.045      6.011
REMARK INTER + INTRA:          -9.473
REMARK INTER:                  -8.871
REMARK INTRA:                  -0.603
REMARK UNBOUND:                -0.500
REMARK SMILES Oc1cc(O)cc(CCc2ccccc2O)c1
REMARK SMILES IDX 9 1 10 2 12 3 13 4 11 5 14 6 15 7 16 8 8 10 7 11 6 12 17 13
REMARK SMILES IDX 4 14 2 15 3 16 5 17 1 19
REMARK H PARENT 16 9 5 18 1 20
REMARK Flexibility Score: inf
ROOT
ATOM      1  C   UNL     1     -10.180  61.502  39.878  1.00  0.00     0.044 C 
ENDROOT
BRANCH   1   2
ATOM      2  C   UNL     1     -11.686  61.414  39.807  1.00  0.00    -0.006 A 
ATOM      3  C   UNL     1     -13.730  60.260  40.459  1.00  0.00     0.001 A 
ATOM      4  C   UNL     1     -14.484  61.155  39.701  1.00  0.00     0.004 A 
ATOM      5  C   UNL     1     -12.339  60.384  40.509  1.00  0.00     0.007 A 
ATOM      6  C   UNL     1     -13.851  62.172  38.986  1.00  0.00     0.046 A 
ATOM      7  C   UNL     1     -12.457  62.308  39.022  1.00  0.00     0.118 A 
BRANCH   7   8
ATOM      8  O   UNL     1     -11.880  63.331  38.266  1.00  0.00    -0.508 OA
ATOM      9  H   UNL     1     -10.960  63.269  37.849  1.00  0.00     0.293 HD
ENDBRANCH   7   8
ENDBRANCH   1   2
BRANCH   1  10
ATOM     10  C   UNL     1      -9.738  62.295  41.112  1.00  0.00     0.040 C 
BRANCH  10  11
ATOM     11  C   UNL     1      -9.206  63.644  40.711  1.00  0.00    -0.040 A 
ATOM     12  C   UNL     1      -8.531  63.804  39.492  1.00  0.00     0.050 A 
ATOM     13  C   UNL     1      -9.433  64.765  41.528  1.00  0.00     0.050 A 
ATOM     14  C   UNL     1      -8.064  65.067  39.102  1.00  0.00     0.119 A 
ATOM     15  C   UNL     1      -8.968  66.026  41.141  1.00  0.00     0.119 A 
ATOM     16  C   UNL     1      -8.282  66.174  39.928  1.00  0.00     0.092 A 
BRANCH  14  17
ATOM     17  O   UNL     1      -7.386  65.232  37.895  1.00  0.00    -0.508 OA
ATOM     18  H   UNL     1      -6.378  65.161  37.840  1.00  0.00     0.293 HD
ENDBRANCH  14  17
BRANCH  15  19
ATOM     19  O   UNL     1      -9.196  67.125  41.965  1.00  0.00    -0.508 OA
ATOM     20  H   UNL     1      -8.953  68.065  41.676  1.00  0.00     0.293 HD
ENDBRANCH  15  19
ENDBRANCH  10  11
ENDBRANCH   1  10
TORSDOF 6
ENDMDL
MODEL 7
REMARK VINA RESULT:    -7.091     13.325     16.023
REMARK INTER + INTRA:          -9.457
REMARK INTER:                  -8.905
REMARK INTRA:                  -0.552
REMARK UNBOUND:                -0.500
REMARK SMILES Oc1cc(O)cc(CCc2ccccc2O)c1
REMARK SMILES IDX 9 1 10 2 12 3 13 4 11 5 14 6 15 7 16 8 8 10 7 11 6 12 17 13
REMARK SMILES IDX 4 14 2 15 3 16 5 17 1 19
REMARK H PARENT 16 9 5 18 1 20
REMARK Flexibility Score: inf
ROOT
ATOM      1  C   UNL     1      -7.179  63.892  53.448  1.00  0.00     0.044 C 
ENDROOT
BRANCH   1   2
ATOM      2  C   UNL     1      -6.714  64.536  52.164  1.00  0.00    -0.006 A 
ATOM      3  C   UNL     1      -6.263  64.320  49.780  1.00  0.00     0.001 A 
ATOM      4  C   UNL     1      -5.830  65.645  49.736  1.00  0.00     0.004 A 
ATOM      5  C   UNL     1      -6.699  63.766  50.987  1.00  0.00     0.007 A 
ATOM      6  C   UNL     1      -5.824  66.417  50.898  1.00  0.00     0.046 A 
ATOM      7  C   UNL     1      -6.253  65.876  52.117  1.00  0.00     0.118 A 
BRANCH   7   8
ATOM      8  O   UNL     1      -6.202  66.691  53.249  1.00  0.00    -0.508 OA
ATOM      9  H   UNL     1      -7.002  67.187  53.619  1.00  0.00     0.293 HD
ENDBRANCH   7   8
ENDBRANCH   1   2
BRANCH   1  10
ATOM     10  C   UNL     1      -7.432  62.394  53.247  1.00  0.00     0.040 C 
BRANCH  10  11
ATOM     11  C   UNL     1      -6.487  61.580  54.089  1.00  0.00    -0.040 A 
ATOM     12  C   UNL     1      -6.978  60.792  55.141  1.00  0.00     0.050 A 
ATOM     13  C   UNL     1      -5.114  61.556  53.791  1.00  0.00     0.050 A 
ATOM     14  C   UNL     1      -6.103  60.007  55.905  1.00  0.00     0.119 A 
ATOM     15  C   UNL     1      -4.239  60.774  54.552  1.00  0.00     0.119 A 
ATOM     16  C   UNL     1      -4.736  60.002  55.610  1.00  0.00     0.092 A 
BRANCH  14  17
ATOM     17  O   UNL     1      -6.583  59.228  56.956  1.00  0.00    -0.508 OA
ATOM     18  H   UNL     1      -6.067  59.130  57.822  1.00  0.00     0.293 HD
ENDBRANCH  14  17
BRANCH  15  19
ATOM     19  O   UNL     1      -2.881  60.768  54.247  1.00  0.00    -0.508 OA
ATOM     20  H   UNL     1      -2.520  61.237  53.425  1.00  0.00     0.293 HD
ENDBRANCH  15  19
ENDBRANCH  10  11
ENDBRANCH   1  10
TORSDOF 6
ENDMDL
MODEL 8
REMARK VINA RESULT:    -7.033     13.034     15.924
REMARK INTER + INTRA:          -9.384
REMARK INTER:                  -9.085
REMARK INTRA:                  -0.299
REMARK UNBOUND:                -0.500
REMARK SMILES Oc1cc(O)cc(CCc2ccccc2O)c1
REMARK SMILES IDX 9 1 10 2 12 3 13 4 11 5 14 6 15 7 16 8 8 10 7 11 6 12 17 13
REMARK SMILES IDX 4 14 2 15 3 16 5 17 1 19
REMARK H PARENT 16 9 5 18 1 20
REMARK Flexibility Score: inf
ROOT
ATOM      1  C   UNL     1      -7.614  61.420  54.011  1.00  0.00     0.044 C 
ENDROOT
BRANCH   1   2
ATOM      2  C   UNL     1      -6.432  60.826  54.738  1.00  0.00    -0.006 A 
ATOM      3  C   UNL     1      -5.596  59.494  56.598  1.00  0.00     0.001 A 
ATOM      4  C   UNL     1      -4.285  59.713  56.175  1.00  0.00     0.004 A 
ATOM      5  C   UNL     1      -6.663  60.050  55.888  1.00  0.00     0.007 A 
ATOM      6  C   UNL     1      -4.038  60.494  55.046  1.00  0.00     0.046 A 
ATOM      7  C   UNL     1      -5.096  61.063  54.326  1.00  0.00     0.118 A 
BRANCH   7   8
ATOM      8  O   UNL     1      -4.783  61.854  53.218  1.00  0.00    -0.508 OA
ATOM      9  H   UNL     1      -3.838  62.018  52.896  1.00  0.00     0.293 HD
ENDBRANCH   7   8
ENDBRANCH   1   2
BRANCH   1  10
ATOM     10  C   UNL     1      -7.754  62.913  54.326  1.00  0.00     0.040 C 
BRANCH  10  11
ATOM     11  C   UNL     1      -7.337  63.745  53.143  1.00  0.00    -0.040 A 
ATOM     12  C   UNL     1      -6.839  65.043  53.333  1.00  0.00     0.050 A 
ATOM     13  C   UNL     1      -7.386  63.207  51.846  1.00  0.00     0.050 A 
ATOM     14  C   UNL     1      -6.418  65.806  52.235  1.00  0.00     0.119 A 
ATOM     15  C   UNL     1      -6.967  63.967  50.749  1.00  0.00     0.119 A 
ATOM     16  C   UNL     1      -6.485  65.268  50.947  1.00  0.00     0.092 A 
BRANCH  14  17
ATOM     17  O   UNL     1      -5.929  67.099  52.416  1.00  0.00    -0.508 OA
ATOM     18  H   UNL     1      -6.203  67.859  51.805  1.00  0.00     0.293 HD
ENDBRANCH  14  17
BRANCH  15  19
ATOM     19  O   UNL     1      -7.030  63.420  49.470  1.00  0.00    -0.508 OA
ATOM     20  H   UNL     1      -6.204  63.327  48.892  1.00  0.00     0.293 HD
ENDBRANCH  15  19
ENDBRANCH  10  11
ENDBRANCH   1  10
TORSDOF 6
ENDMDL
MODEL 9
REMARK VINA RESULT:    -6.952     13.404     16.102
REMARK INTER + INTRA:          -9.281
REMARK INTER:                  -8.747
REMARK INTRA:                  -0.534
REMARK UNBOUND:                -0.500
REMARK SMILES Oc1cc(O)cc(CCc2ccccc2O)c1
REMARK SMILES IDX 9 1 10 2 12 3 13 4 11 5 14 6 15 7 16 8 8 10 7 11 6 12 17 13
REMARK SMILES IDX 4 14 2 15 3 16 5 17 1 19
REMARK H PARENT 16 9 5 18 1 20
REMARK Flexibility Score: inf
ROOT
ATOM      1  C   UNL     1      -7.125  63.860  53.578  1.00  0.00     0.044 C 
ENDROOT
BRANCH   1   2
ATOM      2  C   UNL     1      -6.691  64.498  52.281  1.00  0.00    -0.006 A 
ATOM      3  C   UNL     1      -6.268  64.265  49.893  1.00  0.00     0.001 A 
ATOM      4  C   UNL     1      -5.863  65.599  49.828  1.00  0.00     0.004 A 
ATOM      5  C   UNL     1      -6.675  63.716  51.112  1.00  0.00     0.007 A 
ATOM      6  C   UNL     1      -5.858  66.384  50.982  1.00  0.00     0.046 A 
ATOM      7  C   UNL     1      -6.259  65.847  52.212  1.00  0.00     0.118 A 
BRANCH   7   8
ATOM      8  O   UNL     1      -6.210  66.676  53.335  1.00  0.00    -0.508 OA
ATOM      9  H   UNL     1      -5.349  67.023  53.738  1.00  0.00     0.293 HD
ENDBRANCH   7   8
ENDBRANCH   1   2
BRANCH   1  10
ATOM     10  C   UNL     1      -7.497  62.389  53.364  1.00  0.00     0.040 C 
BRANCH  10  11
ATOM     11  C   UNL     1      -6.532  61.488  54.087  1.00  0.00    -0.040 A 
ATOM     12  C   UNL     1      -5.150  61.623  53.881  1.00  0.00     0.050 A 
ATOM     13  C   UNL     1      -7.003  60.546  55.016  1.00  0.00     0.050 A 
ATOM     14  C   UNL     1      -4.248  60.807  54.579  1.00  0.00     0.119 A 
ATOM     15  C   UNL     1      -6.105  59.731  55.714  1.00  0.00     0.119 A 
ATOM     16  C   UNL     1      -4.728  59.862  55.491  1.00  0.00     0.092 A 
BRANCH  14  17
ATOM     17  O   UNL     1      -2.875  60.931  54.375  1.00  0.00    -0.508 OA
ATOM     18  H   UNL     1      -2.495  61.184  53.471  1.00  0.00     0.293 HD
ENDBRANCH  14  17
BRANCH  15  19
ATOM     19  O   UNL     1      -6.591  58.798  56.626  1.00  0.00    -0.508 OA
ATOM     20  H   UNL     1      -6.224  58.738  57.568  1.00  0.00     0.293 HD
ENDBRANCH  15  19
ENDBRANCH  10  11
ENDBRANCH   1  10
TORSDOF 6
ENDMDL
