MODEL 1
REMARK VINA RESULT:     0.000      0.000      0.000
REMARK INTER + INTRA:           0.425
REMARK INTER:                   0.000
REMARK INTRA:                   0.425
REMARK UNBOUND:                 0.425
REMARK SMILES C=C1CC=CC(C)(C)CC=C(C)CCC1
REMARK SMILES IDX 2 1 1 2 15 3 14 4 13 5 11 6 12 7 10 8 3 10 4 11 5 12 6 13
REMARK SMILES IDX 7 14 8 15 9 16
REMARK H PARENT
REMARK Flexibility Score: 60.00
ROOT
ATOM      1  C   UNL     1     141.120 131.475 137.665  1.00  0.00    -0.074 C 
ATOM      2  C   UNL     1     140.571 130.722 138.632  1.00  0.00     0.008 C 
ENDROOT
BRANCH   1   3
ATOM      3  C   UNL     1     140.464 132.775 137.249  1.00  0.00     0.031 C 
BRANCH   3   4
ATOM      4  C   UNL     1     139.122 132.519 136.522  1.00  0.00     0.009 C 
BRANCH   4   5
ATOM      5  C   UNL     1     139.188 131.628 135.258  1.00  0.00     0.030 C 
BRANCH   5   6
ATOM      6  C   UNL     1     139.693 132.298 133.987  1.00  0.00    -0.077 C 
ATOM      7  C   UNL     1     138.978 133.532 133.490  1.00  0.00     0.039 C 
ATOM      8  C   UNL     1     140.749 131.855 133.265  1.00  0.00    -0.027 CG0
ATOM      9  G   UNL     1     141.627 130.667 133.611  1.00  0.00     0.000 G0
ENDBRANCH   5   6
ENDBRANCH   4   5
ENDBRANCH   3   4
ENDBRANCH   1   3
BRANCH   1  10
ATOM     10  C   UNL     1     142.437 131.069 137.033  1.00  0.00     0.057 C 
BRANCH  10  11
ATOM     11  C   UNL     1     143.003 132.195 136.207  1.00  0.00    -0.026 C 
ATOM     12  C   UNL     1     143.276 132.200 134.881  1.00  0.00    -0.024 C 
BRANCH  12  13
ATOM     13  C   UNL     1     143.130 131.067 133.851  1.00  0.00    -0.014 C 
ATOM     14  C   UNL     1     143.813 131.445 132.515  1.00  0.00     0.016 C 
ATOM     15  C   UNL     1     143.896 129.832 134.393  1.00  0.00     0.016 C 
BRANCH  13  16
ATOM     16  C   UNL     1     141.639 130.667 133.609  1.00  0.00     0.038 CG0
ATOM     17  G   UNL     1     140.749 131.851 133.281  1.00  0.00     0.000 G0
ENDBRANCH  13  16
ENDBRANCH  12  13
ENDBRANCH  10  11
ENDBRANCH   1  10
TORSDOF 0
ENDMDL
MODEL 2
REMARK VINA RESULT:     0.004     10.871     12.539
REMARK INTER + INTRA:           0.431
REMARK INTER:                   0.000
REMARK INTRA:                   0.431
REMARK UNBOUND:                 0.425
REMARK SMILES C=C1CC=CC(C)(C)CC=C(C)CCC1
REMARK SMILES IDX 2 1 1 2 15 3 14 4 13 5 11 6 12 7 10 8 3 10 4 11 5 12 6 13
REMARK SMILES IDX 7 14 8 15 9 16
REMARK H PARENT
REMARK Flexibility Score: 60.00
ROOT
ATOM      1  C   UNL     1     139.425 138.785 142.794  1.00  0.00    -0.074 C 
ATOM      2  C   UNL     1     138.785 138.557 143.952  1.00  0.00     0.008 C 
ENDROOT
BRANCH   1   3
ATOM      3  C   UNL     1     138.635 139.062 141.531  1.00  0.00     0.031 C 
BRANCH   3   4
ATOM      4  C   UNL     1     137.512 140.096 141.788  1.00  0.00     0.009 C 
BRANCH   4   5
ATOM      5  C   UNL     1     137.900 141.585 141.619  1.00  0.00     0.030 C 
BRANCH   5   6
ATOM      6  C   UNL     1     138.466 142.277 142.853  1.00  0.00    -0.077 C 
ATOM      7  C   UNL     1     137.518 142.657 143.965  1.00  0.00     0.039 C 
ATOM      8  C   UNL     1     139.775 142.579 143.018  1.00  0.00    -0.027 CG0
ATOM      9  G   UNL     1     140.894 142.249 142.047  1.00  0.00     0.000 G0
ENDBRANCH   5   6
ENDBRANCH   4   5
ENDBRANCH   3   4
ENDBRANCH   1   3
BRANCH   1  10
ATOM     10  C   UNL     1     140.939 138.841 142.754  1.00  0.00     0.057 C 
BRANCH  10  11
ATOM     11  C   UNL     1     141.477 139.621 143.927  1.00  0.00    -0.026 C 
ATOM     12  C   UNL     1     141.998 140.871 143.928  1.00  0.00    -0.024 C 
BRANCH  12  13
ATOM     13  C   UNL     1     142.229 141.832 142.749  1.00  0.00    -0.014 C 
ATOM     14  C   UNL     1     143.016 143.084 143.205  1.00  0.00     0.016 C 
ATOM     15  C   UNL     1     143.131 141.107 141.716  1.00  0.00     0.016 C 
BRANCH  13  16
ATOM     16  C   UNL     1     140.896 142.249 142.047  1.00  0.00     0.038 CG0
ATOM     17  G   UNL     1     139.782 142.571 143.025  1.00  0.00     0.000 G0
ENDBRANCH  13  16
ENDBRANCH  12  13
ENDBRANCH  10  11
ENDBRANCH   1  10
TORSDOF 0
ENDMDL
MODEL 3
REMARK VINA RESULT:     0.006     10.124     11.513
REMARK INTER + INTRA:           0.434
REMARK INTER:                   0.000
REMARK INTRA:                   0.434
REMARK UNBOUND:                 0.425
REMARK SMILES C=C1CC=CC(C)(C)CC=C(C)CCC1
REMARK SMILES IDX 2 1 1 2 15 3 14 4 13 5 11 6 12 7 10 8 3 10 4 11 5 12 6 13
REMARK SMILES IDX 7 14 8 15 9 16
REMARK H PARENT
REMARK Flexibility Score: 60.00
ROOT
ATOM      1  C   UNL     1     140.085 135.891 144.368  1.00  0.00    -0.074 C 
ATOM      2  C   UNL     1     141.334 135.450 144.150  1.00  0.00     0.008 C 
ENDROOT
BRANCH   1   3
ATOM      3  C   UNL     1     139.230 135.251 145.442  1.00  0.00     0.031 C 
BRANCH   3   4
ATOM      4  C   UNL     1     138.644 133.901 144.962  1.00  0.00     0.009 C 
BRANCH   4   5
ATOM      5  C   UNL     1     137.399 133.982 144.047  1.00  0.00     0.030 C 
BRANCH   5   6
ATOM      6  C   UNL     1     136.201 134.739 144.605  1.00  0.00    -0.077 C 
ATOM      7  C   UNL     1     135.490 134.176 145.812  1.00  0.00     0.039 C 
ATOM      8  C   UNL     1     135.726 135.895 144.083  1.00  0.00    -0.027 CG0
ATOM      9  G   UNL     1     136.316 136.649 142.906  1.00  0.00     0.000 G0
ENDBRANCH   5   6
ENDBRANCH   4   5
ENDBRANCH   3   4
ENDBRANCH   1   3
BRANCH   1  10
ATOM     10  C   UNL     1     139.547 137.080 143.596  1.00  0.00     0.057 C 
BRANCH  10  11
ATOM     11  C   UNL     1     138.768 137.998 144.502  1.00  0.00    -0.026 C 
ATOM     12  C   UNL     1     137.499 138.445 144.345  1.00  0.00    -0.024 C 
BRANCH  12  13
ATOM     13  C   UNL     1     136.509 138.185 143.198  1.00  0.00    -0.014 C 
ATOM     14  C   UNL     1     135.146 138.859 143.483  1.00  0.00     0.016 C 
ATOM     15  C   UNL     1     137.070 138.868 141.923  1.00  0.00     0.016 C 
BRANCH  13  16
ATOM     16  C   UNL     1     136.316 136.661 142.907  1.00  0.00     0.038 CG0
ATOM     17  G   UNL     1     135.735 135.899 144.083  1.00  0.00     0.000 G0
ENDBRANCH  13  16
ENDBRANCH  12  13
ENDBRANCH  10  11
ENDBRANCH   1  10
TORSDOF 0
ENDMDL
MODEL 4
REMARK VINA RESULT:     0.007      9.271     11.881
REMARK INTER + INTRA:           0.436
REMARK INTER:                   0.000
REMARK INTRA:                   0.436
REMARK UNBOUND:                 0.425
REMARK SMILES C=C1CC=CC(C)(C)CC=C(C)CCC1
REMARK SMILES IDX 2 1 1 2 15 3 14 4 13 5 11 6 12 7 10 8 3 10 4 11 5 12 6 13
REMARK SMILES IDX 7 14 8 15 9 16
REMARK H PARENT
REMARK Flexibility Score: 60.00
ROOT
ATOM      1  C   UNL     1     132.201 132.476 133.587  1.00  0.00    -0.074 C 
ATOM      2  C   UNL     1     133.128 131.791 134.274  1.00  0.00     0.008 C 
ENDROOT
BRANCH   1   3
ATOM      3  C   UNL     1     131.271 131.752 132.635  1.00  0.00     0.031 C 
BRANCH   3   4
ATOM      4  C   UNL     1     130.603 130.536 133.322  1.00  0.00     0.009 C 
BRANCH   4   5
ATOM      5  C   UNL     1     129.303 130.825 134.111  1.00  0.00     0.030 C 
BRANCH   5   6
ATOM      6  C   UNL     1     129.470 131.137 135.592  1.00  0.00    -0.077 C 
ATOM      7  C   UNL     1     129.811 130.007 136.533  1.00  0.00     0.039 C 
ATOM      8  C   UNL     1     129.330 132.374 136.126  1.00  0.00    -0.027 CG0
ATOM      9  G   UNL     1     129.033 133.647 135.356  1.00  0.00     0.000 G0
ENDBRANCH   5   6
ENDBRANCH   4   5
ENDBRANCH   3   4
ENDBRANCH   1   3
BRANCH   1  10
ATOM     10  C   UNL     1     132.026 133.965 133.812  1.00  0.00     0.057 C 
BRANCH  10  11
ATOM     11  C   UNL     1     132.195 134.309 135.269  1.00  0.00    -0.026 C 
ATOM     12  C   UNL     1     131.240 134.687 136.152  1.00  0.00    -0.024 C 
BRANCH  12  13
ATOM     13  C   UNL     1     129.736 134.912 135.925  1.00  0.00    -0.014 C 
ATOM     14  C   UNL     1     129.046 135.384 137.227  1.00  0.00     0.016 C 
ATOM     15  C   UNL     1     129.578 136.072 134.908  1.00  0.00     0.016 C 
BRANCH  13  16
ATOM     16  C   UNL     1     129.021 133.645 135.356  1.00  0.00     0.038 CG0
ATOM     17  G   UNL     1     129.334 132.381 136.136  1.00  0.00     0.000 G0
ENDBRANCH  13  16
ENDBRANCH  12  13
ENDBRANCH  10  11
ENDBRANCH   1  10
TORSDOF 0
ENDMDL
MODEL 5
REMARK VINA RESULT:     0.014      7.941     10.806
REMARK INTER + INTRA:           0.446
REMARK INTER:                   0.000
REMARK INTRA:                   0.446
REMARK UNBOUND:                 0.425
REMARK SMILES C=C1CC=CC(C)(C)CC=C(C)CCC1
REMARK SMILES IDX 2 1 1 2 15 3 14 4 13 5 11 6 12 7 10 8 3 10 4 11 5 12 6 13
REMARK SMILES IDX 7 14 8 15 9 16
REMARK H PARENT
REMARK Flexibility Score: 60.00
ROOT
ATOM      1  C   UNL     1     130.925 137.359 133.185  1.00  0.00    -0.074 C 
ATOM      2  C   UNL     1     130.164 138.465 133.208  1.00  0.00     0.008 C 
ENDROOT
BRANCH   1   3
ATOM      3  C   UNL     1     132.435 137.476 133.169  1.00  0.00     0.031 C 
BRANCH   3   4
ATOM      4  C   UNL     1     132.963 138.104 134.481  1.00  0.00     0.009 C 
BRANCH   4   5
ATOM      5  C   UNL     1     133.151 137.138 135.675  1.00  0.00     0.030 C 
BRANCH   5   6
ATOM      6  C   UNL     1     133.998 135.899 135.413  1.00  0.00    -0.077 C 
ATOM      7  C   UNL     1     135.470 136.078 135.132  1.00  0.00     0.039 C 
ATOM      8  C   UNL     1     133.511 134.636 135.412  1.00  0.00    -0.027 CG0
ATOM      9  G   UNL     1     132.078 134.234 135.711  1.00  0.00     0.000 G0
ENDBRANCH   5   6
ENDBRANCH   4   5
ENDBRANCH   3   4
ENDBRANCH   1   3
BRANCH   1  10
ATOM     10  C   UNL     1     130.284 135.986 133.252  1.00  0.00     0.057 C 
BRANCH  10  11
ATOM     11  C   UNL     1     131.180 134.947 132.629  1.00  0.00    -0.026 C 
ATOM     12  C   UNL     1     131.658 133.813 133.194  1.00  0.00    -0.024 C 
BRANCH  12  13
ATOM     13  C   UNL     1     131.465 133.279 134.623  1.00  0.00    -0.014 C 
ATOM     14  C   UNL     1     129.969 133.011 134.914  1.00  0.00     0.016 C 
ATOM     15  C   UNL     1     132.175 131.902 134.714  1.00  0.00     0.016 C 
BRANCH  13  16
ATOM     16  C   UNL     1     132.072 134.229 135.705  1.00  0.00     0.038 CG0
ATOM     17  G   UNL     1     133.504 134.632 135.409  1.00  0.00     0.000 G0
ENDBRANCH  13  16
ENDBRANCH  12  13
ENDBRANCH  10  11
ENDBRANCH   1  10
TORSDOF 0
ENDMDL
MODEL 6
REMARK VINA RESULT:     0.014     12.647     14.492
REMARK INTER + INTRA:           0.446
REMARK INTER:                   0.000
REMARK INTRA:                   0.446
REMARK UNBOUND:                 0.425
REMARK SMILES C=C1CC=CC(C)(C)CC=C(C)CCC1
REMARK SMILES IDX 2 1 1 2 15 3 14 4 13 5 11 6 12 7 10 8 3 10 4 11 5 12 6 13
REMARK SMILES IDX 7 14 8 15 9 16
REMARK H PARENT
REMARK Flexibility Score: 60.00
ROOT
ATOM      1  C   UNL     1     131.087 141.749 136.844  1.00  0.00    -0.074 C 
ATOM      2  C   UNL     1     130.292 142.756 137.237  1.00  0.00     0.008 C 
ENDROOT
BRANCH   1   3
ATOM      3  C   UNL     1     132.560 141.762 137.196  1.00  0.00     0.031 C 
BRANCH   3   4
ATOM      4  C   UNL     1     132.786 142.260 138.644  1.00  0.00     0.009 C 
BRANCH   4   5
ATOM      5  C   UNL     1     132.807 141.173 139.746  1.00  0.00     0.030 C 
BRANCH   5   6
ATOM      6  C   UNL     1     131.453 140.756 140.306  1.00  0.00    -0.077 C 
ATOM      7  C   UNL     1     130.802 141.634 141.347  1.00  0.00     0.039 C 
ATOM      8  C   UNL     1     130.790 139.637 139.929  1.00  0.00    -0.027 CG0
ATOM      9  G   UNL     1     131.244 138.647 138.873  1.00  0.00     0.000 G0
ENDBRANCH   5   6
ENDBRANCH   4   5
ENDBRANCH   3   4
ENDBRANCH   1   3
BRANCH   1  10
ATOM     10  C   UNL     1     130.506 140.555 136.111  1.00  0.00     0.057 C 
BRANCH  10  11
ATOM     11  C   UNL     1     129.227 140.098 136.764  1.00  0.00    -0.026 C 
ATOM     12  C   UNL     1     129.046 139.046 137.597  1.00  0.00    -0.024 C 
BRANCH  12  13
ATOM     13  C   UNL     1     130.064 138.001 138.084  1.00  0.00    -0.014 C 
ATOM     14  C   UNL     1     129.370 136.910 138.934  1.00  0.00     0.016 C 
ATOM     15  C   UNL     1     130.634 137.277 136.835  1.00  0.00     0.016 C 
BRANCH  13  16
ATOM     16  C   UNL     1     131.248 138.643 138.876  1.00  0.00     0.038 CG0
ATOM     17  G   UNL     1     130.792 139.636 139.929  1.00  0.00     0.000 G0
ENDBRANCH  13  16
ENDBRANCH  12  13
ENDBRANCH  10  11
ENDBRANCH   1  10
TORSDOF 0
ENDMDL
MODEL 7
REMARK VINA RESULT:     0.027     10.786     12.796
REMARK INTER + INTRA:           0.464
REMARK INTER:                   0.000
REMARK INTRA:                   0.464
REMARK UNBOUND:                 0.425
REMARK SMILES C=C1CC=CC(C)(C)CC=C(C)CCC1
REMARK SMILES IDX 2 1 1 2 15 3 14 4 13 5 11 6 12 7 10 8 3 10 4 11 5 12 6 13
REMARK SMILES IDX 7 14 8 15 9 16
REMARK H PARENT
REMARK Flexibility Score: 60.00
ROOT
ATOM      1  C   UNL     1     140.887 130.408 147.433  1.00  0.00    -0.074 C 
ATOM      2  C   UNL     1     140.043 129.873 148.328  1.00  0.00     0.008 C 
ENDROOT
BRANCH   1   3
ATOM      3  C   UNL     1     141.061 131.911 147.355  1.00  0.00     0.031 C 
BRANCH   3   4
ATOM      4  C   UNL     1     141.706 132.468 148.646  1.00  0.00     0.009 C 
BRANCH   4   5
ATOM      5  C   UNL     1     143.254 132.475 148.690  1.00  0.00     0.030 C 
BRANCH   5   6
ATOM      6  C   UNL     1     143.924 131.140 148.989  1.00  0.00    -0.077 C 
ATOM      7  C   UNL     1     143.609 130.451 150.294  1.00  0.00     0.039 C 
ATOM      8  C   UNL     1     144.795 130.526 148.152  1.00  0.00    -0.027 CG0
ATOM      9  G   UNL     1     145.212 131.024 146.781  1.00  0.00     0.000 G0
ENDBRANCH   5   6
ENDBRANCH   4   5
ENDBRANCH   3   4
ENDBRANCH   1   3
BRANCH   1  10
ATOM     10  C   UNL     1     141.730 129.513 146.544  1.00  0.00     0.057 C 
BRANCH  10  11
ATOM     11  C   UNL     1     142.209 130.265 145.329  1.00  0.00    -0.026 C 
ATOM     12  C   UNL     1     143.486 130.480 144.933  1.00  0.00    -0.024 C 
BRANCH  12  13
ATOM     13  C   UNL     1     144.801 130.064 145.612  1.00  0.00    -0.014 C 
ATOM     14  C   UNL     1     144.720 128.606 146.125  1.00  0.00     0.016 C 
ATOM     15  C   UNL     1     145.917 130.080 144.534  1.00  0.00     0.016 C 
BRANCH  13  16
ATOM     16  C   UNL     1     145.209 131.030 146.771  1.00  0.00     0.038 CG0
ATOM     17  G   UNL     1     144.794 130.526 148.141  1.00  0.00     0.000 G0
ENDBRANCH  13  16
ENDBRANCH  12  13
ENDBRANCH  10  11
ENDBRANCH   1  10
TORSDOF 0
ENDMDL
MODEL 8
REMARK VINA RESULT:     0.027      8.587     11.445
REMARK INTER + INTRA:           0.464
REMARK INTER:                   0.000
REMARK INTRA:                   0.464
REMARK UNBOUND:                 0.425
REMARK SMILES C=C1CC=CC(C)(C)CC=C(C)CCC1
REMARK SMILES IDX 2 1 1 2 15 3 14 4 13 5 11 6 12 7 10 8 3 10 4 11 5 12 6 13
REMARK SMILES IDX 7 14 8 15 9 16
REMARK H PARENT
REMARK Flexibility Score: 60.00
ROOT
ATOM      1  C   UNL     1     140.268 130.400 147.708  1.00  0.00    -0.074 C 
ATOM      2  C   UNL     1     140.270 129.959 148.976  1.00  0.00     0.008 C 
ENDROOT
BRANCH   1   3
ATOM      3  C   UNL     1     139.842 131.820 147.398  1.00  0.00     0.031 C 
BRANCH   3   4
ATOM      4  C   UNL     1     140.833 132.846 147.999  1.00  0.00     0.009 C 
BRANCH   4   5
ATOM      5  C   UNL     1     142.055 133.213 147.121  1.00  0.00     0.030 C 
BRANCH   5   6
ATOM      6  C   UNL     1     143.193 132.201 147.095  1.00  0.00    -0.077 C 
ATOM      7  C   UNL     1     143.876 131.850 148.394  1.00  0.00     0.039 C 
ATOM      8  C   UNL     1     143.638 131.591 145.971  1.00  0.00    -0.027 CG0
ATOM      9  G   UNL     1     143.066 131.768 144.577  1.00  0.00     0.000 G0
ENDBRANCH   5   6
ENDBRANCH   4   5
ENDBRANCH   3   4
ENDBRANCH   1   3
BRANCH   1  10
ATOM     10  C   UNL     1     140.760 129.506 146.586  1.00  0.00     0.057 C 
BRANCH  10  11
ATOM     11  C   UNL     1     140.231 129.978 145.256  1.00  0.00    -0.026 C 
ATOM     12  C   UNL     1     140.937 130.356 144.165  1.00  0.00    -0.024 C 
BRANCH  12  13
ATOM     13  C   UNL     1     142.460 130.453 143.974  1.00  0.00    -0.014 C 
ATOM     14  C   UNL     1     143.171 129.217 144.575  1.00  0.00     0.016 C 
ATOM     15  C   UNL     1     142.750 130.420 142.451  1.00  0.00     0.016 C 
BRANCH  13  16
ATOM     16  C   UNL     1     143.055 131.770 144.570  1.00  0.00     0.038 CG0
ATOM     17  G   UNL     1     143.631 131.588 145.962  1.00  0.00     0.000 G0
ENDBRANCH  13  16
ENDBRANCH  12  13
ENDBRANCH  10  11
ENDBRANCH   1  10
TORSDOF 0
ENDMDL
MODEL 9
REMARK VINA RESULT:     0.037      5.055      6.913
REMARK INTER + INTRA:           0.479
REMARK INTER:                   0.000
REMARK INTRA:                   0.479
REMARK UNBOUND:                 0.425
REMARK SMILES C=C1CC=CC(C)(C)CC=C(C)CCC1
REMARK SMILES IDX 2 1 1 2 15 3 14 4 13 5 11 6 12 7 10 8 3 10 4 11 5 12 6 13
REMARK SMILES IDX 7 14 8 15 9 16
REMARK H PARENT
REMARK Flexibility Score: 60.00
ROOT
ATOM      1  C   UNL     1     136.897 135.447 140.242  1.00  0.00    -0.074 C 
ATOM      2  C   UNL     1     135.834 135.953 139.597  1.00  0.00     0.008 C 
ENDROOT
BRANCH   1   3
ATOM      3  C   UNL     1     137.167 133.957 140.209  1.00  0.00     0.031 C 
BRANCH   3   4
ATOM      4  C   UNL     1     137.173 133.420 138.757  1.00  0.00     0.009 C 
BRANCH   4   5
ATOM      5  C   UNL     1     138.521 133.503 138.002  1.00  0.00     0.030 C 
BRANCH   5   6
ATOM      6  C   UNL     1     138.726 134.730 137.123  1.00  0.00    -0.077 C 
ATOM      7  C   UNL     1     138.017 134.791 135.792  1.00  0.00     0.039 C 
ATOM      8  C   UNL     1     139.512 135.781 137.460  1.00  0.00    -0.027 CG0
ATOM      9  G   UNL     1     140.274 135.939 138.763  1.00  0.00     0.000 G0
ENDBRANCH   5   6
ENDBRANCH   4   5
ENDBRANCH   3   4
ENDBRANCH   1   3
BRANCH   1  10
ATOM     10  C   UNL     1     137.876 136.367 140.945  1.00  0.00     0.057 C 
BRANCH  10  11
ATOM     11  C   UNL     1     138.012 137.671 140.202  1.00  0.00    -0.026 C 
ATOM     12  C   UNL     1     139.064 138.107 139.470  1.00  0.00    -0.024 C 
BRANCH  12  13
ATOM     13  C   UNL     1     140.422 137.432 139.215  1.00  0.00    -0.014 C 
ATOM     14  C   UNL     1     141.252 138.235 138.185  1.00  0.00     0.016 C 
ATOM     15  C   UNL     1     141.226 137.469 140.541  1.00  0.00     0.016 C 
BRANCH  13  16
ATOM     16  C   UNL     1     140.274 135.945 138.759  1.00  0.00     0.038 CG0
ATOM     17  G   UNL     1     139.513 135.793 137.455  1.00  0.00     0.000 G0
ENDBRANCH  13  16
ENDBRANCH  12  13
ENDBRANCH  10  11
ENDBRANCH   1  10
TORSDOF 0
ENDMDL
