MODEL 1
REMARK VINA RESULT:    -4.947      0.000      0.000
REMARK INTER + INTRA:          -5.334
REMARK INTER:                  -5.236
REMARK INTRA:                  -0.098
REMARK UNBOUND:                -0.098
REMARK SMILES C=C(C)[C@H]1CC=C(C)C(=O)C1
REMARK SMILES IDX 8 1 7 2 6 3 5 4 4 5 11 6 9 7 10 8 2 9 1 10 3 11
REMARK H PARENT
REMARK Flexibility Score: inf
ROOT
ATOM      1  C   UNL     1      18.371 -13.369  70.435  1.00  0.00     0.048 C 
ATOM      2  C   UNL     1      18.385 -12.606  69.139  1.00  0.00    -0.012 C 
ATOM      3  C   UNL     1      17.610 -13.010  68.117  1.00  0.00    -0.019 C 
ATOM      4  C   UNL     1      17.599 -12.293  66.792  1.00  0.00     0.036 C 
ATOM      5  C   UNL     1      17.845 -10.785  66.977  1.00  0.00     0.025 C 
ATOM      6  C   UNL     1      19.150 -10.547  67.757  1.00  0.00     0.089 C 
ATOM      7  C   UNL     1      19.156 -11.344  69.033  1.00  0.00     0.158 C 
ATOM      8  O   UNL     1      19.856 -10.945  70.002  1.00  0.00    -0.295 OA
ENDROOT
BRANCH   5   9
ATOM      9  C   UNL     1      17.855 -10.054  65.640  1.00  0.00    -0.077 C 
ATOM     10  C   UNL     1      19.011  -9.593  65.134  1.00  0.00     0.008 C 
ATOM     11  C   UNL     1      16.585  -9.831  64.856  1.00  0.00     0.039 C 
ENDBRANCH   5   9
TORSDOF 1
ENDMDL
MODEL 2
REMARK VINA RESULT:    -4.836      1.245      1.378
REMARK INTER + INTRA:          -5.217
REMARK INTER:                  -5.119
REMARK INTRA:                  -0.098
REMARK UNBOUND:                -0.098
REMARK SMILES C=C(C)[C@H]1CC=C(C)C(=O)C1
REMARK SMILES IDX 8 1 7 2 6 3 5 4 4 5 11 6 9 7 10 8 2 9 1 10 3 11
REMARK H PARENT
REMARK Flexibility Score: inf
ROOT
ATOM      1  C   UNL     1      20.206 -12.995  69.996  1.00  0.00     0.048 C 
ATOM      2  C   UNL     1      19.420 -12.404  68.859  1.00  0.00    -0.012 C 
ATOM      3  C   UNL     1      18.932 -13.206  67.895  1.00  0.00    -0.019 C 
ATOM      4  C   UNL     1      18.154 -12.665  66.725  1.00  0.00     0.036 C 
ATOM      5  C   UNL     1      17.339 -11.423  67.129  1.00  0.00     0.025 C 
ATOM      6  C   UNL     1      18.259 -10.361  67.756  1.00  0.00     0.089 C 
ATOM      7  C   UNL     1      19.079 -10.961  68.866  1.00  0.00     0.158 C 
ATOM      8  O   UNL     1      19.505 -10.213  69.787  1.00  0.00    -0.295 OA
ENDROOT
BRANCH   5   9
ATOM      9  C   UNL     1      16.563 -10.857  65.946  1.00  0.00    -0.077 C 
ATOM     10  C   UNL     1      17.014  -9.767  65.304  1.00  0.00     0.008 C 
ATOM     11  C   UNL     1      15.283 -11.497  65.468  1.00  0.00     0.039 C 
ENDBRANCH   5   9
TORSDOF 1
ENDMDL
MODEL 3
REMARK VINA RESULT:    -4.703      2.372      4.701
REMARK INTER + INTRA:          -5.076
REMARK INTER:                  -4.979
REMARK INTRA:                  -0.097
REMARK UNBOUND:                -0.098
REMARK SMILES C=C(C)[C@H]1CC=C(C)C(=O)C1
REMARK SMILES IDX 8 1 7 2 6 3 5 4 4 5 11 6 9 7 10 8 2 9 1 10 3 11
REMARK H PARENT
REMARK Flexibility Score: inf
ROOT
ATOM      1  C   UNL     1      17.326  -9.602  63.237  1.00  0.00     0.048 C 
ATOM      2  C   UNL     1      17.829  -9.718  64.649  1.00  0.00    -0.012 C 
ATOM      3  C   UNL     1      16.978 -10.047  65.637  1.00  0.00    -0.019 C 
ATOM      4  C   UNL     1      17.426 -10.159  67.071  1.00  0.00     0.036 C 
ATOM      5  C   UNL     1      18.882 -10.652  67.160  1.00  0.00     0.025 C 
ATOM      6  C   UNL     1      19.807  -9.744  66.331  1.00  0.00     0.089 C 
ATOM      7  C   UNL     1      19.280  -9.592  64.929  1.00  0.00     0.158 C 
ATOM      8  O   UNL     1      20.084  -9.318  63.998  1.00  0.00    -0.295 OA
ENDROOT
BRANCH   5   9
ATOM      9  C   UNL     1      19.350 -10.750  68.606  1.00  0.00    -0.077 C 
ATOM     10  C   UNL     1      19.297  -9.672  69.405  1.00  0.00     0.008 C 
ATOM     11  C   UNL     1      19.878 -12.044  69.175  1.00  0.00     0.039 C 
ENDBRANCH   5   9
TORSDOF 1
ENDMDL
MODEL 4
REMARK VINA RESULT:    -4.700      3.193      4.462
REMARK INTER + INTRA:          -5.073
REMARK INTER:                  -4.974
REMARK INTRA:                  -0.098
REMARK UNBOUND:                -0.098
REMARK SMILES C=C(C)[C@H]1CC=C(C)C(=O)C1
REMARK SMILES IDX 8 1 7 2 6 3 5 4 4 5 11 6 9 7 10 8 2 9 1 10 3 11
REMARK H PARENT
REMARK Flexibility Score: inf
ROOT
ATOM      1  C   UNL     1      20.251  -9.654  65.988  1.00  0.00     0.048 C 
ATOM      2  C   UNL     1      18.881 -10.129  65.590  1.00  0.00    -0.012 C 
ATOM      3  C   UNL     1      17.919 -10.255  66.521  1.00  0.00    -0.019 C 
ATOM      4  C   UNL     1      16.537 -10.743  66.179  1.00  0.00     0.036 C 
ATOM      5  C   UNL     1      16.131 -10.309  64.759  1.00  0.00     0.025 C 
ATOM      6  C   UNL     1      17.182 -10.775  63.736  1.00  0.00     0.089 C 
ATOM      7  C   UNL     1      18.559 -10.337  64.157  1.00  0.00     0.158 C 
ATOM      8  O   UNL     1      19.450 -10.186  63.278  1.00  0.00    -0.295 OA
ENDROOT
BRANCH   5   9
ATOM      9  C   UNL     1      14.741 -10.815  64.397  1.00  0.00    -0.077 C 
ATOM     10  C   UNL     1      14.244 -11.908  64.999  1.00  0.00     0.008 C 
ATOM     11  C   UNL     1      13.892 -10.112  63.366  1.00  0.00     0.039 C 
ENDBRANCH   5   9
TORSDOF 1
ENDMDL
MODEL 5
REMARK VINA RESULT:    -4.639      3.585      5.905
REMARK INTER + INTRA:          -5.008
REMARK INTER:                  -4.913
REMARK INTRA:                  -0.096
REMARK UNBOUND:                -0.098
REMARK SMILES C=C(C)[C@H]1CC=C(C)C(=O)C1
REMARK SMILES IDX 8 1 7 2 6 3 5 4 4 5 11 6 9 7 10 8 2 9 1 10 3 11
REMARK H PARENT
REMARK Flexibility Score: inf
ROOT
ATOM      1  C   UNL     1      14.413 -11.591  61.212  1.00  0.00     0.048 C 
ATOM      2  C   UNL     1      15.252 -11.390  62.443  1.00  0.00    -0.012 C 
ATOM      3  C   UNL     1      14.837 -10.545  63.404  1.00  0.00    -0.019 C 
ATOM      4  C   UNL     1      15.647 -10.294  64.649  1.00  0.00     0.036 C 
ATOM      5  C   UNL     1      16.429 -11.552  65.065  1.00  0.00     0.025 C 
ATOM      6  C   UNL     1      17.298 -12.053  63.897  1.00  0.00     0.089 C 
ATOM      7  C   UNL     1      16.468 -12.213  62.652  1.00  0.00     0.158 C 
ATOM      8  O   UNL     1      16.840 -13.030  61.768  1.00  0.00    -0.295 OA
ENDROOT
BRANCH   5   9
ATOM      9  C   UNL     1      17.266 -11.301  66.312  1.00  0.00    -0.077 C 
ATOM     10  C   UNL     1      18.050 -12.275  66.805  1.00  0.00     0.008 C 
ATOM     11  C   UNL     1      17.241  -9.970  67.022  1.00  0.00     0.039 C 
ENDBRANCH   5   9
TORSDOF 1
ENDMDL
MODEL 6
REMARK VINA RESULT:    -4.597      2.408      3.412
REMARK INTER + INTRA:          -4.964
REMARK INTER:                  -4.875
REMARK INTRA:                  -0.089
REMARK UNBOUND:                -0.098
REMARK SMILES C=C(C)[C@H]1CC=C(C)C(=O)C1
REMARK SMILES IDX 8 1 7 2 6 3 5 4 4 5 11 6 9 7 10 8 2 9 1 10 3 11
REMARK H PARENT
REMARK Flexibility Score: inf
ROOT
ATOM      1  C   UNL     1      18.756  -9.831  68.424  1.00  0.00     0.048 C 
ATOM      2  C   UNL     1      18.225 -10.021  67.031  1.00  0.00    -0.012 C 
ATOM      3  C   UNL     1      16.953 -10.418  66.848  1.00  0.00    -0.019 C 
ATOM      4  C   UNL     1      16.377 -10.641  65.474  1.00  0.00     0.036 C 
ATOM      5  C   UNL     1      17.001  -9.678  64.448  1.00  0.00     0.025 C 
ATOM      6  C   UNL     1      18.535  -9.801  64.462  1.00  0.00     0.089 C 
ATOM      7  C   UNL     1      19.064  -9.654  65.863  1.00  0.00     0.158 C 
ATOM      8  O   UNL     1      20.245  -9.248  66.034  1.00  0.00    -0.295 OA
ENDROOT
BRANCH   5   9
ATOM      9  C   UNL     1      16.437  -9.909  63.052  1.00  0.00    -0.077 C 
ATOM     10  C   UNL     1      16.113  -8.863  62.275  1.00  0.00     0.008 C 
ATOM     11  C   UNL     1      16.231 -11.302  62.509  1.00  0.00     0.039 C 
ENDBRANCH   5   9
TORSDOF 1
ENDMDL
MODEL 7
REMARK VINA RESULT:    -4.594      3.302      4.652
REMARK INTER + INTRA:          -4.960
REMARK INTER:                  -4.872
REMARK INTRA:                  -0.089
REMARK UNBOUND:                -0.098
REMARK SMILES C=C(C)[C@H]1CC=C(C)C(=O)C1
REMARK SMILES IDX 8 1 7 2 6 3 5 4 4 5 11 6 9 7 10 8 2 9 1 10 3 11
REMARK H PARENT
REMARK Flexibility Score: inf
ROOT
ATOM      1  C   UNL     1      23.181 -10.816  64.352  1.00  0.00     0.048 C 
ATOM      2  C   UNL     1      21.706 -10.740  64.637  1.00  0.00    -0.012 C 
ATOM      3  C   UNL     1      21.160 -11.554  65.558  1.00  0.00    -0.019 C 
ATOM      4  C   UNL     1      19.687 -11.532  65.869  1.00  0.00     0.036 C 
ATOM      5  C   UNL     1      19.108 -10.115  65.705  1.00  0.00     0.025 C 
ATOM      6  C   UNL     1      19.414  -9.571  64.298  1.00  0.00     0.089 C 
ATOM      7  C   UNL     1      20.883  -9.686  63.995  1.00  0.00     0.158 C 
ATOM      8  O   UNL     1      21.400  -8.899  63.158  1.00  0.00    -0.295 OA
ENDROOT
BRANCH   5   9
ATOM      9  C   UNL     1      17.613 -10.086  65.999  1.00  0.00    -0.077 C 
ATOM     10  C   UNL     1      17.178  -9.950  67.263  1.00  0.00     0.008 C 
ATOM     11  C   UNL     1      16.592 -10.207  64.895  1.00  0.00     0.039 C 
ENDBRANCH   5   9
TORSDOF 1
ENDMDL
MODEL 8
REMARK VINA RESULT:    -4.583      2.191      4.637
REMARK INTER + INTRA:          -4.949
REMARK INTER:                  -4.852
REMARK INTRA:                  -0.097
REMARK UNBOUND:                -0.098
REMARK SMILES C=C(C)[C@H]1CC=C(C)C(=O)C1
REMARK SMILES IDX 8 1 7 2 6 3 5 4 4 5 11 6 9 7 10 8 2 9 1 10 3 11
REMARK H PARENT
REMARK Flexibility Score: inf
ROOT
ATOM      1  C   UNL     1      16.120 -10.257  64.619  1.00  0.00     0.048 C 
ATOM      2  C   UNL     1      16.989 -10.800  65.720  1.00  0.00    -0.012 C 
ATOM      3  C   UNL     1      17.255 -10.041  66.798  1.00  0.00    -0.019 C 
ATOM      4  C   UNL     1      18.134 -10.528  67.919  1.00  0.00     0.036 C 
ATOM      5  C   UNL     1      17.998 -12.050  68.108  1.00  0.00     0.025 C 
ATOM      6  C   UNL     1      18.286 -12.781  66.784  1.00  0.00     0.089 C 
ATOM      7  C   UNL     1      17.448 -12.209  65.672  1.00  0.00     0.158 C 
ATOM      8  O   UNL     1      17.171 -12.934  64.679  1.00  0.00    -0.295 OA
ENDROOT
BRANCH   5   9
ATOM      9  C   UNL     1      18.898 -12.555  69.228  1.00  0.00    -0.077 C 
ATOM     10  C   UNL     1      20.198 -12.216  69.253  1.00  0.00     0.008 C 
ATOM     11  C   UNL     1      18.364 -13.439  70.328  1.00  0.00     0.039 C 
ENDBRANCH   5   9
TORSDOF 1
ENDMDL
MODEL 9
REMARK VINA RESULT:    -4.518     16.704     18.901
REMARK INTER + INTRA:          -4.880
REMARK INTER:                  -4.790
REMARK INTRA:                  -0.090
REMARK UNBOUND:                -0.098
REMARK SMILES C=C(C)[C@H]1CC=C(C)C(=O)C1
REMARK SMILES IDX 8 1 7 2 6 3 5 4 4 5 11 6 9 7 10 8 2 9 1 10 3 11
REMARK H PARENT
REMARK Flexibility Score: inf
ROOT
ATOM      1  C   UNL     1       6.343  -1.282  62.831  1.00  0.00     0.048 C 
ATOM      2  C   UNL     1       6.243   0.218  62.834  1.00  0.00    -0.012 C 
ATOM      3  C   UNL     1       6.191   0.882  64.003  1.00  0.00    -0.019 C 
ATOM      4  C   UNL     1       6.073   2.383  64.063  1.00  0.00     0.036 C 
ATOM      5  C   UNL     1       6.794   3.043  62.874  1.00  0.00     0.025 C 
ATOM      6  C   UNL     1       6.270   2.471  61.545  1.00  0.00     0.089 C 
ATOM      7  C   UNL     1       6.328   0.968  61.557  1.00  0.00     0.158 C 
ATOM      8  O   UNL     1       6.413   0.348  60.463  1.00  0.00    -0.295 OA
ENDROOT
BRANCH   5   9
ATOM      9  C   UNL     1       6.664   4.560  62.916  1.00  0.00    -0.077 C 
ATOM     10  C   UNL     1       7.665   5.335  62.465  1.00  0.00     0.008 C 
ATOM     11  C   UNL     1       5.423   5.228  63.456  1.00  0.00     0.039 C 
ENDBRANCH   5   9
TORSDOF 1
ENDMDL
