MODEL 1
REMARK VINA RESULT:    -5.383      0.000      0.000
REMARK INTER + INTRA:         -12.696
REMARK INTER:                 -10.104
REMARK INTRA:                  -2.592
REMARK UNBOUND:                -2.592
REMARK SMILES O=C([O-])CCCCCCCCCCCCCCC(=O)[O-]
REMARK SMILES IDX 10 1 9 2 8 3 7 4 6 5 5 6 4 7 2 8 1 9 3 10 11 11 12 12 13 13
REMARK SMILES IDX 14 14 15 15 16 16 17 17 18 18 19 19 20 20
REMARK H PARENT
REMARK Flexibility Score: inf
ROOT
ATOM      1  C   UNL     1      21.424  -3.450 -37.292  1.00  0.00     0.000 C 
ENDROOT
BRANCH   1   2
ATOM      2  C   UNL     1      21.718  -4.499 -36.207  1.00  0.00     0.000 C 
BRANCH   2   3
ATOM      3  C   UNL     1      23.214  -4.834 -36.098  1.00  0.00     0.000 C 
BRANCH   3   4
ATOM      4  C   UNL     1      23.505  -6.334 -36.279  1.00  0.00     0.000 C 
BRANCH   4   5
ATOM      5  C   UNL     1      22.403  -7.047 -37.094  1.00  0.00     0.000 C 
BRANCH   5   6
ATOM      6  C   UNL     1      22.947  -8.132 -38.044  1.00  0.00     0.006 C 
BRANCH   6   7
ATOM      7  C   UNL     1      24.479  -8.234 -38.062  1.00  0.00     0.053 C 
BRANCH   7   8
ATOM      8  C   UNL     1      25.002  -8.485 -39.444  1.00  0.00     0.041 C 
ATOM      9  O   UNL     1      25.812  -7.680 -39.974  1.00  0.00    -0.550 OA
ATOM     10  O   UNL     1      24.581  -9.603 -40.154  1.00  0.00    -0.550 OA
ENDBRANCH   7   8
ENDBRANCH   6   7
ENDBRANCH   5   6
ENDBRANCH   4   5
ENDBRANCH   3   4
ENDBRANCH   2   3
ENDBRANCH   1   2
BRANCH   1  11
ATOM     11  C   UNL     1      20.713  -4.048 -38.517  1.00  0.00     0.000 C 
BRANCH  11  12
ATOM     12  C   UNL     1      21.478  -3.804 -39.830  1.00  0.00     0.000 C 
BRANCH  12  13
ATOM     13  C   UNL     1      22.349  -5.013 -40.231  1.00  0.00     0.000 C 
BRANCH  13  14
ATOM     14  C   UNL     1      23.813  -4.894 -39.775  1.00  0.00     0.000 C 
BRANCH  14  15
ATOM     15  C   UNL     1      24.293  -3.436 -39.682  1.00  0.00     0.000 C 
BRANCH  15  16
ATOM     16  C   UNL     1      25.479  -3.264 -38.720  1.00  0.00     0.006 C 
BRANCH  16  17
ATOM     17  C   UNL     1      25.963  -4.598 -38.137  1.00  0.00     0.053 C 
BRANCH  17  18
ATOM     18  C   UNL     1      27.453  -4.597 -37.999  1.00  0.00     0.041 C 
ATOM     19  O   UNL     1      28.098  -3.521 -38.098  1.00  0.00    -0.550 OA
ATOM     20  O   UNL     1      28.125  -5.778 -37.710  1.00  0.00    -0.550 OA
ENDBRANCH  17  18
ENDBRANCH  16  17
ENDBRANCH  15  16
ENDBRANCH  14  15
ENDBRANCH  13  14
ENDBRANCH  12  13
ENDBRANCH  11  12
ENDBRANCH   1  11
TORSDOF 15
ENDMDL
MODEL 2
REMARK VINA RESULT:    -5.304      0.500      4.661
REMARK INTER + INTRA:         -12.548
REMARK INTER:                 -10.177
REMARK INTRA:                  -2.371
REMARK UNBOUND:                -2.592
REMARK SMILES O=C([O-])CCCCCCCCCCCCCCC(=O)[O-]
REMARK SMILES IDX 10 1 9 2 8 3 7 4 6 5 5 6 4 7 2 8 1 9 3 10 11 11 12 12 13 13
REMARK SMILES IDX 14 14 15 15 16 16 17 17 18 18 19 19 20 20
REMARK H PARENT
REMARK Flexibility Score: inf
ROOT
ATOM      1  C   UNL     1      20.740  -4.112 -38.495  1.00  0.00     0.000 C 
ENDROOT
BRANCH   1   2
ATOM      2  C   UNL     1      21.601  -3.780 -39.726  1.00  0.00     0.000 C 
BRANCH   2   3
ATOM      3  C   UNL     1      22.458  -4.970 -40.187  1.00  0.00     0.000 C 
BRANCH   3   4
ATOM      4  C   UNL     1      23.959  -4.760 -39.927  1.00  0.00     0.000 C 
BRANCH   4   5
ATOM      5  C   UNL     1      24.300  -3.281 -39.635  1.00  0.00     0.000 C 
BRANCH   5   6
ATOM      6  C   UNL     1      25.647  -3.092 -38.913  1.00  0.00     0.006 C 
BRANCH   6   7
ATOM      7  C   UNL     1      26.074  -4.297 -38.063  1.00  0.00     0.053 C 
BRANCH   7   8
ATOM      8  C   UNL     1      27.566  -4.417 -37.978  1.00  0.00     0.041 C 
ATOM      9  O   UNL     1      28.107  -5.544 -37.830  1.00  0.00    -0.550 OA
ATOM     10  O   UNL     1      28.359  -3.278 -38.046  1.00  0.00    -0.550 OA
ENDBRANCH   7   8
ENDBRANCH   6   7
ENDBRANCH   5   6
ENDBRANCH   4   5
ENDBRANCH   3   4
ENDBRANCH   2   3
ENDBRANCH   1   2
BRANCH   1  11
ATOM     11  C   UNL     1      21.287  -3.482 -37.204  1.00  0.00     0.000 C 
BRANCH  11  12
ATOM     12  C   UNL     1      21.765  -4.531 -36.184  1.00  0.00     0.000 C 
BRANCH  12  13
ATOM     13  C   UNL     1      23.247  -4.911 -36.389  1.00  0.00     0.000 C 
BRANCH  13  14
ATOM     14  C   UNL     1      23.479  -6.425 -36.531  1.00  0.00     0.000 C 
BRANCH  14  15
ATOM     15  C   UNL     1      22.331  -7.140 -37.264  1.00  0.00     0.000 C 
BRANCH  15  16
ATOM     16  C   UNL     1      22.760  -8.489 -37.860  1.00  0.00     0.006 C 
BRANCH  16  17
ATOM     17  C   UNL     1      23.416  -8.342 -39.239  1.00  0.00     0.053 C 
BRANCH  17  18
ATOM     18  C   UNL     1      24.865  -8.709 -39.170  1.00  0.00     0.041 C 
ATOM     19  O   UNL     1      25.218  -9.915 -39.247  1.00  0.00    -0.550 OA
ATOM     20  O   UNL     1      25.830  -7.714 -39.073  1.00  0.00    -0.550 OA
ENDBRANCH  17  18
ENDBRANCH  16  17
ENDBRANCH  15  16
ENDBRANCH  14  15
ENDBRANCH  13  14
ENDBRANCH  12  13
ENDBRANCH  11  12
ENDBRANCH   1  11
TORSDOF 15
ENDMDL
MODEL 3
REMARK VINA RESULT:    -5.132      1.294      4.479
REMARK INTER + INTRA:         -12.225
REMARK INTER:                  -9.905
REMARK INTRA:                  -2.320
REMARK UNBOUND:                -2.592
REMARK SMILES O=C([O-])CCCCCCCCCCCCCCC(=O)[O-]
REMARK SMILES IDX 10 1 9 2 8 3 7 4 6 5 5 6 4 7 2 8 1 9 3 10 11 11 12 12 13 13
REMARK SMILES IDX 14 14 15 15 16 16 17 17 18 18 19 19 20 20
REMARK H PARENT
REMARK Flexibility Score: inf
ROOT
ATOM      1  C   UNL     1      20.634  -3.949 -38.834  1.00  0.00     0.000 C 
ENDROOT
BRANCH   1   2
ATOM      2  C   UNL     1      21.587  -3.914 -40.041  1.00  0.00     0.000 C 
BRANCH   2   3
ATOM      3  C   UNL     1      23.040  -4.234 -39.657  1.00  0.00     0.000 C 
BRANCH   3   4
ATOM      4  C   UNL     1      23.906  -2.974 -39.492  1.00  0.00     0.000 C 
BRANCH   4   5
ATOM      5  C   UNL     1      25.323  -3.303 -38.971  1.00  0.00     0.000 C 
BRANCH   5   6
ATOM      6  C   UNL     1      25.492  -4.772 -38.539  1.00  0.00     0.006 C 
BRANCH   6   7
ATOM      7  C   UNL     1      26.792  -5.051 -37.770  1.00  0.00     0.053 C 
BRANCH   7   8
ATOM      8  C   UNL     1      27.074  -6.519 -37.670  1.00  0.00     0.041 C 
ATOM      9  O   UNL     1      28.125  -6.929 -37.111  1.00  0.00    -0.550 OA
ATOM     10  O   UNL     1      26.182  -7.436 -38.211  1.00  0.00    -0.550 OA
ENDBRANCH   7   8
ENDBRANCH   6   7
ENDBRANCH   5   6
ENDBRANCH   4   5
ENDBRANCH   3   4
ENDBRANCH   2   3
ENDBRANCH   1   2
BRANCH   1  11
ATOM     11  C   UNL     1      20.677  -2.654 -38.008  1.00  0.00     0.000 C 
BRANCH  11  12
ATOM     12  C   UNL     1      21.422  -2.822 -36.672  1.00  0.00     0.000 C 
BRANCH  12  13
ATOM     13  C   UNL     1      21.583  -4.306 -36.278  1.00  0.00     0.000 C 
BRANCH  13  14
ATOM     14  C   UNL     1      23.020  -4.682 -35.878  1.00  0.00     0.000 C 
BRANCH  14  15
ATOM     15  C   UNL     1      23.419  -6.093 -36.344  1.00  0.00     0.000 C 
BRANCH  15  16
ATOM     16  C   UNL     1      22.332  -6.762 -37.200  1.00  0.00     0.006 C 
BRANCH  16  17
ATOM     17  C   UNL     1      22.742  -8.157 -37.688  1.00  0.00     0.053 C 
BRANCH  17  18
ATOM     18  C   UNL     1      22.690  -8.224 -39.181  1.00  0.00     0.041 C 
ATOM     19  O   UNL     1      23.502  -8.951 -39.812  1.00  0.00    -0.550 OA
ATOM     20  O   UNL     1      21.711  -7.524 -39.875  1.00  0.00    -0.550 OA
ENDBRANCH  17  18
ENDBRANCH  16  17
ENDBRANCH  15  16
ENDBRANCH  14  15
ENDBRANCH  13  14
ENDBRANCH  12  13
ENDBRANCH  11  12
ENDBRANCH   1  11
TORSDOF 15
ENDMDL
MODEL 4
REMARK VINA RESULT:    -5.079      3.102      5.545
REMARK INTER + INTRA:         -12.126
REMARK INTER:                  -9.631
REMARK INTRA:                  -2.495
REMARK UNBOUND:                -2.592
REMARK SMILES O=C([O-])CCCCCCCCCCCCCCC(=O)[O-]
REMARK SMILES IDX 10 1 9 2 8 3 7 4 6 5 5 6 4 7 2 8 1 9 3 10 11 11 12 12 13 13
REMARK SMILES IDX 14 14 15 15 16 16 17 17 18 18 19 19 20 20
REMARK H PARENT
REMARK Flexibility Score: inf
ROOT
ATOM      1  C   UNL     1      25.343  -8.090 -38.402  1.00  0.00     0.000 C 
ENDROOT
BRANCH   1   2
ATOM      2  C   UNL     1      23.821  -8.012 -38.199  1.00  0.00     0.000 C 
BRANCH   2   3
ATOM      3  C   UNL     1      23.419  -6.995 -37.118  1.00  0.00     0.000 C 
BRANCH   3   4
ATOM      4  C   UNL     1      21.896  -6.799 -37.019  1.00  0.00     0.000 C 
BRANCH   4   5
ATOM      5  C   UNL     1      21.512  -5.319 -36.800  1.00  0.00     0.000 C 
BRANCH   5   6
ATOM      6  C   UNL     1      22.633  -4.482 -36.155  1.00  0.00     0.006 C 
BRANCH   6   7
ATOM      7  C   UNL     1      22.578  -2.988 -36.507  1.00  0.00     0.053 C 
BRANCH   7   8
ATOM      8  C   UNL     1      21.325  -2.343 -35.996  1.00  0.00     0.041 C 
ATOM      9  O   UNL     1      20.476  -1.875 -36.798  1.00  0.00    -0.550 OA
ATOM     10  O   UNL     1      21.105  -2.243 -34.627  1.00  0.00    -0.550 OA
ENDBRANCH   7   8
ENDBRANCH   6   7
ENDBRANCH   5   6
ENDBRANCH   4   5
ENDBRANCH   3   4
ENDBRANCH   2   3
ENDBRANCH   1   2
BRANCH   1  11
ATOM     11  C   UNL     1      26.109  -7.095 -37.516  1.00  0.00     0.000 C 
BRANCH  11  12
ATOM     12  C   UNL     1      27.255  -6.389 -38.263  1.00  0.00     0.000 C 
BRANCH  12  13
ATOM     13  C   UNL     1      27.262  -4.866 -38.017  1.00  0.00     0.000 C 
BRANCH  13  14
ATOM     14  C   UNL     1      25.855  -4.261 -37.868  1.00  0.00     0.000 C 
BRANCH  14  15
ATOM     15  C   UNL     1      25.606  -3.086 -38.828  1.00  0.00     0.000 C 
BRANCH  15  16
ATOM     16  C   UNL     1      24.282  -3.222 -39.597  1.00  0.00     0.006 C 
BRANCH  16  17
ATOM     17  C   UNL     1      23.977  -4.671 -39.993  1.00  0.00     0.053 C 
BRANCH  17  18
ATOM     18  C   UNL     1      22.504  -4.864 -40.174  1.00  0.00     0.041 C 
ATOM     19  O   UNL     1      22.034  -6.017 -40.361  1.00  0.00    -0.550 OA
ATOM     20  O   UNL     1      21.644  -3.777 -40.084  1.00  0.00    -0.550 OA
ENDBRANCH  17  18
ENDBRANCH  16  17
ENDBRANCH  15  16
ENDBRANCH  14  15
ENDBRANCH  13  14
ENDBRANCH  12  13
ENDBRANCH  11  12
ENDBRANCH   1  11
TORSDOF 15
ENDMDL
MODEL 5
REMARK VINA RESULT:    -5.029      2.457      5.484
REMARK INTER + INTRA:         -12.031
REMARK INTER:                  -9.865
REMARK INTRA:                  -2.166
REMARK UNBOUND:                -2.592
REMARK SMILES O=C([O-])CCCCCCCCCCCCCCC(=O)[O-]
REMARK SMILES IDX 10 1 9 2 8 3 7 4 6 5 5 6 4 7 2 8 1 9 3 10 11 11 12 12 13 13
REMARK SMILES IDX 14 14 15 15 16 16 17 17 18 18 19 19 20 20
REMARK H PARENT
REMARK Flexibility Score: inf
ROOT
ATOM      1  C   UNL     1      24.253  -3.701 -39.896  1.00  0.00     0.000 C 
ENDROOT
BRANCH   1   2
ATOM      2  C   UNL     1      23.696  -5.119 -39.688  1.00  0.00     0.000 C 
BRANCH   2   3
ATOM      3  C   UNL     1      22.159  -5.153 -39.667  1.00  0.00     0.000 C 
BRANCH   3   4
ATOM      4  C   UNL     1      21.529  -3.754 -39.774  1.00  0.00     0.000 C 
BRANCH   4   5
ATOM      5  C   UNL     1      20.344  -3.572 -38.801  1.00  0.00     0.000 C 
BRANCH   5   6
ATOM      6  C   UNL     1      20.596  -2.506 -37.717  1.00  0.00     0.006 C 
BRANCH   6   7
ATOM      7  C   UNL     1      21.977  -2.609 -37.051  1.00  0.00     0.053 C 
BRANCH   7   8
ATOM      8  C   UNL     1      21.995  -3.645 -35.968  1.00  0.00     0.041 C 
ATOM      9  O   UNL     1      22.393  -4.814 -36.211  1.00  0.00    -0.550 OA
ATOM     10  O   UNL     1      21.554  -3.321 -34.690  1.00  0.00    -0.550 OA
ENDBRANCH   7   8
ENDBRANCH   6   7
ENDBRANCH   5   6
ENDBRANCH   4   5
ENDBRANCH   3   4
ENDBRANCH   2   3
ENDBRANCH   1   2
BRANCH   1  11
ATOM     11  C   UNL     1      25.193  -3.263 -38.762  1.00  0.00     0.000 C 
BRANCH  11  12
ATOM     12  C   UNL     1      25.531  -4.407 -37.790  1.00  0.00     0.000 C 
BRANCH  12  13
ATOM     13  C   UNL     1      27.034  -4.756 -37.799  1.00  0.00     0.000 C 
BRANCH  13  14
ATOM     14  C   UNL     1      27.322  -6.226 -38.149  1.00  0.00     0.000 C 
BRANCH  14  15
ATOM     15  C   UNL     1      26.176  -7.170 -37.748  1.00  0.00     0.000 C 
BRANCH  15  16
ATOM     16  C   UNL     1      25.669  -8.018 -38.925  1.00  0.00     0.006 C 
BRANCH  16  17
ATOM     17  C   UNL     1      24.656  -9.084 -38.491  1.00  0.00     0.053 C 
BRANCH  17  18
ATOM     18  C   UNL     1      23.259  -8.588 -38.687  1.00  0.00     0.041 C 
ATOM     19  O   UNL     1      22.743  -8.583 -39.836  1.00  0.00    -0.550 OA
ATOM     20  O   UNL     1      22.506  -8.177 -37.594  1.00  0.00    -0.550 OA
ENDBRANCH  17  18
ENDBRANCH  16  17
ENDBRANCH  15  16
ENDBRANCH  14  15
ENDBRANCH  13  14
ENDBRANCH  12  13
ENDBRANCH  11  12
ENDBRANCH   1  11
TORSDOF 15
ENDMDL
MODEL 6
REMARK VINA RESULT:    -4.960      2.568      4.321
REMARK INTER + INTRA:         -11.902
REMARK INTER:                 -10.025
REMARK INTRA:                  -1.877
REMARK UNBOUND:                -2.592
REMARK SMILES O=C([O-])CCCCCCCCCCCCCCC(=O)[O-]
REMARK SMILES IDX 10 1 9 2 8 3 7 4 6 5 5 6 4 7 2 8 1 9 3 10 11 11 12 12 13 13
REMARK SMILES IDX 14 14 15 15 16 16 17 17 18 18 19 19 20 20
REMARK H PARENT
REMARK Flexibility Score: inf
ROOT
ATOM      1  C   UNL     1      25.677  -4.495 -37.881  1.00  0.00     0.000 C 
ENDROOT
BRANCH   1   2
ATOM      2  C   UNL     1      27.159  -4.899 -37.808  1.00  0.00     0.000 C 
BRANCH   2   3
ATOM      3  C   UNL     1      27.371  -6.407 -38.015  1.00  0.00     0.000 C 
BRANCH   3   4
ATOM      4  C   UNL     1      26.050  -7.193 -38.077  1.00  0.00     0.000 C 
BRANCH   4   5
ATOM      5  C   UNL     1      25.810  -7.821 -39.468  1.00  0.00     0.000 C 
BRANCH   5   6
ATOM      6  C   UNL     1      24.534  -8.680 -39.543  1.00  0.00     0.006 C 
BRANCH   6   7
ATOM      7  C   UNL     1      23.775  -8.787 -38.212  1.00  0.00     0.053 C 
BRANCH   7   8
ATOM      8  C   UNL     1      22.490  -8.018 -38.242  1.00  0.00     0.041 C 
ATOM      9  O   UNL     1      22.081  -7.420 -37.212  1.00  0.00    -0.550 OA
ATOM     10  O   UNL     1      21.732  -7.975 -39.406  1.00  0.00    -0.550 OA
ENDBRANCH   7   8
ENDBRANCH   6   7
ENDBRANCH   5   6
ENDBRANCH   4   5
ENDBRANCH   3   4
ENDBRANCH   2   3
ENDBRANCH   1   2
BRANCH   1  11
ATOM     11  C   UNL     1      25.457  -3.189 -38.661  1.00  0.00     0.000 C 
BRANCH  11  12
ATOM     12  C   UNL     1      24.241  -3.253 -39.603  1.00  0.00     0.000 C 
BRANCH  12  13
ATOM     13  C   UNL     1      23.799  -4.704 -39.886  1.00  0.00     0.000 C 
BRANCH  13  14
ATOM     14  C   UNL     1      22.283  -4.855 -40.096  1.00  0.00     0.000 C 
BRANCH  14  15
ATOM     15  C   UNL     1      21.472  -3.733 -39.425  1.00  0.00     0.000 C 
BRANCH  15  16
ATOM     16  C   UNL     1      20.945  -4.134 -38.038  1.00  0.00     0.006 C 
BRANCH  16  17
ATOM     17  C   UNL     1      21.222  -3.068 -36.971  1.00  0.00     0.053 C 
BRANCH  17  18
ATOM     18  C   UNL     1      21.881  -3.682 -35.777  1.00  0.00     0.041 C 
ATOM     19  O   UNL     1      22.796  -4.534 -35.926  1.00  0.00    -0.550 OA
ATOM     20  O   UNL     1      21.519  -3.278 -34.498  1.00  0.00    -0.550 OA
ENDBRANCH  17  18
ENDBRANCH  16  17
ENDBRANCH  15  16
ENDBRANCH  14  15
ENDBRANCH  13  14
ENDBRANCH  12  13
ENDBRANCH  11  12
ENDBRANCH   1  11
TORSDOF 15
ENDMDL
MODEL 7
REMARK VINA RESULT:    -4.832      2.639      5.321
REMARK INTER + INTRA:         -11.662
REMARK INTER:                  -9.326
REMARK INTRA:                  -2.337
REMARK UNBOUND:                -2.592
REMARK SMILES O=C([O-])CCCCCCCCCCCCCCC(=O)[O-]
REMARK SMILES IDX 10 1 9 2 8 3 7 4 6 5 5 6 4 7 2 8 1 9 3 10 11 11 12 12 13 13
REMARK SMILES IDX 14 14 15 15 16 16 17 17 18 18 19 19 20 20
REMARK H PARENT
REMARK Flexibility Score: inf
ROOT
ATOM      1  C   UNL     1      25.637  -3.859 -38.814  1.00  0.00     0.000 C 
ENDROOT
BRANCH   1   2
ATOM      2  C   UNL     1      24.589  -2.734 -38.810  1.00  0.00     0.000 C 
BRANCH   2   3
ATOM      3  C   UNL     1      23.725  -2.736 -37.540  1.00  0.00     0.000 C 
BRANCH   3   4
ATOM      4  C   UNL     1      23.961  -3.975 -36.658  1.00  0.00     0.000 C 
BRANCH   4   5
ATOM      5  C   UNL     1      22.670  -4.800 -36.454  1.00  0.00     0.000 C 
BRANCH   5   6
ATOM      6  C   UNL     1      21.401  -4.091 -36.963  1.00  0.00     0.006 C 
BRANCH   6   7
ATOM      7  C   UNL     1      20.720  -4.800 -38.143  1.00  0.00     0.053 C 
BRANCH   7   8
ATOM      8  C   UNL     1      20.846  -4.012 -39.412  1.00  0.00     0.041 C 
ATOM      9  O   UNL     1      21.745  -4.291 -40.248  1.00  0.00    -0.550 OA
ATOM     10  O   UNL     1      19.978  -2.956 -39.663  1.00  0.00    -0.550 OA
ENDBRANCH   7   8
ENDBRANCH   6   7
ENDBRANCH   5   6
ENDBRANCH   4   5
ENDBRANCH   3   4
ENDBRANCH   2   3
ENDBRANCH   1   2
BRANCH   1  11
ATOM     11  C   UNL     1      27.037  -3.366 -38.417  1.00  0.00     0.000 C 
BRANCH  11  12
ATOM     12  C   UNL     1      27.971  -4.508 -37.978  1.00  0.00     0.000 C 
BRANCH  12  13
ATOM     13  C   UNL     1      27.406  -5.896 -38.345  1.00  0.00     0.000 C 
BRANCH  13  14
ATOM     14  C   UNL     1      27.079  -6.770 -37.122  1.00  0.00     0.000 C 
BRANCH  14  15
ATOM     15  C   UNL     1      25.587  -7.132 -37.030  1.00  0.00     0.000 C 
BRANCH  15  16
ATOM     16  C   UNL     1      25.085  -7.889 -38.270  1.00  0.00     0.006 C 
BRANCH  16  17
ATOM     17  C   UNL     1      23.989  -7.125 -39.023  1.00  0.00     0.053 C 
BRANCH  17  18
ATOM     18  C   UNL     1      22.668  -7.806 -38.854  1.00  0.00     0.041 C 
ATOM     19  O   UNL     1      22.400  -8.415 -37.785  1.00  0.00    -0.550 OA
ATOM     20  O   UNL     1      21.711  -7.727 -39.858  1.00  0.00    -0.550 OA
ENDBRANCH  17  18
ENDBRANCH  16  17
ENDBRANCH  15  16
ENDBRANCH  14  15
ENDBRANCH  13  14
ENDBRANCH  12  13
ENDBRANCH  11  12
ENDBRANCH   1  11
TORSDOF 15
ENDMDL
MODEL 8
REMARK VINA RESULT:    -4.829      3.171      5.036
REMARK INTER + INTRA:         -11.655
REMARK INTER:                  -9.646
REMARK INTRA:                  -2.010
REMARK UNBOUND:                -2.592
REMARK SMILES O=C([O-])CCCCCCCCCCCCCCC(=O)[O-]
REMARK SMILES IDX 10 1 9 2 8 3 7 4 6 5 5 6 4 7 2 8 1 9 3 10 11 11 12 12 13 13
REMARK SMILES IDX 14 14 15 15 16 16 17 17 18 18 19 19 20 20
REMARK H PARENT
REMARK Flexibility Score: inf
ROOT
ATOM      1  C   UNL     1      22.117  -6.905 -37.690  1.00  0.00     0.000 C 
ENDROOT
BRANCH   1   2
ATOM      2  C   UNL     1      23.127  -6.473 -36.614  1.00  0.00     0.000 C 
BRANCH   2   3
ATOM      3  C   UNL     1      22.977  -4.996 -36.219  1.00  0.00     0.000 C 
BRANCH   3   4
ATOM      4  C   UNL     1      21.563  -4.448 -36.484  1.00  0.00     0.000 C 
BRANCH   4   5
ATOM      5  C   UNL     1      21.497  -2.911 -36.340  1.00  0.00     0.000 C 
BRANCH   5   6
ATOM      6  C   UNL     1      20.736  -2.219 -37.487  1.00  0.00     0.006 C 
BRANCH   6   7
ATOM      7  C   UNL     1      20.468  -3.127 -38.696  1.00  0.00     0.053 C 
BRANCH   7   8
ATOM      8  C   UNL     1      19.319  -2.632 -39.520  1.00  0.00     0.041 C 
ATOM      9  O   UNL     1      18.379  -1.990 -38.981  1.00  0.00    -0.550 OA
ATOM     10  O   UNL     1      19.277  -2.895 -40.883  1.00  0.00    -0.550 OA
ENDBRANCH   7   8
ENDBRANCH   6   7
ENDBRANCH   5   6
ENDBRANCH   4   5
ENDBRANCH   3   4
ENDBRANCH   2   3
ENDBRANCH   1   2
BRANCH   1  11
ATOM     11  C   UNL     1      22.774  -7.692 -38.835  1.00  0.00     0.000 C 
BRANCH  11  12
ATOM     12  C   UNL     1      23.763  -8.760 -38.335  1.00  0.00     0.000 C 
BRANCH  12  13
ATOM     13  C   UNL     1      25.041  -8.820 -39.198  1.00  0.00     0.000 C 
BRANCH  13  14
ATOM     14  C   UNL     1      25.662  -7.440 -39.475  1.00  0.00     0.000 C 
BRANCH  14  15
ATOM     15  C   UNL     1      26.339  -6.830 -38.236  1.00  0.00     0.000 C 
BRANCH  15  16
ATOM     16  C   UNL     1      26.182  -5.303 -38.168  1.00  0.00     0.006 C 
BRANCH  16  17
ATOM     17  C   UNL     1      25.121  -4.775 -39.141  1.00  0.00     0.053 C 
BRANCH  17  18
ATOM     18  C   UNL     1      24.994  -3.289 -39.020  1.00  0.00     0.041 C 
ATOM     19  O   UNL     1      23.858  -2.746 -39.044  1.00  0.00    -0.550 OA
ATOM     20  O   UNL     1      26.127  -2.508 -38.829  1.00  0.00    -0.550 OA
ENDBRANCH  17  18
ENDBRANCH  16  17
ENDBRANCH  15  16
ENDBRANCH  14  15
ENDBRANCH  13  14
ENDBRANCH  12  13
ENDBRANCH  11  12
ENDBRANCH   1  11
TORSDOF 15
ENDMDL
MODEL 9
REMARK VINA RESULT:    -4.796      2.802      5.158
REMARK INTER + INTRA:         -11.595
REMARK INTER:                  -9.662
REMARK INTRA:                  -1.933
REMARK UNBOUND:                -2.592
REMARK SMILES O=C([O-])CCCCCCCCCCCCCCC(=O)[O-]
REMARK SMILES IDX 10 1 9 2 8 3 7 4 6 5 5 6 4 7 2 8 1 9 3 10 11 11 12 12 13 13
REMARK SMILES IDX 14 14 15 15 16 16 17 17 18 18 19 19 20 20
REMARK H PARENT
REMARK Flexibility Score: inf
ROOT
ATOM      1  C   UNL     1      22.015  -6.272 -38.045  1.00  0.00     0.000 C 
ENDROOT
BRANCH   1   2
ATOM      2  C   UNL     1      22.099  -6.259 -39.580  1.00  0.00     0.000 C 
BRANCH   2   3
ATOM      3  C   UNL     1      21.890  -4.856 -40.172  1.00  0.00     0.000 C 
BRANCH   3   4
ATOM      4  C   UNL     1      21.830  -3.757 -39.097  1.00  0.00     0.000 C 
BRANCH   4   5
ATOM      5  C   UNL     1      20.411  -3.164 -38.948  1.00  0.00     0.000 C 
BRANCH   5   6
ATOM      6  C   UNL     1      20.262  -2.227 -37.734  1.00  0.00     0.006 C 
BRANCH   6   7
ATOM      7  C   UNL     1      21.565  -2.005 -36.953  1.00  0.00     0.053 C 
BRANCH   7   8
ATOM      8  C   UNL     1      21.523  -2.658 -35.604  1.00  0.00     0.041 C 
ATOM      9  O   UNL     1      21.720  -3.896 -35.490  1.00  0.00    -0.550 OA
ATOM     10  O   UNL     1      21.248  -1.899 -34.473  1.00  0.00    -0.550 OA
ENDBRANCH   7   8
ENDBRANCH   6   7
ENDBRANCH   5   6
ENDBRANCH   4   5
ENDBRANCH   3   4
ENDBRANCH   2   3
ENDBRANCH   1   2
BRANCH   1  11
ATOM     11  C   UNL     1      22.650  -7.528 -37.428  1.00  0.00     0.000 C 
BRANCH  11  12
ATOM     12  C   UNL     1      23.011  -8.592 -38.480  1.00  0.00     0.000 C 
BRANCH  12  13
ATOM     13  C   UNL     1      24.485  -9.039 -38.376  1.00  0.00     0.000 C 
BRANCH  13  14
ATOM     14  C   UNL     1      25.371  -8.505 -39.514  1.00  0.00     0.000 C 
BRANCH  14  15
ATOM     15  C   UNL     1      25.687  -7.006 -39.372  1.00  0.00     0.000 C 
BRANCH  15  16
ATOM     16  C   UNL     1      26.318  -6.662 -38.013  1.00  0.00     0.006 C 
BRANCH  16  17
ATOM     17  C   UNL     1      26.710  -5.184 -37.903  1.00  0.00     0.053 C 
BRANCH  17  18
ATOM     18  C   UNL     1      25.495  -4.314 -37.976  1.00  0.00     0.041 C 
ATOM     19  O   UNL     1      24.653  -4.322 -37.041  1.00  0.00    -0.550 OA
ATOM     20  O   UNL     1      25.319  -3.455 -39.054  1.00  0.00    -0.550 OA
ENDBRANCH  17  18
ENDBRANCH  16  17
ENDBRANCH  15  16
ENDBRANCH  14  15
ENDBRANCH  13  14
ENDBRANCH  12  13
ENDBRANCH  11  12
ENDBRANCH   1  11
TORSDOF 15
ENDMDL
