MODEL 1
REMARK VINA RESULT:    -3.793      0.000      0.000
REMARK INTER + INTRA:          -8.775
REMARK INTER:                  -6.675
REMARK INTRA:                  -2.099
REMARK UNBOUND:                -2.099
REMARK SMILES CCCCCCCCCCCCCCC(=O)[O-]
REMARK SMILES IDX 9 1 10 2 11 3 12 4 13 5 14 6 15 7 16 8 17 9 8 10 7 11 6 12
REMARK SMILES IDX 5 13 4 14 3 15 2 16 1 17
REMARK H PARENT
REMARK Flexibility Score: inf
ROOT
ATOM      1  C   UNL     1      -0.032  -0.501  57.516  1.00  0.00     0.000 C 
ENDROOT
BRANCH   1   2
ATOM      2  C   UNL     1       0.913  -1.705  57.355  1.00  0.00     0.000 C 
BRANCH   2   3
ATOM      3  C   UNL     1       1.925  -1.817  58.507  1.00  0.00     0.000 C 
BRANCH   3   4
ATOM      4  C   UNL     1       2.820  -0.573  58.635  1.00  0.00     0.000 C 
BRANCH   4   5
ATOM      5  C   UNL     1       2.736   0.090  60.022  1.00  0.00     0.006 C 
BRANCH   5   6
ATOM      6  C   UNL     1       1.933   1.402  60.039  1.00  0.00     0.053 C 
BRANCH   6   7
ATOM      7  C   UNL     1       0.645   1.277  60.795  1.00  0.00     0.041 C 
ATOM      8  O   UNL     1       0.180   0.140  61.072  1.00  0.00    -0.550 OA
ATOM      9  O   UNL     1      -0.026   2.415  61.226  1.00  0.00    -0.550 OA
ENDBRANCH   6   7
ENDBRANCH   5   6
ENDBRANCH   4   5
ENDBRANCH   3   4
ENDBRANCH   2   3
ENDBRANCH   1   2
BRANCH   1  10
ATOM     10  C   UNL     1      -0.066   0.394  56.267  1.00  0.00     0.000 C 
BRANCH  10  11
ATOM     11  C   UNL     1       0.991   1.509  56.307  1.00  0.00    -0.000 C 
BRANCH  11  12
ATOM     12  C   UNL     1       1.862   1.484  55.045  1.00  0.00    -0.000 C 
BRANCH  12  13
ATOM     13  C   UNL     1       3.071   0.554  55.230  1.00  0.00    -0.000 C 
BRANCH  13  14
ATOM     14  C   UNL     1       3.247  -0.427  54.059  1.00  0.00    -0.000 C 
BRANCH  14  15
ATOM     15  C   UNL     1       1.932  -0.699  53.312  1.00  0.00    -0.000 C 
BRANCH  15  16
ATOM     16  C   UNL     1       1.427  -2.120  53.590  1.00  0.00    -0.003 C 
ATOM     17  C   UNL     1       0.068  -2.359  52.940  1.00  0.00     0.004 C 
ENDBRANCH  15  16
ENDBRANCH  14  15
ENDBRANCH  13  14
ENDBRANCH  12  13
ENDBRANCH  11  12
ENDBRANCH  10  11
ENDBRANCH   1  10
TORSDOF 13
ENDMDL
MODEL 2
REMARK VINA RESULT:    -3.762     10.147     12.490
REMARK INTER + INTRA:          -8.720
REMARK INTER:                  -6.963
REMARK INTRA:                  -1.757
REMARK UNBOUND:                -2.099
REMARK SMILES CCCCCCCCCCCCCCC(=O)[O-]
REMARK SMILES IDX 9 1 10 2 11 3 12 4 13 5 14 6 15 7 16 8 17 9 8 10 7 11 6 12
REMARK SMILES IDX 5 13 4 14 3 15 2 16 1 17
REMARK H PARENT
REMARK Flexibility Score: inf
ROOT
ATOM      1  C   UNL     1      -6.456   3.447  54.629  1.00  0.00     0.000 C 
ENDROOT
BRANCH   1   2
ATOM      2  C   UNL     1      -5.923   3.350  53.188  1.00  0.00     0.000 C 
BRANCH   2   3
ATOM      3  C   UNL     1      -7.047   3.397  52.140  1.00  0.00     0.000 C 
BRANCH   3   4
ATOM      4  C   UNL     1      -7.090   4.730  51.373  1.00  0.00     0.000 C 
BRANCH   4   5
ATOM      5  C   UNL     1      -7.976   5.789  52.053  1.00  0.00     0.006 C 
BRANCH   5   6
ATOM      6  C   UNL     1      -9.414   5.315  52.329  1.00  0.00     0.053 C 
BRANCH   6   7
ATOM      7  C   UNL     1     -10.219   5.163  51.074  1.00  0.00     0.041 C 
ATOM      8  O   UNL     1     -10.474   4.017  50.620  1.00  0.00    -0.550 OA
ATOM      9  O   UNL     1     -10.720   6.285  50.424  1.00  0.00    -0.550 OA
ENDBRANCH   6   7
ENDBRANCH   5   6
ENDBRANCH   4   5
ENDBRANCH   3   4
ENDBRANCH   2   3
ENDBRANCH   1   2
BRANCH   1  10
ATOM     10  C   UNL     1      -5.929   4.686  55.371  1.00  0.00     0.000 C 
BRANCH  10  11
ATOM     11  C   UNL     1      -7.035   5.704  55.687  1.00  0.00    -0.000 C 
BRANCH  11  12
ATOM     12  C   UNL     1      -8.331   4.996  56.100  1.00  0.00    -0.000 C 
BRANCH  12  13
ATOM     13  C   UNL     1      -8.540   5.074  57.620  1.00  0.00    -0.000 C 
BRANCH  13  14
ATOM     14  C   UNL     1      -7.804   6.263  58.259  1.00  0.00    -0.000 C 
BRANCH  14  15
ATOM     15  C   UNL     1      -7.346   5.972  59.697  1.00  0.00    -0.000 C 
BRANCH  15  16
ATOM     16  C   UNL     1      -6.030   5.184  59.703  1.00  0.00    -0.003 C 
ATOM     17  C   UNL     1      -4.981   5.857  58.823  1.00  0.00     0.004 C 
ENDBRANCH  15  16
ENDBRANCH  14  15
ENDBRANCH  13  14
ENDBRANCH  12  13
ENDBRANCH  11  12
ENDBRANCH  10  11
ENDBRANCH   1  10
TORSDOF 13
ENDMDL
MODEL 3
REMARK VINA RESULT:    -3.727     10.151     11.791
REMARK INTER + INTRA:          -8.658
REMARK INTER:                  -6.453
REMARK INTRA:                  -2.205
REMARK UNBOUND:                -2.099
REMARK SMILES CCCCCCCCCCCCCCC(=O)[O-]
REMARK SMILES IDX 9 1 10 2 11 3 12 4 13 5 14 6 15 7 16 8 17 9 8 10 7 11 6 12
REMARK SMILES IDX 5 13 4 14 3 15 2 16 1 17
REMARK H PARENT
REMARK Flexibility Score: inf
ROOT
ATOM      1  C   UNL     1      -7.738   3.216  51.386  1.00  0.00     0.000 C 
ENDROOT
BRANCH   1   2
ATOM      2  C   UNL     1      -7.414   2.819  52.837  1.00  0.00     0.000 C 
BRANCH   2   3
ATOM      3  C   UNL     1      -5.981   3.201  53.246  1.00  0.00     0.000 C 
BRANCH   3   4
ATOM      4  C   UNL     1      -5.937   4.074  54.512  1.00  0.00     0.000 C 
BRANCH   4   5
ATOM      5  C   UNL     1      -7.335   4.446  55.037  1.00  0.00     0.006 C 
BRANCH   5   6
ATOM      6  C   UNL     1      -7.463   5.912  55.486  1.00  0.00     0.053 C 
BRANCH   6   7
ATOM      7  C   UNL     1      -7.229   6.084  56.957  1.00  0.00     0.041 C 
ATOM      8  O   UNL     1      -8.185   6.384  57.720  1.00  0.00    -0.550 OA
ATOM      9  O   UNL     1      -5.964   5.876  57.493  1.00  0.00    -0.550 OA
ENDBRANCH   6   7
ENDBRANCH   5   6
ENDBRANCH   4   5
ENDBRANCH   3   4
ENDBRANCH   2   3
ENDBRANCH   1   2
BRANCH   1  10
ATOM     10  C   UNL     1      -7.134   4.575  50.997  1.00  0.00     0.000 C 
BRANCH  10  11
ATOM     11  C   UNL     1      -7.878   5.759  51.634  1.00  0.00    -0.000 C 
BRANCH  11  12
ATOM     12  C   UNL     1      -9.363   5.744  51.253  1.00  0.00    -0.000 C 
BRANCH  12  13
ATOM     13  C   UNL     1     -10.243   6.120  52.454  1.00  0.00    -0.000 C 
BRANCH  13  14
ATOM     14  C   UNL     1     -11.316   5.062  52.757  1.00  0.00    -0.000 C 
BRANCH  14  15
ATOM     15  C   UNL     1     -10.765   3.873  53.560  1.00  0.00    -0.000 C 
BRANCH  15  16
ATOM     16  C   UNL     1     -11.199   2.542  52.934  1.00  0.00    -0.003 C 
ATOM     17  C   UNL     1     -11.439   2.689  51.434  1.00  0.00     0.004 C 
ENDBRANCH  15  16
ENDBRANCH  14  15
ENDBRANCH  13  14
ENDBRANCH  12  13
ENDBRANCH  11  12
ENDBRANCH  10  11
ENDBRANCH   1  10
TORSDOF 13
ENDMDL
MODEL 4
REMARK VINA RESULT:    -3.705      9.320     10.876
REMARK INTER + INTRA:          -8.620
REMARK INTER:                  -6.401
REMARK INTRA:                  -2.218
REMARK UNBOUND:                -2.099
REMARK SMILES CCCCCCCCCCCCCCC(=O)[O-]
REMARK SMILES IDX 9 1 10 2 11 3 12 4 13 5 14 6 15 7 16 8 17 9 8 10 7 11 6 12
REMARK SMILES IDX 5 13 4 14 3 15 2 16 1 17
REMARK H PARENT
REMARK Flexibility Score: inf
ROOT
ATOM      1  C   UNL     1      -8.543   3.118  54.468  1.00  0.00     0.000 C 
ENDROOT
BRANCH   1   2
ATOM      2  C   UNL     1      -7.017   3.028  54.647  1.00  0.00     0.000 C 
BRANCH   2   3
ATOM      3  C   UNL     1      -6.356   4.411  54.769  1.00  0.00     0.000 C 
BRANCH   3   4
ATOM      4  C   UNL     1      -7.315   5.482  55.316  1.00  0.00     0.000 C 
BRANCH   4   5
ATOM      5  C   UNL     1      -6.866   6.060  56.670  1.00  0.00     0.006 C 
BRANCH   5   6
ATOM      6  C   UNL     1      -6.674   4.999  57.767  1.00  0.00     0.053 C 
BRANCH   6   7
ATOM      7  C   UNL     1      -5.288   5.007  58.338  1.00  0.00     0.041 C 
ATOM      8  O   UNL     1      -4.588   3.960  58.320  1.00  0.00    -0.550 OA
ATOM      9  O   UNL     1      -4.752   6.180  58.856  1.00  0.00    -0.550 OA
ENDBRANCH   6   7
ENDBRANCH   5   6
ENDBRANCH   4   5
ENDBRANCH   3   4
ENDBRANCH   2   3
ENDBRANCH   1   2
BRANCH   1  10
ATOM     10  C   UNL     1      -9.045   2.304  53.264  1.00  0.00     0.000 C 
BRANCH  10  11
ATOM     11  C   UNL     1      -8.005   2.209  52.137  1.00  0.00    -0.000 C 
BRANCH  11  12
ATOM     12  C   UNL     1      -8.319   3.207  51.016  1.00  0.00    -0.000 C 
BRANCH  12  13
ATOM     13  C   UNL     1      -7.275   4.332  50.974  1.00  0.00    -0.000 C 
BRANCH  13  14
ATOM     14  C   UNL     1      -7.794   5.646  51.580  1.00  0.00    -0.000 C 
BRANCH  14  15
ATOM     15  C   UNL     1      -9.313   5.812  51.418  1.00  0.00    -0.000 C 
BRANCH  15  16
ATOM     16  C   UNL     1      -9.966   6.204  52.750  1.00  0.00    -0.003 C 
ATOM     17  C   UNL     1     -11.207   5.360  53.025  1.00  0.00     0.004 C 
ENDBRANCH  15  16
ENDBRANCH  14  15
ENDBRANCH  13  14
ENDBRANCH  12  13
ENDBRANCH  11  12
ENDBRANCH  10  11
ENDBRANCH   1  10
TORSDOF 13
ENDMDL
MODEL 5
REMARK VINA RESULT:    -3.702      1.522      2.535
REMARK INTER + INTRA:          -8.614
REMARK INTER:                  -6.676
REMARK INTRA:                  -1.938
REMARK UNBOUND:                -2.099
REMARK SMILES CCCCCCCCCCCCCCC(=O)[O-]
REMARK SMILES IDX 9 1 10 2 11 3 12 4 13 5 14 6 15 7 16 8 17 9 8 10 7 11 6 12
REMARK SMILES IDX 5 13 4 14 3 15 2 16 1 17
REMARK H PARENT
REMARK Flexibility Score: inf
ROOT
ATOM      1  C   UNL     1       0.560  -1.066  57.243  1.00  0.00     0.000 C 
ENDROOT
BRANCH   1   2
ATOM      2  C   UNL     1      -0.551  -0.594  56.287  1.00  0.00     0.000 C 
BRANCH   2   3
ATOM      3  C   UNL     1      -1.753   0.007  57.033  1.00  0.00     0.000 C 
BRANCH   3   4
ATOM      4  C   UNL     1      -1.385   1.268  57.834  1.00  0.00     0.000 C 
BRANCH   4   5
ATOM      5  C   UNL     1      -1.695   1.139  59.337  1.00  0.00     0.006 C 
BRANCH   5   6
ATOM      6  C   UNL     1      -0.564   0.489  60.153  1.00  0.00     0.053 C 
BRANCH   6   7
ATOM      7  C   UNL     1       0.466   1.482  60.599  1.00  0.00     0.041 C 
ATOM      8  O   UNL     1       1.662   1.368  60.221  1.00  0.00    -0.550 OA
ATOM      9  O   UNL     1       0.100   2.556  61.402  1.00  0.00    -0.550 OA
ENDBRANCH   6   7
ENDBRANCH   5   6
ENDBRANCH   4   5
ENDBRANCH   3   4
ENDBRANCH   2   3
ENDBRANCH   1   2
BRANCH   1  10
ATOM     10  C   UNL     1       1.909  -0.386  56.960  1.00  0.00     0.000 C 
BRANCH  10  11
ATOM     11  C   UNL     1       1.769   0.875  56.095  1.00  0.00    -0.000 C 
BRANCH  11  12
ATOM     12  C   UNL     1       2.850   0.919  55.009  1.00  0.00    -0.000 C 
BRANCH  12  13
ATOM     13  C   UNL     1       2.256   0.606  53.628  1.00  0.00    -0.000 C 
BRANCH  13  14
ATOM     14  C   UNL     1       2.602  -0.811  53.141  1.00  0.00    -0.000 C 
BRANCH  14  15
ATOM     15  C   UNL     1       1.518  -1.840  53.495  1.00  0.00    -0.000 C 
BRANCH  15  16
ATOM     16  C   UNL     1       2.135  -3.085  54.142  1.00  0.00    -0.003 C 
ATOM     17  C   UNL     1       3.587  -2.837  54.540  1.00  0.00     0.004 C 
ENDBRANCH  15  16
ENDBRANCH  14  15
ENDBRANCH  13  14
ENDBRANCH  12  13
ENDBRANCH  11  12
ENDBRANCH  10  11
ENDBRANCH   1  10
TORSDOF 13
ENDMDL
MODEL 6
REMARK VINA RESULT:    -3.683      9.476     10.858
REMARK INTER + INTRA:          -8.582
REMARK INTER:                  -6.718
REMARK INTRA:                  -1.864
REMARK UNBOUND:                -2.099
REMARK SMILES CCCCCCCCCCCCCCC(=O)[O-]
REMARK SMILES IDX 9 1 10 2 11 3 12 4 13 5 14 6 15 7 16 8 17 9 8 10 7 11 6 12
REMARK SMILES IDX 5 13 4 14 3 15 2 16 1 17
REMARK H PARENT
REMARK Flexibility Score: inf
ROOT
ATOM      1  C   UNL     1      -9.970   4.823  54.497  1.00  0.00     0.000 C 
ENDROOT
BRANCH   1   2
ATOM      2  C   UNL     1      -8.736   4.468  55.346  1.00  0.00     0.000 C 
BRANCH   2   3
ATOM      3  C   UNL     1      -7.697   5.601  55.374  1.00  0.00     0.000 C 
BRANCH   3   4
ATOM      4  C   UNL     1      -6.263   5.088  55.593  1.00  0.00     0.000 C 
BRANCH   4   5
ATOM      5  C   UNL     1      -5.913   4.894  57.080  1.00  0.00     0.006 C 
BRANCH   5   6
ATOM      6  C   UNL     1      -6.641   5.866  58.024  1.00  0.00     0.053 C 
BRANCH   6   7
ATOM      7  C   UNL     1      -6.037   5.897  59.395  1.00  0.00     0.041 C 
ATOM      8  O   UNL     1      -6.718   6.287  60.380  1.00  0.00    -0.550 OA
ATOM      9  O   UNL     1      -4.732   5.461  59.594  1.00  0.00    -0.550 OA
ENDBRANCH   6   7
ENDBRANCH   5   6
ENDBRANCH   4   5
ENDBRANCH   3   4
ENDBRANCH   2   3
ENDBRANCH   1   2
BRANCH   1  10
ATOM     10  C   UNL     1      -9.729   6.033  53.581  1.00  0.00     0.000 C 
BRANCH  10  11
ATOM     11  C   UNL     1     -10.428   5.898  52.220  1.00  0.00    -0.000 C 
BRANCH  11  12
ATOM     12  C   UNL     1      -9.404   5.759  51.088  1.00  0.00    -0.000 C 
BRANCH  12  13
ATOM     13  C   UNL     1      -7.970   5.771  51.639  1.00  0.00    -0.000 C 
BRANCH  13  14
ATOM     14  C   UNL     1      -7.174   4.517  51.244  1.00  0.00    -0.000 C 
BRANCH  14  15
ATOM     15  C   UNL     1      -8.062   3.271  51.102  1.00  0.00    -0.000 C 
BRANCH  15  16
ATOM     16  C   UNL     1      -7.906   2.347  52.316  1.00  0.00    -0.003 C 
ATOM     17  C   UNL     1      -6.555   2.552  52.995  1.00  0.00     0.004 C 
ENDBRANCH  15  16
ENDBRANCH  14  15
ENDBRANCH  13  14
ENDBRANCH  12  13
ENDBRANCH  11  12
ENDBRANCH  10  11
ENDBRANCH   1  10
TORSDOF 13
ENDMDL
MODEL 7
REMARK VINA RESULT:    -3.655      3.646      6.659
REMARK INTER + INTRA:          -8.531
REMARK INTER:                  -6.775
REMARK INTRA:                  -1.757
REMARK UNBOUND:                -2.099
REMARK SMILES CCCCCCCCCCCCCCC(=O)[O-]
REMARK SMILES IDX 9 1 10 2 11 3 12 4 13 5 14 6 15 7 16 8 17 9 8 10 7 11 6 12
REMARK SMILES IDX 5 13 4 14 3 15 2 16 1 17
REMARK H PARENT
REMARK Flexibility Score: inf
ROOT
ATOM      1  C   UNL     1       2.040   1.448  54.721  1.00  0.00     0.000 C 
ENDROOT
BRANCH   1   2
ATOM      2  C   UNL     1       3.150   0.493  54.245  1.00  0.00     0.000 C 
BRANCH   2   3
ATOM      3  C   UNL     1       2.624  -0.588  53.286  1.00  0.00     0.000 C 
BRANCH   3   4
ATOM      4  C   UNL     1       2.921  -2.015  53.778  1.00  0.00     0.000 C 
BRANCH   4   5
ATOM      5  C   UNL     1       1.650  -2.805  54.141  1.00  0.00     0.006 C 
BRANCH   5   6
ATOM      6  C   UNL     1       0.344  -2.120  53.702  1.00  0.00     0.053 C 
BRANCH   6   7
ATOM      7  C   UNL     1      -0.305  -2.812  52.542  1.00  0.00     0.041 C 
ATOM      8  O   UNL     1      -0.125  -4.045  52.357  1.00  0.00    -0.550 OA
ATOM      9  O   UNL     1      -1.139  -2.106  51.683  1.00  0.00    -0.550 OA
ENDBRANCH   6   7
ENDBRANCH   5   6
ENDBRANCH   4   5
ENDBRANCH   3   4
ENDBRANCH   2   3
ENDBRANCH   1   2
BRANCH   1  10
ATOM     10  C   UNL     1       1.220   0.867  55.885  1.00  0.00     0.000 C 
BRANCH  10  11
ATOM     11  C   UNL     1       2.093   0.147  56.924  1.00  0.00    -0.000 C 
BRANCH  11  12
ATOM     12  C   UNL     1       1.294  -0.940  57.653  1.00  0.00    -0.000 C 
BRANCH  12  13
ATOM     13  C   UNL     1      -0.126  -0.453  57.980  1.00  0.00    -0.000 C 
BRANCH  13  14
ATOM     14  C   UNL     1      -0.235   0.154  59.388  1.00  0.00    -0.000 C 
BRANCH  14  15
ATOM     15  C   UNL     1      -0.454   1.675  59.362  1.00  0.00    -0.000 C 
BRANCH  15  16
ATOM     16  C   UNL     1       0.350   2.363  60.472  1.00  0.00    -0.003 C 
ATOM     17  C   UNL     1       1.843   2.078  60.329  1.00  0.00     0.004 C 
ENDBRANCH  15  16
ENDBRANCH  14  15
ENDBRANCH  13  14
ENDBRANCH  12  13
ENDBRANCH  11  12
ENDBRANCH  10  11
ENDBRANCH   1  10
TORSDOF 13
ENDMDL
MODEL 8
REMARK VINA RESULT:    -3.634      2.845      6.090
REMARK INTER + INTRA:          -8.495
REMARK INTER:                  -6.662
REMARK INTRA:                  -1.832
REMARK UNBOUND:                -2.099
REMARK SMILES CCCCCCCCCCCCCCC(=O)[O-]
REMARK SMILES IDX 9 1 10 2 11 3 12 4 13 5 14 6 15 7 16 8 17 9 8 10 7 11 6 12
REMARK SMILES IDX 5 13 4 14 3 15 2 16 1 17
REMARK H PARENT
REMARK Flexibility Score: inf
ROOT
ATOM      1  C   UNL     1       0.137   0.653  56.407  1.00  0.00     0.000 C 
ENDROOT
BRANCH   1   2
ATOM      2  C   UNL     1       1.233   1.724  56.261  1.00  0.00     0.000 C 
BRANCH   2   3
ATOM      3  C   UNL     1       1.994   1.609  54.930  1.00  0.00     0.000 C 
BRANCH   3   4
ATOM      4  C   UNL     1       3.041   0.481  54.939  1.00  0.00     0.000 C 
BRANCH   4   5
ATOM      5  C   UNL     1       3.108  -0.290  53.608  1.00  0.00     0.006 C 
BRANCH   5   6
ATOM      6  C   UNL     1       1.807  -1.030  53.250  1.00  0.00     0.053 C 
BRANCH   6   7
ATOM      7  C   UNL     1       1.642  -2.306  54.018  1.00  0.00     0.041 C 
ATOM      8  O   UNL     1       2.603  -3.114  54.119  1.00  0.00    -0.550 OA
ATOM      9  O   UNL     1       0.439  -2.589  54.653  1.00  0.00    -0.550 OA
ENDBRANCH   6   7
ENDBRANCH   5   6
ENDBRANCH   4   5
ENDBRANCH   3   4
ENDBRANCH   2   3
ENDBRANCH   1   2
BRANCH   1  10
ATOM     10  C   UNL     1      -1.144   1.205  57.052  1.00  0.00     0.000 C 
BRANCH  10  11
ATOM     11  C   UNL     1      -1.739   0.252  58.101  1.00  0.00    -0.000 C 
BRANCH  11  12
ATOM     12  C   UNL     1      -2.047   0.994  59.406  1.00  0.00    -0.000 C 
BRANCH  12  13
ATOM     13  C   UNL     1      -0.935   2.000  59.742  1.00  0.00    -0.000 C 
BRANCH  13  14
ATOM     14  C   UNL     1       0.188   1.380  60.589  1.00  0.00    -0.000 C 
BRANCH  14  15
ATOM     15  C   UNL     1       1.588   1.727  60.060  1.00  0.00    -0.000 C 
BRANCH  15  16
ATOM     16  C   UNL     1       2.327   0.465  59.597  1.00  0.00    -0.003 C 
ATOM     17  C   UNL     1       1.456  -0.776  59.764  1.00  0.00     0.004 C 
ENDBRANCH  15  16
ENDBRANCH  14  15
ENDBRANCH  13  14
ENDBRANCH  12  13
ENDBRANCH  11  12
ENDBRANCH  10  11
ENDBRANCH   1  10
TORSDOF 13
ENDMDL
MODEL 9
REMARK VINA RESULT:    -3.605      9.407     11.007
REMARK INTER + INTRA:          -8.444
REMARK INTER:                  -6.626
REMARK INTRA:                  -1.818
REMARK UNBOUND:                -2.099
REMARK SMILES CCCCCCCCCCCCCCC(=O)[O-]
REMARK SMILES IDX 9 1 10 2 11 3 12 4 13 5 14 6 15 7 16 8 17 9 8 10 7 11 6 12
REMARK SMILES IDX 5 13 4 14 3 15 2 16 1 17
REMARK H PARENT
REMARK Flexibility Score: inf
ROOT
ATOM      1  C   UNL     1      -7.053   2.752  52.799  1.00  0.00     0.000 C 
ENDROOT
BRANCH   1   2
ATOM      2  C   UNL     1      -5.851   3.606  53.243  1.00  0.00     0.000 C 
BRANCH   2   3
ATOM      3  C   UNL     1      -5.867   3.905  54.751  1.00  0.00     0.000 C 
BRANCH   3   4
ATOM      4  C   UNL     1      -6.911   4.967  55.136  1.00  0.00     0.000 C 
BRANCH   4   5
ATOM      5  C   UNL     1      -6.997   5.205  56.654  1.00  0.00     0.006 C 
BRANCH   5   6
ATOM      6  C   UNL     1      -5.721   5.812  57.263  1.00  0.00     0.053 C 
BRANCH   6   7
ATOM      7  C   UNL     1      -5.390   5.227  58.602  1.00  0.00     0.041 C 
ATOM      8  O   UNL     1      -5.135   3.998  58.712  1.00  0.00    -0.550 OA
ATOM      9  O   UNL     1      -5.325   6.043  59.726  1.00  0.00    -0.550 OA
ENDBRANCH   6   7
ENDBRANCH   5   6
ENDBRANCH   4   5
ENDBRANCH   3   4
ENDBRANCH   2   3
ENDBRANCH   1   2
BRANCH   1  10
ATOM     10  C   UNL     1      -7.696   3.269  51.502  1.00  0.00     0.000 C 
BRANCH  10  11
ATOM     11  C   UNL     1      -7.213   4.677  51.120  1.00  0.00    -0.000 C 
BRANCH  11  12
ATOM     12  C   UNL     1      -8.137   5.752  51.705  1.00  0.00    -0.000 C 
BRANCH  12  13
ATOM     13  C   UNL     1      -9.518   5.714  51.034  1.00  0.00    -0.000 C 
BRANCH  13  14
ATOM     14  C   UNL     1     -10.659   5.484  52.039  1.00  0.00    -0.000 C 
BRANCH  14  15
ATOM     15  C   UNL     1     -10.169   5.459  53.495  1.00  0.00    -0.000 C 
BRANCH  15  16
ATOM     16  C   UNL     1     -10.352   4.066  54.110  1.00  0.00    -0.003 C 
ATOM     17  C   UNL     1     -11.094   3.135  53.156  1.00  0.00     0.004 C 
ENDBRANCH  15  16
ENDBRANCH  14  15
ENDBRANCH  13  14
ENDBRANCH  12  13
ENDBRANCH  11  12
ENDBRANCH  10  11
ENDBRANCH   1  10
TORSDOF 13
ENDMDL
