MODEL 1
REMARK VINA RESULT:    35.378      0.000      0.000
REMARK INTER + INTRA:          39.948
REMARK INTER:                  38.481
REMARK INTRA:                   1.467
REMARK UNBOUND:                 1.467
REMARK SMILES C[C@H]1[C@H](C)CC[C@@]2(C(=O)[O-])CC[C@]3(C)C(=CC[C@@H]4[C@@]5(C)CC[C@H](O)C(C)(C)[C@@H]5CC[C@@]43C)[C@H]12
REMARK SMILES IDX 7 1 6 2 11 3 33 4 5 5 12 6 15 7 2 8 3 9 13 10 16 11 1 12
REMARK SMILES IDX 4 13 14 14 31 15 17 16 18 17 30 18 32 19 19 20 29 21 28 22
REMARK SMILES IDX 21 23 20 24 25 25 22 26 23 27 26 28 27 29 8 30 9 31 10 32
REMARK SMILES IDX 24 33
REMARK H PARENT 24 34
REMARK Flexibility Score: inf
ROOT
ATOM      1  C   UNL     1      11.610 -11.779 -26.293  1.00  0.00     0.017 C 
ATOM      2  C   UNL     1      11.680 -12.416 -24.880  1.00  0.00     0.014 C 
ATOM      3  C   UNL     1      10.923 -10.410 -26.226  1.00  0.00     0.014 C 
ATOM      4  C   UNL     1      13.092 -11.560 -26.754  1.00  0.00     0.030 C 
ATOM      5  C   UNL     1      12.405 -13.776 -24.920  1.00  0.00     0.004 C 
ATOM      6  C   UNL     1      10.787  -9.808 -27.634  1.00  0.00     0.013 C 
ATOM      7  C   UNL     1      13.301 -10.409 -27.783  1.00  0.00    -0.063 C 
ATOM      8  C   UNL     1      13.789 -12.965 -26.952  1.00  0.00    -0.003 C 
ATOM      9  C   UNL     1      13.812 -13.700 -25.566  1.00  0.00    -0.011 C 
ATOM     10  C   UNL     1      12.145  -9.613 -28.425  1.00  0.00    -0.006 C 
ATOM     11  C   UNL     1      14.553  -9.935 -27.925  1.00  0.00    -0.027 C 
ATOM     12  C   UNL     1      15.196 -12.919 -27.574  1.00  0.00     0.008 C 
ATOM     13  C   UNL     1      14.391 -15.125 -25.660  1.00  0.00     0.008 C 
ATOM     14  C   UNL     1      12.006 -10.230 -29.854  1.00  0.00     0.017 C 
ATOM     15  C   UNL     1      12.475  -8.032 -28.526  1.00  0.00    -0.020 C 
ATOM     16  C   UNL     1      14.958  -8.687 -28.647  1.00  0.00     0.032 C 
ATOM     17  C   UNL     1      13.846  -7.790 -29.288  1.00  0.00     0.006 C 
ATOM     18  C   UNL     1      12.627  -7.399 -27.087  1.00  0.00     0.008 C 
ATOM     19  C   UNL     1      11.271  -7.334 -29.279  1.00  0.00     0.012 C 
ATOM     20  C   UNL     1      14.302  -6.232 -29.429  1.00  0.00    -0.025 C 
ATOM     21  C   UNL     1      13.457  -6.083 -27.006  1.00  0.00     0.005 C 
ATOM     22  C   UNL     1      13.542  -5.356 -28.365  1.00  0.00     0.003 C 
ATOM     23  C   UNL     1      13.982  -5.666 -30.866  1.00  0.00     0.010 C 
ATOM     24  C   UNL     1      15.854  -6.087 -29.268  1.00  0.00     0.012 C 
ATOM     25  C   UNL     1      13.882  -3.809 -28.351  1.00  0.00    -0.006 C 
ATOM     26  C   UNL     1      13.447  -4.213 -30.894  1.00  0.00     0.033 C 
ATOM     27  C   UNL     1      14.072  -3.277 -29.834  1.00  0.00     0.120 C 
ATOM     28  C   UNL     1      12.676  -3.035 -27.739  1.00  0.00     0.014 C 
ATOM     29  C   UNL     1      15.100  -3.474 -27.447  1.00  0.00     0.014 C 
ENDROOT
BRANCH   1  30
ATOM     30  C   UNL     1      10.745 -12.698 -27.168  1.00  0.00     0.048 C 
ATOM     31  O   UNL     1      10.226 -12.303 -28.241  1.00  0.00    -0.550 OA
ATOM     32  O   UNL     1      10.456 -13.987 -26.731  1.00  0.00    -0.550 OA
ENDBRANCH   1  30
BRANCH  27  33
ATOM     33  O   UNL     1      15.418  -3.039 -30.165  1.00  0.00    -0.393 OA
ATOM     34  H   UNL     1      15.515  -2.066 -30.331  1.00  0.00     0.210 HD
ENDBRANCH  27  33
TORSDOF 2
ENDMDL
