MODEL 1
REMARK VINA RESULT:    -3.111      0.000      0.000
REMARK INTER + INTRA:          -2.981
REMARK INTER:                  -3.838
REMARK INTRA:                   0.857
REMARK UNBOUND:                 0.857
REMARK SMILES CC1=CC=CC(C)(C)CC1=O
REMARK SMILES IDX 1 1 2 2 3 3 10 4 11 5 9 6 4 8 5 9 6 10 7 11 8 12
REMARK H PARENT
REMARK Flexibility Score: 80.00
ROOT
ATOM      1  C   UNL     1     130.585 125.671 110.464  1.00  0.00     0.048 C 
ATOM      2  C   UNL     1     129.768 126.098 109.267  1.00  0.00    -0.008 C 
ATOM      3  C   UNL     1     130.393 126.177 108.072  1.00  0.00     0.007 C 
ENDROOT
BRANCH   2   4
ATOM      4  C   UNL     1     128.345 126.448 109.519  1.00  0.00     0.159 C 
ATOM      5  O   UNL     1     127.885 126.302 110.686  1.00  0.00    -0.295 OA
BRANCH   4   6
ATOM      6  C   UNL     1     127.419 127.008 108.481  1.00  0.00     0.091 CG0
ATOM      7  G   UNL     1     127.379 126.190 107.170  1.00  0.00     0.000 G0
ENDBRANCH   4   6
ENDBRANCH   2   4
BRANCH   3   8
ATOM      8  C   UNL     1     129.854 126.549 106.744  1.00  0.00    -0.003 C 
ATOM      9  C   UNL     1     128.583 126.538 106.327  1.00  0.00    -0.020 C 
BRANCH   9  10
ATOM     10  C   UNL     1     127.373 126.201 107.165  1.00  0.00    -0.010 CG0
ATOM     11  C   UNL     1     127.293 124.674 107.400  1.00  0.00     0.016 C 
ATOM     12  C   UNL     1     126.109 126.628 106.384  1.00  0.00     0.016 C 
ATOM     13  G   UNL     1     127.419 127.006 108.483  1.00  0.00     0.000 G0
ENDBRANCH   9  10
ENDBRANCH   3   8
TORSDOF 0
ENDMDL
MODEL 2
REMARK VINA RESULT:    -3.026      8.526      9.850
REMARK INTER + INTRA:          -2.877
REMARK INTER:                  -3.720
REMARK INTRA:                   0.843
REMARK UNBOUND:                 0.857
REMARK SMILES CC1=CC=CC(C)(C)CC1=O
REMARK SMILES IDX 1 1 2 2 3 3 10 4 11 5 9 6 4 8 5 9 6 10 7 11 8 12
REMARK H PARENT
REMARK Flexibility Score: 80.00
ROOT
ATOM      1  C   UNL     1     120.862 127.713 107.344  1.00  0.00     0.048 C 
ATOM      2  C   UNL     1     119.987 126.540 106.968  1.00  0.00    -0.008 C 
ATOM      3  C   UNL     1     120.412 125.729 105.974  1.00  0.00     0.007 C 
ENDROOT
BRANCH   2   4
ATOM      4  C   UNL     1     118.696 126.409 107.695  1.00  0.00     0.159 C 
ATOM      5  O   UNL     1     118.452 127.210 108.640  1.00  0.00    -0.295 OA
BRANCH   4   6
ATOM      6  C   UNL     1     117.637 125.405 107.353  1.00  0.00     0.091 CG0
ATOM      7  G   UNL     1     118.155 123.951 107.263  1.00  0.00     0.000 G0
ENDBRANCH   4   6
ENDBRANCH   2   4
BRANCH   3   8
ATOM      8  C   UNL     1     119.780 124.516 105.408  1.00  0.00    -0.003 C 
ATOM      9  C   UNL     1     118.842 123.732 105.952  1.00  0.00    -0.020 C 
BRANCH   9  10
ATOM     10  C   UNL     1     118.150 123.957 107.275  1.00  0.00    -0.010 CG0
ATOM     11  C   UNL     1     119.093 123.586 108.443  1.00  0.00     0.016 C 
ATOM     12  C   UNL     1     116.920 123.023 107.342  1.00  0.00     0.016 C 
ATOM     13  G   UNL     1     117.651 125.417 107.352  1.00  0.00     0.000 G0
ENDBRANCH   9  10
ENDBRANCH   3   8
TORSDOF 0
ENDMDL
MODEL 3
REMARK VINA RESULT:    -2.932     11.636     13.471
REMARK INTER + INTRA:          -2.761
REMARK INTER:                  -3.609
REMARK INTRA:                   0.848
REMARK UNBOUND:                 0.857
REMARK SMILES CC1=CC=CC(C)(C)CC1=O
REMARK SMILES IDX 1 1 2 2 3 3 10 4 11 5 9 6 4 8 5 9 6 10 7 11 8 12
REMARK H PARENT
REMARK Flexibility Score: 80.00
ROOT
ATOM      1  C   UNL     1     113.998 118.862 106.661  1.00  0.00     0.048 C 
ATOM      2  C   UNL     1     115.063 119.934 106.705  1.00  0.00    -0.008 C 
ATOM      3  C   UNL     1     114.660 121.223 106.740  1.00  0.00     0.007 C 
ENDROOT
BRANCH   2   4
ATOM      4  C   UNL     1     116.476 119.474 106.652  1.00  0.00     0.159 C 
ATOM      5  O   UNL     1     116.709 118.233 106.672  1.00  0.00    -0.295 OA
BRANCH   4   6
ATOM      6  C   UNL     1     117.656 120.393 106.533  1.00  0.00     0.091 CG0
ATOM      7  G   UNL     1     117.692 121.509 107.602  1.00  0.00     0.000 G0
ENDBRANCH   4   6
ENDBRANCH   2   4
BRANCH   3   8
ATOM      8  C   UNL     1     115.464 122.465 106.798  1.00  0.00    -0.003 C 
ATOM      9  C   UNL     1     116.734 122.619 107.191  1.00  0.00    -0.020 C 
BRANCH   9  10
ATOM     10  C   UNL     1     117.678 121.517 107.608  1.00  0.00    -0.010 CG0
ATOM     11  C   UNL     1     117.320 121.014 109.026  1.00  0.00     0.016 C 
ATOM     12  C   UNL     1     119.109 122.099 107.657  1.00  0.00     0.016 C 
ATOM     13  G   UNL     1     117.652 120.390 106.551  1.00  0.00     0.000 G0
ENDBRANCH   9  10
ENDBRANCH   3   8
TORSDOF 0
ENDMDL
MODEL 4
REMARK VINA RESULT:    -2.913      6.822      8.230
REMARK INTER + INTRA:          -2.737
REMARK INTER:                  -3.580
REMARK INTRA:                   0.843
REMARK UNBOUND:                 0.857
REMARK SMILES CC1=CC=CC(C)(C)CC1=O
REMARK SMILES IDX 1 1 2 2 3 3 10 4 11 5 9 6 4 8 5 9 6 10 7 11 8 12
REMARK H PARENT
REMARK Flexibility Score: 80.00
ROOT
ATOM      1  C   UNL     1     121.572 128.639 106.739  1.00  0.00     0.048 C 
ATOM      2  C   UNL     1     121.127 127.250 107.134  1.00  0.00    -0.008 C 
ATOM      3  C   UNL     1     119.991 127.132 107.855  1.00  0.00     0.007 C 
ENDROOT
BRANCH   2   4
ATOM      4  C   UNL     1     122.016 126.125 106.738  1.00  0.00     0.159 C 
ATOM      5  O   UNL     1     123.028 126.378 106.026  1.00  0.00    -0.295 OA
BRANCH   4   6
ATOM      6  C   UNL     1     121.812 124.702 107.163  1.00  0.00     0.091 CG0
ATOM      7  G   UNL     1     120.389 124.163 106.891  1.00  0.00     0.000 G0
ENDBRANCH   4   6
ENDBRANCH   2   4
BRANCH   3   8
ATOM      8  C   UNL     1     119.315 125.918 108.366  1.00  0.00    -0.003 C 
ATOM      9  C   UNL     1     119.449 124.653 107.953  1.00  0.00    -0.020 C 
BRANCH   9  10
ATOM     10  C   UNL     1     120.398 124.158 106.887  1.00  0.00    -0.010 CG0
ATOM     11  C   UNL     1     119.867 124.529 105.483  1.00  0.00     0.016 C 
ATOM     12  C   UNL     1     120.467 122.617 106.978  1.00  0.00     0.016 C 
ATOM     13  G   UNL     1     121.812 124.720 107.158  1.00  0.00     0.000 G0
ENDBRANCH   9  10
ENDBRANCH   3   8
TORSDOF 0
ENDMDL
MODEL 5
REMARK VINA RESULT:    -2.824     11.361     12.545
REMARK INTER + INTRA:          -2.627
REMARK INTER:                  -3.481
REMARK INTRA:                   0.853
REMARK UNBOUND:                 0.857
REMARK SMILES CC1=CC=CC(C)(C)CC1=O
REMARK SMILES IDX 1 1 2 2 3 3 10 4 11 5 9 6 4 8 5 9 6 10 7 11 8 12
REMARK H PARENT
REMARK Flexibility Score: 80.00
ROOT
ATOM      1  C   UNL     1     116.365 128.502 110.793  1.00  0.00     0.048 C 
ATOM      2  C   UNL     1     115.944 127.382 109.869  1.00  0.00    -0.008 C 
ATOM      3  C   UNL     1     114.940 127.626 109.000  1.00  0.00     0.007 C 
ENDROOT
BRANCH   2   4
ATOM      4  C   UNL     1     116.644 126.080 110.036  1.00  0.00     0.159 C 
ATOM      5  O   UNL     1     117.597 126.008 110.860  1.00  0.00    -0.295 OA
BRANCH   4   6
ATOM      6  C   UNL     1     116.264 124.823 109.312  1.00  0.00     0.091 CG0
ATOM      7  G   UNL     1     116.144 124.992 107.781  1.00  0.00     0.000 G0
ENDBRANCH   4   6
ENDBRANCH   2   4
BRANCH   3   8
ATOM      8  C   UNL     1     114.333 126.738 107.982  1.00  0.00    -0.003 C 
ATOM      9  C   UNL     1     114.843 125.632 107.429  1.00  0.00    -0.020 C 
BRANCH   9  10
ATOM     10  C   UNL     1     116.161 124.985 107.782  1.00  0.00    -0.010 CG0
ATOM     11  C   UNL     1     117.333 125.800 107.188  1.00  0.00     0.016 C 
ATOM     12  C   UNL     1     116.194 123.575 107.149  1.00  0.00     0.016 C 
ATOM     13  G   UNL     1     116.262 124.827 109.316  1.00  0.00     0.000 G0
ENDBRANCH   9  10
ENDBRANCH   3   8
TORSDOF 0
ENDMDL
MODEL 6
REMARK VINA RESULT:    -2.806     10.937     12.260
REMARK INTER + INTRA:          -2.604
REMARK INTER:                  -3.453
REMARK INTRA:                   0.848
REMARK UNBOUND:                 0.857
REMARK SMILES CC1=CC=CC(C)(C)CC1=O
REMARK SMILES IDX 1 1 2 2 3 3 10 4 11 5 9 6 4 8 5 9 6 10 7 11 8 12
REMARK H PARENT
REMARK Flexibility Score: 80.00
ROOT
ATOM      1  C   UNL     1     116.485 127.827 110.720  1.00  0.00     0.048 C 
ATOM      2  C   UNL     1     116.608 126.949 109.496  1.00  0.00    -0.008 C 
ATOM      3  C   UNL     1     117.846 126.723 109.004  1.00  0.00     0.007 C 
ENDROOT
BRANCH   2   4
ATOM      4  C   UNL     1     115.340 126.450 108.901  1.00  0.00     0.159 C 
ATOM      5  O   UNL     1     114.254 126.702 109.495  1.00  0.00    -0.295 OA
BRANCH   4   6
ATOM      6  C   UNL     1     115.257 125.692 107.610  1.00  0.00     0.091 CG0
ATOM      7  G   UNL     1     116.190 124.462 107.544  1.00  0.00     0.000 G0
ENDBRANCH   4   6
ENDBRANCH   2   4
BRANCH   3   8
ATOM      8  C   UNL     1     118.268 125.908 107.842  1.00  0.00    -0.003 C 
ATOM      9  C   UNL     1     117.599 124.929 107.222  1.00  0.00    -0.020 C 
BRANCH   9  10
ATOM     10  C   UNL     1     116.194 124.472 107.536  1.00  0.00    -0.010 CG0
ATOM     11  C   UNL     1     116.183 123.624 108.830  1.00  0.00     0.016 C 
ATOM     12  C   UNL     1     115.706 123.575 106.376  1.00  0.00     0.016 C 
ATOM     13  G   UNL     1     115.260 125.700 107.621  1.00  0.00     0.000 G0
ENDBRANCH   9  10
ENDBRANCH   3   8
TORSDOF 0
ENDMDL
MODEL 7
REMARK VINA RESULT:    -2.798      6.637      8.365
REMARK INTER + INTRA:          -2.595
REMARK INTER:                  -3.440
REMARK INTRA:                   0.845
REMARK UNBOUND:                 0.857
REMARK SMILES CC1=CC=CC(C)(C)CC1=O
REMARK SMILES IDX 1 1 2 2 3 3 10 4 11 5 9 6 4 8 5 9 6 10 7 11 8 12
REMARK H PARENT
REMARK Flexibility Score: 80.00
ROOT
ATOM      1  C   UNL     1     122.828 126.501 106.405  1.00  0.00     0.048 C 
ATOM      2  C   UNL     1     121.711 126.232 107.387  1.00  0.00    -0.008 C 
ATOM      3  C   UNL     1     120.680 127.103 107.423  1.00  0.00     0.007 C 
ENDROOT
BRANCH   2   4
ATOM      4  C   UNL     1     121.871 125.049 108.274  1.00  0.00     0.159 C 
ATOM      5  O   UNL     1     122.870 124.297 108.103  1.00  0.00    -0.295 OA
BRANCH   4   6
ATOM      6  C   UNL     1     120.937 124.707 109.397  1.00  0.00     0.091 CG0
ATOM      7  G   UNL     1     119.449 124.655 108.981  1.00  0.00     0.000 G0
ENDBRANCH   4   6
ENDBRANCH   2   4
BRANCH   3   8
ATOM      8  C   UNL     1     119.458 127.090 108.260  1.00  0.00    -0.003 C 
ATOM      9  C   UNL     1     118.900 126.061 108.906  1.00  0.00    -0.020 C 
BRANCH   9  10
ATOM     10  C   UNL     1     119.447 124.655 108.983  1.00  0.00    -0.010 CG0
ATOM     11  C   UNL     1     119.211 123.915 107.646  1.00  0.00     0.016 C 
ATOM     12  C   UNL     1     118.677 123.896 110.088  1.00  0.00     0.016 C 
ATOM     13  G   UNL     1     120.939 124.705 109.383  1.00  0.00     0.000 G0
ENDBRANCH   9  10
ENDBRANCH   3   8
TORSDOF 0
ENDMDL
MODEL 8
REMARK VINA RESULT:    -2.772      9.047     10.379
REMARK INTER + INTRA:          -2.563
REMARK INTER:                  -3.426
REMARK INTRA:                   0.863
REMARK UNBOUND:                 0.857
REMARK SMILES CC1=CC=CC(C)(C)CC1=O
REMARK SMILES IDX 1 1 2 2 3 3 10 4 11 5 9 6 4 8 5 9 6 10 7 11 8 12
REMARK H PARENT
REMARK Flexibility Score: 80.00
ROOT
ATOM      1  C   UNL     1     128.984 124.348  97.772  1.00  0.00     0.048 C 
ATOM      2  C   UNL     1     129.476 123.220  98.649  1.00  0.00    -0.008 C 
ATOM      3  C   UNL     1     128.892 122.010  98.506  1.00  0.00     0.007 C 
ENDROOT
BRANCH   2   4
ATOM      4  C   UNL     1     130.532 123.555  99.641  1.00  0.00     0.159 C 
ATOM      5  O   UNL     1     131.010 124.724  99.642  1.00  0.00    -0.295 OA
BRANCH   4   6
ATOM      6  C   UNL     1     131.047 122.601 100.676  1.00  0.00     0.091 CG0
ATOM      7  G   UNL     1     131.499 121.238 100.105  1.00  0.00     0.000 G0
ENDBRANCH   4   6
ENDBRANCH   2   4
BRANCH   3   8
ATOM      8  C   UNL     1     129.170 120.736  99.209  1.00  0.00    -0.003 C 
ATOM      9  C   UNL     1     130.276 120.370  99.867  1.00  0.00    -0.020 C 
BRANCH   9  10
ATOM     10  C   UNL     1     131.496 121.227 100.105  1.00  0.00    -0.010 CG0
ATOM     11  C   UNL     1     132.323 121.354  98.804  1.00  0.00     0.016 C 
ATOM     12  C   UNL     1     132.380 120.528 101.163  1.00  0.00     0.016 C 
ATOM     13  G   UNL     1     131.060 122.597 100.671  1.00  0.00     0.000 G0
ENDBRANCH   9  10
ENDBRANCH   3   8
TORSDOF 0
ENDMDL
MODEL 9
REMARK VINA RESULT:    -2.748      7.524      9.142
REMARK INTER + INTRA:          -2.533
REMARK INTER:                  -3.391
REMARK INTRA:                   0.858
REMARK UNBOUND:                 0.857
REMARK SMILES CC1=CC=CC(C)(C)CC1=O
REMARK SMILES IDX 1 1 2 2 3 3 10 4 11 5 9 6 4 8 5 9 6 10 7 11 8 12
REMARK H PARENT
REMARK Flexibility Score: 80.00
ROOT
ATOM      1  C   UNL     1     117.157 125.072 108.650  1.00  0.00     0.048 C 
ATOM      2  C   UNL     1     118.417 125.430 107.897  1.00  0.00    -0.008 C 
ATOM      3  C   UNL     1     119.163 126.454 108.366  1.00  0.00     0.007 C 
ENDROOT
BRANCH   2   4
ATOM      4  C   UNL     1     118.702 124.653 106.661  1.00  0.00     0.159 C 
ATOM      5  O   UNL     1     117.951 123.678 106.375  1.00  0.00    -0.295 OA
BRANCH   4   6
ATOM      6  C   UNL     1     119.808 124.974 105.701  1.00  0.00     0.091 CG0
ATOM      7  G   UNL     1     121.198 125.097 106.364  1.00  0.00     0.000 G0
ENDBRANCH   4   6
ENDBRANCH   2   4
BRANCH   3   8
ATOM      8  C   UNL     1     120.433 127.014 107.851  1.00  0.00    -0.003 C 
ATOM      9  C   UNL     1     121.323 126.445 107.030  1.00  0.00    -0.020 C 
BRANCH   9  10
ATOM     10  C   UNL     1     121.191 125.093 106.371  1.00  0.00    -0.010 CG0
ATOM     11  C   UNL     1     121.453 123.968 107.400  1.00  0.00     0.016 C 
ATOM     12  C   UNL     1     122.267 124.986 105.266  1.00  0.00     0.016 C 
ATOM     13  G   UNL     1     119.802 124.980 105.703  1.00  0.00     0.000 G0
ENDBRANCH   9  10
ENDBRANCH   3   8
TORSDOF 0
ENDMDL
