MODEL 1
REMARK VINA RESULT:    -3.678      0.000      0.000
REMARK INTER + INTRA:          -1.338
REMARK INTER:                  -4.538
REMARK INTRA:                   3.200
REMARK UNBOUND:                 3.200
REMARK SMILES C=C1CC[C@@H]2[C@@H]([C@@H]3[C@@H]1CC[C@@H]3C)C2(C)C
REMARK SMILES IDX 3 1 2 2 1 3 8 4 12 5 11 6 10 7 7 8 9 9 4 11 5 12 6 13 13 14
REMARK SMILES IDX 14 16 15 17
REMARK H PARENT
REMARK Flexibility Score: 80.00
ROOT
ATOM      1  C   UNL     1     140.875 137.845 136.375  1.00  0.00     0.031 C 
ENDROOT
BRANCH   1   2
ATOM      2  C   UNL     1     140.259 137.393 135.045  1.00  0.00    -0.074 C 
ATOM      3  C   UNL     1     140.427 136.121 134.647  1.00  0.00     0.008 C 
BRANCH   2   4
ATOM      4  C   UNL     1     139.264 138.344 134.370  1.00  0.00     0.018 C 
ATOM      5  C   UNL     1     136.825 140.540 134.458  1.00  0.00     0.008 C 
ATOM      6  C   UNL     1     136.991 139.076 134.016  1.00  0.00    -0.010 C 
ATOM      7  C   UNL     1     137.701 138.979 132.643  1.00  0.00     0.004 C 
ATOM      8  C   UNL     1     137.860 138.231 134.962  1.00  0.00     0.003 CG0
ATOM      9  C   UNL     1     139.034 138.248 132.868  1.00  0.00     0.008 C 
ATOM     10  G   UNL     1     137.930 138.663 136.441  1.00  0.00     0.000 G0
ENDBRANCH   2   4
ENDBRANCH   1   2
BRANCH   1  11
ATOM     11  C   UNL     1     139.945 137.691 137.622  1.00  0.00     0.009 C 
BRANCH  11  12
ATOM     12  C   UNL     1     138.482 137.416 137.236  1.00  0.00    -0.001 C 
ATOM     13  C   UNL     1     137.948 138.658 136.467  1.00  0.00     0.002 CG0
ATOM     14  C   UNL     1     137.203 138.116 137.681  1.00  0.00    -0.029 C 
ATOM     15  G   UNL     1     137.860 138.224 134.990  1.00  0.00     0.000 G0
ATOM     16  C   UNL     1     137.279 138.951 138.964  1.00  0.00     0.011 C 
ATOM     17  C   UNL     1     135.882 137.395 137.393  1.00  0.00     0.011 C 
ENDBRANCH  11  12
ENDBRANCH   1  11
TORSDOF 0
ENDMDL
MODEL 2
REMARK VINA RESULT:    -3.672      2.174      3.690
REMARK INTER + INTRA:          -1.331
REMARK INTER:                  -4.577
REMARK INTRA:                   3.246
REMARK UNBOUND:                 3.200
REMARK SMILES C=C1CC[C@@H]2[C@@H]([C@@H]3[C@@H]1CC[C@@H]3C)C2(C)C
REMARK SMILES IDX 3 1 2 2 1 3 8 4 12 5 11 6 10 7 7 8 9 9 4 11 5 12 6 13 13 14
REMARK SMILES IDX 14 16 15 17
REMARK H PARENT
REMARK Flexibility Score: 80.00
ROOT
ATOM      1  C   UNL     1     140.958 135.475 134.199  1.00  0.00     0.031 C 
ENDROOT
BRANCH   1   2
ATOM      2  C   UNL     1     140.278 136.849 134.220  1.00  0.00    -0.074 C 
ATOM      3  C   UNL     1     139.764 137.341 133.080  1.00  0.00     0.008 C 
BRANCH   2   4
ATOM      4  C   UNL     1     139.988 137.470 135.591  1.00  0.00     0.018 C 
ATOM      5  C   UNL     1     139.107 137.267 138.747  1.00  0.00     0.008 C 
ATOM      6  C   UNL     1     138.486 137.812 137.450  1.00  0.00    -0.010 C 
ATOM      7  C   UNL     1     139.107 139.176 137.057  1.00  0.00     0.004 C 
ATOM      8  C   UNL     1     138.712 136.915 136.222  1.00  0.00     0.003 CG0
ATOM      9  C   UNL     1     139.825 138.980 135.712  1.00  0.00     0.008 C 
ATOM     10  G   UNL     1     138.922 135.407 136.471  1.00  0.00     0.000 G0
ENDBRANCH   2   4
ENDBRANCH   1   2
BRANCH   1  11
ATOM     11  C   UNL     1     140.022 134.267 134.532  1.00  0.00     0.009 C 
BRANCH  11  12
ATOM     12  C   UNL     1     138.658 134.714 135.084  1.00  0.00    -0.001 C 
ATOM     13  C   UNL     1     138.899 135.399 136.459  1.00  0.00     0.002 CG0
ATOM     14  C   UNL     1     137.905 134.252 136.326  1.00  0.00    -0.029 C 
ATOM     15  G   UNL     1     138.692 136.907 136.212  1.00  0.00     0.000 G0
ATOM     16  C   UNL     1     138.321 132.906 136.931  1.00  0.00     0.011 C 
ATOM     17  C   UNL     1     136.422 134.630 136.419  1.00  0.00     0.011 C 
ENDBRANCH  11  12
ENDBRANCH   1  11
TORSDOF 0
ENDMDL
MODEL 3
REMARK VINA RESULT:    -3.621      3.011      5.003
REMARK INTER + INTRA:          -1.269
REMARK INTER:                  -4.516
REMARK INTRA:                   3.247
REMARK UNBOUND:                 3.200
REMARK SMILES C=C1CC[C@@H]2[C@@H]([C@@H]3[C@@H]1CC[C@@H]3C)C2(C)C
REMARK SMILES IDX 3 1 2 2 1 3 8 4 12 5 11 6 10 7 7 8 9 9 4 11 5 12 6 13 13 14
REMARK SMILES IDX 14 16 15 17
REMARK H PARENT
REMARK Flexibility Score: 80.00
ROOT
ATOM      1  C   UNL     1     138.061 132.151 136.237  1.00  0.00     0.031 C 
ENDROOT
BRANCH   1   2
ATOM      2  C   UNL     1     137.262 133.009 137.226  1.00  0.00    -0.074 C 
ATOM      3  C   UNL     1     137.484 132.863 138.543  1.00  0.00     0.008 C 
BRANCH   2   4
ATOM      4  C   UNL     1     136.446 134.171 136.651  1.00  0.00     0.018 C 
ATOM      5  C   UNL     1     136.012 136.664 134.558  1.00  0.00     0.008 C 
ATOM      6  C   UNL     1     136.268 136.507 136.066  1.00  0.00    -0.010 C 
ATOM      7  C   UNL     1     134.981 136.084 136.816  1.00  0.00     0.004 C 
ATOM      8  C   UNL     1     137.297 135.419 136.417  1.00  0.00     0.003 CG0
ATOM      9  C   UNL     1     135.239 134.694 137.418  1.00  0.00     0.008 C 
ATOM     10  G   UNL     1     138.362 135.077 135.355  1.00  0.00     0.000 G0
ENDBRANCH   2   4
ENDBRANCH   1   2
BRANCH   1  11
ATOM     11  C   UNL     1     139.361 132.818 135.681  1.00  0.00     0.009 C 
BRANCH  11  12
ATOM     12  C   UNL     1     139.483 134.297 136.083  1.00  0.00    -0.001 C 
ATOM     13  C   UNL     1     138.363 135.087 135.350  1.00  0.00     0.002 CG0
ATOM     14  C   UNL     1     139.820 135.519 135.236  1.00  0.00    -0.029 C 
ATOM     15  G   UNL     1     137.321 135.432 136.433  1.00  0.00     0.000 G0
ATOM     16  C   UNL     1     140.512 135.263 133.892  1.00  0.00     0.011 C 
ATOM     17  C   UNL     1     140.204 136.799 135.987  1.00  0.00     0.011 C 
ENDBRANCH  11  12
ENDBRANCH   1  11
TORSDOF 0
ENDMDL
MODEL 4
REMARK VINA RESULT:    -3.593      2.023      5.276
REMARK INTER + INTRA:          -1.233
REMARK INTER:                  -4.469
REMARK INTRA:                   3.236
REMARK UNBOUND:                 3.200
REMARK SMILES C=C1CC[C@@H]2[C@@H]([C@@H]3[C@@H]1CC[C@@H]3C)C2(C)C
REMARK SMILES IDX 3 1 2 2 1 3 8 4 12 5 11 6 10 7 7 8 9 9 4 11 5 12 6 13 13 14
REMARK SMILES IDX 14 16 15 17
REMARK H PARENT
REMARK Flexibility Score: 80.00
ROOT
ATOM      1  C   UNL     1     134.736 140.873 136.036  1.00  0.00     0.031 C 
ENDROOT
BRANCH   1   2
ATOM      2  C   UNL     1     134.110 139.682 136.772  1.00  0.00    -0.074 C 
ATOM      3  C   UNL     1     133.169 138.951 136.150  1.00  0.00     0.008 C 
BRANCH   2   4
ATOM      4  C   UNL     1     134.777 139.230 138.076  1.00  0.00     0.018 C 
ATOM      5  C   UNL     1     137.415 138.660 139.946  1.00  0.00     0.008 C 
ATOM      6  C   UNL     1     136.352 137.810 139.229  1.00  0.00    -0.010 C 
ATOM      7  C   UNL     1     135.015 137.803 140.010  1.00  0.00     0.004 C 
ATOM      8  C   UNL     1     135.981 138.322 137.828  1.00  0.00     0.003 CG0
ATOM      9  C   UNL     1     133.960 138.473 139.115  1.00  0.00     0.008 C 
ATOM     10  G   UNL     1     137.043 139.139 137.063  1.00  0.00     0.000 G0
ENDBRANCH   2   4
ENDBRANCH   1   2
BRANCH   1  11
ATOM     11  C   UNL     1     136.054 140.553 135.260  1.00  0.00     0.009 C 
BRANCH  11  12
ATOM     12  C   UNL     1     136.600 139.152 135.578  1.00  0.00    -0.001 C 
ATOM     13  C   UNL     1     137.061 139.143 137.064  1.00  0.00     0.002 CG0
ATOM     14  C   UNL     1     138.011 138.711 135.953  1.00  0.00    -0.029 C 
ATOM     15  G   UNL     1     136.001 138.318 137.822  1.00  0.00     0.000 G0
ATOM     16  C   UNL     1     139.153 139.674 135.611  1.00  0.00     0.011 C 
ATOM     17  C   UNL     1     138.314 137.211 135.872  1.00  0.00     0.011 C 
ENDBRANCH  11  12
ENDBRANCH   1  11
TORSDOF 0
ENDMDL
MODEL 5
REMARK VINA RESULT:    -3.538      3.672      6.270
REMARK INTER + INTRA:          -1.166
REMARK INTER:                  -4.419
REMARK INTRA:                   3.253
REMARK UNBOUND:                 3.200
REMARK SMILES C=C1CC[C@@H]2[C@@H]([C@@H]3[C@@H]1CC[C@@H]3C)C2(C)C
REMARK SMILES IDX 3 1 2 2 1 3 8 4 12 5 11 6 10 7 7 8 9 9 4 11 5 12 6 13 13 14
REMARK SMILES IDX 14 16 15 17
REMARK H PARENT
REMARK Flexibility Score: 80.00
ROOT
ATOM      1  C   UNL     1     131.845 137.094 134.583  1.00  0.00     0.031 C 
ENDROOT
BRANCH   1   2
ATOM      2  C   UNL     1     132.519 135.733 134.790  1.00  0.00    -0.074 C 
ATOM      3  C   UNL     1     132.978 135.062 133.720  1.00  0.00     0.008 C 
BRANCH   2   4
ATOM      4  C   UNL     1     132.871 135.333 136.227  1.00  0.00     0.018 C 
ATOM      5  C   UNL     1     133.911 136.020 139.265  1.00  0.00     0.008 C 
ATOM      6  C   UNL     1     134.460 135.262 138.044  1.00  0.00    -0.010 C 
ATOM      7  C   UNL     1     133.803 133.866 137.905  1.00  0.00     0.004 C 
ATOM      8  C   UNL     1     134.183 135.957 136.700  1.00  0.00     0.003 CG0
ATOM      9  C   UNL     1     133.021 133.859 136.581  1.00  0.00     0.008 C 
ATOM     10  G   UNL     1     134.005 137.489 136.713  1.00  0.00     0.000 G0
ENDBRANCH   2   4
ENDBRANCH   1   2
BRANCH   1  11
ATOM     11  C   UNL     1     132.798 138.329 134.681  1.00  0.00     0.009 C 
BRANCH  11  12
ATOM     12  C   UNL     1     134.183 137.961 135.238  1.00  0.00    -0.001 C 
ATOM     13  C   UNL     1     134.000 137.501 136.713  1.00  0.00     0.002 CG0
ATOM     14  C   UNL     1     134.991 138.603 136.360  1.00  0.00    -0.029 C 
ATOM     15  G   UNL     1     134.191 135.971 136.696  1.00  0.00     0.000 G0
ATOM     16  C   UNL     1     134.606 140.031 136.763  1.00  0.00     0.011 C 
ATOM     17  C   UNL     1     136.475 138.229 136.448  1.00  0.00     0.011 C 
ENDBRANCH  11  12
ENDBRANCH   1  11
TORSDOF 0
ENDMDL
MODEL 6
REMARK VINA RESULT:    -3.498      3.513      5.668
REMARK INTER + INTRA:          -1.116
REMARK INTER:                  -4.362
REMARK INTRA:                   3.246
REMARK UNBOUND:                 3.200
REMARK SMILES C=C1CC[C@@H]2[C@@H]([C@@H]3[C@@H]1CC[C@@H]3C)C2(C)C
REMARK SMILES IDX 3 1 2 2 1 3 8 4 12 5 11 6 10 7 7 8 9 9 4 11 5 12 6 13 13 14
REMARK SMILES IDX 14 16 15 17
REMARK H PARENT
REMARK Flexibility Score: 80.00
ROOT
ATOM      1  C   UNL     1     140.833 135.601 134.593  1.00  0.00     0.031 C 
ENDROOT
BRANCH   1   2
ATOM      2  C   UNL     1     139.949 135.884 135.814  1.00  0.00    -0.074 C 
ATOM      3  C   UNL     1     139.590 137.151 136.081  1.00  0.00     0.008 C 
BRANCH   2   4
ATOM      4  C   UNL     1     139.305 134.681 136.512  1.00  0.00     0.018 C 
ATOM      5  C   UNL     1     137.878 131.724 136.482  1.00  0.00     0.008 C 
ATOM      6  C   UNL     1     137.439 133.170 136.767  1.00  0.00    -0.010 C 
ATOM      7  C   UNL     1     137.899 133.632 138.172  1.00  0.00     0.004 C 
ATOM      8  C   UNL     1     138.037 134.208 135.802  1.00  0.00     0.003 CG0
ATOM      9  C   UNL     1     138.883 134.795 137.971  1.00  0.00     0.008 C 
ATOM     10  G   UNL     1     138.433 133.724 134.392  1.00  0.00     0.000 G0
ENDBRANCH   2   4
ENDBRANCH   1   2
BRANCH   1  11
ATOM     11  C   UNL     1     140.058 135.275 133.276  1.00  0.00     0.009 C 
BRANCH  11  12
ATOM     12  C   UNL     1     138.561 135.022 133.519  1.00  0.00    -0.001 C 
ATOM     13  C   UNL     1     138.427 133.731 134.376  1.00  0.00     0.002 CG0
ATOM     14  C   UNL     1     137.675 133.870 133.058  1.00  0.00    -0.029 C 
ATOM     15  G   UNL     1     138.029 134.209 135.787  1.00  0.00     0.000 G0
ATOM     16  C   UNL     1     138.183 133.030 131.882  1.00  0.00     0.011 C 
ATOM     17  C   UNL     1     136.160 134.076 133.167  1.00  0.00     0.011 C 
ENDBRANCH  11  12
ENDBRANCH   1  11
TORSDOF 0
ENDMDL
MODEL 7
REMARK VINA RESULT:    -3.440      3.982      6.613
REMARK INTER + INTRA:          -1.044
REMARK INTER:                  -4.351
REMARK INTRA:                   3.306
REMARK UNBOUND:                 3.200
REMARK SMILES C=C1CC[C@@H]2[C@@H]([C@@H]3[C@@H]1CC[C@@H]3C)C2(C)C
REMARK SMILES IDX 3 1 2 2 1 3 8 4 12 5 11 6 10 7 7 8 9 9 4 11 5 12 6 13 13 14
REMARK SMILES IDX 14 16 15 17
REMARK H PARENT
REMARK Flexibility Score: 80.00
ROOT
ATOM      1  C   UNL     1     131.955 134.993 136.124  1.00  0.00     0.031 C 
ENDROOT
BRANCH   1   2
ATOM      2  C   UNL     1     133.081 134.411 136.986  1.00  0.00    -0.074 C 
ATOM      3  C   UNL     1     133.858 133.440 136.477  1.00  0.00     0.008 C 
BRANCH   2   4
ATOM      4  C   UNL     1     133.428 135.148 138.284  1.00  0.00     0.018 C 
ATOM      5  C   UNL     1     133.823 137.884 140.057  1.00  0.00     0.008 C 
ATOM      6  C   UNL     1     134.738 136.803 139.457  1.00  0.00    -0.010 C 
ATOM      7  C   UNL     1     134.707 135.505 140.302  1.00  0.00     0.004 C 
ATOM      8  C   UNL     1     134.334 136.355 138.042  1.00  0.00     0.003 CG0
ATOM      9  C   UNL     1     134.119 134.397 139.414  1.00  0.00     0.008 C 
ATOM     10  G   UNL     1     133.560 137.364 137.169  1.00  0.00     0.000 G0
ENDBRANCH   2   4
ENDBRANCH   1   2
BRANCH   1  11
ATOM     11  C   UNL     1     132.352 136.238 135.267  1.00  0.00     0.009 C 
BRANCH  11  12
ATOM     12  C   UNL     1     133.697 136.846 135.699  1.00  0.00    -0.001 C 
ATOM     13  C   UNL     1     133.546 137.353 137.162  1.00  0.00     0.002 CG0
ATOM     14  C   UNL     1     134.051 138.283 136.065  1.00  0.00    -0.029 C 
ATOM     15  G   UNL     1     134.330 136.348 138.031  1.00  0.00     0.000 G0
ATOM     16  C   UNL     1     133.087 139.377 135.593  1.00  0.00     0.011 C 
ATOM     17  C   UNL     1     135.541 138.638 136.116  1.00  0.00     0.011 C 
ENDBRANCH  11  12
ENDBRANCH   1  11
TORSDOF 0
ENDMDL
MODEL 8
REMARK VINA RESULT:    -3.406      3.399      4.436
REMARK INTER + INTRA:          -1.003
REMARK INTER:                  -4.296
REMARK INTRA:                   3.292
REMARK UNBOUND:                 3.200
REMARK SMILES C=C1CC[C@@H]2[C@@H]([C@@H]3[C@@H]1CC[C@@H]3C)C2(C)C
REMARK SMILES IDX 3 1 2 2 1 3 8 4 12 5 11 6 10 7 7 8 9 9 4 11 5 12 6 13 13 14
REMARK SMILES IDX 14 16 15 17
REMARK H PARENT
REMARK Flexibility Score: 80.00
ROOT
ATOM      1  C   UNL     1     134.995 140.640 136.502  1.00  0.00     0.031 C 
ENDROOT
BRANCH   1   2
ATOM      2  C   UNL     1     135.436 140.225 135.094  1.00  0.00    -0.074 C 
ATOM      3  C   UNL     1     136.707 140.445 134.716  1.00  0.00     0.008 C 
BRANCH   2   4
ATOM      4  C   UNL     1     134.478 139.344 134.286  1.00  0.00     0.018 C 
ATOM      5  C   UNL     1     132.250 136.945 134.033  1.00  0.00     0.008 C 
ATOM      6  C   UNL     1     133.719 137.149 133.624  1.00  0.00    -0.010 C 
ATOM      7  C   UNL     1     133.834 138.036 132.360  1.00  0.00     0.004 C 
ATOM      8  C   UNL     1     134.569 137.871 134.683  1.00  0.00     0.003 CG0
ATOM      9  C   UNL     1     134.581 139.317 132.767  1.00  0.00     0.008 C 
ATOM     10  G   UNL     1     134.128 137.747 136.156  1.00  0.00     0.000 G0
ENDBRANCH   2   4
ENDBRANCH   1   2
BRANCH   1  11
ATOM     11  C   UNL     1     135.135 139.531 137.595  1.00  0.00     0.009 C 
BRANCH  11  12
ATOM     12  C   UNL     1     135.392 138.140 136.992  1.00  0.00    -0.001 C 
ATOM     13  C   UNL     1     134.138 137.736 136.167  1.00  0.00     0.002 CG0
ATOM     14  C   UNL     1     134.685 136.814 137.250  1.00  0.00    -0.029 C 
ATOM     15  G   UNL     1     134.555 137.865 134.688  1.00  0.00     0.000 G0
ATOM     16  C   UNL     1     133.865 136.704 138.540  1.00  0.00     0.011 C 
ATOM     17  C   UNL     1     135.392 135.545 136.760  1.00  0.00     0.011 C 
ENDBRANCH  11  12
ENDBRANCH   1  11
TORSDOF 0
ENDMDL
MODEL 9
REMARK VINA RESULT:    -3.314      4.269      5.521
REMARK INTER + INTRA:          -0.889
REMARK INTER:                  -4.163
REMARK INTRA:                   3.274
REMARK UNBOUND:                 3.200
REMARK SMILES C=C1CC[C@@H]2[C@@H]([C@@H]3[C@@H]1CC[C@@H]3C)C2(C)C
REMARK SMILES IDX 3 1 2 2 1 3 8 4 12 5 11 6 10 7 7 8 9 9 4 11 5 12 6 13 13 14
REMARK SMILES IDX 14 16 15 17
REMARK H PARENT
REMARK Flexibility Score: 80.00
ROOT
ATOM      1  C   UNL     1     133.596 138.109 140.083  1.00  0.00     0.031 C 
ENDROOT
BRANCH   1   2
ATOM      2  C   UNL     1     134.473 139.007 139.203  1.00  0.00    -0.074 C 
ATOM      3  C   UNL     1     135.690 139.368 139.646  1.00  0.00     0.008 C 
BRANCH   2   4
ATOM      4  C   UNL     1     134.025 139.228 137.755  1.00  0.00     0.018 C 
ATOM      5  C   UNL     1     132.690 138.202 134.935  1.00  0.00     0.008 C 
ATOM      6  C   UNL     1     134.095 138.588 135.428  1.00  0.00    -0.010 C 
ATOM      7  C   UNL     1     134.257 140.125 135.524  1.00  0.00     0.004 C 
ATOM      8  C   UNL     1     134.428 138.074 136.838  1.00  0.00     0.003 CG0
ATOM      9  C   UNL     1     134.493 140.468 137.004  1.00  0.00     0.008 C 
ATOM     10  G   UNL     1     133.699 136.804 137.324  1.00  0.00     0.000 G0
ENDBRANCH   2   4
ENDBRANCH   1   2
BRANCH   1  11
ATOM     11  C   UNL     1     133.737 136.576 139.814  1.00  0.00     0.009 C 
BRANCH  11  12
ATOM     12  C   UNL     1     134.530 136.273 138.531  1.00  0.00    -0.001 C 
ATOM     13  C   UNL     1     133.700 136.791 137.322  1.00  0.00     0.002 CG0
ATOM     14  C   UNL     1     134.193 135.350 137.366  1.00  0.00    -0.029 C 
ATOM     15  G   UNL     1     134.427 138.060 136.834  1.00  0.00     0.000 G0
ATOM     16  C   UNL     1     133.137 134.268 137.619  1.00  0.00     0.011 C 
ATOM     17  C   UNL     1     135.336 134.999 136.406  1.00  0.00     0.011 C 
ENDBRANCH  11  12
ENDBRANCH   1  11
TORSDOF 0
ENDMDL
