MODEL 1
REMARK VINA RESULT:    -4.908      0.000      0.000
REMARK INTER + INTRA:          -9.555
REMARK INTER:                  -8.924
REMARK INTRA:                  -0.631
REMARK UNBOUND:                -0.631
REMARK SMILES CCCCCCCCCCCCCC[C@H](C)C(=O)[O-]
REMARK SMILES IDX 9 1 10 2 11 3 12 4 13 5 14 6 15 7 16 8 17 9 18 10 19 11 8 12
REMARK SMILES IDX 7 13 6 14 5 15 4 16 3 17 2 18 1 19
REMARK H PARENT
REMARK Flexibility Score: inf
ROOT
ATOM      1  C   UNL     1     126.821 125.350 123.154  1.00  0.00     0.000 C 
ENDROOT
BRANCH   1   2
ATOM      2  C   UNL     1     127.677 125.133 124.412  1.00  0.00     0.000 C 
BRANCH   2   3
ATOM      3  C   UNL     1     126.836 124.918 125.683  1.00  0.00     0.000 C 
BRANCH   3   4
ATOM      4  C   UNL     1     127.565 124.216 126.845  1.00  0.00     0.000 C 
BRANCH   4   5
ATOM      5  C   UNL     1     126.688 124.060 128.100  1.00  0.00     0.001 C 
BRANCH   5   6
ATOM      6  C   UNL     1     126.429 122.578 128.457  1.00  0.00     0.009 C 
BRANCH   6   7
ATOM      7  C   UNL     1     124.986 122.252 128.913  1.00  0.00     0.032 C 
ATOM      8  C   UNL     1     124.214 123.489 129.389  1.00  0.00     0.014 C 
BRANCH   7   9
ATOM      9  C   UNL     1     124.966 121.143 129.934  1.00  0.00     0.044 C 
ATOM     10  O   UNL     1     123.980 120.986 130.704  1.00  0.00    -0.550 OA
ATOM     11  O   UNL     1     126.069 120.309 130.062  1.00  0.00    -0.550 OA
ENDBRANCH   7   9
ENDBRANCH   6   7
ENDBRANCH   5   6
ENDBRANCH   4   5
ENDBRANCH   3   4
ENDBRANCH   2   3
ENDBRANCH   1   2
BRANCH   1  12
ATOM     12  C   UNL     1     127.068 126.716 122.493  1.00  0.00     0.000 C 
BRANCH  12  13
ATOM     13  C   UNL     1     127.917 127.676 123.353  1.00  0.00    -0.000 C 
BRANCH  13  14
ATOM     14  C   UNL     1     128.307 128.952 122.585  1.00  0.00    -0.000 C 
BRANCH  14  15
ATOM     15  C   UNL     1     129.198 129.895 123.408  1.00  0.00    -0.000 C 
BRANCH  15  16
ATOM     16  C   UNL     1     128.412 130.662 124.484  1.00  0.00    -0.000 C 
BRANCH  16  17
ATOM     17  C   UNL     1     129.260 130.967 125.730  1.00  0.00    -0.000 C 
BRANCH  17  18
ATOM     18  C   UNL     1     128.421 131.492 126.904  1.00  0.00    -0.003 C 
ATOM     19  C   UNL     1     128.887 130.887 128.226  1.00  0.00     0.004 C 
ENDBRANCH  17  18
ENDBRANCH  16  17
ENDBRANCH  15  16
ENDBRANCH  14  15
ENDBRANCH  13  14
ENDBRANCH  12  13
ENDBRANCH   1  12
TORSDOF 14
ENDMDL
MODEL 2
REMARK VINA RESULT:    -4.595      6.871      9.952
REMARK INTER + INTRA:          -8.987
REMARK INTER:                  -7.853
REMARK INTRA:                  -1.133
REMARK UNBOUND:                -0.631
REMARK SMILES CCCCCCCCCCCCCC[C@H](C)C(=O)[O-]
REMARK SMILES IDX 9 1 10 2 11 3 12 4 13 5 14 6 15 7 16 8 17 9 18 10 19 11 8 12
REMARK SMILES IDX 7 13 6 14 5 15 4 16 3 17 2 18 1 19
REMARK H PARENT
REMARK Flexibility Score: inf
ROOT
ATOM      1  C   UNL     1     132.545 134.611 133.766  1.00  0.00     0.000 C 
ENDROOT
BRANCH   1   2
ATOM      2  C   UNL     1     132.689 133.594 134.909  1.00  0.00     0.000 C 
BRANCH   2   3
ATOM      3  C   UNL     1     131.704 132.416 134.796  1.00  0.00     0.000 C 
BRANCH   3   4
ATOM      4  C   UNL     1     130.250 132.732 135.194  1.00  0.00     0.000 C 
BRANCH   4   5
ATOM      5  C   UNL     1     129.298 131.539 134.998  1.00  0.00     0.001 C 
BRANCH   5   6
ATOM      6  C   UNL     1     129.905 130.442 134.094  1.00  0.00     0.009 C 
BRANCH   6   7
ATOM      7  C   UNL     1     129.742 128.993 134.613  1.00  0.00     0.032 C 
ATOM      8  C   UNL     1     130.970 128.115 134.339  1.00  0.00     0.014 C 
BRANCH   7   9
ATOM      9  C   UNL     1     128.470 128.364 134.104  1.00  0.00     0.044 C 
ATOM     10  O   UNL     1     128.311 128.117 132.879  1.00  0.00    -0.550 OA
ATOM     11  O   UNL     1     127.436 128.092 134.993  1.00  0.00    -0.550 OA
ENDBRANCH   7   9
ENDBRANCH   6   7
ENDBRANCH   5   6
ENDBRANCH   4   5
ENDBRANCH   3   4
ENDBRANCH   2   3
ENDBRANCH   1   2
BRANCH   1  12
ATOM     12  C   UNL     1     132.450 133.944 132.383  1.00  0.00     0.000 C 
BRANCH  12  13
ATOM     13  C   UNL     1     131.171 134.315 131.603  1.00  0.00    -0.000 C 
BRANCH  13  14
ATOM     14  C   UNL     1     131.381 134.245 130.080  1.00  0.00    -0.000 C 
BRANCH  14  15
ATOM     15  C   UNL     1     131.147 132.838 129.509  1.00  0.00    -0.000 C 
BRANCH  15  16
ATOM     16  C   UNL     1     130.407 132.863 128.161  1.00  0.00    -0.000 C 
BRANCH  16  17
ATOM     17  C   UNL     1     129.667 131.546 127.870  1.00  0.00    -0.000 C 
BRANCH  17  18
ATOM     18  C   UNL     1     128.141 131.717 127.843  1.00  0.00    -0.003 C 
ATOM     19  C   UNL     1     127.752 133.191 127.919  1.00  0.00     0.004 C 
ENDBRANCH  17  18
ENDBRANCH  16  17
ENDBRANCH  15  16
ENDBRANCH  14  15
ENDBRANCH  13  14
ENDBRANCH  12  13
ENDBRANCH   1  12
TORSDOF 14
ENDMDL
MODEL 3
REMARK VINA RESULT:    -4.560      8.173     11.284
REMARK INTER + INTRA:          -8.923
REMARK INTER:                  -7.141
REMARK INTRA:                  -1.782
REMARK UNBOUND:                -0.631
REMARK SMILES CCCCCCCCCCCCCC[C@H](C)C(=O)[O-]
REMARK SMILES IDX 9 1 10 2 11 3 12 4 13 5 14 6 15 7 16 8 17 9 18 10 19 11 8 12
REMARK SMILES IDX 7 13 6 14 5 15 4 16 3 17 2 18 1 19
REMARK H PARENT
REMARK Flexibility Score: inf
ROOT
ATOM      1  C   UNL     1     132.908 135.988 133.341  1.00  0.00     0.000 C 
ENDROOT
BRANCH   1   2
ATOM      2  C   UNL     1     133.853 135.110 134.177  1.00  0.00     0.000 C 
BRANCH   2   3
ATOM      3  C   UNL     1     133.909 133.651 133.689  1.00  0.00     0.000 C 
BRANCH   3   4
ATOM      4  C   UNL     1     133.020 132.662 134.467  1.00  0.00     0.000 C 
BRANCH   4   5
ATOM      5  C   UNL     1     131.718 133.299 134.984  1.00  0.00     0.001 C 
BRANCH   5   6
ATOM      6  C   UNL     1     130.476 132.832 134.189  1.00  0.00     0.009 C 
BRANCH   6   7
ATOM      7  C   UNL     1     129.605 131.765 134.893  1.00  0.00     0.032 C 
ATOM      8  C   UNL     1     129.511 131.973 136.410  1.00  0.00     0.014 C 
BRANCH   7   9
ATOM      9  C   UNL     1     130.048 130.368 134.539  1.00  0.00     0.044 C 
ATOM     10  O   UNL     1     129.523 129.743 133.579  1.00  0.00    -0.550 OA
ATOM     11  O   UNL     1     131.018 129.740 135.311  1.00  0.00    -0.550 OA
ENDBRANCH   7   9
ENDBRANCH   6   7
ENDBRANCH   5   6
ENDBRANCH   4   5
ENDBRANCH   3   4
ENDBRANCH   2   3
ENDBRANCH   1   2
BRANCH   1  12
ATOM     12  C   UNL     1     133.001 135.696 131.834  1.00  0.00     0.000 C 
BRANCH  12  13
ATOM     13  C   UNL     1     131.668 135.898 131.081  1.00  0.00    -0.000 C 
BRANCH  13  14
ATOM     14  C   UNL     1     130.876 134.586 130.944  1.00  0.00    -0.000 C 
BRANCH  14  15
ATOM     15  C   UNL     1     131.779 133.368 130.695  1.00  0.00    -0.000 C 
BRANCH  15  16
ATOM     16  C   UNL     1     131.165 132.372 129.696  1.00  0.00    -0.000 C 
BRANCH  16  17
ATOM     17  C   UNL     1     130.760 133.040 128.371  1.00  0.00    -0.000 C 
BRANCH  17  18
ATOM     18  C   UNL     1     129.476 132.445 127.776  1.00  0.00    -0.003 C 
ATOM     19  C   UNL     1     128.259 133.292 128.138  1.00  0.00     0.004 C 
ENDBRANCH  17  18
ENDBRANCH  16  17
ENDBRANCH  15  16
ENDBRANCH  14  15
ENDBRANCH  13  14
ENDBRANCH  12  13
ENDBRANCH   1  12
TORSDOF 14
ENDMDL
MODEL 4
REMARK VINA RESULT:    -4.546      7.022     11.802
REMARK INTER + INTRA:          -8.898
REMARK INTER:                  -7.580
REMARK INTRA:                  -1.318
REMARK UNBOUND:                -0.631
REMARK SMILES CCCCCCCCCCCCCC[C@H](C)C(=O)[O-]
REMARK SMILES IDX 9 1 10 2 11 3 12 4 13 5 14 6 15 7 16 8 17 9 18 10 19 11 8 12
REMARK SMILES IDX 7 13 6 14 5 15 4 16 3 17 2 18 1 19
REMARK H PARENT
REMARK Flexibility Score: inf
ROOT
ATOM      1  C   UNL     1     132.774 133.512 133.847  1.00  0.00     0.000 C 
ENDROOT
BRANCH   1   2
ATOM      2  C   UNL     1     131.476 133.241 133.070  1.00  0.00     0.000 C 
BRANCH   2   3
ATOM      3  C   UNL     1     131.679 133.227 131.544  1.00  0.00     0.000 C 
BRANCH   3   4
ATOM      4  C   UNL     1     131.108 134.444 130.792  1.00  0.00     0.000 C 
BRANCH   4   5
ATOM      5  C   UNL     1     130.944 134.197 129.281  1.00  0.00     0.001 C 
BRANCH   5   6
ATOM      6  C   UNL     1     130.413 132.779 128.969  1.00  0.00     0.009 C 
BRANCH   6   7
ATOM      7  C   UNL     1     129.324 132.709 127.873  1.00  0.00     0.032 C 
ATOM      8  C   UNL     1     128.054 133.488 128.238  1.00  0.00     0.014 C 
BRANCH   7   9
ATOM      9  C   UNL     1     129.022 131.283 127.483  1.00  0.00     0.044 C 
ATOM     10  O   UNL     1     129.057 130.355 128.334  1.00  0.00    -0.550 OA
ATOM     11  O   UNL     1     128.747 130.980 126.155  1.00  0.00    -0.550 OA
ENDBRANCH   7   9
ENDBRANCH   6   7
ENDBRANCH   5   6
ENDBRANCH   4   5
ENDBRANCH   3   4
ENDBRANCH   2   3
ENDBRANCH   1   2
BRANCH   1  12
ATOM     12  C   UNL     1     132.518 134.056 135.262  1.00  0.00     0.000 C 
BRANCH  12  13
ATOM     13  C   UNL     1     131.084 133.802 135.774  1.00  0.00    -0.000 C 
BRANCH  13  14
ATOM     14  C   UNL     1     131.028 132.647 136.790  1.00  0.00    -0.000 C 
BRANCH  14  15
ATOM     15  C   UNL     1     129.669 131.929 136.801  1.00  0.00    -0.000 C 
BRANCH  15  16
ATOM     16  C   UNL     1     129.262 131.413 135.411  1.00  0.00    -0.000 C 
BRANCH  16  17
ATOM     17  C   UNL     1     130.180 130.287 134.908  1.00  0.00    -0.000 C 
BRANCH  17  18
ATOM     18  C   UNL     1     129.724 129.706 133.562  1.00  0.00    -0.003 C 
ATOM     19  C   UNL     1     128.754 128.545 133.765  1.00  0.00     0.004 C 
ENDBRANCH  17  18
ENDBRANCH  16  17
ENDBRANCH  15  16
ENDBRANCH  14  15
ENDBRANCH  13  14
ENDBRANCH  12  13
ENDBRANCH   1  12
TORSDOF 14
ENDMDL
MODEL 5
REMARK VINA RESULT:    -4.531      5.409      8.603
REMARK INTER + INTRA:          -8.871
REMARK INTER:                  -7.616
REMARK INTRA:                  -1.255
REMARK UNBOUND:                -0.631
REMARK SMILES CCCCCCCCCCCCCC[C@H](C)C(=O)[O-]
REMARK SMILES IDX 9 1 10 2 11 3 12 4 13 5 14 6 15 7 16 8 17 9 18 10 19 11 8 12
REMARK SMILES IDX 7 13 6 14 5 15 4 16 3 17 2 18 1 19
REMARK H PARENT
REMARK Flexibility Score: inf
ROOT
ATOM      1  C   UNL     1     123.468 122.491 131.987  1.00  0.00     0.000 C 
ENDROOT
BRANCH   1   2
ATOM      2  C   UNL     1     124.661 122.575 132.952  1.00  0.00     0.000 C 
BRANCH   2   3
ATOM      3  C   UNL     1     124.256 122.395 134.427  1.00  0.00     0.000 C 
BRANCH   3   4
ATOM      4  C   UNL     1     124.946 123.348 135.420  1.00  0.00     0.000 C 
BRANCH   4   5
ATOM      5  C   UNL     1     126.342 123.799 134.953  1.00  0.00     0.001 C 
BRANCH   5   6
ATOM      6  C   UNL     1     126.856 125.032 135.731  1.00  0.00     0.009 C 
BRANCH   6   7
ATOM      7  C   UNL     1     126.669 126.390 135.013  1.00  0.00     0.032 C 
ATOM      8  C   UNL     1     126.141 126.242 133.580  1.00  0.00     0.014 C 
BRANCH   7   9
ATOM      9  C   UNL     1     127.923 127.224 135.072  1.00  0.00     0.044 C 
ATOM     10  O   UNL     1     128.192 128.059 134.167  1.00  0.00    -0.550 OA
ATOM     11  O   UNL     1     128.822 127.039 136.116  1.00  0.00    -0.550 OA
ENDBRANCH   7   9
ENDBRANCH   6   7
ENDBRANCH   5   6
ENDBRANCH   4   5
ENDBRANCH   3   4
ENDBRANCH   2   3
ENDBRANCH   1   2
BRANCH   1  12
ATOM     12  C   UNL     1     123.706 121.509 130.828  1.00  0.00     0.000 C 
BRANCH  12  13
ATOM     13  C   UNL     1     124.959 121.835 129.987  1.00  0.00    -0.000 C 
BRANCH  13  14
ATOM     14  C   UNL     1     124.709 122.989 129.000  1.00  0.00    -0.000 C 
BRANCH  14  15
ATOM     15  C   UNL     1     125.651 124.183 129.227  1.00  0.00    -0.000 C 
BRANCH  15  16
ATOM     16  C   UNL     1     126.118 124.826 127.911  1.00  0.00    -0.000 C 
BRANCH  16  17
ATOM     17  C   UNL     1     127.135 123.954 127.156  1.00  0.00    -0.000 C 
BRANCH  17  18
ATOM     18  C   UNL     1     128.286 123.476 128.052  1.00  0.00    -0.003 C 
ATOM     19  C   UNL     1     128.330 121.952 128.123  1.00  0.00     0.004 C 
ENDBRANCH  17  18
ENDBRANCH  16  17
ENDBRANCH  15  16
ENDBRANCH  14  15
ENDBRANCH  13  14
ENDBRANCH  12  13
ENDBRANCH   1  12
TORSDOF 14
ENDMDL
MODEL 6
REMARK VINA RESULT:    -4.529      4.957      9.009
REMARK INTER + INTRA:          -8.868
REMARK INTER:                  -7.451
REMARK INTRA:                  -1.417
REMARK UNBOUND:                -0.631
REMARK SMILES CCCCCCCCCCCCCC[C@H](C)C(=O)[O-]
REMARK SMILES IDX 9 1 10 2 11 3 12 4 13 5 14 6 15 7 16 8 17 9 18 10 19 11 8 12
REMARK SMILES IDX 7 13 6 14 5 15 4 16 3 17 2 18 1 19
REMARK H PARENT
REMARK Flexibility Score: inf
ROOT
ATOM      1  C   UNL     1     124.890 123.508 133.817  1.00  0.00     0.000 C 
ENDROOT
BRANCH   1   2
ATOM      2  C   UNL     1     124.411 122.349 132.929  1.00  0.00     0.000 C 
BRANCH   2   3
ATOM      3  C   UNL     1     124.254 122.748 131.450  1.00  0.00     0.000 C 
BRANCH   3   4
ATOM      4  C   UNL     1     124.248 121.577 130.449  1.00  0.00     0.000 C 
BRANCH   4   5
ATOM      5  C   UNL     1     125.404 121.645 129.435  1.00  0.00     0.001 C 
BRANCH   5   6
ATOM      6  C   UNL     1     125.285 122.859 128.485  1.00  0.00     0.009 C 
BRANCH   6   7
ATOM      7  C   UNL     1     126.466 123.857 128.539  1.00  0.00     0.032 C 
ATOM      8  C   UNL     1     126.017 125.322 128.454  1.00  0.00     0.014 C 
BRANCH   7   9
ATOM      9  C   UNL     1     127.518 123.526 127.511  1.00  0.00     0.044 C 
ATOM     10  O   UNL     1     128.363 122.613 127.716  1.00  0.00    -0.550 OA
ATOM     11  O   UNL     1     127.589 124.268 126.339  1.00  0.00    -0.550 OA
ENDBRANCH   7   9
ENDBRANCH   6   7
ENDBRANCH   5   6
ENDBRANCH   4   5
ENDBRANCH   3   4
ENDBRANCH   2   3
ENDBRANCH   1   2
BRANCH   1  12
ATOM     12  C   UNL     1     124.669 123.241 135.316  1.00  0.00     0.000 C 
BRANCH  12  13
ATOM     13  C   UNL     1     125.965 123.301 136.153  1.00  0.00    -0.000 C 
BRANCH  13  14
ATOM     14  C   UNL     1     127.072 124.106 135.449  1.00  0.00    -0.000 C 
BRANCH  14  15
ATOM     15  C   UNL     1     127.703 125.173 136.359  1.00  0.00    -0.000 C 
BRANCH  15  16
ATOM     16  C   UNL     1     127.619 126.586 135.757  1.00  0.00    -0.000 C 
BRANCH  16  17
ATOM     17  C   UNL     1     126.889 126.609 134.404  1.00  0.00    -0.000 C 
BRANCH  17  18
ATOM     18  C   UNL     1     125.789 127.679 134.342  1.00  0.00    -0.003 C 
ATOM     19  C   UNL     1     124.483 127.158 134.935  1.00  0.00     0.004 C 
ENDBRANCH  17  18
ENDBRANCH  16  17
ENDBRANCH  15  16
ENDBRANCH  14  15
ENDBRANCH  13  14
ENDBRANCH  12  13
ENDBRANCH   1  12
TORSDOF 14
ENDMDL
MODEL 7
REMARK VINA RESULT:    -4.503      7.421     11.715
REMARK INTER + INTRA:          -8.819
REMARK INTER:                  -7.632
REMARK INTRA:                  -1.187
REMARK UNBOUND:                -0.631
REMARK SMILES CCCCCCCCCCCCCC[C@H](C)C(=O)[O-]
REMARK SMILES IDX 9 1 10 2 11 3 12 4 13 5 14 6 15 7 16 8 17 9 18 10 19 11 8 12
REMARK SMILES IDX 7 13 6 14 5 15 4 16 3 17 2 18 1 19
REMARK H PARENT
REMARK Flexibility Score: inf
ROOT
ATOM      1  C   UNL     1     133.103 134.941 132.149  1.00  0.00     0.000 C 
ENDROOT
BRANCH   1   2
ATOM      2  C   UNL     1     132.071 135.630 131.241  1.00  0.00     0.000 C 
BRANCH   2   3
ATOM      3  C   UNL     1     130.739 134.862 131.152  1.00  0.00     0.000 C 
BRANCH   3   4
ATOM      4  C   UNL     1     130.340 134.396 129.740  1.00  0.00     0.000 C 
BRANCH   4   5
ATOM      5  C   UNL     1     131.291 133.330 129.165  1.00  0.00     0.001 C 
BRANCH   5   6
ATOM      6  C   UNL     1     130.619 132.466 128.074  1.00  0.00     0.009 C 
BRANCH   6   7
ATOM      7  C   UNL     1     129.226 131.903 128.443  1.00  0.00     0.032 C 
ATOM      8  C   UNL     1     129.236 130.388 128.683  1.00  0.00     0.014 C 
BRANCH   7   9
ATOM      9  C   UNL     1     128.180 132.311 127.436  1.00  0.00     0.044 C 
ATOM     10  O   UNL     1     128.056 131.697 126.342  1.00  0.00    -0.550 OA
ATOM     11  O   UNL     1     127.369 133.409 127.697  1.00  0.00    -0.550 OA
ENDBRANCH   7   9
ENDBRANCH   6   7
ENDBRANCH   5   6
ENDBRANCH   4   5
ENDBRANCH   3   4
ENDBRANCH   2   3
ENDBRANCH   1   2
BRANCH   1  12
ATOM     12  C   UNL     1     132.477 133.866 133.054  1.00  0.00     0.000 C 
BRANCH  12  13
ATOM     13  C   UNL     1     132.437 134.259 134.546  1.00  0.00    -0.000 C 
BRANCH  13  14
ATOM     14  C   UNL     1     131.391 133.447 135.331  1.00  0.00    -0.000 C 
BRANCH  14  15
ATOM     15  C   UNL     1     130.759 132.324 134.494  1.00  0.00    -0.000 C 
BRANCH  15  16
ATOM     16  C   UNL     1     129.283 132.081 134.852  1.00  0.00    -0.000 C 
BRANCH  16  17
ATOM     17  C   UNL     1     129.087 131.717 136.333  1.00  0.00    -0.000 C 
BRANCH  17  18
ATOM     18  C   UNL     1     128.130 130.533 136.531  1.00  0.00    -0.003 C 
ATOM     19  C   UNL     1     128.386 129.440 135.496  1.00  0.00     0.004 C 
ENDBRANCH  17  18
ENDBRANCH  16  17
ENDBRANCH  15  16
ENDBRANCH  14  15
ENDBRANCH  13  14
ENDBRANCH  12  13
ENDBRANCH   1  12
TORSDOF 14
ENDMDL
MODEL 8
REMARK VINA RESULT:    -4.427      7.292     10.524
REMARK INTER + INTRA:          -8.681
REMARK INTER:                  -7.049
REMARK INTRA:                  -1.632
REMARK UNBOUND:                -0.631
REMARK SMILES CCCCCCCCCCCCCC[C@H](C)C(=O)[O-]
REMARK SMILES IDX 9 1 10 2 11 3 12 4 13 5 14 6 15 7 16 8 17 9 18 10 19 11 8 12
REMARK SMILES IDX 7 13 6 14 5 15 4 16 3 17 2 18 1 19
REMARK H PARENT
REMARK Flexibility Score: inf
ROOT
ATOM      1  C   UNL     1     123.866 121.838 134.385  1.00  0.00     0.000 C 
ENDROOT
BRANCH   1   2
ATOM      2  C   UNL     1     123.526 123.114 135.170  1.00  0.00     0.000 C 
BRANCH   2   3
ATOM      3  C   UNL     1     124.626 124.188 135.081  1.00  0.00     0.000 C 
BRANCH   3   4
ATOM      4  C   UNL     1     126.028 123.666 134.713  1.00  0.00     0.000 C 
BRANCH   4   5
ATOM      5  C   UNL     1     127.094 123.999 135.772  1.00  0.00     0.001 C 
BRANCH   5   6
ATOM      6  C   UNL     1     126.992 125.459 136.272  1.00  0.00     0.009 C 
BRANCH   6   7
ATOM      7  C   UNL     1     127.788 126.496 135.444  1.00  0.00     0.032 C 
ATOM      8  C   UNL     1     128.739 127.344 136.300  1.00  0.00     0.014 C 
BRANCH   7   9
ATOM      9  C   UNL     1     126.874 127.348 134.599  1.00  0.00     0.044 C 
ATOM     10  O   UNL     1     126.495 126.963 133.460  1.00  0.00    -0.550 OA
ATOM     11  O   UNL     1     126.480 128.597 135.061  1.00  0.00    -0.550 OA
ENDBRANCH   7   9
ENDBRANCH   6   7
ENDBRANCH   5   6
ENDBRANCH   4   5
ENDBRANCH   3   4
ENDBRANCH   2   3
ENDBRANCH   1   2
BRANCH   1  12
ATOM     12  C   UNL     1     122.774 121.453 133.373  1.00  0.00     0.000 C 
BRANCH  12  13
ATOM     13  C   UNL     1     122.806 122.292 132.077  1.00  0.00    -0.000 C 
BRANCH  13  14
ATOM     14  C   UNL     1     124.244 122.598 131.621  1.00  0.00    -0.000 C 
BRANCH  14  15
ATOM     15  C   UNL     1     124.372 122.720 130.094  1.00  0.00    -0.000 C 
BRANCH  15  16
ATOM     16  C   UNL     1     125.119 121.530 129.468  1.00  0.00    -0.000 C 
BRANCH  16  17
ATOM     17  C   UNL     1     125.672 120.559 130.524  1.00  0.00    -0.000 C 
BRANCH  17  18
ATOM     18  C   UNL     1     125.327 119.094 130.221  1.00  0.00    -0.003 C 
ATOM     19  C   UNL     1     124.483 118.486 131.339  1.00  0.00     0.004 C 
ENDBRANCH  17  18
ENDBRANCH  16  17
ENDBRANCH  15  16
ENDBRANCH  14  15
ENDBRANCH  13  14
ENDBRANCH  12  13
ENDBRANCH   1  12
TORSDOF 14
ENDMDL
MODEL 9
REMARK VINA RESULT:    -4.346      7.547     12.024
REMARK INTER + INTRA:          -8.534
REMARK INTER:                  -6.792
REMARK INTRA:                  -1.742
REMARK UNBOUND:                -0.631
REMARK SMILES CCCCCCCCCCCCCC[C@H](C)C(=O)[O-]
REMARK SMILES IDX 9 1 10 2 11 3 12 4 13 5 14 6 15 7 16 8 17 9 18 10 19 11 8 12
REMARK SMILES IDX 7 13 6 14 5 15 4 16 3 17 2 18 1 19
REMARK H PARENT
REMARK Flexibility Score: inf
ROOT
ATOM      1  C   UNL     1     132.485 136.280 132.475  1.00  0.00     0.000 C 
ENDROOT
BRANCH   1   2
ATOM      2  C   UNL     1     131.605 136.772 131.315  1.00  0.00     0.000 C 
BRANCH   2   3
ATOM      3  C   UNL     1     131.004 135.623 130.485  1.00  0.00     0.000 C 
BRANCH   3   4
ATOM      4  C   UNL     1     131.774 134.290 130.550  1.00  0.00     0.000 C 
BRANCH   4   5
ATOM      5  C   UNL     1     130.937 133.086 130.082  1.00  0.00     0.001 C 
BRANCH   5   6
ATOM      6  C   UNL     1     130.958 132.913 128.546  1.00  0.00     0.009 C 
BRANCH   6   7
ATOM      7  C   UNL     1     129.568 132.847 127.870  1.00  0.00     0.032 C 
ATOM      8  C   UNL     1     128.486 133.605 128.649  1.00  0.00     0.014 C 
BRANCH   7   9
ATOM      9  C   UNL     1     129.164 131.424 127.575  1.00  0.00     0.044 C 
ATOM     10  O   UNL     1     128.899 130.617 128.506  1.00  0.00    -0.550 OA
ATOM     11  O   UNL     1     129.127 130.981 126.259  1.00  0.00    -0.550 OA
ENDBRANCH   7   9
ENDBRANCH   6   7
ENDBRANCH   5   6
ENDBRANCH   4   5
ENDBRANCH   3   4
ENDBRANCH   2   3
ENDBRANCH   1   2
BRANCH   1  12
ATOM     12  C   UNL     1     133.932 136.793 132.384  1.00  0.00     0.000 C 
BRANCH  12  13
ATOM     13  C   UNL     1     134.923 135.756 131.814  1.00  0.00    -0.000 C 
BRANCH  13  14
ATOM     14  C   UNL     1     134.878 134.426 132.588  1.00  0.00    -0.000 C 
BRANCH  14  15
ATOM     15  C   UNL     1     135.126 134.605 134.094  1.00  0.00    -0.000 C 
BRANCH  15  16
ATOM     16  C   UNL     1     134.045 133.930 134.955  1.00  0.00    -0.000 C 
BRANCH  16  17
ATOM     17  C   UNL     1     133.210 132.912 134.161  1.00  0.00    -0.000 C 
BRANCH  17  18
ATOM     18  C   UNL     1     131.721 133.280 134.107  1.00  0.00    -0.003 C 
ATOM     19  C   UNL     1     131.048 133.049 135.457  1.00  0.00     0.004 C 
ENDBRANCH  17  18
ENDBRANCH  16  17
ENDBRANCH  15  16
ENDBRANCH  14  15
ENDBRANCH  13  14
ENDBRANCH  12  13
ENDBRANCH   1  12
TORSDOF 14
ENDMDL
