MODEL 1
REMARK VINA RESULT:    -3.337      0.000      0.000
REMARK INTER + INTRA:          -3.779
REMARK INTER:                  -3.727
REMARK INTRA:                  -0.052
REMARK UNBOUND:                -0.052
REMARK SMILES CCCC(=O)[O-]
REMARK SMILES IDX 3 1 4 2 5 3 6 4 2 5 1 6
REMARK H PARENT
REMARK Flexibility Score: inf
ROOT
ATOM      1  C   UNL     1       5.019 -10.881   3.585  1.00  0.00     0.052 C 
ENDROOT
BRANCH   1   2
ATOM      2  C   UNL     1       5.448 -10.399   2.233  1.00  0.00     0.041 C 
ATOM      3  O   UNL     1       4.777 -10.697   1.211  1.00  0.00    -0.550 OA
ATOM      4  O   UNL     1       6.570  -9.589   2.107  1.00  0.00    -0.550 OA
ENDBRANCH   1   2
BRANCH   1   5
ATOM      5  C   UNL     1       4.690  -9.716   4.527  1.00  0.00     0.003 C 
ATOM      6  C   UNL     1       3.267  -9.194   4.331  1.00  0.00     0.004 C 
ENDBRANCH   1   5
TORSDOF 2
ENDMDL
MODEL 2
REMARK VINA RESULT:    -3.049      9.936     10.754
REMARK INTER + INTRA:          -3.457
REMARK INTER:                  -3.423
REMARK INTRA:                  -0.034
REMARK UNBOUND:                -0.052
REMARK SMILES CCCC(=O)[O-]
REMARK SMILES IDX 3 1 4 2 5 3 6 4 2 5 1 6
REMARK H PARENT
REMARK Flexibility Score: inf
ROOT
ATOM      1  C   UNL     1       7.553  -4.007  -4.720  1.00  0.00     0.052 C 
ENDROOT
BRANCH   1   2
ATOM      2  C   UNL     1       7.965  -3.787  -6.143  1.00  0.00     0.041 C 
ATOM      3  O   UNL     1       7.281  -3.043  -6.893  1.00  0.00    -0.550 OA
ATOM      4  O   UNL     1       9.125  -4.377  -6.630  1.00  0.00    -0.550 OA
ENDBRANCH   1   2
BRANCH   1   5
ATOM      5  C   UNL     1       8.747  -4.379  -3.832  1.00  0.00     0.003 C 
ATOM      6  C   UNL     1       8.552  -5.719  -3.125  1.00  0.00     0.004 C 
ENDBRANCH   1   5
TORSDOF 2
ENDMDL
MODEL 3
REMARK VINA RESULT:    -3.022      2.168      3.291
REMARK INTER + INTRA:          -3.426
REMARK INTER:                  -3.392
REMARK INTRA:                  -0.035
REMARK UNBOUND:                -0.052
REMARK SMILES CCCC(=O)[O-]
REMARK SMILES IDX 3 1 4 2 5 3 6 4 2 5 1 6
REMARK H PARENT
REMARK Flexibility Score: inf
ROOT
ATOM      1  C   UNL     1       5.273 -10.648   2.267  1.00  0.00     0.052 C 
ENDROOT
BRANCH   1   2
ATOM      2  C   UNL     1       4.794 -10.407   3.666  1.00  0.00     0.041 C 
ATOM      3  O   UNL     1       5.215 -11.124   4.612  1.00  0.00    -0.550 OA
ATOM      4  O   UNL     1       3.910  -9.369   3.930  1.00  0.00    -0.550 OA
ENDBRANCH   1   2
BRANCH   1   5
ATOM      5  C   UNL     1       6.629  -9.981   2.007  1.00  0.00     0.003 C 
ATOM      6  C   UNL     1       7.799 -10.943   2.212  1.00  0.00     0.004 C 
ENDBRANCH   1   5
TORSDOF 2
ENDMDL
MODEL 4
REMARK VINA RESULT:    -2.925      2.091      3.508
REMARK INTER + INTRA:          -3.319
REMARK INTER:                  -3.304
REMARK INTRA:                  -0.015
REMARK UNBOUND:                -0.052
REMARK SMILES CCCC(=O)[O-]
REMARK SMILES IDX 3 1 4 2 5 3 6 4 2 5 1 6
REMARK H PARENT
REMARK Flexibility Score: inf
ROOT
ATOM      1  C   UNL     1       6.851 -10.414   2.344  1.00  0.00     0.052 C 
ENDROOT
BRANCH   1   2
ATOM      2  C   UNL     1       5.386 -10.726   2.387  1.00  0.00     0.041 C 
ATOM      3  O   UNL     1       4.693 -10.661   1.338  1.00  0.00    -0.550 OA
ATOM      4  O   UNL     1       4.794 -11.124   3.579  1.00  0.00    -0.550 OA
ENDBRANCH   1   2
BRANCH   1   5
ATOM      5  C   UNL     1       7.220  -9.584   1.108  1.00  0.00     0.003 C 
ATOM      6  C   UNL     1       8.689  -9.743   0.718  1.00  0.00     0.004 C 
ENDBRANCH   1   5
TORSDOF 2
ENDMDL
MODEL 5
REMARK VINA RESULT:    -2.911      2.409      3.211
REMARK INTER + INTRA:          -3.303
REMARK INTER:                  -3.282
REMARK INTRA:                  -0.021
REMARK UNBOUND:                -0.052
REMARK SMILES CCCC(=O)[O-]
REMARK SMILES IDX 3 1 4 2 5 3 6 4 2 5 1 6
REMARK H PARENT
REMARK Flexibility Score: inf
ROOT
ATOM      1  C   UNL     1       5.030  -9.560   4.565  1.00  0.00     0.052 C 
ENDROOT
BRANCH   1   2
ATOM      2  C   UNL     1       3.564  -9.328   4.362  1.00  0.00     0.041 C 
ATOM      3  O   UNL     1       2.788 -10.303   4.182  1.00  0.00    -0.550 OA
ATOM      4  O   UNL     1       3.051  -8.038   4.406  1.00  0.00    -0.550 OA
ENDBRANCH   1   2
BRANCH   1   5
ATOM      5  C   UNL     1       5.548 -10.718   3.704  1.00  0.00     0.003 C 
ATOM      6  C   UNL     1       6.490 -10.245   2.597  1.00  0.00     0.004 C 
ENDBRANCH   1   5
TORSDOF 2
ENDMDL
MODEL 6
REMARK VINA RESULT:    -2.907     10.337     11.305
REMARK INTER + INTRA:          -3.299
REMARK INTER:                  -3.259
REMARK INTRA:                  -0.040
REMARK UNBOUND:                -0.052
REMARK SMILES CCCC(=O)[O-]
REMARK SMILES IDX 3 1 4 2 5 3 6 4 2 5 1 6
REMARK H PARENT
REMARK Flexibility Score: inf
ROOT
ATOM      1  C   UNL     1       7.972  -3.693  -6.407  1.00  0.00     0.052 C 
ENDROOT
BRANCH   1   2
ATOM      2  C   UNL     1       7.715  -3.967  -4.957  1.00  0.00     0.041 C 
ATOM      3  O   UNL     1       6.573  -4.334  -4.573  1.00  0.00    -0.550 OA
ATOM      4  O   UNL     1       8.746  -3.849  -4.033  1.00  0.00    -0.550 OA
ENDBRANCH   1   2
BRANCH   1   5
ATOM      5  C   UNL     1       8.962  -4.698  -7.008  1.00  0.00     0.003 C 
ATOM      6  C   UNL     1       8.260  -5.895  -7.649  1.00  0.00     0.004 C 
ENDBRANCH   1   5
TORSDOF 2
ENDMDL
MODEL 7
REMARK VINA RESULT:    -2.846      9.191     10.299
REMARK INTER + INTRA:          -3.231
REMARK INTER:                  -3.162
REMARK INTRA:                  -0.069
REMARK UNBOUND:                -0.052
REMARK SMILES CCCC(=O)[O-]
REMARK SMILES IDX 3 1 4 2 5 3 6 4 2 5 1 6
REMARK H PARENT
REMARK Flexibility Score: inf
ROOT
ATOM      1  C   UNL     1       7.176  -4.283  -4.593  1.00  0.00     0.052 C 
ENDROOT
BRANCH   1   2
ATOM      2  C   UNL     1       8.204  -5.043  -3.812  1.00  0.00     0.041 C 
ATOM      3  O   UNL     1       9.123  -4.429  -3.209  1.00  0.00    -0.550 OA
ATOM      4  O   UNL     1       8.126  -6.427  -3.720  1.00  0.00    -0.550 OA
ENDBRANCH   1   2
BRANCH   1   5
ATOM      5  C   UNL     1       7.774  -3.650  -5.856  1.00  0.00     0.003 C 
ATOM      6  C   UNL     1       8.319  -4.696  -6.829  1.00  0.00     0.004 C 
ENDBRANCH   1   5
TORSDOF 2
ENDMDL
MODEL 8
REMARK VINA RESULT:    -2.844      9.077      9.972
REMARK INTER + INTRA:          -3.228
REMARK INTER:                  -3.219
REMARK INTRA:                  -0.009
REMARK UNBOUND:                -0.052
REMARK SMILES CCCC(=O)[O-]
REMARK SMILES IDX 3 1 4 2 5 3 6 4 2 5 1 6
REMARK H PARENT
REMARK Flexibility Score: inf
ROOT
ATOM      1  C   UNL     1       8.882  -4.382  -4.486  1.00  0.00     0.052 C 
ENDROOT
BRANCH   1   2
ATOM      2  C   UNL     1       7.559  -4.173  -5.155  1.00  0.00     0.041 C 
ATOM      3  O   UNL     1       6.493  -4.246  -4.490  1.00  0.00    -0.550 OA
ATOM      4  O   UNL     1       7.505  -3.861  -6.509  1.00  0.00    -0.550 OA
ENDBRANCH   1   2
BRANCH   1   5
ATOM      5  C   UNL     1       8.740  -5.167  -3.176  1.00  0.00     0.003 C 
ATOM      6  C   UNL     1       8.643  -6.674  -3.408  1.00  0.00     0.004 C 
ENDBRANCH   1   5
TORSDOF 2
ENDMDL
MODEL 9
REMARK VINA RESULT:    -2.791     24.107     24.743
REMARK INTER + INTRA:          -3.169
REMARK INTER:                  -3.149
REMARK INTRA:                  -0.020
REMARK UNBOUND:                -0.052
REMARK SMILES CCCC(=O)[O-]
REMARK SMILES IDX 3 1 4 2 5 3 6 4 2 5 1 6
REMARK H PARENT
REMARK Flexibility Score: inf
ROOT
ATOM      1  C   UNL     1      -8.622   6.868  -7.332  1.00  0.00     0.052 C 
ENDROOT
BRANCH   1   2
ATOM      2  C   UNL     1      -9.942   6.232  -7.641  1.00  0.00     0.041 C 
ATOM      3  O   UNL     1      -9.988   5.093  -8.174  1.00  0.00    -0.550 OA
ATOM      4  O   UNL     1     -11.123   6.884  -7.307  1.00  0.00    -0.550 OA
ENDBRANCH   1   2
BRANCH   1   5
ATOM      5  C   UNL     1      -8.254   7.944  -8.361  1.00  0.00     0.003 C 
ATOM      6  C   UNL     1      -6.967   7.612  -9.116  1.00  0.00     0.004 C 
ENDBRANCH   1   5
TORSDOF 2
ENDMDL
