MODEL 1
REMARK VINA RESULT:    -3.841      0.000      0.000
REMARK INTER + INTRA:          -3.953
REMARK INTER:                  -3.953
REMARK INTRA:                   0.000
REMARK UNBOUND:                 0.000
REMARK SMILES CC1(C)[C@H]2CC[C@]1(C)[C@H](O)C2
REMARK SMILES IDX 1 1 2 2 4 3 5 4 6 5 7 6 9 7 11 8 8 9 3 10 10 11
REMARK H PARENT 10 12
REMARK Flexibility Score: inf
ROOT
ATOM      1  C   UNL     1     115.096 115.116 121.261  1.00  0.00     0.012 C 
ATOM      2  C   UNL     1     116.306 116.059 120.980  1.00  0.00    -0.025 C 
ATOM      3  C   UNL     1     115.900 117.478 120.547  1.00  0.00    -0.002 C 
ATOM      4  C   UNL     1     115.160 118.032 121.789  1.00  0.00     0.005 C 
ATOM      5  C   UNL     1     115.943 117.408 122.960  1.00  0.00     0.010 C 
ATOM      6  C   UNL     1     117.046 116.586 122.232  1.00  0.00    -0.001 C 
ATOM      7  C   UNL     1     118.065 117.599 121.629  1.00  0.00     0.121 C 
ATOM      8  C   UNL     1     117.251 118.236 120.477  1.00  0.00     0.036 C 
ATOM      9  C   UNL     1     117.697 115.520 123.122  1.00  0.00     0.015 C 
ATOM     10  C   UNL     1     117.192 115.314 119.934  1.00  0.00     0.012 C 
ENDROOT
BRANCH   7  11
ATOM     11  O   UNL     1     118.476 118.561 122.566  1.00  0.00    -0.393 OA
ATOM     12  H   UNL     1     119.458 118.455 122.665  1.00  0.00     0.210 HD
ENDBRANCH   7  11
TORSDOF 1
ENDMDL
MODEL 2
REMARK VINA RESULT:    -3.840      1.607      2.323
REMARK INTER + INTRA:          -3.952
REMARK INTER:                  -3.952
REMARK INTRA:                   0.000
REMARK UNBOUND:                 0.000
REMARK SMILES CC1(C)[C@H]2CC[C@]1(C)[C@H](O)C2
REMARK SMILES IDX 1 1 2 2 4 3 5 4 6 5 7 6 9 7 11 8 8 9 3 10 10 11
REMARK H PARENT 10 12
REMARK Flexibility Score: inf
ROOT
ATOM      1  C   UNL     1     115.126 118.118 121.286  1.00  0.00     0.012 C 
ATOM      2  C   UNL     1     116.066 116.907 120.997  1.00  0.00    -0.025 C 
ATOM      3  C   UNL     1     117.490 117.312 120.581  1.00  0.00    -0.002 C 
ATOM      4  C   UNL     1     118.037 118.032 121.837  1.00  0.00     0.005 C 
ATOM      5  C   UNL     1     117.400 117.237 122.993  1.00  0.00     0.010 C 
ATOM      6  C   UNL     1     116.579 116.148 122.244  1.00  0.00    -0.001 C 
ATOM      7  C   UNL     1     117.592 115.132 121.636  1.00  0.00     0.121 C 
ATOM      8  C   UNL     1     118.242 115.958 120.500  1.00  0.00     0.036 C 
ATOM      9  C   UNL     1     115.502 115.490 123.115  1.00  0.00     0.015 C 
ATOM     10  C   UNL     1     115.325 116.039 119.933  1.00  0.00     0.012 C 
ENDROOT
BRANCH   7  11
ATOM     11  O   UNL     1     118.543 114.704 122.575  1.00  0.00    -0.393 OA
ATOM     12  H   UNL     1     118.064 114.612 123.439  1.00  0.00     0.210 HD
ENDBRANCH   7  11
TORSDOF 1
ENDMDL
MODEL 3
REMARK VINA RESULT:    -3.808      1.601      2.321
REMARK INTER + INTRA:          -3.919
REMARK INTER:                  -3.919
REMARK INTRA:                   0.000
REMARK UNBOUND:                 0.000
REMARK SMILES CC1(C)[C@H]2CC[C@]1(C)[C@H](O)C2
REMARK SMILES IDX 1 1 2 2 4 3 5 4 6 5 7 6 9 7 11 8 8 9 3 10 10 11
REMARK H PARENT 10 12
REMARK Flexibility Score: inf
ROOT
ATOM      1  C   UNL     1     118.107 115.068 121.325  1.00  0.00     0.012 C 
ATOM      2  C   UNL     1     117.161 116.269 121.012  1.00  0.00    -0.025 C 
ATOM      3  C   UNL     1     115.746 115.848 120.581  1.00  0.00    -0.002 C 
ATOM      4  C   UNL     1     115.188 115.134 121.836  1.00  0.00     0.005 C 
ATOM      5  C   UNL     1     115.803 115.945 122.993  1.00  0.00     0.010 C 
ATOM      6  C   UNL     1     116.624 117.034 122.245  1.00  0.00    -0.001 C 
ATOM      7  C   UNL     1     115.611 118.036 121.614  1.00  0.00     0.121 C 
ATOM      8  C   UNL     1     114.983 117.194 120.477  1.00  0.00     0.036 C 
ATOM      9  C   UNL     1     117.683 117.709 123.125  1.00  0.00     0.015 C 
ATOM     10  C   UNL     1     117.909 117.134 119.950  1.00  0.00     0.012 C 
ENDROOT
BRANCH   7  11
ATOM     11  O   UNL     1     114.643 118.465 122.537  1.00  0.00    -0.393 OA
ATOM     12  H   UNL     1     113.792 118.544 122.034  1.00  0.00     0.210 HD
ENDBRANCH   7  11
TORSDOF 1
ENDMDL
MODEL 4
REMARK VINA RESULT:    -3.805      1.841      3.276
REMARK INTER + INTRA:          -3.916
REMARK INTER:                  -3.916
REMARK INTRA:                   0.000
REMARK UNBOUND:                 0.000
REMARK SMILES CC1(C)[C@H]2CC[C@]1(C)[C@H](O)C2
REMARK SMILES IDX 1 1 2 2 4 3 5 4 6 5 7 6 9 7 11 8 8 9 3 10 10 11
REMARK H PARENT 10 12
REMARK Flexibility Score: inf
ROOT
ATOM      1  C   UNL     1     118.112 118.063 121.240  1.00  0.00     0.012 C 
ATOM      2  C   UNL     1     116.894 117.125 120.973  1.00  0.00    -0.025 C 
ATOM      3  C   UNL     1     117.289 115.703 120.540  1.00  0.00    -0.002 C 
ATOM      4  C   UNL     1     118.037 115.149 121.777  1.00  0.00     0.005 C 
ATOM      5  C   UNL     1     117.268 115.780 122.954  1.00  0.00     0.010 C 
ATOM      6  C   UNL     1     116.163 116.605 122.233  1.00  0.00    -0.001 C 
ATOM      7  C   UNL     1     115.133 115.597 121.642  1.00  0.00     0.121 C 
ATOM      8  C   UNL     1     115.934 114.952 120.485  1.00  0.00     0.036 C 
ATOM      9  C   UNL     1     115.525 117.678 123.125  1.00  0.00     0.015 C 
ATOM     10  C   UNL     1     116.003 117.872 119.932  1.00  0.00     0.012 C 
ENDROOT
BRANCH   7  11
ATOM     11  O   UNL     1     114.725 114.640 122.586  1.00  0.00    -0.393 OA
ATOM     12  H   UNL     1     115.526 114.422 123.130  1.00  0.00     0.210 HD
ENDBRANCH   7  11
TORSDOF 1
ENDMDL
MODEL 5
REMARK VINA RESULT:    -3.678      1.101      2.778
REMARK INTER + INTRA:          -3.785
REMARK INTER:                  -3.785
REMARK INTRA:                   0.000
REMARK UNBOUND:                 0.000
REMARK SMILES CC1(C)[C@H]2CC[C@]1(C)[C@H](O)C2
REMARK SMILES IDX 1 1 2 2 4 3 5 4 6 5 7 6 9 7 11 8 8 9 3 10 10 11
REMARK H PARENT 10 12
REMARK Flexibility Score: inf
ROOT
ATOM      1  C   UNL     1     115.769 115.289 119.138  1.00  0.00     0.012 C 
ATOM      2  C   UNL     1     115.900 115.599 120.662  1.00  0.00    -0.025 C 
ATOM      3  C   UNL     1     117.296 115.305 121.237  1.00  0.00    -0.002 C 
ATOM      4  C   UNL     1     118.210 116.300 120.482  1.00  0.00     0.005 C 
ATOM      5  C   UNL     1     117.310 117.541 120.327  1.00  0.00     0.010 C 
ATOM      6  C   UNL     1     115.995 117.098 121.032  1.00  0.00    -0.001 C 
ATOM      7  C   UNL     1     116.275 117.057 122.564  1.00  0.00     0.121 C 
ATOM      8  C   UNL     1     117.204 115.825 122.695  1.00  0.00     0.036 C 
ATOM      9  C   UNL     1     114.783 117.957 120.655  1.00  0.00     0.015 C 
ATOM     10  C   UNL     1     114.754 114.800 121.358  1.00  0.00     0.012 C 
ENDROOT
BRANCH   7  11
ATOM     11  O   UNL     1     116.900 118.228 123.022  1.00  0.00    -0.393 OA
ATOM     12  H   UNL     1     116.783 118.242 124.007  1.00  0.00     0.210 HD
ENDBRANCH   7  11
TORSDOF 1
ENDMDL
MODEL 6
REMARK VINA RESULT:    -3.675      1.324      2.976
REMARK INTER + INTRA:          -3.782
REMARK INTER:                  -3.782
REMARK INTRA:                   0.000
REMARK UNBOUND:                 0.000
REMARK SMILES CC1(C)[C@H]2CC[C@]1(C)[C@H](O)C2
REMARK SMILES IDX 1 1 2 2 4 3 5 4 6 5 7 6 9 7 11 8 8 9 3 10 10 11
REMARK H PARENT 10 12
REMARK Flexibility Score: inf
ROOT
ATOM      1  C   UNL     1     115.200 117.668 119.963  1.00  0.00     0.012 C 
ATOM      2  C   UNL     1     115.644 117.168 121.373  1.00  0.00    -0.025 C 
ATOM      3  C   UNL     1     115.271 115.703 121.658  1.00  0.00    -0.002 C 
ATOM      4  C   UNL     1     116.090 114.916 120.608  1.00  0.00     0.005 C 
ATOM      5  C   UNL     1     117.393 115.732 120.507  1.00  0.00     0.010 C 
ATOM      6  C   UNL     1     117.155 116.879 121.532  1.00  0.00    -0.001 C 
ATOM      7  C   UNL     1     117.239 116.259 122.959  1.00  0.00     0.121 C 
ATOM      8  C   UNL     1     115.940 115.420 123.028  1.00  0.00     0.036 C 
ATOM      9  C   UNL     1     118.090 118.078 121.331  1.00  0.00     0.015 C 
ATOM     10  C   UNL     1     115.037 118.180 122.393  1.00  0.00     0.012 C 
ENDROOT
BRANCH   7  11
ATOM     11  O   UNL     1     118.381 115.460 123.125  1.00  0.00    -0.393 OA
ATOM     12  H   UNL     1     119.087 116.052 123.492  1.00  0.00     0.210 HD
ENDBRANCH   7  11
TORSDOF 1
ENDMDL
MODEL 7
REMARK VINA RESULT:    -3.662      1.733      2.845
REMARK INTER + INTRA:          -3.769
REMARK INTER:                  -3.769
REMARK INTRA:                   0.000
REMARK UNBOUND:                 0.000
REMARK SMILES CC1(C)[C@H]2CC[C@]1(C)[C@H](O)C2
REMARK SMILES IDX 1 1 2 2 4 3 5 4 6 5 7 6 9 7 11 8 8 9 3 10 10 11
REMARK H PARENT 10 12
REMARK Flexibility Score: inf
ROOT
ATOM      1  C   UNL     1     117.354 117.610 119.359  1.00  0.00     0.012 C 
ATOM      2  C   UNL     1     117.044 117.325 120.862  1.00  0.00    -0.025 C 
ATOM      3  C   UNL     1     115.597 117.650 121.270  1.00  0.00    -0.002 C 
ATOM      4  C   UNL     1     114.758 116.659 120.429  1.00  0.00     0.005 C 
ATOM      5  C   UNL     1     115.647 115.401 120.393  1.00  0.00     0.010 C 
ATOM      6  C   UNL     1     116.880 115.833 121.237  1.00  0.00    -0.001 C 
ATOM      7  C   UNL     1     116.429 115.901 122.727  1.00  0.00     0.121 C 
ATOM      8  C   UNL     1     115.514 117.149 122.735  1.00  0.00     0.036 C 
ATOM      9  C   UNL     1     118.112 114.948 121.012  1.00  0.00     0.015 C 
ATOM     10  C   UNL     1     118.118 118.114 121.674  1.00  0.00     0.012 C 
ENDROOT
BRANCH   7  11
ATOM     11  O   UNL     1     115.735 114.747 123.125  1.00  0.00    -0.393 OA
ATOM     12  H   UNL     1     115.226 114.437 122.331  1.00  0.00     0.210 HD
ENDBRANCH   7  11
TORSDOF 1
ENDMDL
MODEL 8
REMARK VINA RESULT:    -3.651      1.514      2.550
REMARK INTER + INTRA:          -3.757
REMARK INTER:                  -3.757
REMARK INTRA:                   0.000
REMARK UNBOUND:                 0.000
REMARK SMILES CC1(C)[C@H]2CC[C@]1(C)[C@H](O)C2
REMARK SMILES IDX 1 1 2 2 4 3 5 4 6 5 7 6 9 7 11 8 8 9 3 10 10 11
REMARK H PARENT 10 12
REMARK Flexibility Score: inf
ROOT
ATOM      1  C   UNL     1     117.502 115.960 119.126  1.00  0.00     0.012 C 
ATOM      2  C   UNL     1     117.301 116.188 120.657  1.00  0.00    -0.025 C 
ATOM      3  C   UNL     1     117.658 117.609 121.125  1.00  0.00    -0.002 C 
ATOM      4  C   UNL     1     116.628 118.497 120.386  1.00  0.00     0.005 C 
ATOM      5  C   UNL     1     115.364 117.616 120.370  1.00  0.00     0.010 C 
ATOM      6  C   UNL     1     115.833 116.337 121.122  1.00  0.00    -0.001 C 
ATOM      7  C   UNL     1     115.985 116.706 122.628  1.00  0.00     0.121 C 
ATOM      8  C   UNL     1     117.238 117.615 122.618  1.00  0.00     0.036 C 
ATOM      9  C   UNL     1     114.929 115.122 120.878  1.00  0.00     0.015 C 
ATOM     10  C   UNL     1     118.126 115.069 121.365  1.00  0.00     0.012 C 
ENDROOT
BRANCH   7  11
ATOM     11  O   UNL     1     114.858 117.382 123.125  1.00  0.00    -0.393 OA
ATOM     12  H   UNL     1     115.037 118.350 123.006  1.00  0.00     0.210 HD
ENDBRANCH   7  11
TORSDOF 1
ENDMDL
MODEL 9
REMARK VINA RESULT:    -3.568      2.842      4.245
REMARK INTER + INTRA:          -3.673
REMARK INTER:                  -3.673
REMARK INTRA:                   0.000
REMARK UNBOUND:                 0.000
REMARK SMILES CC1(C)[C@H]2CC[C@]1(C)[C@H](O)C2
REMARK SMILES IDX 1 1 2 2 4 3 5 4 6 5 7 6 9 7 11 8 8 9 3 10 10 11
REMARK H PARENT 10 12
REMARK Flexibility Score: inf
ROOT
ATOM      1  C   UNL     1     117.014 116.745 118.570  1.00  0.00     0.012 C 
ATOM      2  C   UNL     1     115.964 115.741 119.138  1.00  0.00    -0.025 C 
ATOM      3  C   UNL     1     115.880 115.734 120.674  1.00  0.00    -0.002 C 
ATOM      4  C   UNL     1     115.384 117.161 121.010  1.00  0.00     0.005 C 
ATOM      5  C   UNL     1     114.426 117.475 119.845  1.00  0.00     0.010 C 
ATOM      6  C   UNL     1     114.485 116.172 118.997  1.00  0.00    -0.001 C 
ATOM      7  C   UNL     1     113.727 115.063 119.786  1.00  0.00     0.121 C 
ATOM      8  C   UNL     1     114.689 114.785 120.966  1.00  0.00     0.036 C 
ATOM      9  C   UNL     1     113.977 116.356 117.562  1.00  0.00     0.015 C 
ATOM     10  C   UNL     1     116.327 114.354 118.523  1.00  0.00     0.012 C 
ENDROOT
BRANCH   7  11
ATOM     11  O   UNL     1     112.468 115.496 120.234  1.00  0.00    -0.393 OA
ATOM     12  H   UNL     1     112.189 116.226 119.624  1.00  0.00     0.210 HD
ENDBRANCH   7  11
TORSDOF 1
ENDMDL
