MODEL 1
REMARK VINA RESULT:    -6.772      0.000      0.000
REMARK INTER + INTRA:         -13.636
REMARK INTER:                 -11.126
REMARK INTRA:                  -2.510
REMARK UNBOUND:                -2.510
REMARK SMILES COc1ccc([C@H]2CC(=O)c3c(O)cc(O[C@@H]4O[C@H](CO[C@@H]5O[C@H](C)[C@H](O)[C@H](O)[C@H]5O)[C@@H](O)[C@@H](O)[C@@H]4O)cc3O2)cc1O
REMARK SMILES IDX 19 1 32 2 34 3 36 4 17 5 18 6 20 7 21 8 22 9 25 10 24 11
REMARK SMILES IDX 26 12 23 13 28 14 30 15 27 16 29 18 31 20 33 22 35 24 16 26
REMARK SMILES IDX 15 27 14 28 38 29 12 30 39 31 11 32 40 33 9 34 7 35 10 36
REMARK SMILES IDX 8 37 13 38 6 40 41 41 5 42 42 43 4 44 3 45 43 46 2 48 1 49
REMARK SMILES IDX 37 50
REMARK H PARENT 27 17 29 19 31 21 33 23 35 25 13 39 43 47 37 51
REMARK Flexibility Score: inf
ROOT
ATOM      1  C   UNL     1      -8.981 -27.969   1.416  1.00  0.00     0.180 C 
ATOM      2  C   UNL     1      -7.979 -28.677   0.475  1.00  0.00     0.177 C 
ATOM      3  C   UNL     1      -8.570 -28.812  -0.936  1.00  0.00     0.180 C 
ATOM      4  C   UNL     1      -9.949 -29.479  -0.855  1.00  0.00     0.214 C 
ATOM      5  C   UNL     1     -10.858 -28.731   0.144  1.00  0.00     0.339 C 
ATOM      6  O   UNL     1     -10.258 -28.600   1.425  1.00  0.00    -0.332 OA
ENDROOT
BRANCH   1   7
ATOM      7  C   UNL     1      -9.071 -26.440   1.210  1.00  0.00     0.198 C 
BRANCH   7   8
ATOM      8  O   UNL     1      -9.611 -25.825   2.369  1.00  0.00    -0.347 OA
BRANCH   8   9
ATOM      9  C   UNL     1      -9.532 -24.407   2.329  1.00  0.00     0.281 C 
ATOM     10  C   UNL     1      -8.382 -25.625   4.955  1.00  0.00     0.041 C 
ATOM     11  C   UNL     1      -8.645 -24.165   4.537  1.00  0.00     0.150 C 
ATOM     12  C   UNL     1      -9.971 -23.569   5.064  1.00  0.00     0.174 C 
ATOM     13  O   UNL     1      -8.458 -23.953   3.142  1.00  0.00    -0.344 OA
ATOM     14  C   UNL     1     -11.182 -23.991   4.212  1.00  0.00     0.179 C 
ATOM     15  C   UNL     1     -10.878 -23.762   2.725  1.00  0.00     0.202 C 
BRANCH  12  16
ATOM     16  O   UNL     1     -10.161 -23.913   6.415  1.00  0.00    -0.388 OA
ATOM     17  H   UNL     1     -10.498 -24.848   6.424  1.00  0.00     0.211 HD
ENDBRANCH  12  16
BRANCH  14  18
ATOM     18  O   UNL     1     -11.514 -25.340   4.427  1.00  0.00    -0.387 OA
ATOM     19  H   UNL     1     -11.530 -25.480   5.409  1.00  0.00     0.211 HD
ENDBRANCH  14  18
BRANCH  15  20
ATOM     20  O   UNL     1     -10.825 -22.383   2.449  1.00  0.00    -0.385 OA
ATOM     21  H   UNL     1     -10.441 -21.945   3.253  1.00  0.00     0.211 HD
ENDBRANCH  15  20
ENDBRANCH   8   9
ENDBRANCH   7   8
ENDBRANCH   1   7
BRANCH   2  22
ATOM     22  O   UNL     1      -7.682 -29.956   0.981  1.00  0.00    -0.387 OA
ATOM     23  H   UNL     1      -8.475 -30.530   0.803  1.00  0.00     0.211 HD
ENDBRANCH   2  22
BRANCH   3  24
ATOM     24  O   UNL     1      -7.716 -29.589  -1.739  1.00  0.00    -0.387 OA
ATOM     25  H   UNL     1      -8.092 -29.570  -2.657  1.00  0.00     0.211 HD
ENDBRANCH   3  24
BRANCH   5  26
ATOM     26  O   UNL     1     -11.262 -27.449  -0.353  1.00  0.00    -0.462 OA
BRANCH  26  27
ATOM     27  C   UNL     1     -12.442 -26.756  -0.027  1.00  0.00     0.130 A 
ATOM     28  C   UNL     1     -13.356 -26.504  -1.055  1.00  0.00     0.093 A 
ATOM     29  C   UNL     1     -12.732 -26.296   1.272  1.00  0.00     0.094 A 
ATOM     30  C   UNL     1     -14.539 -25.785  -0.815  1.00  0.00     0.133 A 
ATOM     31  C   UNL     1     -13.919 -25.602   1.529  1.00  0.00     0.138 A 
ATOM     32  C   UNL     1     -14.824 -25.326   0.487  1.00  0.00     0.102 A 
ATOM     33  O   UNL     1     -14.192 -25.174   2.834  1.00  0.00    -0.484 OA
ATOM     34  C   UNL     1     -16.029 -24.525   0.811  1.00  0.00     0.174 C 
ATOM     35  C   UNL     1     -15.487 -24.716   3.235  1.00  0.00     0.211 C 
ATOM     36  O   UNL     1     -16.959 -24.379  -0.026  1.00  0.00    -0.294 OA
ATOM     37  C   UNL     1     -16.114 -23.835   2.142  1.00  0.00     0.131 C 
BRANCH  30  38
ATOM     38  O   UNL     1     -15.412 -25.519  -1.872  1.00  0.00    -0.507 OA
ATOM     39  H   UNL     1     -15.076 -25.180  -2.766  1.00  0.00     0.293 HD
ENDBRANCH  30  38
BRANCH  35  40
ATOM     40  C   UNL     1     -15.384 -23.963   4.538  1.00  0.00    -0.003 A 
ATOM     41  C   UNL     1     -15.844 -24.540   5.735  1.00  0.00     0.057 A 
ATOM     42  C   UNL     1     -14.774 -22.700   4.576  1.00  0.00     0.011 A 
ATOM     43  C   UNL     1     -15.733 -23.849   6.947  1.00  0.00     0.158 A 
ATOM     44  C   UNL     1     -14.658 -22.009   5.785  1.00  0.00     0.051 A 
ATOM     45  C   UNL     1     -15.146 -22.571   6.981  1.00  0.00     0.160 A 
BRANCH  43  46
ATOM     46  O   UNL     1     -16.211 -24.453   8.111  1.00  0.00    -0.504 OA
ATOM     47  H   UNL     1     -15.592 -24.809   8.827  1.00  0.00     0.293 HD
ENDBRANCH  43  46
BRANCH  45  48
ATOM     48  O   UNL     1     -15.065 -21.894   8.208  1.00  0.00    -0.493 OA
ATOM     49  C   UNL     1     -13.988 -22.022   9.131  1.00  0.00     0.278 C 
ENDBRANCH  45  48
ENDBRANCH  35  40
ENDBRANCH  26  27
ENDBRANCH   5  26
BRANCH   4  50
ATOM     50  O   UNL     1     -10.549 -29.504  -2.125  1.00  0.00    -0.384 OA
ATOM     51  H   UNL     1     -11.249 -30.207  -2.104  1.00  0.00     0.211 HD
ENDBRANCH   4  50
TORSDOF 15
ENDMDL
MODEL 2
REMARK VINA RESULT:    -6.418      1.580      7.325
REMARK INTER + INTRA:         -13.055
REMARK INTER:                 -12.390
REMARK INTRA:                  -0.665
REMARK UNBOUND:                -2.510
REMARK SMILES COc1ccc([C@H]2CC(=O)c3c(O)cc(O[C@@H]4O[C@H](CO[C@@H]5O[C@H](C)[C@H](O)[C@H](O)[C@H]5O)[C@@H](O)[C@@H](O)[C@@H]4O)cc3O2)cc1O
REMARK SMILES IDX 19 1 32 2 34 3 36 4 17 5 18 6 20 7 21 8 22 9 25 10 24 11
REMARK SMILES IDX 26 12 23 13 28 14 30 15 27 16 29 18 31 20 33 22 35 24 16 26
REMARK SMILES IDX 15 27 14 28 38 29 12 30 39 31 11 32 40 33 9 34 7 35 10 36
REMARK SMILES IDX 8 37 13 38 6 40 41 41 5 42 42 43 4 44 3 45 43 46 2 48 1 49
REMARK SMILES IDX 37 50
REMARK H PARENT 27 17 29 19 31 21 33 23 35 25 13 39 43 47 37 51
REMARK Flexibility Score: inf
ROOT
ATOM      1  C   UNL     1     -14.093 -22.322   6.197  1.00  0.00     0.180 C 
ATOM      2  C   UNL     1     -14.059 -23.828   6.539  1.00  0.00     0.177 C 
ATOM      3  C   UNL     1     -14.653 -24.655   5.390  1.00  0.00     0.180 C 
ATOM      4  C   UNL     1     -16.044 -24.114   5.032  1.00  0.00     0.214 C 
ATOM      5  C   UNL     1     -15.983 -22.596   4.757  1.00  0.00     0.339 C 
ATOM      6  O   UNL     1     -15.396 -21.875   5.832  1.00  0.00    -0.332 OA
ENDROOT
BRANCH   1   7
ATOM      7  C   UNL     1     -13.005 -21.875   5.194  1.00  0.00     0.198 C 
BRANCH   7   8
ATOM      8  O   UNL     1     -12.193 -22.981   4.834  1.00  0.00    -0.347 OA
BRANCH   8   9
ATOM      9  C   UNL     1     -10.987 -23.049   5.583  1.00  0.00     0.281 C 
ATOM     10  C   UNL     1     -10.533 -22.297   2.594  1.00  0.00     0.041 C 
ATOM     11  C   UNL     1      -9.540 -22.630   3.725  1.00  0.00     0.150 C 
ATOM     12  C   UNL     1      -9.026 -24.089   3.727  1.00  0.00     0.174 C 
ATOM     13  O   UNL     1     -10.002 -22.204   5.002  1.00  0.00    -0.344 OA
ATOM     14  C   UNL     1     -10.029 -25.063   4.373  1.00  0.00     0.179 C 
ATOM     15  C   UNL     1     -10.499 -24.506   5.724  1.00  0.00     0.202 C 
BRANCH  12  16
ATOM     16  O   UNL     1      -8.698 -24.495   2.421  1.00  0.00    -0.388 OA
ATOM     17  H   UNL     1      -7.885 -23.988   2.162  1.00  0.00     0.211 HD
ENDBRANCH  12  16
BRANCH  14  18
ATOM     18  O   UNL     1     -11.137 -25.283   3.537  1.00  0.00    -0.387 OA
ATOM     19  H   UNL     1     -11.481 -26.190   3.746  1.00  0.00     0.211 HD
ENDBRANCH  14  18
BRANCH  15  20
ATOM     20  O   UNL     1      -9.447 -24.550   6.657  1.00  0.00    -0.385 OA
ATOM     21  H   UNL     1      -9.803 -24.180   7.508  1.00  0.00     0.211 HD
ENDBRANCH  15  20
ENDBRANCH   8   9
ENDBRANCH   7   8
ENDBRANCH   1   7
BRANCH   2  22
ATOM     22  O   UNL     1     -14.800 -24.062   7.713  1.00  0.00    -0.387 OA
ATOM     23  H   UNL     1     -15.695 -24.389   7.431  1.00  0.00     0.211 HD
ENDBRANCH   2  22
BRANCH   3  24
ATOM     24  O   UNL     1     -14.757 -26.004   5.774  1.00  0.00    -0.387 OA
ATOM     25  H   UNL     1     -14.058 -26.158   6.462  1.00  0.00     0.211 HD
ENDBRANCH   3  24
BRANCH   5  26
ATOM     26  O   UNL     1     -15.309 -22.299   3.528  1.00  0.00    -0.462 OA
BRANCH  26  27
ATOM     27  C   UNL     1     -15.148 -23.160   2.428  1.00  0.00     0.130 A 
ATOM     28  C   UNL     1     -16.247 -23.351   1.583  1.00  0.00     0.093 A 
ATOM     29  C   UNL     1     -13.948 -23.843   2.151  1.00  0.00     0.094 A 
ATOM     30  C   UNL     1     -16.176 -24.225   0.486  1.00  0.00     0.133 A 
ATOM     31  C   UNL     1     -13.857 -24.696   1.047  1.00  0.00     0.138 A 
ATOM     32  C   UNL     1     -14.972 -24.907   0.214  1.00  0.00     0.102 A 
ATOM     33  O   UNL     1     -12.646 -25.346   0.783  1.00  0.00    -0.484 OA
ATOM     34  C   UNL     1     -14.832 -25.877  -0.898  1.00  0.00     0.174 C 
ATOM     35  C   UNL     1     -12.382 -26.001  -0.461  1.00  0.00     0.211 C 
ATOM     36  O   UNL     1     -15.726 -25.996  -1.778  1.00  0.00    -0.294 OA
ATOM     37  C   UNL     1     -13.624 -26.769  -0.945  1.00  0.00     0.131 C 
BRANCH  30  38
ATOM     38  O   UNL     1     -17.303 -24.421  -0.316  1.00  0.00    -0.507 OA
ATOM     39  H   UNL     1     -18.087 -24.981  -0.001  1.00  0.00     0.293 HD
ENDBRANCH  30  38
BRANCH  35  40
ATOM     40  C   UNL     1     -11.201 -26.929  -0.313  1.00  0.00    -0.003 A 
ATOM     41  C   UNL     1      -9.951 -26.435   0.098  1.00  0.00     0.057 A 
ATOM     42  C   UNL     1     -11.357 -28.306  -0.530  1.00  0.00     0.011 A 
ATOM     43  C   UNL     1      -8.860 -27.297   0.252  1.00  0.00     0.158 A 
ATOM     44  C   UNL     1     -10.271 -29.171  -0.373  1.00  0.00     0.051 A 
ATOM     45  C   UNL     1      -9.009 -28.675   0.009  1.00  0.00     0.160 A 
BRANCH  43  46
ATOM     46  O   UNL     1      -7.634 -26.765   0.652  1.00  0.00    -0.504 OA
ATOM     47  H   UNL     1      -6.763 -27.267   0.532  1.00  0.00     0.293 HD
ENDBRANCH  43  46
BRANCH  45  48
ATOM     48  O   UNL     1      -7.892 -29.513   0.154  1.00  0.00    -0.493 OA
ATOM     49  C   UNL     1      -7.943 -30.936   0.132  1.00  0.00     0.278 C 
ENDBRANCH  45  48
ENDBRANCH  35  40
ENDBRANCH  26  27
ENDBRANCH   5  26
BRANCH   4  50
ATOM     50  O   UNL     1     -16.549 -24.786   3.908  1.00  0.00    -0.384 OA
ATOM     51  H   UNL     1     -16.029 -24.475   3.122  1.00  0.00     0.211 HD
ENDBRANCH   4  50
TORSDOF 15
ENDMDL
MODEL 3
REMARK VINA RESULT:    -5.917      3.975      7.115
REMARK INTER + INTRA:         -12.232
REMARK INTER:                 -10.423
REMARK INTRA:                  -1.809
REMARK UNBOUND:                -2.510
REMARK SMILES COc1ccc([C@H]2CC(=O)c3c(O)cc(O[C@@H]4O[C@H](CO[C@@H]5O[C@H](C)[C@H](O)[C@H](O)[C@H]5O)[C@@H](O)[C@@H](O)[C@@H]4O)cc3O2)cc1O
REMARK SMILES IDX 19 1 32 2 34 3 36 4 17 5 18 6 20 7 21 8 22 9 25 10 24 11
REMARK SMILES IDX 26 12 23 13 28 14 30 15 27 16 29 18 31 20 33 22 35 24 16 26
REMARK SMILES IDX 15 27 14 28 38 29 12 30 39 31 11 32 40 33 9 34 7 35 10 36
REMARK SMILES IDX 8 37 13 38 6 40 41 41 5 42 42 43 4 44 3 45 43 46 2 48 1 49
REMARK SMILES IDX 37 50
REMARK H PARENT 27 17 29 19 31 21 33 23 35 25 13 39 43 47 37 51
REMARK Flexibility Score: inf
ROOT
ATOM      1  C   UNL     1     -11.377 -23.237   5.405  1.00  0.00     0.180 C 
ATOM      2  C   UNL     1     -11.060 -23.084   6.909  1.00  0.00     0.177 C 
ATOM      3  C   UNL     1     -12.354 -23.084   7.736  1.00  0.00     0.180 C 
ATOM      4  C   UNL     1     -13.321 -22.032   7.177  1.00  0.00     0.214 C 
ATOM      5  C   UNL     1     -13.536 -22.240   5.662  1.00  0.00     0.339 C 
ATOM      6  O   UNL     1     -12.311 -22.266   4.942  1.00  0.00    -0.332 OA
ENDROOT
BRANCH   1   7
ATOM      7  C   UNL     1     -11.753 -24.676   4.980  1.00  0.00     0.198 C 
BRANCH   7   8
ATOM      8  O   UNL     1     -11.956 -24.731   3.577  1.00  0.00    -0.347 OA
BRANCH   8   9
ATOM      9  C   UNL     1     -10.778 -24.443   2.837  1.00  0.00     0.281 C 
ATOM     10  C   UNL     1     -13.017 -25.756   1.115  1.00  0.00     0.041 C 
ATOM     11  C   UNL     1     -11.548 -25.415   0.793  1.00  0.00     0.150 C 
ATOM     12  C   UNL     1     -10.564 -26.602   0.922  1.00  0.00     0.174 C 
ATOM     13  O   UNL     1     -11.098 -24.245   1.466  1.00  0.00    -0.344 OA
ATOM     14  C   UNL     1     -10.144 -26.857   2.382  1.00  0.00     0.179 C 
ATOM     15  C   UNL     1      -9.710 -25.539   3.037  1.00  0.00     0.202 C 
BRANCH  12  16
ATOM     16  O   UNL     1     -11.114 -27.761   0.346  1.00  0.00    -0.388 OA
ATOM     17  H   UNL     1     -11.589 -27.470  -0.477  1.00  0.00     0.211 HD
ENDBRANCH  12  16
BRANCH  14  18
ATOM     18  O   UNL     1     -11.192 -27.434   3.121  1.00  0.00    -0.387 OA
ATOM     19  H   UNL     1     -11.343 -26.852   3.911  1.00  0.00     0.211 HD
ENDBRANCH  14  18
BRANCH  15  20
ATOM     20  O   UNL     1      -8.493 -25.102   2.483  1.00  0.00    -0.385 OA
ATOM     21  H   UNL     1      -7.894 -24.884   3.245  1.00  0.00     0.211 HD
ENDBRANCH  15  20
ENDBRANCH   8   9
ENDBRANCH   7   8
ENDBRANCH   1   7
BRANCH   2  22
ATOM     22  O   UNL     1     -10.370 -21.875   7.123  1.00  0.00    -0.387 OA
ATOM     23  H   UNL     1     -10.077 -21.547   6.231  1.00  0.00     0.211 HD
ENDBRANCH   2  22
BRANCH   3  24
ATOM     24  O   UNL     1     -12.063 -22.791   9.079  1.00  0.00    -0.387 OA
ATOM     25  H   UNL     1     -11.617 -23.593   9.456  1.00  0.00     0.211 HD
ENDBRANCH   3  24
BRANCH   5  26
ATOM     26  O   UNL     1     -14.305 -23.416   5.383  1.00  0.00    -0.462 OA
BRANCH  26  27
ATOM     27  C   UNL     1     -15.328 -23.543   4.426  1.00  0.00     0.130 A 
ATOM     28  C   UNL     1     -14.976 -23.432   3.077  1.00  0.00     0.093 A 
ATOM     29  C   UNL     1     -16.678 -23.760   4.764  1.00  0.00     0.094 A 
ATOM     30  C   UNL     1     -15.947 -23.511   2.065  1.00  0.00     0.133 A 
ATOM     31  C   UNL     1     -17.649 -23.866   3.765  1.00  0.00     0.138 A 
ATOM     32  C   UNL     1     -17.297 -23.727   2.409  1.00  0.00     0.102 A 
ATOM     33  O   UNL     1     -18.980 -24.103   4.128  1.00  0.00    -0.484 OA
ATOM     34  C   UNL     1     -18.385 -23.779   1.402  1.00  0.00     0.174 C 
ATOM     35  C   UNL     1     -19.975 -24.501   3.179  1.00  0.00     0.211 C 
ATOM     36  O   UNL     1     -18.131 -23.827   0.169  1.00  0.00    -0.294 OA
ATOM     37  C   UNL     1     -19.813 -23.722   1.863  1.00  0.00     0.131 C 
BRANCH  30  38
ATOM     38  O   UNL     1     -15.568 -23.359   0.729  1.00  0.00    -0.507 OA
ATOM     39  H   UNL     1     -16.246 -23.157   0.005  1.00  0.00     0.293 HD
ENDBRANCH  30  38
BRANCH  35  40
ATOM     40  C   UNL     1     -21.352 -24.293   3.760  1.00  0.00    -0.003 A 
ATOM     41  C   UNL     1     -21.698 -24.859   5.000  1.00  0.00     0.057 A 
ATOM     42  C   UNL     1     -22.282 -23.482   3.093  1.00  0.00     0.011 A 
ATOM     43  C   UNL     1     -22.968 -24.652   5.548  1.00  0.00     0.158 A 
ATOM     44  C   UNL     1     -23.551 -23.270   3.639  1.00  0.00     0.051 A 
ATOM     45  C   UNL     1     -23.911 -23.861   4.866  1.00  0.00     0.160 A 
BRANCH  43  46
ATOM     46  O   UNL     1     -23.275 -25.240   6.775  1.00  0.00    -0.504 OA
ATOM     47  H   UNL     1     -23.141 -24.756   7.654  1.00  0.00     0.293 HD
ENDBRANCH  43  46
BRANCH  45  48
ATOM     48  O   UNL     1     -25.184 -23.686   5.431  1.00  0.00    -0.493 OA
ATOM     49  C   UNL     1     -26.230 -22.920   4.842  1.00  0.00     0.278 C 
ENDBRANCH  45  48
ENDBRANCH  35  40
ENDBRANCH  26  27
ENDBRANCH   5  26
BRANCH   4  50
ATOM     50  O   UNL     1     -14.552 -22.102   7.850  1.00  0.00    -0.384 OA
ATOM     51  H   UNL     1     -14.681 -23.046   8.127  1.00  0.00     0.211 HD
ENDBRANCH   4  50
TORSDOF 15
ENDMDL
MODEL 4
REMARK VINA RESULT:    -5.849      2.337      8.297
REMARK INTER + INTRA:         -12.121
REMARK INTER:                 -10.264
REMARK INTRA:                  -1.857
REMARK UNBOUND:                -2.510
REMARK SMILES COc1ccc([C@H]2CC(=O)c3c(O)cc(O[C@@H]4O[C@H](CO[C@@H]5O[C@H](C)[C@H](O)[C@H](O)[C@H]5O)[C@@H](O)[C@@H](O)[C@@H]4O)cc3O2)cc1O
REMARK SMILES IDX 19 1 32 2 34 3 36 4 17 5 18 6 20 7 21 8 22 9 25 10 24 11
REMARK SMILES IDX 26 12 23 13 28 14 30 15 27 16 29 18 31 20 33 22 35 24 16 26
REMARK SMILES IDX 15 27 14 28 38 29 12 30 39 31 11 32 40 33 9 34 7 35 10 36
REMARK SMILES IDX 8 37 13 38 6 40 41 41 5 42 42 43 4 44 3 45 43 46 2 48 1 49
REMARK SMILES IDX 37 50
REMARK H PARENT 27 17 29 19 31 21 33 23 35 25 13 39 43 47 37 51
REMARK Flexibility Score: inf
ROOT
ATOM      1  C   UNL     1     -17.590 -23.149   3.214  1.00  0.00     0.180 C 
ATOM      2  C   UNL     1     -18.995 -23.674   2.844  1.00  0.00     0.177 C 
ATOM      3  C   UNL     1     -18.938 -24.506   1.555  1.00  0.00     0.180 C 
ATOM      4  C   UNL     1     -18.249 -23.695   0.450  1.00  0.00     0.214 C 
ATOM      5  C   UNL     1     -16.877 -23.175   0.931  1.00  0.00     0.339 C 
ATOM      6  O   UNL     1     -16.973 -22.440   2.144  1.00  0.00    -0.332 OA
ENDROOT
BRANCH   1   7
ATOM      7  C   UNL     1     -16.660 -24.216   3.838  1.00  0.00     0.198 C 
BRANCH   7   8
ATOM      8  O   UNL     1     -15.351 -23.690   3.991  1.00  0.00    -0.347 OA
BRANCH   8   9
ATOM      9  C   UNL     1     -15.298 -22.595   4.895  1.00  0.00     0.281 C 
ATOM     10  C   UNL     1     -12.483 -23.662   4.096  1.00  0.00     0.041 C 
ATOM     11  C   UNL     1     -12.919 -22.617   5.141  1.00  0.00     0.150 C 
ATOM     12  C   UNL     1     -13.019 -23.151   6.590  1.00  0.00     0.174 C 
ATOM     13  O   UNL     1     -14.074 -21.889   4.738  1.00  0.00    -0.344 OA
ATOM     14  C   UNL     1     -14.338 -23.903   6.847  1.00  0.00     0.179 C 
ATOM     15  C   UNL     1     -15.522 -23.062   6.349  1.00  0.00     0.202 C 
BRANCH  12  16
ATOM     16  O   UNL     1     -11.910 -23.962   6.891  1.00  0.00    -0.388 OA
ATOM     17  H   UNL     1     -11.155 -23.625   6.340  1.00  0.00     0.211 HD
ENDBRANCH  12  16
BRANCH  14  18
ATOM     18  O   UNL     1     -14.344 -25.156   6.211  1.00  0.00    -0.387 OA
ATOM     19  H   UNL     1     -14.901 -25.760   6.768  1.00  0.00     0.211 HD
ENDBRANCH  14  18
BRANCH  15  20
ATOM     20  O   UNL     1     -15.693 -21.934   7.173  1.00  0.00    -0.385 OA
ATOM     21  H   UNL     1     -15.140 -22.084   7.984  1.00  0.00     0.211 HD
ENDBRANCH  15  20
ENDBRANCH   8   9
ENDBRANCH   7   8
ENDBRANCH   1   7
BRANCH   2  22
ATOM     22  O   UNL     1     -19.870 -22.586   2.659  1.00  0.00    -0.387 OA
ATOM     23  H   UNL     1     -20.441 -22.532   3.471  1.00  0.00     0.211 HD
ENDBRANCH   2  22
BRANCH   3  24
ATOM     24  O   UNL     1     -20.240 -24.847   1.148  1.00  0.00    -0.387 OA
ATOM     25  H   UNL     1     -20.665 -24.011   0.823  1.00  0.00     0.211 HD
ENDBRANCH   3  24
BRANCH   5  26
ATOM     26  O   UNL     1     -15.917 -24.231   1.061  1.00  0.00    -0.462 OA
BRANCH  26  27
ATOM     27  C   UNL     1     -14.618 -24.256   0.521  1.00  0.00     0.130 A 
ATOM     28  C   UNL     1     -14.261 -23.235  -0.366  1.00  0.00     0.093 A 
ATOM     29  C   UNL     1     -13.679 -25.262   0.818  1.00  0.00     0.094 A 
ATOM     30  C   UNL     1     -12.995 -23.213  -0.976  1.00  0.00     0.133 A 
ATOM     31  C   UNL     1     -12.407 -25.237   0.238  1.00  0.00     0.138 A 
ATOM     32  C   UNL     1     -12.058 -24.224  -0.675  1.00  0.00     0.102 A 
ATOM     33  O   UNL     1     -11.485 -26.237   0.568  1.00  0.00    -0.484 OA
ATOM     34  C   UNL     1     -10.720 -24.293  -1.309  1.00  0.00     0.174 C 
ATOM     35  C   UNL     1     -10.094 -26.134   0.249  1.00  0.00     0.211 C 
ATOM     36  O   UNL     1     -10.278 -23.341  -2.006  1.00  0.00    -0.294 OA
ATOM     37  C   UNL     1      -9.902 -25.543  -1.158  1.00  0.00     0.131 C 
BRANCH  30  38
ATOM     38  O   UNL     1     -12.683 -22.201  -1.885  1.00  0.00    -0.507 OA
ATOM     39  H   UNL     1     -12.075 -21.430  -1.634  1.00  0.00     0.293 HD
ENDBRANCH  30  38
BRANCH  35  40
ATOM     40  C   UNL     1      -9.440 -27.489   0.356  1.00  0.00    -0.003 A 
ATOM     41  C   UNL     1     -10.221 -28.658   0.394  1.00  0.00     0.057 A 
ATOM     42  C   UNL     1      -8.042 -27.599   0.360  1.00  0.00     0.011 A 
ATOM     43  C   UNL     1      -9.615 -29.917   0.476  1.00  0.00     0.158 A 
ATOM     44  C   UNL     1      -7.433 -28.854   0.438  1.00  0.00     0.051 A 
ATOM     45  C   UNL     1      -8.213 -30.025   0.507  1.00  0.00     0.160 A 
BRANCH  43  46
ATOM     46  O   UNL     1     -10.426 -31.051   0.522  1.00  0.00    -0.504 OA
ATOM     47  H   UNL     1     -11.315 -31.059   1.006  1.00  0.00     0.293 HD
ENDBRANCH  43  46
BRANCH  45  48
ATOM     48  O   UNL     1      -7.634 -31.300   0.609  1.00  0.00    -0.493 OA
ATOM     49  C   UNL     1      -7.152 -32.058  -0.497  1.00  0.00     0.278 C 
ENDBRANCH  45  48
ENDBRANCH  35  40
ENDBRANCH  26  27
ENDBRANCH   5  26
BRANCH   4  50
ATOM     50  O   UNL     1     -18.086 -24.486  -0.699  1.00  0.00    -0.384 OA
ATOM     51  H   UNL     1     -18.883 -25.073  -0.766  1.00  0.00     0.211 HD
ENDBRANCH   4  50
TORSDOF 15
ENDMDL
MODEL 5
REMARK VINA RESULT:    -5.841      2.849      5.941
REMARK INTER + INTRA:         -12.108
REMARK INTER:                 -10.127
REMARK INTRA:                  -1.981
REMARK UNBOUND:                -2.510
REMARK SMILES COc1ccc([C@H]2CC(=O)c3c(O)cc(O[C@@H]4O[C@H](CO[C@@H]5O[C@H](C)[C@H](O)[C@H](O)[C@H]5O)[C@@H](O)[C@@H](O)[C@@H]4O)cc3O2)cc1O
REMARK SMILES IDX 19 1 32 2 34 3 36 4 17 5 18 6 20 7 21 8 22 9 25 10 24 11
REMARK SMILES IDX 26 12 23 13 28 14 30 15 27 16 29 18 31 20 33 22 35 24 16 26
REMARK SMILES IDX 15 27 14 28 38 29 12 30 39 31 11 32 40 33 9 34 7 35 10 36
REMARK SMILES IDX 8 37 13 38 6 40 41 41 5 42 42 43 4 44 3 45 43 46 2 48 1 49
REMARK SMILES IDX 37 50
REMARK H PARENT 27 17 29 19 31 21 33 23 35 25 13 39 43 47 37 51
REMARK Flexibility Score: inf
ROOT
ATOM      1  C   UNL     1      -8.947 -24.703   2.896  1.00  0.00     0.180 C 
ATOM      2  C   UNL     1      -8.206 -24.468   4.231  1.00  0.00     0.177 C 
ATOM      3  C   UNL     1      -9.119 -23.749   5.235  1.00  0.00     0.180 C 
ATOM      4  C   UNL     1      -9.692 -22.480   4.592  1.00  0.00     0.214 C 
ATOM      5  C   UNL     1     -10.367 -22.811   3.243  1.00  0.00     0.339 C 
ATOM      6  O   UNL     1      -9.497 -23.504   2.359  1.00  0.00    -0.332 OA
ENDROOT
BRANCH   1   7
ATOM      7  C   UNL     1      -9.968 -25.864   2.935  1.00  0.00     0.198 C 
BRANCH   7   8
ATOM      8  O   UNL     1      -9.792 -26.703   1.804  1.00  0.00    -0.347 OA
BRANCH   8   9
ATOM      9  C   UNL     1     -10.817 -26.545   0.833  1.00  0.00     0.281 C 
ATOM     10  C   UNL     1      -9.492 -29.363   0.768  1.00  0.00     0.041 C 
ATOM     11  C   UNL     1     -10.515 -28.694  -0.172  1.00  0.00     0.150 C 
ATOM     12  C   UNL     1      -9.909 -28.071  -1.451  1.00  0.00     0.174 C 
ATOM     13  O   UNL     1     -11.390 -27.806   0.515  1.00  0.00    -0.344 OA
ATOM     14  C   UNL     1      -9.295 -26.682  -1.193  1.00  0.00     0.179 C 
ATOM     15  C   UNL     1     -10.290 -25.809  -0.418  1.00  0.00     0.202 C 
BRANCH  12  16
ATOM     16  O   UNL     1      -8.962 -28.942  -2.020  1.00  0.00    -0.388 OA
ATOM     17  H   UNL     1      -9.462 -29.745  -2.324  1.00  0.00     0.211 HD
ENDBRANCH  12  16
BRANCH  14  18
ATOM     18  O   UNL     1      -8.090 -26.782  -0.475  1.00  0.00    -0.387 OA
ATOM     19  H   UNL     1      -7.577 -25.952  -0.654  1.00  0.00     0.211 HD
ENDBRANCH  14  18
BRANCH  15  20
ATOM     20  O   UNL     1     -11.379 -25.469  -1.242  1.00  0.00    -0.385 OA
ATOM     21  H   UNL     1     -12.165 -25.353  -0.646  1.00  0.00     0.211 HD
ENDBRANCH  15  20
ENDBRANCH   8   9
ENDBRANCH   7   8
ENDBRANCH   1   7
BRANCH   2  22
ATOM     22  O   UNL     1      -7.058 -23.685   4.001  1.00  0.00    -0.387 OA
ATOM     23  H   UNL     1      -7.027 -23.497   3.025  1.00  0.00     0.211 HD
ENDBRANCH   2  22
BRANCH   3  24
ATOM     24  O   UNL     1      -8.388 -23.406   6.386  1.00  0.00    -0.387 OA
ATOM     25  H   UNL     1      -8.933 -23.689   7.165  1.00  0.00     0.211 HD
ENDBRANCH   3  24
BRANCH   5  26
ATOM     26  O   UNL     1     -11.588 -23.539   3.417  1.00  0.00    -0.462 OA
BRANCH  26  27
ATOM     27  C   UNL     1     -12.691 -23.553   2.543  1.00  0.00     0.130 A 
ATOM     28  C   UNL     1     -12.457 -23.262   1.194  1.00  0.00     0.093 A 
ATOM     29  C   UNL     1     -14.006 -23.828   2.964  1.00  0.00     0.094 A 
ATOM     30  C   UNL     1     -13.512 -23.220   0.268  1.00  0.00     0.133 A 
ATOM     31  C   UNL     1     -15.060 -23.814   2.046  1.00  0.00     0.138 A 
ATOM     32  C   UNL     1     -14.828 -23.495   0.695  1.00  0.00     0.102 A 
ATOM     33  O   UNL     1     -16.355 -24.112   2.489  1.00  0.00    -0.484 OA
ATOM     34  C   UNL     1     -15.998 -23.428  -0.212  1.00  0.00     0.174 C 
ATOM     35  C   UNL     1     -17.428 -24.395   1.585  1.00  0.00     0.211 C 
ATOM     36  O   UNL     1     -15.852 -23.311  -1.458  1.00  0.00    -0.294 OA
ATOM     37  C   UNL     1     -17.381 -23.449   0.373  1.00  0.00     0.131 C 
BRANCH  30  38
ATOM     38  O   UNL     1     -13.250 -22.890  -1.063  1.00  0.00    -0.507 OA
ATOM     39  H   UNL     1     -13.344 -21.940  -1.403  1.00  0.00     0.293 HD
ENDBRANCH  30  38
BRANCH  35  40
ATOM     40  C   UNL     1     -18.749 -24.281   2.304  1.00  0.00    -0.003 A 
ATOM     41  C   UNL     1     -19.959 -24.460   1.611  1.00  0.00     0.057 A 
ATOM     42  C   UNL     1     -18.780 -24.051   3.688  1.00  0.00     0.011 A 
ATOM     43  C   UNL     1     -21.183 -24.371   2.280  1.00  0.00     0.158 A 
ATOM     44  C   UNL     1     -20.001 -23.966   4.361  1.00  0.00     0.051 A 
ATOM     45  C   UNL     1     -21.216 -24.114   3.663  1.00  0.00     0.160 A 
BRANCH  43  46
ATOM     46  O   UNL     1     -22.362 -24.545   1.553  1.00  0.00    -0.504 OA
ATOM     47  H   UNL     1     -22.938 -25.371   1.649  1.00  0.00     0.293 HD
ENDBRANCH  43  46
BRANCH  45  48
ATOM     48  O   UNL     1     -22.460 -24.012   4.305  1.00  0.00    -0.493 OA
ATOM     49  C   UNL     1     -22.906 -24.877   5.344  1.00  0.00     0.278 C 
ENDBRANCH  45  48
ENDBRANCH  35  40
ENDBRANCH  26  27
ENDBRANCH   5  26
BRANCH   4  50
ATOM     50  O   UNL     1     -10.618 -21.875   5.457  1.00  0.00    -0.384 OA
ATOM     51  H   UNL     1     -11.450 -22.415   5.418  1.00  0.00     0.211 HD
ENDBRANCH   4  50
TORSDOF 15
ENDMDL
MODEL 6
REMARK VINA RESULT:    -5.610      2.059      8.968
REMARK INTER + INTRA:         -11.727
REMARK INTER:                  -9.752
REMARK INTRA:                  -1.975
REMARK UNBOUND:                -2.510
REMARK SMILES COc1ccc([C@H]2CC(=O)c3c(O)cc(O[C@@H]4O[C@H](CO[C@@H]5O[C@H](C)[C@H](O)[C@H](O)[C@H]5O)[C@@H](O)[C@@H](O)[C@@H]4O)cc3O2)cc1O
REMARK SMILES IDX 19 1 32 2 34 3 36 4 17 5 18 6 20 7 21 8 22 9 25 10 24 11
REMARK SMILES IDX 26 12 23 13 28 14 30 15 27 16 29 18 31 20 33 22 35 24 16 26
REMARK SMILES IDX 15 27 14 28 38 29 12 30 39 31 11 32 40 33 9 34 7 35 10 36
REMARK SMILES IDX 8 37 13 38 6 40 41 41 5 42 42 43 4 44 3 45 43 46 2 48 1 49
REMARK SMILES IDX 37 50
REMARK H PARENT 27 17 29 19 31 21 33 23 35 25 13 39 43 47 37 51
REMARK Flexibility Score: inf
ROOT
ATOM      1  C   UNL     1     -15.357 -24.419   4.266  1.00  0.00     0.180 C 
ATOM      2  C   UNL     1     -15.909 -23.670   5.500  1.00  0.00     0.177 C 
ATOM      3  C   UNL     1     -14.883 -22.650   6.014  1.00  0.00     0.180 C 
ATOM      4  C   UNL     1     -13.535 -23.346   6.241  1.00  0.00     0.214 C 
ATOM      5  C   UNL     1     -13.093 -24.105   4.971  1.00  0.00     0.339 C 
ATOM      6  O   UNL     1     -14.086 -25.012   4.512  1.00  0.00    -0.332 OA
ENDROOT
BRANCH   1   7
ATOM      7  C   UNL     1     -15.388 -23.594   2.958  1.00  0.00     0.198 C 
BRANCH   7   8
ATOM      8  O   UNL     1     -15.569 -24.455   1.845  1.00  0.00    -0.347 OA
BRANCH   8   9
ATOM      9  C   UNL     1     -15.162 -23.865   0.619  1.00  0.00     0.281 C 
ATOM     10  C   UNL     1     -18.233 -24.354   0.784  1.00  0.00     0.041 C 
ATOM     11  C   UNL     1     -17.335 -23.891  -0.380  1.00  0.00     0.150 C 
ATOM     12  C   UNL     1     -16.927 -25.007  -1.369  1.00  0.00     0.174 C 
ATOM     13  O   UNL     1     -16.229 -23.110   0.061  1.00  0.00    -0.344 OA
ATOM     14  C   UNL     1     -15.750 -25.852  -0.847  1.00  0.00     0.179 C 
ATOM     15  C   UNL     1     -14.623 -24.929  -0.361  1.00  0.00     0.202 C 
BRANCH  12  16
ATOM     16  O   UNL     1     -18.034 -25.821  -1.674  1.00  0.00    -0.388 OA
ATOM     17  H   UNL     1     -17.914 -26.122  -2.613  1.00  0.00     0.211 HD
ENDBRANCH  12  16
BRANCH  14  18
ATOM     18  O   UNL     1     -16.154 -26.700   0.199  1.00  0.00    -0.387 OA
ATOM     19  H   UNL     1     -15.905 -26.252   1.048  1.00  0.00     0.211 HD
ENDBRANCH  14  18
BRANCH  15  20
ATOM     20  O   UNL     1     -14.022 -24.283  -1.456  1.00  0.00    -0.385 OA
ATOM     21  H   UNL     1     -14.727 -24.173  -2.147  1.00  0.00     0.211 HD
ENDBRANCH  15  20
ENDBRANCH   8   9
ENDBRANCH   7   8
ENDBRANCH   1   7
BRANCH   2  22
ATOM     22  O   UNL     1     -16.199 -24.595   6.521  1.00  0.00    -0.387 OA
ATOM     23  H   UNL     1     -16.731 -25.326   6.106  1.00  0.00     0.211 HD
ENDBRANCH   2  22
BRANCH   3  24
ATOM     24  O   UNL     1     -15.332 -22.087   7.222  1.00  0.00    -0.387 OA
ATOM     25  H   UNL     1     -15.702 -22.831   7.763  1.00  0.00     0.211 HD
ENDBRANCH   3  24
BRANCH   5  26
ATOM     26  O   UNL     1     -12.706 -23.213   3.919  1.00  0.00    -0.462 OA
BRANCH  26  27
ATOM     27  C   UNL     1     -12.056 -23.560   2.720  1.00  0.00     0.130 A 
ATOM     28  C   UNL     1     -12.195 -22.695   1.629  1.00  0.00     0.093 A 
ATOM     29  C   UNL     1     -11.294 -24.734   2.567  1.00  0.00     0.094 A 
ATOM     30  C   UNL     1     -11.607 -22.991   0.388  1.00  0.00     0.133 A 
ATOM     31  C   UNL     1     -10.682 -25.027   1.345  1.00  0.00     0.138 A 
ATOM     32  C   UNL     1     -10.846 -24.169   0.241  1.00  0.00     0.102 A 
ATOM     33  O   UNL     1      -9.913 -26.190   1.227  1.00  0.00    -0.484 OA
ATOM     34  C   UNL     1     -10.231 -24.572  -1.047  1.00  0.00     0.174 C 
ATOM     35  C   UNL     1      -9.034 -26.420   0.121  1.00  0.00     0.211 C 
ATOM     36  O   UNL     1     -10.194 -23.783  -2.028  1.00  0.00    -0.294 OA
ATOM     37  C   UNL     1      -9.688 -25.965  -1.195  1.00  0.00     0.131 C 
BRANCH  30  38
ATOM     38  O   UNL     1     -11.796 -22.125  -0.691  1.00  0.00    -0.507 OA
ATOM     39  H   UNL     1     -11.085 -21.458  -0.966  1.00  0.00     0.293 HD
ENDBRANCH  30  38
BRANCH  35  40
ATOM     40  C   UNL     1      -8.661 -27.880   0.057  1.00  0.00    -0.003 A 
ATOM     41  C   UNL     1      -9.598 -28.874   0.389  1.00  0.00     0.057 A 
ATOM     42  C   UNL     1      -7.387 -28.263  -0.391  1.00  0.00     0.011 A 
ATOM     43  C   UNL     1      -9.258 -30.228   0.313  1.00  0.00     0.158 A 
ATOM     44  C   UNL     1      -7.044 -29.615  -0.472  1.00  0.00     0.051 A 
ATOM     45  C   UNL     1      -7.972 -30.611  -0.110  1.00  0.00     0.160 A 
BRANCH  43  46
ATOM     46  O   UNL     1     -10.215 -31.183   0.662  1.00  0.00    -0.504 OA
ATOM     47  H   UNL     1     -10.695 -31.165   1.552  1.00  0.00     0.293 HD
ENDBRANCH  43  46
BRANCH  45  48
ATOM     48  O   UNL     1      -7.653 -31.978  -0.158  1.00  0.00    -0.493 OA
ATOM     49  C   UNL     1      -7.222 -32.665  -1.328  1.00  0.00     0.278 C 
ENDBRANCH  45  48
ENDBRANCH  35  40
ENDBRANCH  26  27
ENDBRANCH   5  26
BRANCH   4  50
ATOM     50  O   UNL     1     -12.558 -22.403   6.601  1.00  0.00    -0.384 OA
ATOM     51  H   UNL     1     -12.733 -21.583   6.069  1.00  0.00     0.211 HD
ENDBRANCH   4  50
TORSDOF 15
ENDMDL
MODEL 7
REMARK VINA RESULT:    -5.402      2.435      5.881
REMARK INTER + INTRA:         -11.386
REMARK INTER:                  -9.181
REMARK INTRA:                  -2.205
REMARK UNBOUND:                -2.510
REMARK SMILES COc1ccc([C@H]2CC(=O)c3c(O)cc(O[C@@H]4O[C@H](CO[C@@H]5O[C@H](C)[C@H](O)[C@H](O)[C@H]5O)[C@@H](O)[C@@H](O)[C@@H]4O)cc3O2)cc1O
REMARK SMILES IDX 19 1 32 2 34 3 36 4 17 5 18 6 20 7 21 8 22 9 25 10 24 11
REMARK SMILES IDX 26 12 23 13 28 14 30 15 27 16 29 18 31 20 33 22 35 24 16 26
REMARK SMILES IDX 15 27 14 28 38 29 12 30 39 31 11 32 40 33 9 34 7 35 10 36
REMARK SMILES IDX 8 37 13 38 6 40 41 41 5 42 42 43 4 44 3 45 43 46 2 48 1 49
REMARK SMILES IDX 37 50
REMARK H PARENT 27 17 29 19 31 21 33 23 35 25 13 39 43 47 37 51
REMARK Flexibility Score: inf
ROOT
ATOM      1  C   UNL     1     -10.524 -26.121  -0.175  1.00  0.00     0.180 C 
ATOM      2  C   UNL     1      -9.225 -26.942  -0.335  1.00  0.00     0.177 C 
ATOM      3  C   UNL     1      -8.553 -27.158   1.029  1.00  0.00     0.180 C 
ATOM      4  C   UNL     1      -8.372 -25.808   1.734  1.00  0.00     0.214 C 
ATOM      5  C   UNL     1      -9.712 -25.044   1.800  1.00  0.00     0.339 C 
ATOM      6  O   UNL     1     -10.313 -24.896   0.521  1.00  0.00    -0.332 OA
ENDROOT
BRANCH   1   7
ATOM      7  C   UNL     1     -11.718 -26.928   0.384  1.00  0.00     0.198 C 
BRANCH   7   8
ATOM      8  O   UNL     1     -12.931 -26.236   0.135  1.00  0.00    -0.347 OA
BRANCH   8   9
ATOM      9  C   UNL     1     -13.525 -26.591  -1.106  1.00  0.00     0.281 C 
ATOM     10  C   UNL     1     -13.354 -23.512  -0.663  1.00  0.00     0.041 C 
ATOM     11  C   UNL     1     -14.039 -24.349  -1.762  1.00  0.00     0.150 C 
ATOM     12  C   UNL     1     -15.555 -24.578  -1.553  1.00  0.00     0.174 C 
ATOM     13  O   UNL     1     -13.333 -25.549  -2.055  1.00  0.00    -0.344 OA
ATOM     14  C   UNL     1     -15.843 -25.717  -0.558  1.00  0.00     0.179 C 
ATOM     15  C   UNL     1     -15.014 -26.954  -0.929  1.00  0.00     0.202 C 
BRANCH  12  16
ATOM     16  O   UNL     1     -16.179 -23.384  -1.146  1.00  0.00    -0.388 OA
ATOM     17  H   UNL     1     -15.640 -23.024  -0.393  1.00  0.00     0.211 HD
ENDBRANCH  12  16
BRANCH  14  18
ATOM     18  O   UNL     1     -15.554 -25.329   0.762  1.00  0.00    -0.387 OA
ATOM     19  H   UNL     1     -15.393 -26.160   1.279  1.00  0.00     0.211 HD
ENDBRANCH  14  18
BRANCH  15  20
ATOM     20  O   UNL     1     -15.495 -27.517  -2.125  1.00  0.00    -0.385 OA
ATOM     21  H   UNL     1     -14.796 -27.367  -2.814  1.00  0.00     0.211 HD
ENDBRANCH  15  20
ENDBRANCH   8   9
ENDBRANCH   7   8
ENDBRANCH   1   7
BRANCH   2  22
ATOM     22  O   UNL     1      -8.338 -26.258  -1.188  1.00  0.00    -0.387 OA
ATOM     23  H   UNL     1      -8.676 -25.326  -1.270  1.00  0.00     0.211 HD
ENDBRANCH   2  22
BRANCH   3  24
ATOM     24  O   UNL     1      -7.300 -27.771   0.854  1.00  0.00    -0.387 OA
ATOM     25  H   UNL     1      -7.476 -28.706   0.575  1.00  0.00     0.211 HD
ENDBRANCH   3  24
BRANCH   5  26
ATOM     26  O   UNL     1     -10.631 -25.649   2.718  1.00  0.00    -0.462 OA
BRANCH  26  27
ATOM     27  C   UNL     1     -11.632 -24.994   3.459  1.00  0.00     0.130 A 
ATOM     28  C   UNL     1     -11.284 -24.478   4.712  1.00  0.00     0.093 A 
ATOM     29  C   UNL     1     -12.958 -24.850   3.006  1.00  0.00     0.094 A 
ATOM     30  C   UNL     1     -12.237 -23.845   5.526  1.00  0.00     0.133 A 
ATOM     31  C   UNL     1     -13.909 -24.198   3.796  1.00  0.00     0.138 A 
ATOM     32  C   UNL     1     -13.563 -23.704   5.069  1.00  0.00     0.102 A 
ATOM     33  O   UNL     1     -15.214 -24.051   3.313  1.00  0.00    -0.484 OA
ATOM     34  C   UNL     1     -14.634 -23.087   5.886  1.00  0.00     0.174 C 
ATOM     35  C   UNL     1     -16.161 -23.165   3.919  1.00  0.00     0.211 C 
ATOM     36  O   UNL     1     -14.369 -22.480   6.958  1.00  0.00    -0.294 OA
ATOM     37  C   UNL     1     -16.065 -23.234   5.452  1.00  0.00     0.131 C 
BRANCH  30  38
ATOM     38  O   UNL     1     -11.865 -23.374   6.787  1.00  0.00    -0.507 OA
ATOM     39  H   UNL     1     -11.788 -23.996   7.584  1.00  0.00     0.293 HD
ENDBRANCH  30  38
BRANCH  35  40
ATOM     40  C   UNL     1     -17.555 -23.507   3.453  1.00  0.00    -0.003 A 
ATOM     41  C   UNL     1     -18.564 -23.813   4.382  1.00  0.00     0.057 A 
ATOM     42  C   UNL     1     -17.871 -23.466   2.087  1.00  0.00     0.011 A 
ATOM     43  C   UNL     1     -19.861 -24.113   3.952  1.00  0.00     0.158 A 
ATOM     44  C   UNL     1     -19.166 -23.761   1.653  1.00  0.00     0.051 A 
ATOM     45  C   UNL     1     -20.172 -24.099   2.580  1.00  0.00     0.160 A 
BRANCH  43  46
ATOM     46  O   UNL     1     -20.831 -24.422   4.907  1.00  0.00    -0.504 OA
ATOM     47  H   UNL     1     -20.680 -24.276   5.896  1.00  0.00     0.293 HD
ENDBRANCH  43  46
BRANCH  45  48
ATOM     48  O   UNL     1     -21.477 -24.422   2.177  1.00  0.00    -0.493 OA
ATOM     49  C   UNL     1     -22.115 -25.669   2.434  1.00  0.00     0.278 C 
ENDBRANCH  45  48
ENDBRANCH  35  40
ENDBRANCH  26  27
ENDBRANCH   5  26
BRANCH   4  50
ATOM     50  O   UNL     1      -7.865 -26.002   3.029  1.00  0.00    -0.384 OA
ATOM     51  H   UNL     1      -7.519 -26.931   3.071  1.00  0.00     0.211 HD
ENDBRANCH   4  50
TORSDOF 15
ENDMDL
MODEL 8
REMARK VINA RESULT:    -5.329      2.265      6.143
REMARK INTER + INTRA:         -11.265
REMARK INTER:                 -10.973
REMARK INTRA:                  -0.292
REMARK UNBOUND:                -2.510
REMARK SMILES COc1ccc([C@H]2CC(=O)c3c(O)cc(O[C@@H]4O[C@H](CO[C@@H]5O[C@H](C)[C@H](O)[C@H](O)[C@H]5O)[C@@H](O)[C@@H](O)[C@@H]4O)cc3O2)cc1O
REMARK SMILES IDX 19 1 32 2 34 3 36 4 17 5 18 6 20 7 21 8 22 9 25 10 24 11
REMARK SMILES IDX 26 12 23 13 28 14 30 15 27 16 29 18 31 20 33 22 35 24 16 26
REMARK SMILES IDX 15 27 14 28 38 29 12 30 39 31 11 32 40 33 9 34 7 35 10 36
REMARK SMILES IDX 8 37 13 38 6 40 41 41 5 42 42 43 4 44 3 45 43 46 2 48 1 49
REMARK SMILES IDX 37 50
REMARK H PARENT 27 17 29 19 31 21 33 23 35 25 13 39 43 47 37 51
REMARK Flexibility Score: inf
ROOT
ATOM      1  C   UNL     1      -9.969 -25.734   1.566  1.00  0.00     0.180 C 
ATOM      2  C   UNL     1     -10.948 -26.783   2.141  1.00  0.00     0.177 C 
ATOM      3  C   UNL     1     -11.258 -26.480   3.614  1.00  0.00     0.180 C 
ATOM      4  C   UNL     1      -9.946 -26.335   4.397  1.00  0.00     0.214 C 
ATOM      5  C   UNL     1      -9.019 -25.304   3.718  1.00  0.00     0.339 C 
ATOM      6  O   UNL     1      -8.786 -25.605   2.349  1.00  0.00    -0.332 OA
ENDROOT
BRANCH   1   7
ATOM      7  C   UNL     1     -10.622 -24.370   1.241  1.00  0.00     0.198 C 
BRANCH   7   8
ATOM      8  O   UNL     1     -11.990 -24.553   0.913  1.00  0.00    -0.347 OA
BRANCH   8   9
ATOM      9  C   UNL     1     -12.558 -23.422   0.266  1.00  0.00     0.281 C 
ATOM     10  C   UNL     1     -14.676 -25.225   1.669  1.00  0.00     0.041 C 
ATOM     11  C   UNL     1     -14.829 -24.008   0.736  1.00  0.00     0.150 C 
ATOM     12  C   UNL     1     -15.103 -24.356  -0.746  1.00  0.00     0.174 C 
ATOM     13  O   UNL     1     -13.780 -23.060   0.897  1.00  0.00    -0.344 OA
ATOM     14  C   UNL     1     -13.818 -24.730  -1.507  1.00  0.00     0.179 C 
ATOM     15  C   UNL     1     -12.734 -23.676  -1.246  1.00  0.00     0.202 C 
BRANCH  12  16
ATOM     16  O   UNL     1     -16.060 -25.383  -0.838  1.00  0.00    -0.388 OA
ATOM     17  H   UNL     1     -15.676 -26.076  -1.437  1.00  0.00     0.211 HD
ENDBRANCH  12  16
BRANCH  14  18
ATOM     18  O   UNL     1     -13.349 -25.999  -1.126  1.00  0.00    -0.387 OA
ATOM     19  H   UNL     1     -13.776 -26.659  -1.731  1.00  0.00     0.211 HD
ENDBRANCH  14  18
BRANCH  15  20
ATOM     20  O   UNL     1     -13.075 -22.466  -1.878  1.00  0.00    -0.385 OA
ATOM     21  H   UNL     1     -14.033 -22.536  -2.134  1.00  0.00     0.211 HD
ENDBRANCH  15  20
ENDBRANCH   8   9
ENDBRANCH   7   8
ENDBRANCH   1   7
BRANCH   2  22
ATOM     22  O   UNL     1     -10.376 -28.065   2.038  1.00  0.00    -0.387 OA
ATOM     23  H   UNL     1     -10.834 -28.527   1.286  1.00  0.00     0.211 HD
ENDBRANCH   2  22
BRANCH   3  24
ATOM     24  O   UNL     1     -12.024 -27.522   4.165  1.00  0.00    -0.387 OA
ATOM     25  H   UNL     1     -12.664 -27.102   4.796  1.00  0.00     0.211 HD
ENDBRANCH   3  24
BRANCH   5  26
ATOM     26  O   UNL     1      -9.508 -23.965   3.860  1.00  0.00    -0.462 OA
BRANCH  26  27
ATOM     27  C   UNL     1     -10.641 -23.556   4.587  1.00  0.00     0.130 A 
ATOM     28  C   UNL     1     -10.467 -23.228   5.936  1.00  0.00     0.093 A 
ATOM     29  C   UNL     1     -11.930 -23.479   4.026  1.00  0.00     0.094 A 
ATOM     30  C   UNL     1     -11.556 -22.847   6.736  1.00  0.00     0.133 A 
ATOM     31  C   UNL     1     -13.018 -23.077   4.807  1.00  0.00     0.138 A 
ATOM     32  C   UNL     1     -12.846 -22.773   6.171  1.00  0.00     0.102 A 
ATOM     33  O   UNL     1     -14.286 -22.989   4.219  1.00  0.00    -0.484 OA
ATOM     34  C   UNL     1     -14.050 -22.422   6.959  1.00  0.00     0.174 C 
ATOM     35  C   UNL     1     -15.382 -22.326   4.856  1.00  0.00     0.211 C 
ATOM     36  O   UNL     1     -13.955 -21.981   8.136  1.00  0.00    -0.294 OA
ATOM     37  C   UNL     1     -15.410 -22.644   6.360  1.00  0.00     0.131 C 
BRANCH  30  38
ATOM     38  O   UNL     1     -11.354 -22.562   8.088  1.00  0.00    -0.507 OA
ATOM     39  H   UNL     1     -11.588 -23.231   8.812  1.00  0.00     0.293 HD
ENDBRANCH  30  38
BRANCH  35  40
ATOM     40  C   UNL     1     -16.679 -22.730   4.198  1.00  0.00    -0.003 A 
ATOM     41  C   UNL     1     -17.079 -22.141   2.986  1.00  0.00     0.057 A 
ATOM     42  C   UNL     1     -17.470 -23.740   4.763  1.00  0.00     0.011 A 
ATOM     43  C   UNL     1     -18.272 -22.527   2.366  1.00  0.00     0.158 A 
ATOM     44  C   UNL     1     -18.661 -24.132   4.146  1.00  0.00     0.051 A 
ATOM     45  C   UNL     1     -19.080 -23.522   2.947  1.00  0.00     0.160 A 
BRANCH  43  46
ATOM     46  O   UNL     1     -18.639 -21.911   1.169  1.00  0.00    -0.504 OA
ATOM     47  H   UNL     1     -18.771 -22.433   0.312  1.00  0.00     0.293 HD
ENDBRANCH  43  46
BRANCH  45  48
ATOM     48  O   UNL     1     -20.282 -23.876   2.313  1.00  0.00    -0.493 OA
ATOM     49  C   UNL     1     -21.438 -24.360   2.987  1.00  0.00     0.278 C 
ENDBRANCH  45  48
ENDBRANCH  35  40
ENDBRANCH  26  27
ENDBRANCH   5  26
BRANCH   4  50
ATOM     50  O   UNL     1     -10.213 -25.944   5.719  1.00  0.00    -0.384 OA
ATOM     51  H   UNL     1     -10.114 -26.750   6.288  1.00  0.00     0.211 HD
ENDBRANCH   4  50
TORSDOF 15
ENDMDL
MODEL 9
REMARK VINA RESULT:    -5.302      1.938      9.388
REMARK INTER + INTRA:         -11.222
REMARK INTER:                  -9.572
REMARK INTRA:                  -1.650
REMARK UNBOUND:                -2.510
REMARK SMILES COc1ccc([C@H]2CC(=O)c3c(O)cc(O[C@@H]4O[C@H](CO[C@@H]5O[C@H](C)[C@H](O)[C@H](O)[C@H]5O)[C@@H](O)[C@@H](O)[C@@H]4O)cc3O2)cc1O
REMARK SMILES IDX 19 1 32 2 34 3 36 4 17 5 18 6 20 7 21 8 22 9 25 10 24 11
REMARK SMILES IDX 26 12 23 13 28 14 30 15 27 16 29 18 31 20 33 22 35 24 16 26
REMARK SMILES IDX 15 27 14 28 38 29 12 30 39 31 11 32 40 33 9 34 7 35 10 36
REMARK SMILES IDX 8 37 13 38 6 40 41 41 5 42 42 43 4 44 3 45 43 46 2 48 1 49
REMARK SMILES IDX 37 50
REMARK H PARENT 27 17 29 19 31 21 33 23 35 25 13 39 43 47 37 51
REMARK Flexibility Score: inf
ROOT
ATOM      1  C   UNL     1     -17.040 -24.164   2.827  1.00  0.00     0.180 C 
ATOM      2  C   UNL     1     -17.310 -23.349   4.111  1.00  0.00     0.177 C 
ATOM      3  C   UNL     1     -15.996 -23.055   4.850  1.00  0.00     0.180 C 
ATOM      4  C   UNL     1     -15.229 -24.364   5.075  1.00  0.00     0.214 C 
ATOM      5  C   UNL     1     -15.052 -25.127   3.744  1.00  0.00     0.339 C 
ATOM      6  O   UNL     1     -16.289 -25.348   3.080  1.00  0.00    -0.332 OA
ENDROOT
BRANCH   1   7
ATOM      7  C   UNL     1     -16.465 -23.331   1.657  1.00  0.00     0.198 C 
BRANCH   7   8
ATOM      8  O   UNL     1     -16.833 -23.916   0.418  1.00  0.00    -0.347 OA
BRANCH   8   9
ATOM      9  C   UNL     1     -15.989 -23.518  -0.653  1.00  0.00     0.281 C 
ATOM     10  C   UNL     1     -17.770 -25.977  -1.346  1.00  0.00     0.041 C 
ATOM     11  C   UNL     1     -16.619 -25.301  -2.116  1.00  0.00     0.150 C 
ATOM     12  C   UNL     1     -15.242 -25.989  -1.959  1.00  0.00     0.174 C 
ATOM     13  O   UNL     1     -16.564 -23.896  -1.897  1.00  0.00    -0.344 OA
ATOM     14  C   UNL     1     -14.540 -25.601  -0.645  1.00  0.00     0.179 C 
ATOM     15  C   UNL     1     -14.561 -24.076  -0.474  1.00  0.00     0.202 C 
BRANCH  12  16
ATOM     16  O   UNL     1     -15.377 -27.385  -2.065  1.00  0.00    -0.388 OA
ATOM     17  H   UNL     1     -15.291 -27.606  -3.030  1.00  0.00     0.211 HD
ENDBRANCH  12  16
BRANCH  14  18
ATOM     18  O   UNL     1     -15.154 -26.212   0.462  1.00  0.00    -0.387 OA
ATOM     19  H   UNL     1     -14.564 -26.054   1.244  1.00  0.00     0.211 HD
ENDBRANCH  14  18
BRANCH  15  20
ATOM     20  O   UNL     1     -13.710 -23.472  -1.419  1.00  0.00    -0.385 OA
ATOM     21  H   UNL     1     -14.287 -23.157  -2.164  1.00  0.00     0.211 HD
ENDBRANCH  15  20
ENDBRANCH   8   9
ENDBRANCH   7   8
ENDBRANCH   1   7
BRANCH   2  22
ATOM     22  O   UNL     1     -18.169 -24.076   4.958  1.00  0.00    -0.387 OA
ATOM     23  H   UNL     1     -19.092 -23.753   4.781  1.00  0.00     0.211 HD
ENDBRANCH   2  22
BRANCH   3  24
ATOM     24  O   UNL     1     -16.269 -22.449   6.088  1.00  0.00    -0.387 OA
ATOM     25  H   UNL     1     -15.398 -22.340   6.550  1.00  0.00     0.211 HD
ENDBRANCH   3  24
BRANCH   5  26
ATOM     26  O   UNL     1     -14.124 -24.476   2.869  1.00  0.00    -0.462 OA
BRANCH  26  27
ATOM     27  C   UNL     1     -12.733 -24.680   2.818  1.00  0.00     0.130 A 
ATOM     28  C   UNL     1     -11.908 -23.693   3.370  1.00  0.00     0.093 A 
ATOM     29  C   UNL     1     -12.140 -25.813   2.229  1.00  0.00     0.094 A 
ATOM     30  C   UNL     1     -10.509 -23.807   3.323  1.00  0.00     0.133 A 
ATOM     31  C   UNL     1     -10.749 -25.951   2.200  1.00  0.00     0.138 A 
ATOM     32  C   UNL     1      -9.921 -24.944   2.731  1.00  0.00     0.102 A 
ATOM     33  O   UNL     1     -10.187 -27.098   1.627  1.00  0.00    -0.484 OA
ATOM     34  C   UNL     1      -8.454 -25.116   2.606  1.00  0.00     0.174 C 
ATOM     35  C   UNL     1      -8.811 -27.448   1.805  1.00  0.00     0.211 C 
ATOM     36  O   UNL     1      -7.653 -24.345   3.197  1.00  0.00    -0.294 OA
ATOM     37  C   UNL     1      -7.917 -26.201   1.716  1.00  0.00     0.131 C 
BRANCH  30  38
ATOM     38  O   UNL     1      -9.715 -22.787   3.850  1.00  0.00    -0.507 OA
ATOM     39  H   UNL     1      -9.488 -21.959   3.311  1.00  0.00     0.293 HD
ENDBRANCH  30  38
BRANCH  35  40
ATOM     40  C   UNL     1      -8.406 -28.474   0.775  1.00  0.00    -0.003 A 
ATOM     41  C   UNL     1      -8.928 -29.778   0.820  1.00  0.00     0.057 A 
ATOM     42  C   UNL     1      -7.545 -28.117  -0.274  1.00  0.00     0.011 A 
ATOM     43  C   UNL     1      -8.567 -30.724  -0.144  1.00  0.00     0.158 A 
ATOM     44  C   UNL     1      -7.184 -29.058  -1.241  1.00  0.00     0.051 A 
ATOM     45  C   UNL     1      -7.682 -30.374  -1.181  1.00  0.00     0.160 A 
BRANCH  43  46
ATOM     46  O   UNL     1      -9.100 -32.011  -0.057  1.00  0.00    -0.504 OA
ATOM     47  H   UNL     1      -9.186 -32.615  -0.865  1.00  0.00     0.293 HD
ENDBRANCH  43  46
BRANCH  45  48
ATOM     48  O   UNL     1      -7.322 -31.350  -2.124  1.00  0.00    -0.493 OA
ATOM     49  C   UNL     1      -6.893 -32.668  -1.797  1.00  0.00     0.278 C 
ENDBRANCH  45  48
ENDBRANCH  35  40
ENDBRANCH  26  27
ENDBRANCH   5  26
BRANCH   4  50
ATOM     50  O   UNL     1     -13.974 -24.096   5.645  1.00  0.00    -0.384 OA
ATOM     51  H   UNL     1     -13.309 -24.112   4.909  1.00  0.00     0.211 HD
ENDBRANCH   4  50
TORSDOF 15
ENDMDL
