MODEL 1
REMARK VINA RESULT:    -3.916      0.000      0.000
REMARK INTER + INTRA:          -7.193
REMARK INTER:                  -6.664
REMARK INTRA:                  -0.530
REMARK UNBOUND:                -0.530
REMARK SMILES CCCCCCCCCCCCCC(=O)[O-]
REMARK SMILES IDX 8 1 9 2 10 3 11 4 12 5 13 6 14 7 15 8 16 9 7 10 6 11 5 12
REMARK SMILES IDX 4 13 3 14 2 15 1 16
REMARK H PARENT
REMARK Flexibility Score: inf
ROOT
ATOM      1  C   UNL     1      -1.295   5.055   9.242  1.00  0.00     0.000 C 
ENDROOT
BRANCH   1   2
ATOM      2  C   UNL     1      -0.743   3.716   9.762  1.00  0.00     0.000 C 
BRANCH   2   3
ATOM      3  C   UNL     1      -1.622   2.520   9.360  1.00  0.00     0.000 C 
BRANCH   3   4
ATOM      4  C   UNL     1      -2.974   2.504  10.090  1.00  0.00     0.000 C 
BRANCH   4   5
ATOM      5  C   UNL     1      -4.108   2.101   9.135  1.00  0.00     0.006 C 
BRANCH   5   6
ATOM      6  C   UNL     1      -5.211   1.305   9.845  1.00  0.00     0.053 C 
BRANCH   6   7
ATOM      7  C   UNL     1      -5.857   0.312   8.928  1.00  0.00     0.041 C 
ATOM      8  O   UNL     1      -5.162  -0.327   8.095  1.00  0.00    -0.550 OA
ATOM      9  O   UNL     1      -7.223   0.072   9.015  1.00  0.00    -0.550 OA
ENDBRANCH   6   7
ENDBRANCH   5   6
ENDBRANCH   4   5
ENDBRANCH   3   4
ENDBRANCH   2   3
ENDBRANCH   1   2
BRANCH   1  10
ATOM     10  C   UNL     1      -0.374   6.241   9.576  1.00  0.00     0.000 C 
BRANCH  10  11
ATOM     11  C   UNL     1      -0.897   7.574   9.022  1.00  0.00    -0.000 C 
BRANCH  11  12
ATOM     12  C   UNL     1       0.260   8.470   8.564  1.00  0.00    -0.000 C 
BRANCH  12  13
ATOM     13  C   UNL     1       0.745   8.074   7.164  1.00  0.00    -0.000 C 
BRANCH  13  14
ATOM     14  C   UNL     1       2.144   8.643   6.885  1.00  0.00    -0.000 C 
BRANCH  14  15
ATOM     15  C   UNL     1       2.924   8.949   8.173  1.00  0.00    -0.003 C 
ATOM     16  C   UNL     1       4.291   8.266   8.214  1.00  0.00     0.004 C 
ENDBRANCH  14  15
ENDBRANCH  13  14
ENDBRANCH  12  13
ENDBRANCH  11  12
ENDBRANCH  10  11
ENDBRANCH   1  10
TORSDOF 12
ENDMDL
MODEL 2
REMARK VINA RESULT:    -3.876      4.730      8.165
REMARK INTER + INTRA:          -7.124
REMARK INTER:                  -6.265
REMARK INTRA:                  -0.859
REMARK UNBOUND:                -0.530
REMARK SMILES CCCCCCCCCCCCCC(=O)[O-]
REMARK SMILES IDX 8 1 9 2 10 3 11 4 12 5 13 6 14 7 15 8 16 9 7 10 6 11 5 12
REMARK SMILES IDX 4 13 3 14 2 15 1 16
REMARK H PARENT
REMARK Flexibility Score: inf
ROOT
ATOM      1  C   UNL     1      -1.132   3.176   9.741  1.00  0.00     0.000 C 
ENDROOT
BRANCH   1   2
ATOM      2  C   UNL     1      -1.475   4.638  10.077  1.00  0.00     0.000 C 
BRANCH   2   3
ATOM      3  C   UNL     1      -1.266   5.582   8.881  1.00  0.00     0.000 C 
BRANCH   3   4
ATOM      4  C   UNL     1      -0.100   6.560   9.092  1.00  0.00     0.000 C 
BRANCH   4   5
ATOM      5  C   UNL     1      -0.012   7.568   7.935  1.00  0.00     0.006 C 
BRANCH   5   6
ATOM      6  C   UNL     1       1.064   8.634   8.173  1.00  0.00     0.053 C 
BRANCH   6   7
ATOM      7  C   UNL     1       2.194   8.508   7.196  1.00  0.00     0.041 C 
ATOM      8  O   UNL     1       1.963   8.484   5.959  1.00  0.00    -0.550 OA
ATOM      9  O   UNL     1       3.504   8.450   7.654  1.00  0.00    -0.550 OA
ENDBRANCH   6   7
ENDBRANCH   5   6
ENDBRANCH   4   5
ENDBRANCH   3   4
ENDBRANCH   2   3
ENDBRANCH   1   2
BRANCH   1  10
ATOM     10  C   UNL     1      -2.339   2.401   9.185  1.00  0.00     0.000 C 
BRANCH  10  11
ATOM     11  C   UNL     1      -3.553   2.439  10.124  1.00  0.00    -0.000 C 
BRANCH  11  12
ATOM     12  C   UNL     1      -4.808   2.913   9.381  1.00  0.00    -0.000 C 
BRANCH  12  13
ATOM     13  C   UNL     1      -5.131   4.373   9.719  1.00  0.00    -0.000 C 
BRANCH  13  14
ATOM     14  C   UNL     1      -4.845   5.291   8.521  1.00  0.00    -0.000 C 
BRANCH  14  15
ATOM     15  C   UNL     1      -6.077   6.102   8.092  1.00  0.00    -0.003 C 
ATOM     16  C   UNL     1      -6.134   7.483   8.746  1.00  0.00     0.004 C 
ENDBRANCH  14  15
ENDBRANCH  13  14
ENDBRANCH  12  13
ENDBRANCH  11  12
ENDBRANCH  10  11
ENDBRANCH   1  10
TORSDOF 12
ENDMDL
MODEL 3
REMARK VINA RESULT:    -3.817      4.398      9.004
REMARK INTER + INTRA:          -7.024
REMARK INTER:                  -6.385
REMARK INTRA:                  -0.639
REMARK UNBOUND:                -0.530
REMARK SMILES CCCCCCCCCCCCCC(=O)[O-]
REMARK SMILES IDX 8 1 9 2 10 3 11 4 12 5 13 6 14 7 15 8 16 9 7 10 6 11 5 12
REMARK SMILES IDX 4 13 3 14 2 15 1 16
REMARK H PARENT
REMARK Flexibility Score: inf
ROOT
ATOM      1  C   UNL     1      -1.623   4.510   9.451  1.00  0.00     0.000 C 
ENDROOT
BRANCH   1   2
ATOM      2  C   UNL     1      -0.353   5.167  10.019  1.00  0.00     0.000 C 
BRANCH   2   3
ATOM      3  C   UNL     1      -0.344   6.693   9.832  1.00  0.00     0.000 C 
BRANCH   3   4
ATOM      4  C   UNL     1      -0.259   7.111   8.356  1.00  0.00     0.000 C 
BRANCH   4   5
ATOM      5  C   UNL     1       0.143   8.588   8.226  1.00  0.00     0.006 C 
BRANCH   5   6
ATOM      6  C   UNL     1       1.660   8.789   8.327  1.00  0.00     0.053 C 
BRANCH   6   7
ATOM      7  C   UNL     1       2.371   8.262   7.117  1.00  0.00     0.041 C 
ATOM      8  O   UNL     1       3.423   7.583   7.246  1.00  0.00    -0.550 OA
ATOM      9  O   UNL     1       1.852   8.496   5.850  1.00  0.00    -0.550 OA
ENDBRANCH   6   7
ENDBRANCH   5   6
ENDBRANCH   4   5
ENDBRANCH   3   4
ENDBRANCH   2   3
ENDBRANCH   1   2
BRANCH   1  10
ATOM     10  C   UNL     1      -1.485   2.985   9.308  1.00  0.00     0.000 C 
BRANCH  10  11
ATOM     11  C   UNL     1      -2.785   2.237   9.636  1.00  0.00    -0.000 C 
BRANCH  11  12
ATOM     12  C   UNL     1      -3.990   3.185   9.592  1.00  0.00    -0.000 C 
BRANCH  12  13
ATOM     13  C   UNL     1      -5.307   2.411   9.722  1.00  0.00    -0.000 C 
BRANCH  13  14
ATOM     14  C   UNL     1      -5.073   0.899   9.582  1.00  0.00    -0.000 C 
BRANCH  14  15
ATOM     15  C   UNL     1      -6.256   0.178   8.920  1.00  0.00    -0.003 C 
ATOM     16  C   UNL     1      -7.567   0.955   9.042  1.00  0.00     0.004 C 
ENDBRANCH  14  15
ENDBRANCH  13  14
ENDBRANCH  12  13
ENDBRANCH  11  12
ENDBRANCH  10  11
ENDBRANCH   1  10
TORSDOF 12
ENDMDL
MODEL 4
REMARK VINA RESULT:    -3.735      5.144      9.461
REMARK INTER + INTRA:          -6.885
REMARK INTER:                  -6.209
REMARK INTRA:                  -0.677
REMARK UNBOUND:                -0.530
REMARK SMILES CCCCCCCCCCCCCC(=O)[O-]
REMARK SMILES IDX 8 1 9 2 10 3 11 4 12 5 13 6 14 7 15 8 16 9 7 10 6 11 5 12
REMARK SMILES IDX 4 13 3 14 2 15 1 16
REMARK H PARENT
REMARK Flexibility Score: inf
ROOT
ATOM      1  C   UNL     1       0.855   7.531   8.794  1.00  0.00     0.000 C 
ENDROOT
BRANCH   1   2
ATOM      2  C   UNL     1       1.127   7.911   7.328  1.00  0.00     0.000 C 
BRANCH   2   3
ATOM      3  C   UNL     1       2.486   8.604   7.141  1.00  0.00     0.000 C 
BRANCH   3   4
ATOM      4  C   UNL     1       2.549   9.981   7.819  1.00  0.00     0.000 C 
BRANCH   4   5
ATOM      5  C   UNL     1       3.721  10.052   8.810  1.00  0.00     0.006 C 
BRANCH   5   6
ATOM      6  C   UNL     1       5.079   9.883   8.118  1.00  0.00     0.053 C 
BRANCH   6   7
ATOM      7  C   UNL     1       5.861   8.745   8.701  1.00  0.00     0.041 C 
ATOM      8  O   UNL     1       7.034   8.513   8.307  1.00  0.00    -0.550 OA
ATOM      9  O   UNL     1       5.303   7.962   9.704  1.00  0.00    -0.550 OA
ENDBRANCH   6   7
ENDBRANCH   5   6
ENDBRANCH   4   5
ENDBRANCH   3   4
ENDBRANCH   2   3
ENDBRANCH   1   2
BRANCH   1  10
ATOM     10  C   UNL     1      -0.586   7.849   9.227  1.00  0.00     0.000 C 
BRANCH  10  11
ATOM     11  C   UNL     1      -1.250   6.687   9.981  1.00  0.00    -0.000 C 
BRANCH  11  12
ATOM     12  C   UNL     1      -1.422   5.468   9.069  1.00  0.00    -0.000 C 
BRANCH  12  13
ATOM     13  C   UNL     1      -0.918   4.191   9.752  1.00  0.00    -0.000 C 
BRANCH  13  14
ATOM     14  C   UNL     1      -2.085   3.254  10.097  1.00  0.00    -0.000 C 
BRANCH  14  15
ATOM     15  C   UNL     1      -2.288   2.152   9.045  1.00  0.00    -0.003 C 
ATOM     16  C   UNL     1      -3.709   1.590   9.044  1.00  0.00     0.004 C 
ENDBRANCH  14  15
ENDBRANCH  13  14
ENDBRANCH  12  13
ENDBRANCH  11  12
ENDBRANCH  10  11
ENDBRANCH   1  10
TORSDOF 12
ENDMDL
MODEL 5
REMARK VINA RESULT:    -3.685      3.325      4.266
REMARK INTER + INTRA:          -6.799
REMARK INTER:                  -5.646
REMARK INTRA:                  -1.153
REMARK UNBOUND:                -0.530
REMARK SMILES CCCCCCCCCCCCCC(=O)[O-]
REMARK SMILES IDX 8 1 9 2 10 3 11 4 12 5 13 6 14 7 15 8 16 9 7 10 6 11 5 12
REMARK SMILES IDX 4 13 3 14 2 15 1 16
REMARK H PARENT
REMARK Flexibility Score: inf
ROOT
ATOM      1  C   UNL     1      -1.874   2.348   8.998  1.00  0.00     0.000 C 
ENDROOT
BRANCH   1   2
ATOM      2  C   UNL     1      -3.140   1.938   9.771  1.00  0.00     0.000 C 
BRANCH   2   3
ATOM      3  C   UNL     1      -4.425   2.496   9.137  1.00  0.00     0.000 C 
BRANCH   3   4
ATOM      4  C   UNL     1      -4.849   3.842   9.743  1.00  0.00     0.000 C 
BRANCH   4   5
ATOM      5  C   UNL     1      -5.110   4.882   8.642  1.00  0.00     0.006 C 
BRANCH   5   6
ATOM      6  C   UNL     1      -4.921   6.319   9.143  1.00  0.00     0.053 C 
BRANCH   6   7
ATOM      7  C   UNL     1      -5.979   7.236   8.608  1.00  0.00     0.041 C 
ATOM      8  O   UNL     1      -6.440   7.065   7.449  1.00  0.00    -0.550 OA
ATOM      9  O   UNL     1      -6.478   8.260   9.404  1.00  0.00    -0.550 OA
ENDBRANCH   6   7
ENDBRANCH   5   6
ENDBRANCH   4   5
ENDBRANCH   3   4
ENDBRANCH   2   3
ENDBRANCH   1   2
BRANCH   1  10
ATOM     10  C   UNL     1      -1.130   3.518   9.664  1.00  0.00     0.000 C 
BRANCH  10  11
ATOM     11  C   UNL     1      -1.369   4.857   8.951  1.00  0.00    -0.000 C 
BRANCH  11  12
ATOM     12  C   UNL     1      -1.241   6.031   9.929  1.00  0.00    -0.000 C 
BRANCH  12  13
ATOM     13  C   UNL     1      -1.034   7.353   9.181  1.00  0.00    -0.000 C 
BRANCH  13  14
ATOM     14  C   UNL     1       0.440   7.540   8.791  1.00  0.00    -0.000 C 
BRANCH  14  15
ATOM     15  C   UNL     1       0.606   8.187   7.408  1.00  0.00    -0.003 C 
ATOM     16  C   UNL     1       2.062   8.527   7.086  1.00  0.00     0.004 C 
ENDBRANCH  14  15
ENDBRANCH  13  14
ENDBRANCH  12  13
ENDBRANCH  11  12
ENDBRANCH  10  11
ENDBRANCH   1  10
TORSDOF 12
ENDMDL
MODEL 6
REMARK VINA RESULT:    -3.679      4.357      8.581
REMARK INTER + INTRA:          -6.789
REMARK INTER:                  -5.931
REMARK INTRA:                  -0.859
REMARK UNBOUND:                -0.530
REMARK SMILES CCCCCCCCCCCCCC(=O)[O-]
REMARK SMILES IDX 8 1 9 2 10 3 11 4 12 5 13 6 14 7 15 8 16 9 7 10 6 11 5 12
REMARK SMILES IDX 4 13 3 14 2 15 1 16
REMARK H PARENT
REMARK Flexibility Score: inf
ROOT
ATOM      1  C   UNL     1      -0.011   6.475   8.991  1.00  0.00     0.000 C 
ENDROOT
BRANCH   1   2
ATOM      2  C   UNL     1      -1.139   7.503   9.184  1.00  0.00     0.000 C 
BRANCH   2   3
ATOM      3  C   UNL     1      -0.653   8.951   9.010  1.00  0.00     0.000 C 
BRANCH   3   4
ATOM      4  C   UNL     1       0.759   9.176   9.571  1.00  0.00     0.000 C 
BRANCH   4   5
ATOM      5  C   UNL     1       1.583  10.078   8.640  1.00  0.00     0.006 C 
BRANCH   5   6
ATOM      6  C   UNL     1       2.944   9.463   8.288  1.00  0.00     0.053 C 
BRANCH   6   7
ATOM      7  C   UNL     1       2.818   8.405   7.234  1.00  0.00     0.041 C 
ATOM      8  O   UNL     1       3.696   7.510   7.126  1.00  0.00    -0.550 OA
ATOM      9  O   UNL     1       1.713   8.392   6.392  1.00  0.00    -0.550 OA
ENDBRANCH   6   7
ENDBRANCH   5   6
ENDBRANCH   4   5
ENDBRANCH   3   4
ENDBRANCH   2   3
ENDBRANCH   1   2
BRANCH   1  10
ATOM     10  C   UNL     1      -0.102   5.305   9.986  1.00  0.00     0.000 C 
BRANCH  10  11
ATOM     11  C   UNL     1      -1.401   4.499   9.837  1.00  0.00    -0.000 C 
BRANCH  11  12
ATOM     12  C   UNL     1      -1.106   2.998   9.735  1.00  0.00    -0.000 C 
BRANCH  12  13
ATOM     13  C   UNL     1      -2.201   2.273   8.943  1.00  0.00    -0.000 C 
BRANCH  13  14
ATOM     14  C   UNL     1      -3.395   1.928   9.845  1.00  0.00    -0.000 C 
BRANCH  14  15
ATOM     15  C   UNL     1      -4.719   2.498   9.314  1.00  0.00    -0.003 C 
ATOM     16  C   UNL     1      -5.075   3.847   9.939  1.00  0.00     0.004 C 
ENDBRANCH  14  15
ENDBRANCH  13  14
ENDBRANCH  12  13
ENDBRANCH  11  12
ENDBRANCH  10  11
ENDBRANCH   1  10
TORSDOF 12
ENDMDL
MODEL 7
REMARK VINA RESULT:    -3.661      4.485      8.141
REMARK INTER + INTRA:          -6.759
REMARK INTER:                  -5.598
REMARK INTRA:                  -1.161
REMARK UNBOUND:                -0.530
REMARK SMILES CCCCCCCCCCCCCC(=O)[O-]
REMARK SMILES IDX 8 1 9 2 10 3 11 4 12 5 13 6 14 7 15 8 16 9 7 10 6 11 5 12
REMARK SMILES IDX 4 13 3 14 2 15 1 16
REMARK H PARENT
REMARK Flexibility Score: inf
ROOT
ATOM      1  C   UNL     1      -0.444   3.720   9.971  1.00  0.00     0.000 C 
ENDROOT
BRANCH   1   2
ATOM      2  C   UNL     1      -0.410   5.258   9.968  1.00  0.00     0.000 C 
BRANCH   2   3
ATOM      3  C   UNL     1      -0.990   5.858   8.676  1.00  0.00     0.000 C 
BRANCH   3   4
ATOM      4  C   UNL     1      -0.316   7.181   8.281  1.00  0.00     0.000 C 
BRANCH   4   5
ATOM      5  C   UNL     1       0.822   7.530   9.253  1.00  0.00     0.006 C 
BRANCH   5   6
ATOM      6  C   UNL     1       1.740   8.629   8.704  1.00  0.00     0.053 C 
BRANCH   6   7
ATOM      7  C   UNL     1       2.399   8.213   7.424  1.00  0.00     0.041 C 
ATOM      8  O   UNL     1       3.425   7.484   7.447  1.00  0.00    -0.550 OA
ATOM      9  O   UNL     1       1.859   8.605   6.205  1.00  0.00    -0.550 OA
ENDBRANCH   6   7
ENDBRANCH   5   6
ENDBRANCH   4   5
ENDBRANCH   3   4
ENDBRANCH   2   3
ENDBRANCH   1   2
BRANCH   1  10
ATOM     10  C   UNL     1      -1.869   3.162  10.125  1.00  0.00     0.000 C 
BRANCH  10  11
ATOM     11  C   UNL     1      -2.270   2.231   8.972  1.00  0.00    -0.000 C 
BRANCH  11  12
ATOM     12  C   UNL     1      -3.752   1.848   9.065  1.00  0.00    -0.000 C 
BRANCH  12  13
ATOM     13  C   UNL     1      -4.502   2.776  10.027  1.00  0.00    -0.000 C 
BRANCH  13  14
ATOM     14  C   UNL     1      -5.570   3.592   9.284  1.00  0.00    -0.000 C 
BRANCH  14  15
ATOM     15  C   UNL     1      -5.027   4.924   8.746  1.00  0.00    -0.003 C 
ATOM     16  C   UNL     1      -4.468   5.823   9.848  1.00  0.00     0.004 C 
ENDBRANCH  14  15
ENDBRANCH  13  14
ENDBRANCH  12  13
ENDBRANCH  11  12
ENDBRANCH  10  11
ENDBRANCH   1  10
TORSDOF 12
ENDMDL
MODEL 8
REMARK VINA RESULT:    -3.616      1.238      2.083
REMARK INTER + INTRA:          -6.682
REMARK INTER:                  -6.087
REMARK INTRA:                  -0.596
REMARK UNBOUND:                -0.530
REMARK SMILES CCCCCCCCCCCCCC(=O)[O-]
REMARK SMILES IDX 8 1 9 2 10 3 11 4 12 5 13 6 14 7 15 8 16 9 7 10 6 11 5 12
REMARK SMILES IDX 4 13 3 14 2 15 1 16
REMARK H PARENT
REMARK Flexibility Score: inf
ROOT
ATOM      1  C   UNL     1      -1.145   3.512   9.720  1.00  0.00     0.000 C 
ENDROOT
BRANCH   1   2
ATOM      2  C   UNL     1      -1.981   2.277   9.340  1.00  0.00     0.000 C 
BRANCH   2   3
ATOM      3  C   UNL     1      -3.333   2.232  10.070  1.00  0.00     0.000 C 
BRANCH   3   4
ATOM      4  C   UNL     1      -4.529   2.231   9.106  1.00  0.00     0.000 C 
BRANCH   4   5
ATOM      5  C   UNL     1      -5.411   0.993   9.327  1.00  0.00     0.006 C 
BRANCH   5   6
ATOM      6  C   UNL     1      -6.868   1.363   9.633  1.00  0.00     0.053 C 
BRANCH   6   7
ATOM      7  C   UNL     1      -7.824   0.335   9.107  1.00  0.00     0.041 C 
ATOM      8  O   UNL     1      -8.174  -0.635   9.830  1.00  0.00    -0.550 OA
ATOM      9  O   UNL     1      -8.351   0.468   7.829  1.00  0.00    -0.550 OA
ENDBRANCH   6   7
ENDBRANCH   5   6
ENDBRANCH   4   5
ENDBRANCH   3   4
ENDBRANCH   2   3
ENDBRANCH   1   2
BRANCH   1  10
ATOM     10  C   UNL     1      -1.554   4.766   8.928  1.00  0.00     0.000 C 
BRANCH  10  11
ATOM     11  C   UNL     1      -2.185   5.849   9.815  1.00  0.00    -0.000 C 
BRANCH  11  12
ATOM     12  C   UNL     1      -1.497   7.202   9.603  1.00  0.00    -0.000 C 
BRANCH  12  13
ATOM     13  C   UNL     1      -0.221   7.048   8.767  1.00  0.00    -0.000 C 
BRANCH  13  14
ATOM     14  C   UNL     1       0.074   8.328   7.971  1.00  0.00    -0.000 C 
BRANCH  14  15
ATOM     15  C   UNL     1       1.525   8.390   7.470  1.00  0.00    -0.003 C 
ATOM     16  C   UNL     1       2.514   7.742   8.438  1.00  0.00     0.004 C 
ENDBRANCH  14  15
ENDBRANCH  13  14
ENDBRANCH  12  13
ENDBRANCH  11  12
ENDBRANCH  10  11
ENDBRANCH   1  10
TORSDOF 12
ENDMDL
