MODEL 1
REMARK VINA RESULT:    -3.316      0.000      0.000
REMARK INTER + INTRA:          -7.287
REMARK INTER:                  -6.418
REMARK INTRA:                  -0.869
REMARK UNBOUND:                -0.869
REMARK SMILES CCCCCCCCCCCCCCCCCC(=O)[O-]
REMARK SMILES IDX 10 1 11 2 12 3 13 4 14 5 15 6 16 7 17 8 18 9 19 10 20 11
REMARK SMILES IDX 9 12 8 13 7 14 6 15 5 16 4 17 3 18 2 19 1 20
REMARK H PARENT
REMARK Flexibility Score: inf
ROOT
ATOM      1  C   UNL     1     -31.457 -21.812 -33.675  1.00  0.00     0.000 C 
ENDROOT
BRANCH   1   2
ATOM      2  C   UNL     1     -32.019 -20.395 -33.485  1.00  0.00     0.000 C 
BRANCH   2   3
ATOM      3  C   UNL     1     -30.923 -19.314 -33.472  1.00  0.00     0.000 C 
BRANCH   3   4
ATOM      4  C   UNL     1     -29.478 -19.847 -33.549  1.00  0.00     0.000 C 
BRANCH   4   5
ATOM      5  C   UNL     1     -28.400 -18.889 -33.011  1.00  0.00     0.000 C 
BRANCH   5   6
ATOM      6  C   UNL     1     -28.158 -19.051 -31.503  1.00  0.00     0.000 C 
BRANCH   6   7
ATOM      7  C   UNL     1     -29.313 -19.816 -30.841  1.00  0.00     0.006 C 
BRANCH   7   8
ATOM      8  C   UNL     1     -30.339 -18.875 -30.195  1.00  0.00     0.053 C 
BRANCH   8   9
ATOM      9  C   UNL     1     -31.552 -19.616 -29.722  1.00  0.00     0.041 C 
ATOM     10  O   UNL     1     -32.700 -19.131 -29.899  1.00  0.00    -0.550 OA
ATOM     11  O   UNL     1     -31.413 -20.827 -29.055  1.00  0.00    -0.550 OA
ENDBRANCH   8   9
ENDBRANCH   7   8
ENDBRANCH   6   7
ENDBRANCH   5   6
ENDBRANCH   4   5
ENDBRANCH   3   4
ENDBRANCH   2   3
ENDBRANCH   1   2
BRANCH   1  12
ATOM     12  C   UNL     1     -31.630 -22.280 -35.128  1.00  0.00     0.000 C 
BRANCH  12  13
ATOM     13  C   UNL     1     -33.105 -22.403 -35.538  1.00  0.00    -0.000 C 
BRANCH  13  14
ATOM     14  C   UNL     1     -33.315 -22.229 -37.052  1.00  0.00    -0.000 C 
BRANCH  14  15
ATOM     15  C   UNL     1     -31.996 -22.015 -37.815  1.00  0.00    -0.000 C 
BRANCH  15  16
ATOM     16  C   UNL     1     -31.683 -23.076 -38.890  1.00  0.00    -0.000 C 
BRANCH  16  17
ATOM     17  C   UNL     1     -31.563 -24.520 -38.369  1.00  0.00    -0.000 C 
BRANCH  17  18
ATOM     18  C   UNL     1     -32.594 -25.469 -38.997  1.00  0.00    -0.000 C 
BRANCH  18  19
ATOM     19  C   UNL     1     -32.478 -26.876 -38.401  1.00  0.00    -0.003 C 
ATOM     20  C   UNL     1     -33.702 -27.722 -38.739  1.00  0.00     0.004 C 
ENDBRANCH  18  19
ENDBRANCH  17  18
ENDBRANCH  16  17
ENDBRANCH  15  16
ENDBRANCH  14  15
ENDBRANCH  13  14
ENDBRANCH  12  13
ENDBRANCH   1  12
TORSDOF 16
ENDMDL
MODEL 2
REMARK VINA RESULT:    -2.907      1.385      1.867
REMARK INTER + INTRA:          -6.494
REMARK INTER:                  -5.307
REMARK INTRA:                  -1.187
REMARK UNBOUND:                -0.869
REMARK SMILES CCCCCCCCCCCCCCCCCC(=O)[O-]
REMARK SMILES IDX 10 1 11 2 12 3 13 4 14 5 15 6 16 7 17 8 18 9 19 10 20 11
REMARK SMILES IDX 9 12 8 13 7 14 6 15 5 16 4 17 3 18 2 19 1 20
REMARK H PARENT
REMARK Flexibility Score: inf
ROOT
ATOM      1  C   UNL     1     -31.459 -20.976 -33.453  1.00  0.00     0.000 C 
ENDROOT
BRANCH   1   2
ATOM      2  C   UNL     1     -30.092 -20.980 -34.154  1.00  0.00     0.000 C 
BRANCH   2   3
ATOM      3  C   UNL     1     -29.299 -19.681 -33.923  1.00  0.00     0.000 C 
BRANCH   3   4
ATOM      4  C   UNL     1     -29.690 -18.892 -32.658  1.00  0.00     0.000 C 
BRANCH   4   5
ATOM      5  C   UNL     1     -28.649 -18.919 -31.524  1.00  0.00     0.000 C 
BRANCH   5   6
ATOM      6  C   UNL     1     -29.287 -19.020 -30.131  1.00  0.00     0.000 C 
BRANCH   6   7
ATOM      7  C   UNL     1     -30.814 -18.875 -30.216  1.00  0.00     0.006 C 
BRANCH   7   8
ATOM      8  C   UNL     1     -31.547 -20.035 -29.530  1.00  0.00     0.053 C 
BRANCH   8   9
ATOM      9  C   UNL     1     -30.779 -21.317 -29.632  1.00  0.00     0.041 C 
ATOM     10  O   UNL     1     -30.808 -21.991 -30.695  1.00  0.00    -0.550 OA
ATOM     11  O   UNL     1     -30.057 -21.785 -28.541  1.00  0.00    -0.550 OA
ENDBRANCH   8   9
ENDBRANCH   7   8
ENDBRANCH   6   7
ENDBRANCH   5   6
ENDBRANCH   4   5
ENDBRANCH   3   4
ENDBRANCH   2   3
ENDBRANCH   1   2
BRANCH   1  12
ATOM     12  C   UNL     1     -32.506 -20.232 -34.296  1.00  0.00     0.000 C 
BRANCH  12  13
ATOM     13  C   UNL     1     -33.421 -21.187 -35.077  1.00  0.00    -0.000 C 
BRANCH  13  14
ATOM     14  C   UNL     1     -33.780 -20.651 -36.474  1.00  0.00    -0.000 C 
BRANCH  14  15
ATOM     15  C   UNL     1     -33.166 -21.488 -37.609  1.00  0.00    -0.000 C 
BRANCH  15  16
ATOM     16  C   UNL     1     -32.983 -22.987 -37.289  1.00  0.00    -0.000 C 
BRANCH  16  17
ATOM     17  C   UNL     1     -31.528 -23.432 -37.051  1.00  0.00    -0.000 C 
BRANCH  17  18
ATOM     18  C   UNL     1     -31.188 -24.758 -37.746  1.00  0.00    -0.000 C 
BRANCH  18  19
ATOM     19  C   UNL     1     -32.321 -25.191 -38.683  1.00  0.00    -0.003 C 
ATOM     20  C   UNL     1     -32.647 -26.671 -38.509  1.00  0.00     0.004 C 
ENDBRANCH  18  19
ENDBRANCH  17  18
ENDBRANCH  16  17
ENDBRANCH  15  16
ENDBRANCH  14  15
ENDBRANCH  13  14
ENDBRANCH  12  13
ENDBRANCH   1  12
TORSDOF 16
ENDMDL
MODEL 3
REMARK VINA RESULT:    -2.850      3.486      8.574
REMARK INTER + INTRA:          -6.384
REMARK INTER:                  -5.072
REMARK INTRA:                  -1.312
REMARK UNBOUND:                -0.869
REMARK SMILES CCCCCCCCCCCCCCCCCC(=O)[O-]
REMARK SMILES IDX 10 1 11 2 12 3 13 4 14 5 15 6 16 7 17 8 18 9 19 10 20 11
REMARK SMILES IDX 9 12 8 13 7 14 6 15 5 16 4 17 3 18 2 19 1 20
REMARK H PARENT
REMARK Flexibility Score: inf
ROOT
ATOM      1  C   UNL     1     -30.939 -21.307 -33.474  1.00  0.00     0.000 C 
ENDROOT
BRANCH   1   2
ATOM      2  C   UNL     1     -31.552 -22.187 -34.573  1.00  0.00     0.000 C 
BRANCH   2   3
ATOM      3  C   UNL     1     -32.811 -21.565 -35.204  1.00  0.00     0.000 C 
BRANCH   3   4
ATOM      4  C   UNL     1     -33.123 -22.034 -36.639  1.00  0.00     0.000 C 
BRANCH   4   5
ATOM      5  C   UNL     1     -32.557 -21.139 -37.756  1.00  0.00     0.000 C 
BRANCH   5   6
ATOM      6  C   UNL     1     -31.807 -21.934 -38.835  1.00  0.00     0.000 C 
BRANCH   6   7
ATOM      7  C   UNL     1     -32.513 -23.267 -39.124  1.00  0.00     0.006 C 
BRANCH   7   8
ATOM      8  C   UNL     1     -31.636 -24.477 -38.777  1.00  0.00     0.053 C 
BRANCH   8   9
ATOM      9  C   UNL     1     -32.443 -25.603 -38.205  1.00  0.00     0.041 C 
ATOM     10  O   UNL     1     -33.036 -25.461 -37.103  1.00  0.00    -0.550 OA
ATOM     11  O   UNL     1     -32.513 -26.819 -38.871  1.00  0.00    -0.550 OA
ENDBRANCH   8   9
ENDBRANCH   7   8
ENDBRANCH   6   7
ENDBRANCH   5   6
ENDBRANCH   4   5
ENDBRANCH   3   4
ENDBRANCH   2   3
ENDBRANCH   1   2
BRANCH   1  12
ATOM     12  C   UNL     1     -31.269 -19.825 -33.710  1.00  0.00     0.000 C 
BRANCH  12  13
ATOM     13  C   UNL     1     -30.154 -18.887 -33.223  1.00  0.00    -0.000 C 
BRANCH  13  14
ATOM     14  C   UNL     1     -29.032 -19.638 -32.483  1.00  0.00    -0.000 C 
BRANCH  14  15
ATOM     15  C   UNL     1     -28.574 -18.913 -31.205  1.00  0.00    -0.000 C 
BRANCH  15  16
ATOM     16  C   UNL     1     -29.615 -18.875 -30.067  1.00  0.00    -0.000 C 
BRANCH  16  17
ATOM     17  C   UNL     1     -30.577 -20.076 -30.020  1.00  0.00    -0.000 C 
BRANCH  17  18
ATOM     18  C   UNL     1     -32.052 -19.664 -30.131  1.00  0.00    -0.000 C 
BRANCH  18  19
ATOM     19  C   UNL     1     -32.576 -19.139 -28.790  1.00  0.00    -0.003 C 
ATOM     20  C   UNL     1     -34.101 -19.150 -28.750  1.00  0.00     0.004 C 
ENDBRANCH  18  19
ENDBRANCH  17  18
ENDBRANCH  16  17
ENDBRANCH  15  16
ENDBRANCH  14  15
ENDBRANCH  13  14
ENDBRANCH  12  13
ENDBRANCH   1  12
TORSDOF 16
ENDMDL
MODEL 4
REMARK VINA RESULT:    -2.575      3.400      8.136
REMARK INTER + INTRA:          -5.853
REMARK INTER:                  -4.699
REMARK INTRA:                  -1.154
REMARK UNBOUND:                -0.869
REMARK SMILES CCCCCCCCCCCCCCCCCC(=O)[O-]
REMARK SMILES IDX 10 1 11 2 12 3 13 4 14 5 15 6 16 7 17 8 18 9 19 10 20 11
REMARK SMILES IDX 9 12 8 13 7 14 6 15 5 16 4 17 3 18 2 19 1 20
REMARK H PARENT
REMARK Flexibility Score: inf
ROOT
ATOM      1  C   UNL     1     -30.090 -20.747 -34.155  1.00  0.00     0.000 C 
ENDROOT
BRANCH   1   2
ATOM      2  C   UNL     1     -31.457 -20.846 -33.464  1.00  0.00     0.000 C 
BRANCH   2   3
ATOM      3  C   UNL     1     -32.632 -20.575 -34.421  1.00  0.00     0.000 C 
BRANCH   3   4
ATOM      4  C   UNL     1     -32.872 -21.663 -35.486  1.00  0.00     0.000 C 
BRANCH   4   5
ATOM      5  C   UNL     1     -33.950 -21.325 -36.533  1.00  0.00     0.000 C 
BRANCH   5   6
ATOM      6  C   UNL     1     -33.399 -21.290 -37.966  1.00  0.00     0.000 C 
BRANCH   6   7
ATOM      7  C   UNL     1     -32.106 -22.110 -38.077  1.00  0.00     0.006 C 
BRANCH   7   8
ATOM      8  C   UNL     1     -32.277 -23.347 -38.969  1.00  0.00     0.053 C 
BRANCH   8   9
ATOM      9  C   UNL     1     -31.753 -24.586 -38.308  1.00  0.00     0.041 C 
ATOM     10  O   UNL     1     -30.697 -24.540 -37.624  1.00  0.00    -0.550 OA
ATOM     11  O   UNL     1     -32.412 -25.797 -38.476  1.00  0.00    -0.550 OA
ENDBRANCH   8   9
ENDBRANCH   7   8
ENDBRANCH   6   7
ENDBRANCH   5   6
ENDBRANCH   4   5
ENDBRANCH   3   4
ENDBRANCH   2   3
ENDBRANCH   1   2
BRANCH   1  12
ATOM     12  C   UNL     1     -28.960 -20.619 -33.122  1.00  0.00     0.000 C 
BRANCH  12  13
ATOM     13  C   UNL     1     -28.453 -19.176 -32.978  1.00  0.00    -0.000 C 
BRANCH  13  14
ATOM     14  C   UNL     1     -27.920 -18.875 -31.565  1.00  0.00    -0.000 C 
BRANCH  14  15
ATOM     15  C   UNL     1     -28.842 -19.408 -30.455  1.00  0.00    -0.000 C 
BRANCH  15  16
ATOM     16  C   UNL     1     -30.289 -18.875 -30.498  1.00  0.00    -0.000 C 
BRANCH  16  17
ATOM     17  C   UNL     1     -31.380 -19.920 -30.198  1.00  0.00    -0.000 C 
BRANCH  17  18
ATOM     18  C   UNL     1     -31.050 -20.795 -28.981  1.00  0.00    -0.000 C 
BRANCH  18  19
ATOM     19  C   UNL     1     -30.453 -22.138 -29.418  1.00  0.00    -0.003 C 
ATOM     20  C   UNL     1     -31.014 -22.579 -30.767  1.00  0.00     0.004 C 
ENDBRANCH  18  19
ENDBRANCH  17  18
ENDBRANCH  16  17
ENDBRANCH  15  16
ENDBRANCH  14  15
ENDBRANCH  13  14
ENDBRANCH  12  13
ENDBRANCH   1  12
TORSDOF 16
ENDMDL
MODEL 5
REMARK VINA RESULT:    -2.414      3.395      7.851
REMARK INTER + INTRA:          -5.540
REMARK INTER:                  -4.143
REMARK INTRA:                  -1.397
REMARK UNBOUND:                -0.869
REMARK SMILES CCCCCCCCCCCCCCCCCC(=O)[O-]
REMARK SMILES IDX 10 1 11 2 12 3 13 4 14 5 15 6 16 7 17 8 18 9 19 10 20 11
REMARK SMILES IDX 9 12 8 13 7 14 6 15 5 16 4 17 3 18 2 19 1 20
REMARK H PARENT
REMARK Flexibility Score: inf
ROOT
ATOM      1  C   UNL     1     -30.807 -21.519 -34.821  1.00  0.00     0.000 C 
ENDROOT
BRANCH   1   2
ATOM      2  C   UNL     1     -32.166 -22.218 -34.676  1.00  0.00     0.000 C 
BRANCH   2   3
ATOM      3  C   UNL     1     -33.347 -21.319 -35.085  1.00  0.00     0.000 C 
BRANCH   3   4
ATOM      4  C   UNL     1     -33.988 -21.659 -36.445  1.00  0.00     0.000 C 
BRANCH   4   5
ATOM      5  C   UNL     1     -33.772 -20.608 -37.549  1.00  0.00     0.000 C 
BRANCH   5   6
ATOM      6  C   UNL     1     -33.367 -21.230 -38.893  1.00  0.00     0.000 C 
BRANCH   6   7
ATOM      7  C   UNL     1     -32.101 -22.086 -38.742  1.00  0.00     0.006 C 
BRANCH   7   8
ATOM      8  C   UNL     1     -32.341 -23.553 -39.125  1.00  0.00     0.053 C 
BRANCH   8   9
ATOM      9  C   UNL     1     -31.764 -24.493 -38.112  1.00  0.00     0.041 C 
ATOM     10  O   UNL     1     -32.167 -25.685 -38.052  1.00  0.00    -0.550 OA
ATOM     11  O   UNL     1     -30.806 -24.045 -37.211  1.00  0.00    -0.550 OA
ENDBRANCH   8   9
ENDBRANCH   7   8
ENDBRANCH   6   7
ENDBRANCH   5   6
ENDBRANCH   4   5
ENDBRANCH   3   4
ENDBRANCH   2   3
ENDBRANCH   1   2
BRANCH   1  12
ATOM     12  C   UNL     1     -30.284 -21.048 -33.455  1.00  0.00     0.000 C 
BRANCH  12  13
ATOM     13  C   UNL     1     -30.247 -19.517 -33.334  1.00  0.00    -0.000 C 
BRANCH  13  14
ATOM     14  C   UNL     1     -31.641 -18.909 -33.095  1.00  0.00    -0.000 C 
BRANCH  14  15
ATOM     15  C   UNL     1     -32.114 -19.060 -31.639  1.00  0.00    -0.000 C 
BRANCH  15  16
ATOM     16  C   UNL     1     -30.988 -19.274 -30.606  1.00  0.00    -0.000 C 
BRANCH  16  17
ATOM     17  C   UNL     1     -31.367 -20.149 -29.396  1.00  0.00    -0.000 C 
BRANCH  17  18
ATOM     18  C   UNL     1     -30.525 -21.429 -29.299  1.00  0.00    -0.000 C 
BRANCH  18  19
ATOM     19  C   UNL     1     -30.627 -22.251 -30.588  1.00  0.00    -0.003 C 
ATOM     20  C   UNL     1     -31.362 -23.567 -30.348  1.00  0.00     0.004 C 
ENDBRANCH  18  19
ENDBRANCH  17  18
ENDBRANCH  16  17
ENDBRANCH  15  16
ENDBRANCH  14  15
ENDBRANCH  13  14
ENDBRANCH  12  13
ENDBRANCH   1  12
TORSDOF 16
ENDMDL
MODEL 6
REMARK VINA RESULT:    -1.821      1.758      2.353
REMARK INTER + INTRA:          -4.393
REMARK INTER:                  -3.766
REMARK INTRA:                  -0.627
REMARK UNBOUND:                -0.869
REMARK SMILES CCCCCCCCCCCCCCCCCC(=O)[O-]
REMARK SMILES IDX 10 1 11 2 12 3 13 4 14 5 15 6 16 7 17 8 18 9 19 10 20 11
REMARK SMILES IDX 9 12 8 13 7 14 6 15 5 16 4 17 3 18 2 19 1 20
REMARK H PARENT
REMARK Flexibility Score: inf
ROOT
ATOM      1  C   UNL     1     -31.092 -21.325 -34.848  1.00  0.00     0.000 C 
ENDROOT
BRANCH   1   2
ATOM      2  C   UNL     1     -30.622 -21.070 -33.408  1.00  0.00     0.000 C 
BRANCH   2   3
ATOM      3  C   UNL     1     -30.570 -19.573 -33.053  1.00  0.00     0.000 C 
BRANCH   3   4
ATOM      4  C   UNL     1     -31.905 -18.967 -32.577  1.00  0.00     0.000 C 
BRANCH   4   5
ATOM      5  C   UNL     1     -32.232 -19.196 -31.090  1.00  0.00     0.000 C 
BRANCH   5   6
ATOM      6  C   UNL     1     -31.011 -19.017 -30.177  1.00  0.00     0.000 C 
BRANCH   6   7
ATOM      7  C   UNL     1     -30.083 -20.238 -30.255  1.00  0.00     0.006 C 
BRANCH   7   8
ATOM      8  C   UNL     1     -30.475 -21.332 -29.253  1.00  0.00     0.053 C 
BRANCH   8   9
ATOM      9  C   UNL     1     -29.382 -21.597 -28.263  1.00  0.00     0.041 C 
ATOM     10  O   UNL     1     -28.340 -20.890 -28.266  1.00  0.00    -0.550 OA
ATOM     11  O   UNL     1     -29.499 -22.646 -27.360  1.00  0.00    -0.550 OA
ENDBRANCH   8   9
ENDBRANCH   7   8
ENDBRANCH   6   7
ENDBRANCH   5   6
ENDBRANCH   4   5
ENDBRANCH   3   4
ENDBRANCH   2   3
ENDBRANCH   1   2
BRANCH   1  12
ATOM     12  C   UNL     1     -32.483 -21.979 -34.864  1.00  0.00     0.000 C 
BRANCH  12  13
ATOM     13  C   UNL     1     -33.514 -21.153 -35.649  1.00  0.00    -0.000 C 
BRANCH  13  14
ATOM     14  C   UNL     1     -34.125 -21.936 -36.825  1.00  0.00    -0.000 C 
BRANCH  14  15
ATOM     15  C   UNL     1     -33.589 -21.472 -38.190  1.00  0.00    -0.000 C 
BRANCH  15  16
ATOM     16  C   UNL     1     -32.747 -22.518 -38.951  1.00  0.00    -0.000 C 
BRANCH  16  17
ATOM     17  C   UNL     1     -31.603 -23.153 -38.138  1.00  0.00    -0.000 C 
BRANCH  17  18
ATOM     18  C   UNL     1     -31.900 -24.600 -37.722  1.00  0.00    -0.000 C 
BRANCH  18  19
ATOM     19  C   UNL     1     -32.310 -25.446 -38.932  1.00  0.00    -0.003 C 
ATOM     20  C   UNL     1     -32.710 -26.857 -38.511  1.00  0.00     0.004 C 
ENDBRANCH  18  19
ENDBRANCH  17  18
ENDBRANCH  16  17
ENDBRANCH  15  16
ENDBRANCH  14  15
ENDBRANCH  13  14
ENDBRANCH  12  13
ENDBRANCH   1  12
TORSDOF 16
ENDMDL
MODEL 7
REMARK VINA RESULT:    -1.316      3.795      8.791
REMARK INTER + INTRA:          -3.415
REMARK INTER:                  -2.617
REMARK INTRA:                  -0.798
REMARK UNBOUND:                -0.869
REMARK SMILES CCCCCCCCCCCCCCCCCC(=O)[O-]
REMARK SMILES IDX 10 1 11 2 12 3 13 4 14 5 15 6 16 7 17 8 18 9 19 10 20 11
REMARK SMILES IDX 9 12 8 13 7 14 6 15 5 16 4 17 3 18 2 19 1 20
REMARK H PARENT
REMARK Flexibility Score: inf
ROOT
ATOM      1  C   UNL     1     -30.471 -21.424 -33.057  1.00  0.00     0.000 C 
ENDROOT
BRANCH   1   2
ATOM      2  C   UNL     1     -31.578 -21.904 -34.006  1.00  0.00     0.000 C 
BRANCH   2   3
ATOM      3  C   UNL     1     -31.214 -21.720 -35.490  1.00  0.00     0.000 C 
BRANCH   3   4
ATOM      4  C   UNL     1     -31.915 -22.690 -36.461  1.00  0.00     0.000 C 
BRANCH   4   5
ATOM      5  C   UNL     1     -31.919 -22.248 -37.936  1.00  0.00     0.000 C 
BRANCH   5   6
ATOM      6  C   UNL     1     -32.470 -23.327 -38.880  1.00  0.00     0.000 C 
BRANCH   6   7
ATOM      7  C   UNL     1     -32.572 -24.682 -38.164  1.00  0.00     0.006 C 
BRANCH   7   8
ATOM      8  C   UNL     1     -32.382 -25.863 -39.125  1.00  0.00     0.053 C 
BRANCH   8   9
ATOM      9  C   UNL     1     -32.734 -27.168 -38.478  1.00  0.00     0.041 C 
ATOM     10  O   UNL     1     -32.373 -28.254 -39.004  1.00  0.00    -0.550 OA
ATOM     11  O   UNL     1     -33.490 -27.186 -37.313  1.00  0.00    -0.550 OA
ENDBRANCH   8   9
ENDBRANCH   7   8
ENDBRANCH   6   7
ENDBRANCH   5   6
ENDBRANCH   4   5
ENDBRANCH   3   4
ENDBRANCH   2   3
ENDBRANCH   1   2
BRANCH   1  12
ATOM     12  C   UNL     1     -29.871 -20.094 -33.541  1.00  0.00     0.000 C 
BRANCH  12  13
ATOM     13  C   UNL     1     -30.521 -18.875 -32.869  1.00  0.00    -0.000 C 
BRANCH  13  14
ATOM     14  C   UNL     1     -32.057 -18.895 -32.967  1.00  0.00    -0.000 C 
BRANCH  14  15
ATOM     15  C   UNL     1     -32.741 -18.888 -31.589  1.00  0.00    -0.000 C 
BRANCH  15  16
ATOM     16  C   UNL     1     -31.779 -18.877 -30.382  1.00  0.00    -0.000 C 
BRANCH  16  17
ATOM     17  C   UNL     1     -31.275 -20.262 -29.935  1.00  0.00    -0.000 C 
BRANCH  17  18
ATOM     18  C   UNL     1     -29.749 -20.320 -29.777  1.00  0.00    -0.000 C 
BRANCH  18  19
ATOM     19  C   UNL     1     -29.126 -18.933 -29.970  1.00  0.00    -0.003 C 
ATOM     20  C   UNL     1     -27.789 -19.026 -30.701  1.00  0.00     0.004 C 
ENDBRANCH  18  19
ENDBRANCH  17  18
ENDBRANCH  16  17
ENDBRANCH  15  16
ENDBRANCH  14  15
ENDBRANCH  13  14
ENDBRANCH  12  13
ENDBRANCH   1  12
TORSDOF 16
ENDMDL
