MODEL 1
REMARK VINA RESULT:    -4.274      0.000      0.000
REMARK INTER + INTRA:          -4.524
REMARK INTER:                  -4.524
REMARK INTRA:                   0.000
REMARK UNBOUND:                 0.000
REMARK SMILES Cc1cc(O)c(C)c(C)c1O
REMARK SMILES IDX 1 1 2 2 3 3 4 4 6 5 8 6 10 7 9 8 7 9 11 10 5 12
REMARK H PARENT 11 11 5 13
REMARK Flexibility Score: inf
ROOT
ATOM      1  C   UNL     1      34.124  -7.603 -23.655  1.00  0.00     0.048 C 
ATOM      2  C   UNL     1      32.710  -7.228 -24.007  1.00  0.00    -0.005 A 
ATOM      3  C   UNL     1      32.033  -7.960 -24.988  1.00  0.00     0.053 A 
ATOM      4  C   UNL     1      30.727  -7.641 -25.353  1.00  0.00     0.119 A 
ATOM      5  C   UNL     1      30.066  -6.547 -24.747  1.00  0.00    -0.003 A 
ATOM      6  C   UNL     1      30.720  -5.835 -23.704  1.00  0.00    -0.002 A 
ATOM      7  C   UNL     1      32.051  -6.163 -23.356  1.00  0.00     0.121 A 
ATOM      8  C   UNL     1      30.017  -4.711 -22.975  1.00  0.00     0.049 C 
ATOM      9  C   UNL     1      28.670  -6.182 -25.204  1.00  0.00     0.049 C 
ENDROOT
BRANCH   7  10
ATOM     10  O   UNL     1      32.700  -5.419 -22.365  1.00  0.00    -0.507 OA
ATOM     11  H   UNL     1      33.433  -4.749 -22.559  1.00  0.00     0.293 HD
ENDBRANCH   7  10
BRANCH   4  12
ATOM     12  O   UNL     1      30.112  -8.442 -26.320  1.00  0.00    -0.508 OA
ATOM     13  H   UNL     1      30.425  -9.373 -26.559  1.00  0.00     0.293 HD
ENDBRANCH   4  12
TORSDOF 2
ENDMDL
MODEL 2
REMARK VINA RESULT:    -4.239      1.268      3.228
REMARK INTER + INTRA:          -4.486
REMARK INTER:                  -4.486
REMARK INTRA:                   0.000
REMARK UNBOUND:                 0.000
REMARK SMILES Cc1cc(O)c(C)c(C)c1O
REMARK SMILES IDX 1 1 2 2 3 3 4 4 6 5 8 6 10 7 9 8 7 9 11 10 5 12
REMARK H PARENT 11 11 5 13
REMARK Flexibility Score: inf
ROOT
ATOM      1  C   UNL     1      28.307  -6.255 -24.767  1.00  0.00     0.048 C 
ATOM      2  C   UNL     1      29.758  -6.535 -24.482  1.00  0.00    -0.005 A 
ATOM      3  C   UNL     1      30.388  -7.603 -25.130  1.00  0.00     0.053 A 
ATOM      4  C   UNL     1      31.727  -7.906 -24.887  1.00  0.00     0.119 A 
ATOM      5  C   UNL     1      32.470  -7.144 -23.956  1.00  0.00    -0.003 A 
ATOM      6  C   UNL     1      31.860  -6.017 -23.338  1.00  0.00    -0.002 A 
ATOM      7  C   UNL     1      30.496  -5.733 -23.585  1.00  0.00     0.121 A 
ATOM      8  C   UNL     1      32.644  -5.129 -22.398  1.00  0.00     0.049 C 
ATOM      9  C   UNL     1      33.905  -7.529 -23.663  1.00  0.00     0.049 C 
ENDROOT
BRANCH   7  10
ATOM     10  O   UNL     1      29.894  -4.654 -22.929  1.00  0.00    -0.507 OA
ATOM     11  H   UNL     1      28.903  -4.455 -22.974  1.00  0.00     0.293 HD
ENDBRANCH   7  10
BRANCH   4  12
ATOM     12  O   UNL     1      32.288  -8.969 -25.599  1.00  0.00    -0.508 OA
ATOM     13  H   UNL     1      32.844  -8.853 -26.435  1.00  0.00     0.293 HD
ENDBRANCH   4  12
TORSDOF 2
ENDMDL
MODEL 3
REMARK VINA RESULT:    -4.178      1.796      2.952
REMARK INTER + INTRA:          -4.422
REMARK INTER:                  -4.422
REMARK INTRA:                   0.000
REMARK UNBOUND:                 0.000
REMARK SMILES Cc1cc(O)c(C)c(C)c1O
REMARK SMILES IDX 1 1 2 2 3 3 4 4 6 5 8 6 10 7 9 8 7 9 11 10 5 12
REMARK H PARENT 11 11 5 13
REMARK Flexibility Score: inf
ROOT
ATOM      1  C   UNL     1      33.098  -4.781 -21.522  1.00  0.00     0.048 C 
ATOM      2  C   UNL     1      32.214  -5.518 -22.493  1.00  0.00    -0.005 A 
ATOM      3  C   UNL     1      30.940  -5.014 -22.774  1.00  0.00     0.053 A 
ATOM      4  C   UNL     1      30.083  -5.669 -23.657  1.00  0.00     0.119 A 
ATOM      5  C   UNL     1      30.486  -6.877 -24.273  1.00  0.00    -0.003 A 
ATOM      6  C   UNL     1      31.803  -7.366 -24.045  1.00  0.00    -0.002 A 
ATOM      7  C   UNL     1      32.653  -6.696 -23.134  1.00  0.00     0.121 A 
ATOM      8  C   UNL     1      32.300  -8.610 -24.747  1.00  0.00     0.049 C 
ATOM      9  C   UNL     1      29.517  -7.603 -25.181  1.00  0.00     0.049 C 
ENDROOT
BRANCH   7  10
ATOM     10  O   UNL     1      33.926  -7.218 -22.879  1.00  0.00    -0.507 OA
ATOM     11  H   UNL     1      34.441  -7.782 -23.542  1.00  0.00     0.293 HD
ENDBRANCH   7  10
BRANCH   4  12
ATOM     12  O   UNL     1      28.839  -5.083 -23.906  1.00  0.00    -0.508 OA
ATOM     13  H   UNL     1      27.985  -5.364 -23.443  1.00  0.00     0.293 HD
ENDBRANCH   4  12
TORSDOF 2
ENDMDL
MODEL 4
REMARK VINA RESULT:    -4.144      2.927      4.016
REMARK INTER + INTRA:          -4.386
REMARK INTER:                  -4.386
REMARK INTRA:                   0.000
REMARK UNBOUND:                 0.000
REMARK SMILES Cc1cc(O)c(C)c(C)c1O
REMARK SMILES IDX 1 1 2 2 3 3 4 4 6 5 8 6 10 7 9 8 7 9 11 10 5 12
REMARK H PARENT 11 11 5 13
REMARK Flexibility Score: inf
ROOT
ATOM      1  C   UNL     1      33.935  -4.218 -19.905  1.00  0.00     0.048 C 
ATOM      2  C   UNL     1      33.539  -4.748 -21.256  1.00  0.00    -0.005 A 
ATOM      3  C   UNL     1      33.782  -3.971 -22.394  1.00  0.00     0.053 A 
ATOM      4  C   UNL     1      33.422  -4.418 -23.663  1.00  0.00     0.119 A 
ATOM      5  C   UNL     1      32.778  -5.667 -23.821  1.00  0.00    -0.003 A 
ATOM      6  C   UNL     1      32.582  -6.494 -22.681  1.00  0.00    -0.002 A 
ATOM      7  C   UNL     1      32.941  -6.019 -21.398  1.00  0.00     0.121 A 
ATOM      8  C   UNL     1      31.970  -7.871 -22.818  1.00  0.00     0.049 C 
ATOM      9  C   UNL     1      32.340  -6.104 -25.203  1.00  0.00     0.049 C 
ENDROOT
BRANCH   7  10
ATOM     10  O   UNL     1      32.693  -6.821 -20.279  1.00  0.00    -0.507 OA
ATOM     11  H   UNL     1      33.414  -7.336 -19.790  1.00  0.00     0.293 HD
ENDBRANCH   7  10
BRANCH   4  12
ATOM     12  O   UNL     1      33.728  -3.593 -24.750  1.00  0.00    -0.508 OA
ATOM     13  H   UNL     1      33.628  -3.878 -25.715  1.00  0.00     0.293 HD
ENDBRANCH   4  12
TORSDOF 2
ENDMDL
MODEL 5
REMARK VINA RESULT:    -4.114      1.485      4.130
REMARK INTER + INTRA:          -4.354
REMARK INTER:                  -4.354
REMARK INTRA:                   0.000
REMARK UNBOUND:                 0.000
REMARK SMILES Cc1cc(O)c(C)c(C)c1O
REMARK SMILES IDX 1 1 2 2 3 3 4 4 6 5 8 6 10 7 9 8 7 9 11 10 5 12
REMARK H PARENT 11 11 5 13
REMARK Flexibility Score: inf
ROOT
ATOM      1  C   UNL     1      29.288  -3.641 -23.577  1.00  0.00     0.048 C 
ATOM      2  C   UNL     1      30.056  -4.934 -23.632  1.00  0.00    -0.005 A 
ATOM      3  C   UNL     1      31.008  -5.205 -22.643  1.00  0.00     0.053 A 
ATOM      4  C   UNL     1      31.751  -6.384 -22.660  1.00  0.00     0.119 A 
ATOM      5  C   UNL     1      31.568  -7.324 -23.701  1.00  0.00    -0.003 A 
ATOM      6  C   UNL     1      30.559  -7.090 -24.676  1.00  0.00    -0.002 A 
ATOM      7  C   UNL     1      29.825  -5.882 -24.651  1.00  0.00     0.121 A 
ATOM      8  C   UNL     1      30.276  -8.109 -25.758  1.00  0.00     0.049 C 
ATOM      9  C   UNL     1      32.429  -8.569 -23.733  1.00  0.00     0.049 C 
ENDROOT
BRANCH   7  10
ATOM     10  O   UNL     1      28.872  -5.641 -25.648  1.00  0.00    -0.507 OA
ATOM     11  H   UNL     1      27.915  -5.376 -25.454  1.00  0.00     0.293 HD
ENDBRANCH   7  10
BRANCH   4  12
ATOM     12  O   UNL     1      32.660  -6.591 -21.619  1.00  0.00    -0.508 OA
ATOM     13  H   UNL     1      33.160  -5.845 -21.154  1.00  0.00     0.293 HD
ENDBRANCH   4  12
TORSDOF 2
ENDMDL
MODEL 6
REMARK VINA RESULT:    -4.114     16.328     18.307
REMARK INTER + INTRA:          -4.354
REMARK INTER:                  -4.354
REMARK INTRA:                   0.000
REMARK UNBOUND:                 0.000
REMARK SMILES Cc1cc(O)c(C)c(C)c1O
REMARK SMILES IDX 1 1 2 2 3 3 4 4 6 5 8 6 10 7 9 8 7 9 11 10 5 12
REMARK H PARENT 11 11 5 13
REMARK Flexibility Score: inf
ROOT
ATOM      1  C   UNL     1      19.478   5.926 -34.472  1.00  0.00     0.048 C 
ATOM      2  C   UNL     1      20.661   6.052 -33.551  1.00  0.00    -0.005 A 
ATOM      3  C   UNL     1      21.590   7.075 -33.768  1.00  0.00     0.053 A 
ATOM      4  C   UNL     1      22.707   7.223 -32.948  1.00  0.00     0.119 A 
ATOM      5  C   UNL     1      22.932   6.318 -31.884  1.00  0.00    -0.003 A 
ATOM      6  C   UNL     1      21.962   5.313 -31.613  1.00  0.00    -0.002 A 
ATOM      7  C   UNL     1      20.843   5.168 -32.466  1.00  0.00     0.121 A 
ATOM      8  C   UNL     1      22.125   4.376 -30.437  1.00  0.00     0.049 C 
ATOM      9  C   UNL     1      24.183   6.461 -31.044  1.00  0.00     0.049 C 
ENDROOT
BRANCH   7  10
ATOM     10  O   UNL     1      19.925   4.141 -32.219  1.00  0.00    -0.507 OA
ATOM     11  H   UNL     1      19.273   3.797 -32.912  1.00  0.00     0.293 HD
ENDBRANCH   7  10
BRANCH   4  12
ATOM     12  O   UNL     1      23.569   8.290 -33.215  1.00  0.00    -0.508 OA
ATOM     13  H   UNL     1      23.699   9.076 -32.591  1.00  0.00     0.293 HD
ENDBRANCH   4  12
TORSDOF 2
ENDMDL
MODEL 7
REMARK VINA RESULT:    -4.111      2.707      3.545
REMARK INTER + INTRA:          -4.351
REMARK INTER:                  -4.351
REMARK INTRA:                   0.000
REMARK UNBOUND:                 0.000
REMARK SMILES Cc1cc(O)c(C)c(C)c1O
REMARK SMILES IDX 1 1 2 2 3 3 4 4 6 5 8 6 10 7 9 8 7 9 11 10 5 12
REMARK H PARENT 11 11 5 13
REMARK Flexibility Score: inf
ROOT
ATOM      1  C   UNL     1      33.774  -3.852 -21.591  1.00  0.00     0.048 C 
ATOM      2  C   UNL     1      33.361  -4.998 -22.473  1.00  0.00    -0.005 A 
ATOM      3  C   UNL     1      32.837  -6.156 -21.888  1.00  0.00     0.053 A 
ATOM      4  C   UNL     1      32.451  -7.246 -22.665  1.00  0.00     0.119 A 
ATOM      5  C   UNL     1      32.606  -7.208 -24.071  1.00  0.00    -0.003 A 
ATOM      6  C   UNL     1      33.078  -6.013 -24.683  1.00  0.00    -0.002 A 
ATOM      7  C   UNL     1      33.479  -4.922 -23.877  1.00  0.00     0.121 A 
ATOM      8  C   UNL     1      33.182  -5.903 -26.188  1.00  0.00     0.049 C 
ATOM      9  C   UNL     1      32.238  -8.427 -24.889  1.00  0.00     0.049 C 
ENDROOT
BRANCH   7  10
ATOM     10  O   UNL     1      33.991  -3.773 -24.490  1.00  0.00    -0.507 OA
ATOM     11  H   UNL     1      33.416  -3.089 -24.965  1.00  0.00     0.293 HD
ENDBRANCH   7  10
BRANCH   4  12
ATOM     12  O   UNL     1      31.909  -8.352 -22.005  1.00  0.00    -0.508 OA
ATOM     13  H   UNL     1      32.404  -9.224 -21.871  1.00  0.00     0.293 HD
ENDBRANCH   4  12
TORSDOF 2
ENDMDL
MODEL 8
REMARK VINA RESULT:    -4.089      2.229      2.885
REMARK INTER + INTRA:          -4.328
REMARK INTER:                  -4.328
REMARK INTRA:                   0.000
REMARK UNBOUND:                 0.000
REMARK SMILES Cc1cc(O)c(C)c(C)c1O
REMARK SMILES IDX 1 1 2 2 3 3 4 4 6 5 8 6 10 7 9 8 7 9 11 10 5 12
REMARK H PARENT 11 11 5 13
REMARK Flexibility Score: inf
ROOT
ATOM      1  C   UNL     1      31.884  -8.357 -23.575  1.00  0.00     0.048 C 
ATOM      2  C   UNL     1      30.973  -7.580 -24.487  1.00  0.00    -0.005 A 
ATOM      3  C   UNL     1      29.601  -7.549 -24.217  1.00  0.00     0.053 A 
ATOM      4  C   UNL     1      28.719  -6.852 -25.040  1.00  0.00     0.119 A 
ATOM      5  C   UNL     1      29.200  -6.176 -26.186  1.00  0.00    -0.003 A 
ATOM      6  C   UNL     1      30.600  -6.146 -26.436  1.00  0.00    -0.002 A 
ATOM      7  C   UNL     1      31.479  -6.871 -25.598  1.00  0.00     0.121 A 
ATOM      8  C   UNL     1      31.162  -5.367 -27.604  1.00  0.00     0.049 C 
ATOM      9  C   UNL     1      28.216  -5.476 -27.099  1.00  0.00     0.049 C 
ENDROOT
BRANCH   7  10
ATOM     10  O   UNL     1      32.848  -6.877 -25.887  1.00  0.00    -0.507 OA
ATOM     11  H   UNL     1      33.220  -6.886 -26.828  1.00  0.00     0.293 HD
ENDBRANCH   7  10
BRANCH   4  12
ATOM     12  O   UNL     1      27.368  -6.846 -24.683  1.00  0.00    -0.508 OA
ATOM     13  H   UNL     1      27.038  -6.689 -23.740  1.00  0.00     0.293 HD
ENDBRANCH   4  12
TORSDOF 2
ENDMDL
MODEL 9
REMARK VINA RESULT:    -4.048      2.205      2.745
REMARK INTER + INTRA:          -4.285
REMARK INTER:                  -4.285
REMARK INTRA:                   0.000
REMARK UNBOUND:                 0.000
REMARK SMILES Cc1cc(O)c(C)c(C)c1O
REMARK SMILES IDX 1 1 2 2 3 3 4 4 6 5 8 6 10 7 9 8 7 9 11 10 5 12
REMARK H PARENT 11 11 5 13
REMARK Flexibility Score: inf
ROOT
ATOM      1  C   UNL     1      31.572  -8.943 -22.169  1.00  0.00     0.048 C 
ATOM      2  C   UNL     1      32.004  -7.698 -22.896  1.00  0.00    -0.005 A 
ATOM      3  C   UNL     1      31.886  -7.645 -24.288  1.00  0.00     0.053 A 
ATOM      4  C   UNL     1      32.285  -6.517 -25.004  1.00  0.00     0.119 A 
ATOM      5  C   UNL     1      32.841  -5.406 -24.328  1.00  0.00    -0.003 A 
ATOM      6  C   UNL     1      32.908  -5.423 -22.907  1.00  0.00    -0.002 A 
ATOM      7  C   UNL     1      32.512  -6.582 -22.198  1.00  0.00     0.121 A 
ATOM      8  C   UNL     1      33.421  -4.224 -22.141  1.00  0.00     0.049 C 
ATOM      9  C   UNL     1      33.323  -4.217 -25.131  1.00  0.00     0.049 C 
ENDROOT
BRANCH   7  10
ATOM     10  O   UNL     1      32.634  -6.604 -20.804  1.00  0.00    -0.507 OA
ATOM     11  H   UNL     1      32.440  -5.805 -20.214  1.00  0.00     0.293 HD
ENDBRANCH   7  10
BRANCH   4  12
ATOM     12  O   UNL     1      32.104  -6.533 -26.390  1.00  0.00    -0.508 OA
ATOM     13  H   UNL     1      32.844  -6.348 -27.053  1.00  0.00     0.293 HD
ENDBRANCH   4  12
TORSDOF 2
ENDMDL
