MODEL 1
REMARK VINA RESULT:    -6.063      0.000      0.000
REMARK INTER + INTRA:          -7.524
REMARK INTER:                  -7.303
REMARK INTRA:                  -0.221
REMARK UNBOUND:                -0.221
REMARK SMILES Oc1cc(O)c2cc(O)c(-c3ccc(O)c(O)c3)[o+]c2c1.[Cl-]
REMARK SMILES IDX 10 1 19 2 20 3 21 4 2 5 3 6 4 7 6 8 7 9 8 10 11 11 12 12
REMARK SMILES IDX 13 13 14 14 18 15 16 16 15 17 17 19 9 21 1 23 5 25
REMARK H PARENT 15 18 17 20 9 22 1 24 5 26
REMARK Flexibility Score: inf
ROOT
ATOM      1  C   UNL     1      55.885 -40.737 -25.991  1.00  0.00     0.402 A 
ATOM      2  O   UNL     1      55.807 -40.031 -27.119  1.00  0.00    -0.202 OA
ATOM      3  C   UNL     1      56.046 -40.549 -28.320  1.00  0.00     0.368 A 
ATOM      4  C   UNL     1      55.947 -39.739 -29.455  1.00  0.00     0.162 A 
ATOM      5  C   UNL     1      56.200 -40.273 -30.725  1.00  0.00     0.128 A 
ATOM      6  C   UNL     1      56.553 -41.620 -30.858  1.00  0.00     0.093 A 
ATOM      7  C   UNL     1      56.655 -42.445 -29.728  1.00  0.00     0.136 A 
ATOM      8  C   UNL     1      56.401 -41.909 -28.451  1.00  0.00     0.125 A 
ATOM      9  C   UNL     1      56.480 -42.686 -27.291  1.00  0.00     0.078 A 
ATOM     10  C   UNL     1      56.212 -42.106 -26.047  1.00  0.00     0.223 A 
ENDROOT
BRANCH   1  11
ATOM     11  C   UNL     1      55.605 -40.045 -24.713  1.00  0.00     0.087 A 
ATOM     12  C   UNL     1      56.518 -39.097 -24.225  1.00  0.00     0.022 A 
ATOM     13  C   UNL     1      56.284 -38.446 -23.011  1.00  0.00     0.051 A 
ATOM     14  C   UNL     1      55.142 -38.744 -22.258  1.00  0.00     0.157 A 
ATOM     15  C   UNL     1      54.469 -40.356 -23.944  1.00  0.00     0.068 A 
ATOM     16  C   UNL     1      54.233 -39.707 -22.726  1.00  0.00     0.158 A 
BRANCH  14  17
ATOM     17  O   UNL     1      54.909 -38.092 -21.048  1.00  0.00    -0.504 OA
ATOM     18  H   UNL     1      54.593 -37.129 -21.018  1.00  0.00     0.293 HD
ENDBRANCH  14  17
BRANCH  16  19
ATOM     19  O   UNL     1      53.093 -40.038 -21.993  1.00  0.00    -0.504 OA
ATOM     20  H   UNL     1      53.049 -40.866 -21.410  1.00  0.00     0.293 HD
ENDBRANCH  16  19
ENDBRANCH   1  11
BRANCH  10  21
ATOM     21  O   UNL     1      56.239 -42.887 -24.891  1.00  0.00    -0.500 OA
ATOM     22  H   UNL     1      56.769 -43.749 -24.846  1.00  0.00     0.294 HD
ENDBRANCH  10  21
BRANCH   5  23
ATOM     23  O   UNL     1      56.103 -39.473 -31.862  1.00  0.00    -0.507 OA
ATOM     24  H   UNL     1      55.310 -38.862 -32.013  1.00  0.00     0.293 HD
ENDBRANCH   5  23
BRANCH   7  25
ATOM     25  O   UNL     1      57.007 -43.787 -29.875  1.00  0.00    -0.507 OA
ATOM     26  H   UNL     1      57.892 -44.062 -30.285  1.00  0.00     0.293 HD
ENDBRANCH   7  25
TORSDOF 6
ENDMDL
MODEL 2
REMARK VINA RESULT:    -5.778     15.751     17.085
REMARK INTER + INTRA:          -7.181
REMARK INTER:                  -6.894
REMARK INTRA:                  -0.287
REMARK UNBOUND:                -0.221
REMARK SMILES Oc1cc(O)c2cc(O)c(-c3ccc(O)c(O)c3)[o+]c2c1.[Cl-]
REMARK SMILES IDX 10 1 19 2 20 3 21 4 2 5 3 6 4 7 6 8 7 9 8 10 11 11 12 12
REMARK SMILES IDX 13 13 14 14 18 15 16 16 15 17 17 19 9 21 1 23 5 25
REMARK H PARENT 15 18 17 20 9 22 1 24 5 26
REMARK Flexibility Score: inf
ROOT
ATOM      1  C   UNL     1      45.241 -28.196 -30.223  1.00  0.00     0.402 A 
ATOM      2  O   UNL     1      46.000 -28.529 -31.267  1.00  0.00    -0.202 OA
ATOM      3  C   UNL     1      47.252 -28.108 -31.421  1.00  0.00     0.368 A 
ATOM      4  C   UNL     1      47.981 -28.500 -32.547  1.00  0.00     0.162 A 
ATOM      5  C   UNL     1      49.299 -28.060 -32.722  1.00  0.00     0.128 A 
ATOM      6  C   UNL     1      49.888 -27.225 -31.767  1.00  0.00     0.093 A 
ATOM      7  C   UNL     1      49.170 -26.824 -30.630  1.00  0.00     0.136 A 
ATOM      8  C   UNL     1      47.845 -27.266 -30.454  1.00  0.00     0.125 A 
ATOM      9  C   UNL     1      47.083 -26.905 -29.337  1.00  0.00     0.078 A 
ATOM     10  C   UNL     1      45.773 -27.377 -29.207  1.00  0.00     0.223 A 
ENDROOT
BRANCH   1  11
ATOM     11  C   UNL     1      43.858 -28.721 -30.168  1.00  0.00     0.087 A 
ATOM     12  C   UNL     1      42.862 -28.127 -30.959  1.00  0.00     0.022 A 
ATOM     13  C   UNL     1      41.546 -28.593 -30.909  1.00  0.00     0.051 A 
ATOM     14  C   UNL     1      41.202 -29.650 -30.057  1.00  0.00     0.157 A 
ATOM     15  C   UNL     1      43.505 -29.769 -29.300  1.00  0.00     0.068 A 
ATOM     16  C   UNL     1      42.187 -30.237 -29.245  1.00  0.00     0.158 A 
BRANCH  14  17
ATOM     17  O   UNL     1      39.889 -30.115 -30.011  1.00  0.00    -0.504 OA
ATOM     18  H   UNL     1      39.577 -30.880 -30.598  1.00  0.00     0.293 HD
ENDBRANCH  14  17
BRANCH  16  19
ATOM     19  O   UNL     1      41.875 -31.281 -28.375  1.00  0.00    -0.504 OA
ATOM     20  H   UNL     1      42.572 -31.948 -28.063  1.00  0.00     0.293 HD
ENDBRANCH  16  19
ENDBRANCH   1  11
BRANCH  10  21
ATOM     21  O   UNL     1      45.026 -27.063 -28.072  1.00  0.00    -0.500 OA
ATOM     22  H   UNL     1      44.870 -26.103 -27.788  1.00  0.00     0.294 HD
ENDBRANCH  10  21
BRANCH   5  23
ATOM     23  O   UNL     1      50.033 -28.446 -33.842  1.00  0.00    -0.507 OA
ATOM     24  H   UNL     1      49.630 -28.426 -34.771  1.00  0.00     0.293 HD
ENDBRANCH   5  23
BRANCH   7  25
ATOM     25  O   UNL     1      49.769 -25.992 -29.684  1.00  0.00    -0.507 OA
ATOM     26  H   UNL     1      49.865 -26.272 -28.715  1.00  0.00     0.293 HD
ENDBRANCH   7  25
TORSDOF 6
ENDMDL
MODEL 3
REMARK VINA RESULT:    -5.769     13.113     15.099
REMARK INTER + INTRA:          -7.171
REMARK INTER:                  -6.821
REMARK INTRA:                  -0.350
REMARK UNBOUND:                -0.221
REMARK SMILES Oc1cc(O)c2cc(O)c(-c3ccc(O)c(O)c3)[o+]c2c1.[Cl-]
REMARK SMILES IDX 10 1 19 2 20 3 21 4 2 5 3 6 4 7 6 8 7 9 8 10 11 11 12 12
REMARK SMILES IDX 13 13 14 14 18 15 16 16 15 17 17 19 9 21 1 23 5 25
REMARK H PARENT 15 18 17 20 9 22 1 24 5 26
REMARK Flexibility Score: inf
ROOT
ATOM      1  C   UNL     1      52.162 -28.031 -31.031  1.00  0.00     0.402 A 
ATOM      2  O   UNL     1      51.518 -27.220 -30.191  1.00  0.00    -0.202 OA
ATOM      3  C   UNL     1      50.269 -26.810 -30.388  1.00  0.00     0.368 A 
ATOM      4  C   UNL     1      49.666 -25.955 -29.460  1.00  0.00     0.162 A 
ATOM      5  C   UNL     1      48.352 -25.514 -29.659  1.00  0.00     0.128 A 
ATOM      6  C   UNL     1      47.639 -25.930 -30.788  1.00  0.00     0.093 A 
ATOM      7  C   UNL     1      48.230 -26.790 -31.727  1.00  0.00     0.136 A 
ATOM      8  C   UNL     1      49.552 -27.233 -31.528  1.00  0.00     0.125 A 
ATOM      9  C   UNL     1      50.189 -28.096 -32.427  1.00  0.00     0.078 A 
ATOM     10  C   UNL     1      51.501 -28.512 -32.179  1.00  0.00     0.223 A 
ENDROOT
BRANCH   1  11
ATOM     11  C   UNL     1      53.555 -28.409 -30.708  1.00  0.00     0.087 A 
ATOM     12  C   UNL     1      54.615 -27.636 -31.207  1.00  0.00     0.022 A 
ATOM     13  C   UNL     1      55.939 -27.985 -30.931  1.00  0.00     0.051 A 
ATOM     14  C   UNL     1      56.225 -29.122 -30.165  1.00  0.00     0.157 A 
ATOM     15  C   UNL     1      53.847 -29.561 -29.955  1.00  0.00     0.068 A 
ATOM     16  C   UNL     1      55.173 -29.915 -29.678  1.00  0.00     0.158 A 
BRANCH  14  17
ATOM     17  O   UNL     1      57.547 -29.468 -29.888  1.00  0.00    -0.504 OA
ATOM     18  H   UNL     1      57.802 -29.947 -29.032  1.00  0.00     0.293 HD
ENDBRANCH  14  17
BRANCH  16  19
ATOM     19  O   UNL     1      55.424 -31.062 -28.924  1.00  0.00    -0.504 OA
ATOM     20  H   UNL     1      55.464 -31.983 -29.344  1.00  0.00     0.293 HD
ENDBRANCH  16  19
ENDBRANCH   1  11
BRANCH  10  21
ATOM     21  O   UNL     1      52.124 -29.411 -33.044  1.00  0.00    -0.500 OA
ATOM     22  H   UNL     1      53.005 -29.851 -32.807  1.00  0.00     0.294 HD
ENDBRANCH  10  21
BRANCH   5  23
ATOM     23  O   UNL     1      47.743 -24.662 -28.739  1.00  0.00    -0.507 OA
ATOM     24  H   UNL     1      47.575 -24.950 -27.783  1.00  0.00     0.293 HD
ENDBRANCH   5  23
BRANCH   7  25
ATOM     25  O   UNL     1      47.509 -27.198 -32.849  1.00  0.00    -0.507 OA
ATOM     26  H   UNL     1      46.496 -27.183 -32.863  1.00  0.00     0.293 HD
ENDBRANCH   7  25
TORSDOF 6
ENDMDL
MODEL 4
REMARK VINA RESULT:    -5.729     14.819     16.598
REMARK INTER + INTRA:          -7.122
REMARK INTER:                  -6.999
REMARK INTRA:                  -0.123
REMARK UNBOUND:                -0.221
REMARK SMILES Oc1cc(O)c2cc(O)c(-c3ccc(O)c(O)c3)[o+]c2c1.[Cl-]
REMARK SMILES IDX 10 1 19 2 20 3 21 4 2 5 3 6 4 7 6 8 7 9 8 10 11 11 12 12
REMARK SMILES IDX 13 13 14 14 18 15 16 16 15 17 17 19 9 21 1 23 5 25
REMARK H PARENT 15 18 17 20 9 22 1 24 5 26
REMARK Flexibility Score: inf
ROOT
ATOM      1  C   UNL     1      47.030 -28.873 -30.463  1.00  0.00     0.402 A 
ATOM      2  O   UNL     1      45.891 -28.478 -31.031  1.00  0.00    -0.202 OA
ATOM      3  C   UNL     1      44.694 -28.890 -30.626  1.00  0.00     0.368 A 
ATOM      4  C   UNL     1      43.546 -28.431 -31.279  1.00  0.00     0.162 A 
ATOM      5  C   UNL     1      42.279 -28.861 -30.864  1.00  0.00     0.128 A 
ATOM      6  C   UNL     1      42.162 -29.753 -29.793  1.00  0.00     0.093 A 
ATOM      7  C   UNL     1      43.305 -30.221 -29.126  1.00  0.00     0.136 A 
ATOM      8  C   UNL     1      44.579 -29.789 -29.544  1.00  0.00     0.125 A 
ATOM      9  C   UNL     1      45.752 -30.217 -28.912  1.00  0.00     0.078 A 
ATOM     10  C   UNL     1      46.992 -29.752 -29.362  1.00  0.00     0.223 A 
ENDROOT
BRANCH   1  11
ATOM     11  C   UNL     1      48.303 -28.352 -31.010  1.00  0.00     0.087 A 
ATOM     12  C   UNL     1      49.151 -27.596 -30.185  1.00  0.00     0.022 A 
ATOM     13  C   UNL     1      50.348 -27.077 -30.685  1.00  0.00     0.051 A 
ATOM     14  C   UNL     1      50.708 -27.292 -32.021  1.00  0.00     0.157 A 
ATOM     15  C   UNL     1      48.659 -28.549 -32.356  1.00  0.00     0.068 A 
ATOM     16  C   UNL     1      49.856 -28.029 -32.861  1.00  0.00     0.158 A 
BRANCH  14  17
ATOM     17  O   UNL     1      51.904 -26.776 -32.517  1.00  0.00    -0.504 OA
ATOM     18  H   UNL     1      52.007 -25.791 -32.733  1.00  0.00     0.293 HD
ENDBRANCH  14  17
BRANCH  16  19
ATOM     19  O   UNL     1      50.179 -28.249 -34.200  1.00  0.00    -0.504 OA
ATOM     20  H   UNL     1      51.064 -27.955 -34.595  1.00  0.00     0.293 HD
ENDBRANCH  16  19
ENDBRANCH   1  11
BRANCH  10  21
ATOM     21  O   UNL     1      48.162 -30.135 -28.705  1.00  0.00    -0.500 OA
ATOM     22  H   UNL     1      48.179 -30.921 -28.067  1.00  0.00     0.294 HD
ENDBRANCH  10  21
BRANCH   5  23
ATOM     23  O   UNL     1      41.131 -28.409 -31.509  1.00  0.00    -0.507 OA
ATOM     24  H   UNL     1      40.697 -28.942 -32.253  1.00  0.00     0.293 HD
ENDBRANCH   5  23
BRANCH   7  25
ATOM     25  O   UNL     1      43.174 -31.109 -28.058  1.00  0.00    -0.507 OA
ATOM     26  H   UNL     1      42.795 -32.040 -28.186  1.00  0.00     0.293 HD
ENDBRANCH   7  25
TORSDOF 6
ENDMDL
MODEL 5
REMARK VINA RESULT:    -5.657     13.116     15.183
REMARK INTER + INTRA:          -7.036
REMARK INTER:                  -7.267
REMARK INTRA:                   0.231
REMARK UNBOUND:                -0.221
REMARK SMILES Oc1cc(O)c2cc(O)c(-c3ccc(O)c(O)c3)[o+]c2c1.[Cl-]
REMARK SMILES IDX 10 1 19 2 20 3 21 4 2 5 3 6 4 7 6 8 7 9 8 10 11 11 12 12
REMARK SMILES IDX 13 13 14 14 18 15 16 16 15 17 17 19 9 21 1 23 5 25
REMARK H PARENT 15 18 17 20 9 22 1 24 5 26
REMARK Flexibility Score: inf
ROOT
ATOM      1  C   UNL     1      50.080 -28.526 -31.246  1.00  0.00     0.402 A 
ATOM      2  O   UNL     1      49.320 -28.981 -30.250  1.00  0.00    -0.202 OA
ATOM      3  C   UNL     1      47.991 -28.990 -30.293  1.00  0.00     0.368 A 
ATOM      4  C   UNL     1      47.266 -29.480 -29.203  1.00  0.00     0.162 A 
ATOM      5  C   UNL     1      45.866 -29.491 -29.235  1.00  0.00     0.128 A 
ATOM      6  C   UNL     1      45.191 -29.010 -30.362  1.00  0.00     0.093 A 
ATOM      7  C   UNL     1      45.904 -28.516 -31.464  1.00  0.00     0.136 A 
ATOM      8  C   UNL     1      47.312 -28.504 -31.432  1.00  0.00     0.125 A 
ATOM      9  C   UNL     1      48.076 -28.031 -32.504  1.00  0.00     0.078 A 
ATOM     10  C   UNL     1      49.472 -28.048 -32.424  1.00  0.00     0.223 A 
ENDROOT
BRANCH   1  11
ATOM     11  C   UNL     1      51.550 -28.560 -31.077  1.00  0.00     0.087 A 
ATOM     12  C   UNL     1      52.340 -27.584 -31.704  1.00  0.00     0.022 A 
ATOM     13  C   UNL     1      53.731 -27.607 -31.573  1.00  0.00     0.051 A 
ATOM     14  C   UNL     1      54.354 -28.616 -30.828  1.00  0.00     0.157 A 
ATOM     15  C   UNL     1      52.181 -29.583 -30.345  1.00  0.00     0.068 A 
ATOM     16  C   UNL     1      53.574 -29.610 -30.215  1.00  0.00     0.158 A 
BRANCH  14  17
ATOM     17  O   UNL     1      55.742 -28.636 -30.697  1.00  0.00    -0.504 OA
ATOM     18  H   UNL     1      56.344 -28.887 -31.473  1.00  0.00     0.293 HD
ENDBRANCH  14  17
BRANCH  16  19
ATOM     19  O   UNL     1      54.164 -30.637 -29.478  1.00  0.00    -0.504 OA
ATOM     20  H   UNL     1      53.767 -30.971 -28.608  1.00  0.00     0.293 HD
ENDBRANCH  16  19
ENDBRANCH   1  11
BRANCH  10  21
ATOM     21  O   UNL     1      50.239 -27.624 -33.509  1.00  0.00    -0.500 OA
ATOM     22  H   UNL     1      51.207 -27.345 -33.398  1.00  0.00     0.294 HD
ENDBRANCH  10  21
BRANCH   5  23
ATOM     23  O   UNL     1      45.136 -29.978 -28.153  1.00  0.00    -0.507 OA
ATOM     24  H   UNL     1      44.992 -30.971 -28.016  1.00  0.00     0.293 HD
ENDBRANCH   5  23
BRANCH   7  25
ATOM     25  O   UNL     1      45.218 -28.039 -32.582  1.00  0.00    -0.507 OA
ATOM     26  H   UNL     1      44.515 -28.597 -33.050  1.00  0.00     0.293 HD
ENDBRANCH   7  25
TORSDOF 6
ENDMDL
MODEL 6
REMARK VINA RESULT:    -5.629      1.927      7.473
REMARK INTER + INTRA:          -7.002
REMARK INTER:                  -6.705
REMARK INTRA:                  -0.296
REMARK UNBOUND:                -0.221
REMARK SMILES Oc1cc(O)c2cc(O)c(-c3ccc(O)c(O)c3)[o+]c2c1.[Cl-]
REMARK SMILES IDX 10 1 19 2 20 3 21 4 2 5 3 6 4 7 6 8 7 9 8 10 11 11 12 12
REMARK SMILES IDX 13 13 14 14 18 15 16 16 15 17 17 19 9 21 1 23 5 25
REMARK H PARENT 15 18 17 20 9 22 1 24 5 26
REMARK Flexibility Score: inf
ROOT
ATOM      1  C   UNL     1      55.476 -40.218 -24.179  1.00  0.00     0.402 A 
ATOM      2  O   UNL     1      54.261 -40.218 -23.632  1.00  0.00    -0.202 OA
ATOM      3  C   UNL     1      53.913 -39.418 -22.629  1.00  0.00     0.368 A 
ATOM      4  C   UNL     1      52.617 -39.483 -22.109  1.00  0.00     0.162 A 
ATOM      5  C   UNL     1      52.240 -38.648 -21.049  1.00  0.00     0.128 A 
ATOM      6  C   UNL     1      53.164 -37.746 -20.510  1.00  0.00     0.093 A 
ATOM      7  C   UNL     1      54.468 -37.668 -21.023  1.00  0.00     0.136 A 
ATOM      8  C   UNL     1      54.847 -38.508 -22.087  1.00  0.00     0.125 A 
ATOM      9  C   UNL     1      56.130 -38.469 -22.643  1.00  0.00     0.078 A 
ATOM     10  C   UNL     1      56.454 -39.320 -23.705  1.00  0.00     0.223 A 
ENDROOT
BRANCH   1  11
ATOM     11  C   UNL     1      55.746 -41.163 -25.286  1.00  0.00     0.087 A 
ATOM     12  C   UNL     1      56.006 -42.511 -24.995  1.00  0.00     0.022 A 
ATOM     13  C   UNL     1      56.282 -43.417 -26.023  1.00  0.00     0.051 A 
ATOM     14  C   UNL     1      56.317 -42.986 -27.354  1.00  0.00     0.157 A 
ATOM     15  C   UNL     1      55.802 -40.730 -26.623  1.00  0.00     0.068 A 
ATOM     16  C   UNL     1      56.080 -41.634 -27.654  1.00  0.00     0.158 A 
BRANCH  14  17
ATOM     17  O   UNL     1      56.591 -43.892 -28.378  1.00  0.00    -0.504 OA
ATOM     18  H   UNL     1      56.069 -43.882 -29.247  1.00  0.00     0.293 HD
ENDBRANCH  14  17
BRANCH  16  19
ATOM     19  O   UNL     1      56.123 -41.169 -28.969  1.00  0.00    -0.504 OA
ATOM     20  H   UNL     1      56.928 -40.678 -29.340  1.00  0.00     0.293 HD
ENDBRANCH  16  19
ENDBRANCH   1  11
BRANCH  10  21
ATOM     21  O   UNL     1      57.715 -39.251 -24.297  1.00  0.00    -0.500 OA
ATOM     22  H   UNL     1      57.933 -38.557 -25.001  1.00  0.00     0.294 HD
ENDBRANCH  10  21
BRANCH   5  23
ATOM     23  O   UNL     1      50.951 -38.705 -20.525  1.00  0.00    -0.507 OA
ATOM     24  H   UNL     1      50.754 -39.191 -19.658  1.00  0.00     0.293 HD
ENDBRANCH   5  23
BRANCH   7  25
ATOM     25  O   UNL     1      55.379 -36.764 -20.476  1.00  0.00    -0.507 OA
ATOM     26  H   UNL     1      55.511 -36.683 -19.475  1.00  0.00     0.293 HD
ENDBRANCH   7  25
TORSDOF 6
ENDMDL
MODEL 7
REMARK VINA RESULT:    -5.600     13.492     14.915
REMARK INTER + INTRA:          -6.967
REMARK INTER:                  -6.787
REMARK INTRA:                  -0.180
REMARK UNBOUND:                -0.221
REMARK SMILES Oc1cc(O)c2cc(O)c(-c3ccc(O)c(O)c3)[o+]c2c1.[Cl-]
REMARK SMILES IDX 10 1 19 2 20 3 21 4 2 5 3 6 4 7 6 8 7 9 8 10 11 11 12 12
REMARK SMILES IDX 13 13 14 14 18 15 16 16 15 17 17 19 9 21 1 23 5 25
REMARK H PARENT 15 18 17 20 9 22 1 24 5 26
REMARK Flexibility Score: inf
ROOT
ATOM      1  C   UNL     1      51.176 -28.328 -30.914  1.00  0.00     0.402 A 
ATOM      2  O   UNL     1      51.692 -27.910 -29.758  1.00  0.00    -0.202 OA
ATOM      3  C   UNL     1      52.999 -27.796 -29.542  1.00  0.00     0.368 A 
ATOM      4  C   UNL     1      53.459 -27.354 -28.299  1.00  0.00     0.162 A 
ATOM      5  C   UNL     1      54.834 -27.234 -28.058  1.00  0.00     0.128 A 
ATOM      6  C   UNL     1      55.749 -27.558 -29.066  1.00  0.00     0.093 A 
ATOM      7  C   UNL     1      55.302 -28.001 -30.320  1.00  0.00     0.136 A 
ATOM      8  C   UNL     1      53.920 -28.123 -30.562  1.00  0.00     0.125 A 
ATOM      9  C   UNL     1      53.417 -28.553 -31.794  1.00  0.00     0.078 A 
ATOM     10  C   UNL     1      52.035 -28.649 -31.985  1.00  0.00     0.223 A 
ENDROOT
BRANCH   1  11
ATOM     11  C   UNL     1      49.704 -28.422 -31.030  1.00  0.00     0.087 A 
ATOM     12  C   UNL     1      49.009 -29.366 -30.258  1.00  0.00     0.022 A 
ATOM     13  C   UNL     1      47.621 -29.485 -30.365  1.00  0.00     0.051 A 
ATOM     14  C   UNL     1      46.909 -28.674 -31.257  1.00  0.00     0.157 A 
ATOM     15  C   UNL     1      48.987 -27.623 -31.939  1.00  0.00     0.068 A 
ATOM     16  C   UNL     1      47.597 -27.742 -32.051  1.00  0.00     0.158 A 
BRANCH  14  17
ATOM     17  O   UNL     1      45.523 -28.794 -31.361  1.00  0.00    -0.504 OA
ATOM     18  H   UNL     1      45.021 -28.447 -32.170  1.00  0.00     0.293 HD
ENDBRANCH  14  17
BRANCH  16  19
ATOM     19  O   UNL     1      46.919 -26.929 -32.960  1.00  0.00    -0.504 OA
ATOM     20  H   UNL     1      46.624 -25.989 -32.724  1.00  0.00     0.293 HD
ENDBRANCH  16  19
ENDBRANCH   1  11
BRANCH  10  21
ATOM     21  O   UNL     1      51.525 -29.029 -33.227  1.00  0.00    -0.500 OA
ATOM     22  H   UNL     1      52.031 -28.848 -34.085  1.00  0.00     0.294 HD
ENDBRANCH  10  21
BRANCH   5  23
ATOM     23  O   UNL     1      55.302 -26.794 -26.822  1.00  0.00    -0.507 OA
ATOM     24  H   UNL     1      55.763 -25.898 -26.720  1.00  0.00     0.293 HD
ENDBRANCH   5  23
BRANCH   7  25
ATOM     25  O   UNL     1      56.225 -28.320 -31.316  1.00  0.00    -0.507 OA
ATOM     26  H   UNL     1      56.549 -27.628 -31.980  1.00  0.00     0.293 HD
ENDBRANCH   7  25
TORSDOF 6
ENDMDL
MODEL 8
REMARK VINA RESULT:    -5.599     12.674     14.044
REMARK INTER + INTRA:          -6.965
REMARK INTER:                  -6.619
REMARK INTRA:                  -0.347
REMARK UNBOUND:                -0.221
REMARK SMILES Oc1cc(O)c2cc(O)c(-c3ccc(O)c(O)c3)[o+]c2c1.[Cl-]
REMARK SMILES IDX 10 1 19 2 20 3 21 4 2 5 3 6 4 7 6 8 7 9 8 10 11 11 12 12
REMARK SMILES IDX 13 13 14 14 18 15 16 16 15 17 17 19 9 21 1 23 5 25
REMARK H PARENT 15 18 17 20 9 22 1 24 5 26
REMARK Flexibility Score: inf
ROOT
ATOM      1  C   UNL     1      47.074 -30.696 -29.337  1.00  0.00     0.402 A 
ATOM      2  O   UNL     1      48.350 -30.398 -29.583  1.00  0.00    -0.202 OA
ATOM      3  C   UNL     1      48.724 -29.435 -30.420  1.00  0.00     0.368 A 
ATOM      4  C   UNL     1      50.084 -29.188 -30.626  1.00  0.00     0.162 A 
ATOM      5  C   UNL     1      50.491 -28.178 -31.508  1.00  0.00     0.128 A 
ATOM      6  C   UNL     1      49.533 -27.415 -32.184  1.00  0.00     0.093 A 
ATOM      7  C   UNL     1      48.164 -27.651 -31.986  1.00  0.00     0.136 A 
ATOM      8  C   UNL     1      47.755 -28.666 -31.100  1.00  0.00     0.125 A 
ATOM      9  C   UNL     1      46.405 -28.940 -30.857  1.00  0.00     0.078 A 
ATOM     10  C   UNL     1      46.052 -29.955 -29.962  1.00  0.00     0.223 A 
ENDROOT
BRANCH   1  11
ATOM     11  C   UNL     1      46.783 -31.797 -28.391  1.00  0.00     0.087 A 
ATOM     12  C   UNL     1      46.614 -31.510 -27.028  1.00  0.00     0.022 A 
ATOM     13  C   UNL     1      46.357 -32.535 -26.114  1.00  0.00     0.051 A 
ATOM     14  C   UNL     1      46.281 -33.864 -26.547  1.00  0.00     0.157 A 
ATOM     15  C   UNL     1      46.726 -33.136 -28.819  1.00  0.00     0.068 A 
ATOM     16  C   UNL     1      46.471 -34.165 -27.905  1.00  0.00     0.158 A 
BRANCH  14  17
ATOM     17  O   UNL     1      46.023 -34.886 -25.633  1.00  0.00    -0.504 OA
ATOM     18  H   UNL     1      46.314 -34.817 -24.665  1.00  0.00     0.293 HD
ENDBRANCH  14  17
BRANCH  16  19
ATOM     19  O   UNL     1      46.417 -35.481 -28.367  1.00  0.00    -0.504 OA
ATOM     20  H   UNL     1      46.993 -36.214 -27.971  1.00  0.00     0.293 HD
ENDBRANCH  16  19
ENDBRANCH   1  11
BRANCH  10  21
ATOM     21  O   UNL     1      44.708 -30.199 -29.677  1.00  0.00    -0.500 OA
ATOM     22  H   UNL     1      44.246 -29.766 -28.887  1.00  0.00     0.294 HD
ENDBRANCH  10  21
BRANCH   5  23
ATOM     23  O   UNL     1      51.845 -27.925 -31.720  1.00  0.00    -0.507 OA
ATOM     24  H   UNL     1      52.561 -28.547 -31.366  1.00  0.00     0.293 HD
ENDBRANCH   5  23
BRANCH   7  25
ATOM     25  O   UNL     1      47.219 -26.882 -32.666  1.00  0.00    -0.507 OA
ATOM     26  H   UNL     1      47.220 -26.811 -33.676  1.00  0.00     0.293 HD
ENDBRANCH   7  25
TORSDOF 6
ENDMDL
MODEL 9
REMARK VINA RESULT:    -5.576     14.504     15.854
REMARK INTER + INTRA:          -6.939
REMARK INTER:                  -6.620
REMARK INTRA:                  -0.318
REMARK UNBOUND:                -0.221
REMARK SMILES Oc1cc(O)c2cc(O)c(-c3ccc(O)c(O)c3)[o+]c2c1.[Cl-]
REMARK SMILES IDX 10 1 19 2 20 3 21 4 2 5 3 6 4 7 6 8 7 9 8 10 11 11 12 12
REMARK SMILES IDX 13 13 14 14 18 15 16 16 15 17 17 19 9 21 1 23 5 25
REMARK H PARENT 15 18 17 20 9 22 1 24 5 26
REMARK Flexibility Score: inf
ROOT
ATOM      1  C   UNL     1      46.509 -28.594 -30.466  1.00  0.00     0.402 A 
ATOM      2  O   UNL     1      47.668 -28.803 -29.842  1.00  0.00    -0.202 OA
ATOM      3  C   UNL     1      48.847 -28.738 -30.453  1.00  0.00     0.368 A 
ATOM      4  C   UNL     1      50.018 -28.975 -29.727  1.00  0.00     0.162 A 
ATOM      5  C   UNL     1      51.265 -28.913 -30.362  1.00  0.00     0.128 A 
ATOM      6  C   UNL     1      51.339 -28.615 -31.726  1.00  0.00     0.093 A 
ATOM      7  C   UNL     1      50.173 -28.373 -32.468  1.00  0.00     0.136 A 
ATOM      8  C   UNL     1      48.919 -28.435 -31.831  1.00  0.00     0.125 A 
ATOM      9  C   UNL     1      47.724 -28.197 -32.518  1.00  0.00     0.078 A 
ATOM     10  C   UNL     1      46.505 -28.264 -31.836  1.00  0.00     0.223 A 
ENDROOT
BRANCH   1  11
ATOM     11  C   UNL     1      45.261 -28.703 -29.678  1.00  0.00     0.087 A 
ATOM     12  C   UNL     1      44.927 -27.687 -28.768  1.00  0.00     0.022 A 
ATOM     13  C   UNL     1      43.764 -27.778 -28.000  1.00  0.00     0.051 A 
ATOM     14  C   UNL     1      42.924 -28.892 -28.118  1.00  0.00     0.157 A 
ATOM     15  C   UNL     1      44.425 -29.830 -29.779  1.00  0.00     0.068 A 
ATOM     16  C   UNL     1      43.260 -29.925 -29.009  1.00  0.00     0.158 A 
BRANCH  14  17
ATOM     17  O   UNL     1      41.762 -28.980 -27.352  1.00  0.00    -0.504 OA
ATOM     18  H   UNL     1      41.180 -28.169 -27.179  1.00  0.00     0.293 HD
ENDBRANCH  14  17
BRANCH  16  19
ATOM     19  O   UNL     1      42.453 -31.055 -29.140  1.00  0.00    -0.504 OA
ATOM     20  H   UNL     1      41.442 -30.999 -29.116  1.00  0.00     0.293 HD
ENDBRANCH  16  19
ENDBRANCH   1  11
BRANCH  10  21
ATOM     21  O   UNL     1      45.314 -27.978 -32.503  1.00  0.00    -0.500 OA
ATOM     22  H   UNL     1      44.433 -27.904 -32.009  1.00  0.00     0.294 HD
ENDBRANCH  10  21
BRANCH   5  23
ATOM     23  O   UNL     1      52.437 -29.147 -29.646  1.00  0.00    -0.507 OA
ATOM     24  H   UNL     1      52.855 -28.429 -29.067  1.00  0.00     0.293 HD
ENDBRANCH   5  23
BRANCH   7  25
ATOM     25  O   UNL     1      50.261 -28.076 -33.828  1.00  0.00    -0.507 OA
ATOM     26  H   UNL     1      51.073 -28.333 -34.376  1.00  0.00     0.293 HD
ENDBRANCH   7  25
TORSDOF 6
ENDMDL
