MODEL 1
REMARK VINA RESULT:    -5.403      0.000      0.000
REMARK INTER + INTRA:          -6.009
REMARK INTER:                  -5.719
REMARK INTRA:                  -0.290
REMARK UNBOUND:                -0.290
REMARK SMILES c1ccc(-c2ccccc2)cc1
REMARK SMILES IDX 1 1 2 2 3 3 4 4 11 5 12 6 5 7 6 8 10 9 7 10 9 11 8 12
REMARK H PARENT
REMARK Flexibility Score: inf
ROOT
ATOM      1  C   UNL     1     145.099 183.812 154.395  1.00  0.00     0.000 A 
ATOM      2  C   UNL     1     144.000 182.988 154.646  1.00  0.00     0.001 A 
ATOM      3  C   UNL     1     143.556 182.791 155.957  1.00  0.00     0.009 A 
ATOM      4  C   UNL     1     144.211 183.418 157.034  1.00  0.00    -0.018 A 
ATOM      5  C   UNL     1     145.319 184.245 156.767  1.00  0.00     0.009 A 
ATOM      6  C   UNL     1     145.758 184.439 155.454  1.00  0.00     0.001 A 
ENDROOT
BRANCH   4   7
ATOM      7  C   UNL     1     143.741 183.210 158.428  1.00  0.00    -0.018 A 
ATOM      8  C   UNL     1     143.953 181.978 159.077  1.00  0.00     0.009 A 
ATOM      9  C   UNL     1     143.078 184.240 159.122  1.00  0.00     0.009 A 
ATOM     10  C   UNL     1     143.510 181.784 160.390  1.00  0.00     0.001 A 
ATOM     11  C   UNL     1     142.638 184.041 160.434  1.00  0.00     0.001 A 
ATOM     12  C   UNL     1     142.853 182.814 161.067  1.00  0.00     0.000 A 
ENDBRANCH   4   7
TORSDOF 1
ENDMDL
MODEL 2
REMARK VINA RESULT:    -5.355      2.329      4.220
REMARK INTER + INTRA:          -5.958
REMARK INTER:                  -5.672
REMARK INTRA:                  -0.287
REMARK UNBOUND:                -0.290
REMARK SMILES c1ccc(-c2ccccc2)cc1
REMARK SMILES IDX 1 1 2 2 3 3 4 4 11 5 12 6 5 7 6 8 10 9 7 10 9 11 8 12
REMARK H PARENT
REMARK Flexibility Score: inf
ROOT
ATOM      1  C   UNL     1     142.110 188.165 159.348  1.00  0.00     0.000 A 
ATOM      2  C   UNL     1     141.765 187.312 158.297  1.00  0.00     0.001 A 
ATOM      3  C   UNL     1     142.338 186.040 158.210  1.00  0.00     0.009 A 
ATOM      4  C   UNL     1     143.266 185.607 159.177  1.00  0.00    -0.018 A 
ATOM      5  C   UNL     1     143.606 186.477 160.230  1.00  0.00     0.009 A 
ATOM      6  C   UNL     1     143.029 187.748 160.313  1.00  0.00     0.001 A 
ENDROOT
BRANCH   4   7
ATOM      7  C   UNL     1     143.877 184.256 159.086  1.00  0.00    -0.018 A 
ATOM      8  C   UNL     1     143.288 183.159 159.744  1.00  0.00     0.009 A 
ATOM      9  C   UNL     1     145.053 184.050 158.340  1.00  0.00     0.009 A 
ATOM     10  C   UNL     1     143.865 181.888 159.657  1.00  0.00     0.001 A 
ATOM     11  C   UNL     1     145.625 182.777 158.255  1.00  0.00     0.001 A 
ATOM     12  C   UNL     1     145.031 181.697 158.913  1.00  0.00     0.000 A 
ENDBRANCH   4   7
TORSDOF 1
ENDMDL
MODEL 3
REMARK VINA RESULT:    -5.340      2.312      4.110
REMARK INTER + INTRA:          -5.942
REMARK INTER:                  -5.655
REMARK INTRA:                  -0.287
REMARK UNBOUND:                -0.290
REMARK SMILES c1ccc(-c2ccccc2)cc1
REMARK SMILES IDX 1 1 2 2 3 3 4 4 11 5 12 6 5 7 6 8 10 9 7 10 9 11 8 12
REMARK H PARENT
REMARK Flexibility Score: inf
ROOT
ATOM      1  C   UNL     1     144.962 181.670 158.962  1.00  0.00     0.000 A 
ATOM      2  C   UNL     1     143.798 181.876 159.707  1.00  0.00     0.001 A 
ATOM      3  C   UNL     1     143.225 183.149 159.776  1.00  0.00     0.009 A 
ATOM      4  C   UNL     1     143.815 184.234 159.098  1.00  0.00    -0.018 A 
ATOM      5  C   UNL     1     144.988 184.014 158.353  1.00  0.00     0.009 A 
ATOM      6  C   UNL     1     145.556 182.737 158.286  1.00  0.00     0.001 A 
ENDROOT
BRANCH   4   7
ATOM      7  C   UNL     1     143.208 185.589 159.171  1.00  0.00    -0.018 A 
ATOM      8  C   UNL     1     142.292 186.015 158.190  1.00  0.00     0.009 A 
ATOM      9  C   UNL     1     143.539 186.467 160.220  1.00  0.00     0.009 A 
ATOM     10  C   UNL     1     141.722 187.291 158.260  1.00  0.00     0.001 A 
ATOM     11  C   UNL     1     142.966 187.741 160.286  1.00  0.00     0.001 A 
ATOM     12  C   UNL     1     142.059 188.152 159.307  1.00  0.00     0.000 A 
ENDBRANCH   4   7
TORSDOF 1
ENDMDL
MODEL 4
REMARK VINA RESULT:    -5.336      2.280      4.241
REMARK INTER + INTRA:          -5.937
REMARK INTER:                  -5.650
REMARK INTRA:                  -0.287
REMARK UNBOUND:                -0.290
REMARK SMILES c1ccc(-c2ccccc2)cc1
REMARK SMILES IDX 1 1 2 2 3 3 4 4 11 5 12 6 5 7 6 8 10 9 7 10 9 11 8 12
REMARK H PARENT
REMARK Flexibility Score: inf
ROOT
ATOM      1  C   UNL     1     144.928 181.624 159.013  1.00  0.00     0.000 A 
ATOM      2  C   UNL     1     145.501 182.676 158.295  1.00  0.00     0.001 A 
ATOM      3  C   UNL     1     144.930 183.951 158.342  1.00  0.00     0.009 A 
ATOM      4  C   UNL     1     143.773 184.186 159.110  1.00  0.00    -0.018 A 
ATOM      5  C   UNL     1     143.204 183.117 159.828  1.00  0.00     0.009 A 
ATOM      6  C   UNL     1     143.781 181.844 159.778  1.00  0.00     0.001 A 
ENDROOT
BRANCH   4   7
ATOM      7  C   UNL     1     143.163 185.541 159.161  1.00  0.00    -0.018 A 
ATOM      8  C   UNL     1     143.484 186.430 160.205  1.00  0.00     0.009 A 
ATOM      9  C   UNL     1     142.256 185.955 158.168  1.00  0.00     0.009 A 
ATOM     10  C   UNL     1     142.909 187.704 160.251  1.00  0.00     0.001 A 
ATOM     11  C   UNL     1     141.685 187.231 158.218  1.00  0.00     0.001 A 
ATOM     12  C   UNL     1     142.011 188.104 159.259  1.00  0.00     0.000 A 
ENDBRANCH   4   7
TORSDOF 1
ENDMDL
MODEL 5
REMARK VINA RESULT:    -5.285      0.973      4.891
REMARK INTER + INTRA:          -5.884
REMARK INTER:                  -5.561
REMARK INTRA:                  -0.323
REMARK UNBOUND:                -0.290
REMARK SMILES c1ccc(-c2ccccc2)cc1
REMARK SMILES IDX 1 1 2 2 3 3 4 4 11 5 12 6 5 7 6 8 10 9 7 10 9 11 8 12
REMARK H PARENT
REMARK Flexibility Score: inf
ROOT
ATOM      1  C   UNL     1     142.967 182.995 160.816  1.00  0.00     0.000 A 
ATOM      2  C   UNL     1     142.565 184.177 160.189  1.00  0.00     0.001 A 
ATOM      3  C   UNL     1     142.817 184.370 158.828  1.00  0.00     0.009 A 
ATOM      4  C   UNL     1     143.477 183.377 158.077  1.00  0.00    -0.018 A 
ATOM      5  C   UNL     1     143.878 182.191 158.721  1.00  0.00     0.009 A 
ATOM      6  C   UNL     1     143.622 182.004 160.083  1.00  0.00     0.001 A 
ENDROOT
BRANCH   4   7
ATOM      7  C   UNL     1     143.746 183.581 156.630  1.00  0.00    -0.018 A 
ATOM      8  C   UNL     1     144.393 182.582 155.876  1.00  0.00     0.009 A 
ATOM      9  C   UNL     1     143.359 184.773 155.990  1.00  0.00     0.009 A 
ATOM     10  C   UNL     1     144.646 182.776 154.514  1.00  0.00     0.001 A 
ATOM     11  C   UNL     1     143.613 184.961 154.628  1.00  0.00     0.001 A 
ATOM     12  C   UNL     1     144.256 183.963 153.891  1.00  0.00     0.000 A 
ENDBRANCH   4   7
TORSDOF 1
ENDMDL
MODEL 6
REMARK VINA RESULT:    -5.278      2.063      3.468
REMARK INTER + INTRA:          -5.877
REMARK INTER:                  -5.588
REMARK INTRA:                  -0.288
REMARK UNBOUND:                -0.290
REMARK SMILES c1ccc(-c2ccccc2)cc1
REMARK SMILES IDX 1 1 2 2 3 3 4 4 11 5 12 6 5 7 6 8 10 9 7 10 9 11 8 12
REMARK H PARENT
REMARK Flexibility Score: inf
ROOT
ATOM      1  C   UNL     1     147.013 182.673 158.858  1.00  0.00     0.000 A 
ATOM      2  C   UNL     1     145.921 181.818 159.024  1.00  0.00     0.001 A 
ATOM      3  C   UNL     1     144.632 182.258 158.711  1.00  0.00     0.009 A 
ATOM      4  C   UNL     1     144.421 183.565 158.228  1.00  0.00    -0.018 A 
ATOM      5  C   UNL     1     145.530 184.417 158.067  1.00  0.00     0.009 A 
ATOM      6  C   UNL     1     146.818 183.971 158.380  1.00  0.00     0.001 A 
ENDROOT
BRANCH   4   7
ATOM      7  C   UNL     1     143.051 184.035 157.896  1.00  0.00    -0.018 A 
ATOM      8  C   UNL     1     142.444 183.665 156.680  1.00  0.00     0.009 A 
ATOM      9  C   UNL     1     142.339 184.855 158.791  1.00  0.00     0.009 A 
ATOM     10  C   UNL     1     141.155 184.109 156.369  1.00  0.00     0.001 A 
ATOM     11  C   UNL     1     141.050 185.295 158.476  1.00  0.00     0.001 A 
ATOM     12  C   UNL     1     140.458 184.923 157.266  1.00  0.00     0.000 A 
ENDBRANCH   4   7
TORSDOF 1
ENDMDL
MODEL 7
REMARK VINA RESULT:    -5.277      2.483      4.585
REMARK INTER + INTRA:          -5.875
REMARK INTER:                  -5.588
REMARK INTRA:                  -0.287
REMARK UNBOUND:                -0.290
REMARK SMILES c1ccc(-c2ccccc2)cc1
REMARK SMILES IDX 1 1 2 2 3 3 4 4 11 5 12 6 5 7 6 8 10 9 7 10 9 11 8 12
REMARK H PARENT
REMARK Flexibility Score: inf
ROOT
ATOM      1  C   UNL     1     142.161 188.463 159.562  1.00  0.00     0.000 A 
ATOM      2  C   UNL     1     143.107 187.993 160.475  1.00  0.00     0.001 A 
ATOM      3  C   UNL     1     143.655 186.716 160.323  1.00  0.00     0.009 A 
ATOM      4  C   UNL     1     143.260 185.893 159.250  1.00  0.00    -0.018 A 
ATOM      5  C   UNL     1     142.304 186.379 158.337  1.00  0.00     0.009 A 
ATOM      6  C   UNL     1     141.760 187.658 158.495  1.00  0.00     0.001 A 
ENDROOT
BRANCH   4   7
ATOM      7  C   UNL     1     143.841 184.536 159.086  1.00  0.00    -0.018 A 
ATOM      8  C   UNL     1     145.034 184.351 158.360  1.00  0.00     0.009 A 
ATOM      9  C   UNL     1     143.209 183.413 159.653  1.00  0.00     0.009 A 
ATOM     10  C   UNL     1     145.578 183.072 158.207  1.00  0.00     0.001 A 
ATOM     11  C   UNL     1     143.758 182.137 159.498  1.00  0.00     0.001 A 
ATOM     12  C   UNL     1     144.942 181.967 158.775  1.00  0.00     0.000 A 
ENDBRANCH   4   7
TORSDOF 1
ENDMDL
MODEL 8
REMARK VINA RESULT:    -5.258      1.258      2.109
REMARK INTER + INTRA:          -5.855
REMARK INTER:                  -5.535
REMARK INTRA:                  -0.320
REMARK UNBOUND:                -0.290
REMARK SMILES c1ccc(-c2ccccc2)cc1
REMARK SMILES IDX 1 1 2 2 3 3 4 4 11 5 12 6 5 7 6 8 10 9 7 10 9 11 8 12
REMARK H PARENT
REMARK Flexibility Score: inf
ROOT
ATOM      1  C   UNL     1     144.307 183.493 153.367  1.00  0.00     0.000 A 
ATOM      2  C   UNL     1     144.783 182.542 154.273  1.00  0.00     0.001 A 
ATOM      3  C   UNL     1     144.500 182.668 155.636  1.00  0.00     0.009 A 
ATOM      4  C   UNL     1     143.735 183.753 156.108  1.00  0.00    -0.018 A 
ATOM      5  C   UNL     1     143.262 184.705 155.185  1.00  0.00     0.009 A 
ATOM      6  C   UNL     1     143.548 184.572 153.822  1.00  0.00     0.001 A 
ENDROOT
BRANCH   4   7
ATOM      7  C   UNL     1     143.433 183.889 157.557  1.00  0.00    -0.018 A 
ATOM      8  C   UNL     1     142.968 185.112 158.078  1.00  0.00     0.009 A 
ATOM      9  C   UNL     1     143.607 182.799 158.430  1.00  0.00     0.009 A 
ATOM     10  C   UNL     1     142.685 185.238 159.442  1.00  0.00     0.001 A 
ATOM     11  C   UNL     1     143.321 182.930 159.793  1.00  0.00     0.001 A 
ATOM     12  C   UNL     1     142.861 184.149 160.298  1.00  0.00     0.000 A 
ENDBRANCH   4   7
TORSDOF 1
ENDMDL
MODEL 9
REMARK VINA RESULT:    -5.244      1.289      1.671
REMARK INTER + INTRA:          -5.841
REMARK INTER:                  -5.521
REMARK INTRA:                  -0.320
REMARK UNBOUND:                -0.290
REMARK SMILES c1ccc(-c2ccccc2)cc1
REMARK SMILES IDX 1 1 2 2 3 3 4 4 11 5 12 6 5 7 6 8 10 9 7 10 9 11 8 12
REMARK H PARENT
REMARK Flexibility Score: inf
ROOT
ATOM      1  C   UNL     1     144.329 183.502 153.354  1.00  0.00     0.000 A 
ATOM      2  C   UNL     1     144.756 182.556 154.289  1.00  0.00     0.001 A 
ATOM      3  C   UNL     1     144.464 182.728 155.645  1.00  0.00     0.009 A 
ATOM      4  C   UNL     1     143.738 183.854 156.081  1.00  0.00    -0.018 A 
ATOM      5  C   UNL     1     143.315 184.800 155.129  1.00  0.00     0.009 A 
ATOM      6  C   UNL     1     143.609 184.622 153.773  1.00  0.00     0.001 A 
ENDROOT
BRANCH   4   7
ATOM      7  C   UNL     1     143.426 184.039 157.522  1.00  0.00    -0.018 A 
ATOM      8  C   UNL     1     143.542 182.962 158.422  1.00  0.00     0.009 A 
ATOM      9  C   UNL     1     143.012 185.292 158.009  1.00  0.00     0.009 A 
ATOM     10  C   UNL     1     143.247 183.139 159.778  1.00  0.00     0.001 A 
ATOM     11  C   UNL     1     142.720 185.464 159.366  1.00  0.00     0.001 A 
ATOM     12  C   UNL     1     142.837 184.387 160.250  1.00  0.00     0.000 A 
ENDBRANCH   4   7
TORSDOF 1
ENDMDL
