MODEL 1
REMARK VINA RESULT:    -4.687      0.000      0.000
REMARK INTER + INTRA:          -6.588
REMARK INTER:                  -6.331
REMARK INTRA:                  -0.257
REMARK UNBOUND:                -0.257
REMARK SMILES CCCCCCCC(=O)[O-]
REMARK SMILES IDX 5 1 6 2 7 3 8 4 9 5 10 6 4 7 3 8 2 9 1 10
REMARK H PARENT
REMARK Flexibility Score: inf
ROOT
ATOM      1  C   UNL     1      22.736   9.053  12.966  1.00  0.00     0.000 C 
ENDROOT
BRANCH   1   2
ATOM      2  C   UNL     1      23.077  10.362  12.243  1.00  0.00     0.006 C 
BRANCH   2   3
ATOM      3  C   UNL     1      24.229  11.091  12.939  1.00  0.00     0.053 C 
BRANCH   3   4
ATOM      4  C   UNL     1      24.916  12.016  11.986  1.00  0.00     0.041 C 
ATOM      5  O   UNL     1      24.243  12.798  11.264  1.00  0.00    -0.550 OA
ATOM      6  O   UNL     1      26.300  11.982  11.858  1.00  0.00    -0.550 OA
ENDBRANCH   3   4
ENDBRANCH   2   3
ENDBRANCH   1   2
BRANCH   1   7
ATOM      7  C   UNL     1      21.266   8.668  12.746  1.00  0.00     0.000 C 
BRANCH   7   8
ATOM      8  C   UNL     1      20.329   9.894  12.784  1.00  0.00    -0.000 C 
BRANCH   8   9
ATOM      9  C   UNL     1      19.121   9.716  13.719  1.00  0.00    -0.003 C 
ATOM     10  C   UNL     1      19.221   8.471  14.598  1.00  0.00     0.004 C 
ENDBRANCH   8   9
ENDBRANCH   7   8
ENDBRANCH   1   7
TORSDOF 6
ENDMDL
MODEL 2
REMARK VINA RESULT:    -4.677      1.784      2.537
REMARK INTER + INTRA:          -6.575
REMARK INTER:                  -6.256
REMARK INTRA:                  -0.319
REMARK UNBOUND:                -0.257
REMARK SMILES CCCCCCCC(=O)[O-]
REMARK SMILES IDX 5 1 6 2 7 3 8 4 9 5 10 6 4 7 3 8 2 9 1 10
REMARK H PARENT
REMARK Flexibility Score: inf
ROOT
ATOM      1  C   UNL     1      22.444   9.900  11.766  1.00  0.00     0.000 C 
ENDROOT
BRANCH   1   2
ATOM      2  C   UNL     1      21.469  10.891  11.120  1.00  0.00     0.006 C 
BRANCH   2   3
ATOM      3  C   UNL     1      22.120  11.609   9.935  1.00  0.00     0.053 C 
BRANCH   3   4
ATOM      4  C   UNL     1      22.675  12.930  10.364  1.00  0.00     0.041 C 
ATOM      5  O   UNL     1      23.849  13.009  10.813  1.00  0.00    -0.550 OA
ATOM      6  O   UNL     1      21.880  14.069  10.313  1.00  0.00    -0.550 OA
ENDBRANCH   3   4
ENDBRANCH   2   3
ENDBRANCH   1   2
BRANCH   1   7
ATOM      7  C   UNL     1      21.921   9.421  13.129  1.00  0.00     0.000 C 
BRANCH   7   8
ATOM      8  C   UNL     1      20.992   8.196  13.001  1.00  0.00    -0.000 C 
BRANCH   8   9
ATOM      9  C   UNL     1      19.678   8.335  13.788  1.00  0.00    -0.003 C 
ATOM     10  C   UNL     1      19.103   9.750  13.750  1.00  0.00     0.004 C 
ENDBRANCH   8   9
ENDBRANCH   7   8
ENDBRANCH   1   7
TORSDOF 6
ENDMDL
MODEL 3
REMARK VINA RESULT:    -4.582      3.829      5.636
REMARK INTER + INTRA:          -6.446
REMARK INTER:                  -6.230
REMARK INTRA:                  -0.216
REMARK UNBOUND:                -0.257
REMARK SMILES CCCCCCCC(=O)[O-]
REMARK SMILES IDX 5 1 6 2 7 3 8 4 9 5 10 6 4 7 3 8 2 9 1 10
REMARK H PARENT
REMARK Flexibility Score: inf
ROOT
ATOM      1  C   UNL     1      21.742   9.796  11.149  1.00  0.00     0.000 C 
ENDROOT
BRANCH   1   2
ATOM      2  C   UNL     1      21.737   9.679  12.678  1.00  0.00     0.006 C 
BRANCH   2   3
ATOM      3  C   UNL     1      20.866   8.506  13.137  1.00  0.00     0.053 C 
BRANCH   3   4
ATOM      4  C   UNL     1      19.629   9.006  13.812  1.00  0.00     0.041 C 
ATOM      5  O   UNL     1      19.078  10.069  13.422  1.00  0.00    -0.550 OA
ATOM      6  O   UNL     1      19.109   8.324  14.906  1.00  0.00    -0.550 OA
ENDBRANCH   3   4
ENDBRANCH   2   3
ENDBRANCH   1   2
BRANCH   1   7
ATOM      7  C   UNL     1      21.393  11.224  10.704  1.00  0.00     0.000 C 
BRANCH   7   8
ATOM      8  C   UNL     1      22.619  12.162  10.738  1.00  0.00    -0.000 C 
BRANCH   8   9
ATOM      9  C   UNL     1      22.480  13.389   9.820  1.00  0.00    -0.003 C 
ATOM     10  C   UNL     1      22.880  13.103   8.374  1.00  0.00     0.004 C 
ENDBRANCH   8   9
ENDBRANCH   7   8
ENDBRANCH   1   7
TORSDOF 6
ENDMDL
MODEL 4
REMARK VINA RESULT:    -4.579      2.330      2.708
REMARK INTER + INTRA:          -6.442
REMARK INTER:                  -6.267
REMARK INTRA:                  -0.175
REMARK UNBOUND:                -0.257
REMARK SMILES CCCCCCCC(=O)[O-]
REMARK SMILES IDX 5 1 6 2 7 3 8 4 9 5 10 6 4 7 3 8 2 9 1 10
REMARK H PARENT
REMARK Flexibility Score: inf
ROOT
ATOM      1  C   UNL     1      21.137  10.600  11.359  1.00  0.00     0.000 C 
ENDROOT
BRANCH   1   2
ATOM      2  C   UNL     1      21.814  11.159  10.102  1.00  0.00     0.006 C 
BRANCH   2   3
ATOM      3  C   UNL     1      22.300  12.593  10.331  1.00  0.00     0.053 C 
BRANCH   3   4
ATOM      4  C   UNL     1      23.075  13.079   9.147  1.00  0.00     0.041 C 
ATOM      5  O   UNL     1      22.477  13.395   8.085  1.00  0.00    -0.550 OA
ATOM      6  O   UNL     1      24.462  13.136   9.200  1.00  0.00    -0.550 OA
ENDBRANCH   3   4
ENDBRANCH   2   3
ENDBRANCH   1   2
BRANCH   1   7
ATOM      7  C   UNL     1      21.953   9.444  11.957  1.00  0.00     0.000 C 
BRANCH   7   8
ATOM      8  C   UNL     1      21.534   9.122  13.407  1.00  0.00    -0.000 C 
BRANCH   8   9
ATOM      9  C   UNL     1      20.318   8.185  13.503  1.00  0.00    -0.003 C 
ATOM     10  C   UNL     1      19.107   8.840  14.161  1.00  0.00     0.004 C 
ENDBRANCH   8   9
ENDBRANCH   7   8
ENDBRANCH   1   7
TORSDOF 6
ENDMDL
MODEL 5
REMARK VINA RESULT:    -4.528     14.888     15.713
REMARK INTER + INTRA:          -6.373
REMARK INTER:                  -6.243
REMARK INTRA:                  -0.130
REMARK UNBOUND:                -0.257
REMARK SMILES CCCCCCCC(=O)[O-]
REMARK SMILES IDX 5 1 6 2 7 3 8 4 9 5 10 6 4 7 3 8 2 9 1 10
REMARK H PARENT
REMARK Flexibility Score: inf
ROOT
ATOM      1  C   UNL     1      10.753  12.950   5.138  1.00  0.00     0.000 C 
ENDROOT
BRANCH   1   2
ATOM      2  C   UNL     1       9.740  11.839   4.840  1.00  0.00     0.006 C 
BRANCH   2   3
ATOM      3  C   UNL     1      10.438  10.485   4.684  1.00  0.00     0.053 C 
BRANCH   3   4
ATOM      4  C   UNL     1       9.533   9.375   5.116  1.00  0.00     0.041 C 
ATOM      5  O   UNL     1       9.668   8.221   4.630  1.00  0.00    -0.550 OA
ATOM      6  O   UNL     1       8.507   9.626   6.020  1.00  0.00    -0.550 OA
ENDBRANCH   3   4
ENDBRANCH   2   3
ENDBRANCH   1   2
BRANCH   1   7
ATOM      7  C   UNL     1      10.572  14.133   4.175  1.00  0.00     0.000 C 
BRANCH   7   8
ATOM      8  C   UNL     1      11.865  14.962   4.020  1.00  0.00    -0.000 C 
BRANCH   8   9
ATOM      9  C   UNL     1      11.804  16.334   4.712  1.00  0.00    -0.003 C 
ATOM     10  C   UNL     1      11.016  17.372   3.917  1.00  0.00     0.004 C 
ENDBRANCH   8   9
ENDBRANCH   7   8
ENDBRANCH   1   7
TORSDOF 6
ENDMDL
MODEL 6
REMARK VINA RESULT:    -4.488      1.018      1.358
REMARK INTER + INTRA:          -6.320
REMARK INTER:                  -6.026
REMARK INTRA:                  -0.294
REMARK UNBOUND:                -0.257
REMARK SMILES CCCCCCCC(=O)[O-]
REMARK SMILES IDX 5 1 6 2 7 3 8 4 9 5 10 6 4 7 3 8 2 9 1 10
REMARK H PARENT
REMARK Flexibility Score: inf
ROOT
ATOM      1  C   UNL     1      22.887   9.007  12.639  1.00  0.00     0.000 C 
ENDROOT
BRANCH   1   2
ATOM      2  C   UNL     1      23.748  10.069  13.332  1.00  0.00     0.006 C 
BRANCH   2   3
ATOM      3  C   UNL     1      23.985  11.271  12.412  1.00  0.00     0.053 C 
BRANCH   3   4
ATOM      4  C   UNL     1      25.438  11.620  12.370  1.00  0.00     0.041 C 
ATOM      5  O   UNL     1      26.206  11.254  13.299  1.00  0.00    -0.550 OA
ATOM      6  O   UNL     1      25.938  12.394  11.329  1.00  0.00    -0.550 OA
ENDBRANCH   3   4
ENDBRANCH   2   3
ENDBRANCH   1   2
BRANCH   1   7
ATOM      7  C   UNL     1      21.717   9.653  11.882  1.00  0.00     0.000 C 
BRANCH   7   8
ATOM      8  C   UNL     1      20.440   9.738  12.745  1.00  0.00    -0.000 C 
BRANCH   8   9
ATOM      9  C   UNL     1      20.062   8.407  13.418  1.00  0.00    -0.003 C 
ATOM     10  C   UNL     1      19.135   8.584  14.618  1.00  0.00     0.004 C 
ENDBRANCH   8   9
ENDBRANCH   7   8
ENDBRANCH   1   7
TORSDOF 6
ENDMDL
MODEL 7
REMARK VINA RESULT:    -4.346      3.281      5.665
REMARK INTER + INTRA:          -6.128
REMARK INTER:                  -5.941
REMARK INTRA:                  -0.187
REMARK UNBOUND:                -0.257
REMARK SMILES CCCCCCCC(=O)[O-]
REMARK SMILES IDX 5 1 6 2 7 3 8 4 9 5 10 6 4 7 3 8 2 9 1 10
REMARK H PARENT
REMARK Flexibility Score: inf
ROOT
ATOM      1  C   UNL     1      22.664   9.284  12.953  1.00  0.00     0.000 C 
ENDROOT
BRANCH   1   2
ATOM      2  C   UNL     1      21.335   8.839  12.331  1.00  0.00     0.006 C 
BRANCH   2   3
ATOM      3  C   UNL     1      20.536   7.970  13.306  1.00  0.00     0.053 C 
BRANCH   3   4
ATOM      4  C   UNL     1      19.476   8.780  13.982  1.00  0.00     0.041 C 
ATOM      5  O   UNL     1      19.158   9.912  13.531  1.00  0.00    -0.550 OA
ATOM      6  O   UNL     1      18.872   8.307  15.141  1.00  0.00    -0.550 OA
ENDBRANCH   3   4
ENDBRANCH   2   3
ENDBRANCH   1   2
BRANCH   1   7
ATOM      7  C   UNL     1      23.121  10.631  12.372  1.00  0.00     0.000 C 
BRANCH   7   8
ATOM      8  C   UNL     1      24.491  11.072  12.929  1.00  0.00    -0.000 C 
BRANCH   8   9
ATOM      9  C   UNL     1      25.237  12.062  12.018  1.00  0.00    -0.003 C 
ATOM     10  C   UNL     1      24.324  12.742  10.999  1.00  0.00     0.004 C 
ENDBRANCH   8   9
ENDBRANCH   7   8
ENDBRANCH   1   7
TORSDOF 6
ENDMDL
MODEL 8
REMARK VINA RESULT:    -4.339     14.396     15.118
REMARK INTER + INTRA:          -6.117
REMARK INTER:                  -5.867
REMARK INTRA:                  -0.250
REMARK UNBOUND:                -0.257
REMARK SMILES CCCCCCCC(=O)[O-]
REMARK SMILES IDX 5 1 6 2 7 3 8 4 9 5 10 6 4 7 3 8 2 9 1 10
REMARK H PARENT
REMARK Flexibility Score: inf
ROOT
ATOM      1  C   UNL     1      10.144  13.113   5.595  1.00  0.00     0.000 C 
ENDROOT
BRANCH   1   2
ATOM      2  C   UNL     1      11.225  13.685   4.670  1.00  0.00     0.006 C 
BRANCH   2   3
ATOM      3  C   UNL     1      10.656  14.790   3.777  1.00  0.00     0.053 C 
BRANCH   3   4
ATOM      4  C   UNL     1      11.252  16.114   4.137  1.00  0.00     0.041 C 
ATOM      5  O   UNL     1      12.325  16.169   4.795  1.00  0.00    -0.550 OA
ATOM      6  O   UNL     1      10.598  17.290   3.788  1.00  0.00    -0.550 OA
ENDBRANCH   3   4
ENDBRANCH   2   3
ENDBRANCH   1   2
BRANCH   1   7
ATOM      7  C   UNL     1       9.017  12.456   4.784  1.00  0.00     0.000 C 
BRANCH   7   8
ATOM      8  C   UNL     1       8.888  10.947   5.080  1.00  0.00    -0.000 C 
BRANCH   8   9
ATOM      9  C   UNL     1      10.142  10.137   4.706  1.00  0.00    -0.003 C 
ATOM     10  C   UNL     1       9.910   8.628   4.732  1.00  0.00     0.004 C 
ENDBRANCH   8   9
ENDBRANCH   7   8
ENDBRANCH   1   7
TORSDOF 6
ENDMDL
MODEL 9
REMARK VINA RESULT:    -4.168      1.261      2.222
REMARK INTER + INTRA:          -5.886
REMARK INTER:                  -5.400
REMARK INTRA:                  -0.487
REMARK UNBOUND:                -0.257
REMARK SMILES CCCCCCCC(=O)[O-]
REMARK SMILES IDX 5 1 6 2 7 3 8 4 9 5 10 6 4 7 3 8 2 9 1 10
REMARK H PARENT
REMARK Flexibility Score: inf
ROOT
ATOM      1  C   UNL     1      23.848   9.305  13.756  1.00  0.00     0.000 C 
ENDROOT
BRANCH   1   2
ATOM      2  C   UNL     1      24.942  10.316  13.395  1.00  0.00     0.006 C 
BRANCH   2   3
ATOM      3  C   UNL     1      24.336  11.673  13.025  1.00  0.00     0.053 C 
BRANCH   3   4
ATOM      4  C   UNL     1      24.912  12.169  11.737  1.00  0.00     0.041 C 
ATOM      5  O   UNL     1      26.126  11.974  11.467  1.00  0.00    -0.550 OA
ATOM      6  O   UNL     1      24.119  12.893  10.853  1.00  0.00    -0.550 OA
ENDBRANCH   3   4
ENDBRANCH   2   3
ENDBRANCH   1   2
BRANCH   1   7
ATOM      7  C   UNL     1      22.910   9.059  12.565  1.00  0.00     0.000 C 
BRANCH   7   8
ATOM      8  C   UNL     1      21.422   9.091  12.976  1.00  0.00    -0.000 C 
BRANCH   8   9
ATOM      9  C   UNL     1      20.618  10.209  12.290  1.00  0.00    -0.003 C 
ATOM     10  C   UNL     1      21.239  10.672  10.974  1.00  0.00     0.004 C 
ENDBRANCH   8   9
ENDBRANCH   7   8
ENDBRANCH   1   7
TORSDOF 6
ENDMDL
