MODEL 1
REMARK VINA RESULT:    -6.584      0.000      0.000
REMARK INTER + INTRA:          -7.565
REMARK INTER:                  -7.739
REMARK INTRA:                   0.174
REMARK UNBOUND:                 0.174
REMARK SMILES O=c1c(O)c(-c2ccc(O)cc2)oc2cc(O)cc(O)c12
REMARK SMILES IDX 5 1 3 2 2 3 1 4 21 5 19 6 18 7 16 8 15 9 14 10 13 11 6 12
REMARK SMILES IDX 7 13 8 14 9 15 12 16 11 17 10 18 4 20 20 22 17 24
REMARK H PARENT 10 19 4 21 20 23 17 25
REMARK Flexibility Score: inf
ROOT
ATOM      1  C   UNL     1      10.118  -3.075  19.042  1.00  0.00     0.180 A 
ATOM      2  C   UNL     1      11.305  -2.490  18.568  1.00  0.00     0.208 A 
ATOM      3  C   UNL     1      11.345  -1.102  18.362  1.00  0.00     0.238 A 
ATOM      4  O   UNL     1      12.393  -0.592  17.886  1.00  0.00    -0.285 OA
ATOM      5  C   UNL     1      10.203  -0.314  18.646  1.00  0.00     0.111 A 
ATOM      6  C   UNL     1      10.145   1.106  18.512  1.00  0.00     0.134 A 
ATOM      7  C   UNL     1       8.924   1.767  18.697  1.00  0.00     0.093 A 
ATOM      8  C   UNL     1       7.778   1.070  19.073  1.00  0.00     0.123 A 
ATOM      9  C   UNL     1       7.837  -0.311  19.265  1.00  0.00     0.094 A 
ATOM     10  C   UNL     1       9.032  -1.003  19.054  1.00  0.00     0.146 A 
ATOM     11  O   UNL     1       9.044  -2.319  19.237  1.00  0.00    -0.452 OA
ENDROOT
BRANCH   1  12
ATOM     12  C   UNL     1      10.007  -4.528  19.309  1.00  0.00     0.021 A 
ATOM     13  C   UNL     1       8.789  -5.185  19.061  1.00  0.00     0.016 A 
ATOM     14  C   UNL     1       8.655  -6.551  19.327  1.00  0.00     0.047 A 
ATOM     15  C   UNL     1       9.732  -7.273  19.857  1.00  0.00     0.115 A 
ATOM     16  C   UNL     1      11.076  -5.256  19.860  1.00  0.00     0.016 A 
ATOM     17  C   UNL     1      10.940  -6.622  20.125  1.00  0.00     0.047 A 
BRANCH  15  18
ATOM     18  O   UNL     1       9.610  -8.636  20.125  1.00  0.00    -0.508 OA
ATOM     19  H   UNL     1       9.437  -9.306  19.386  1.00  0.00     0.293 HD
ENDBRANCH  15  18
ENDBRANCH   1  12
BRANCH   2  20
ATOM     20  O   UNL     1      12.413  -3.290  18.273  1.00  0.00    -0.502 OA
ATOM     21  H   UNL     1      12.531  -3.745  17.376  1.00  0.00     0.293 HD
ENDBRANCH   2  20
BRANCH   6  22
ATOM     22  O   UNL     1      11.254   1.910  18.229  1.00  0.00    -0.507 OA
ATOM     23  H   UNL     1      12.146   1.842  18.695  1.00  0.00     0.293 HD
ENDBRANCH   6  22
BRANCH   8  24
ATOM     24  O   UNL     1       6.584   1.763  19.263  1.00  0.00    -0.508 OA
ATOM     25  H   UNL     1       6.572   2.702  19.646  1.00  0.00     0.293 HD
ENDBRANCH   8  24
TORSDOF 5
ENDMDL
MODEL 2
REMARK VINA RESULT:    -6.081      1.312      2.804
REMARK INTER + INTRA:          -6.974
REMARK INTER:                  -7.547
REMARK INTRA:                   0.573
REMARK UNBOUND:                 0.174
REMARK SMILES O=c1c(O)c(-c2ccc(O)cc2)oc2cc(O)cc(O)c12
REMARK SMILES IDX 5 1 3 2 2 3 1 4 21 5 19 6 18 7 16 8 15 9 14 10 13 11 6 12
REMARK SMILES IDX 7 13 8 14 9 15 12 16 11 17 10 18 4 20 20 22 17 24
REMARK H PARENT 10 19 4 21 20 23 17 25
REMARK Flexibility Score: inf
ROOT
ATOM      1  C   UNL     1       9.342  -3.145  19.127  1.00  0.00     0.180 A 
ATOM      2  C   UNL     1       8.097  -2.605  18.762  1.00  0.00     0.208 A 
ATOM      3  C   UNL     1       7.998  -1.225  18.522  1.00  0.00     0.238 A 
ATOM      4  O   UNL     1       6.869  -0.740  18.249  1.00  0.00    -0.285 OA
ATOM      5  C   UNL     1       9.146  -0.405  18.634  1.00  0.00     0.111 A 
ATOM      6  C   UNL     1       9.169   0.998  18.375  1.00  0.00     0.134 A 
ATOM      7  C   UNL     1      10.331   1.731  18.644  1.00  0.00     0.093 A 
ATOM      8  C   UNL     1      11.489   1.103  19.100  1.00  0.00     0.123 A 
ATOM      9  C   UNL     1      11.497  -0.278  19.301  1.00  0.00     0.094 A 
ATOM     10  C   UNL     1      10.341  -1.031  19.075  1.00  0.00     0.146 A 
ATOM     11  O   UNL     1      10.386  -2.341  19.288  1.00  0.00    -0.452 OA
ENDROOT
BRANCH   1  12
ATOM     12  C   UNL     1       9.532  -4.593  19.371  1.00  0.00     0.021 A 
ATOM     13  C   UNL     1       8.464  -5.479  19.145  1.00  0.00     0.016 A 
ATOM     14  C   UNL     1       8.615  -6.847  19.390  1.00  0.00     0.047 A 
ATOM     15  C   UNL     1       9.830  -7.345  19.878  1.00  0.00     0.115 A 
ATOM     16  C   UNL     1      10.742  -5.098  19.880  1.00  0.00     0.016 A 
ATOM     17  C   UNL     1      10.890  -6.467  20.125  1.00  0.00     0.047 A 
BRANCH  15  18
ATOM     18  O   UNL     1       9.992  -8.707  20.125  1.00  0.00    -0.508 OA
ATOM     19  H   UNL     1       9.316  -9.230  20.669  1.00  0.00     0.293 HD
ENDBRANCH  15  18
ENDBRANCH   1  12
BRANCH   2  20
ATOM     20  O   UNL     1       6.971  -3.429  18.679  1.00  0.00    -0.502 OA
ATOM     21  H   UNL     1       6.687  -4.040  19.435  1.00  0.00     0.293 HD
ENDBRANCH   2  20
BRANCH   6  22
ATOM     22  O   UNL     1       8.095   1.709  17.831  1.00  0.00    -0.507 OA
ATOM     23  H   UNL     1       7.842   2.652  18.086  1.00  0.00     0.293 HD
ENDBRANCH   6  22
BRANCH   8  24
ATOM     24  O   UNL     1      12.632   1.862  19.342  1.00  0.00    -0.508 OA
ATOM     25  H   UNL     1      13.145   2.304  18.587  1.00  0.00     0.293 HD
ENDBRANCH   8  24
TORSDOF 5
ENDMDL
MODEL 3
REMARK VINA RESULT:    -5.454      1.490      6.566
REMARK INTER + INTRA:          -6.236
REMARK INTER:                  -6.613
REMARK INTRA:                   0.377
REMARK UNBOUND:                 0.174
REMARK SMILES O=c1c(O)c(-c2ccc(O)cc2)oc2cc(O)cc(O)c12
REMARK SMILES IDX 5 1 3 2 2 3 1 4 21 5 19 6 18 7 16 8 15 9 14 10 13 11 6 12
REMARK SMILES IDX 7 13 8 14 9 15 12 16 11 17 10 18 4 20 20 22 17 24
REMARK H PARENT 10 19 4 21 20 23 17 25
REMARK Flexibility Score: inf
ROOT
ATOM      1  C   UNL     1       9.843  -1.926  19.310  1.00  0.00     0.180 A 
ATOM      2  C   UNL     1      11.178  -2.265  19.590  1.00  0.00     0.208 A 
ATOM      3  C   UNL     1      11.506  -3.612  19.811  1.00  0.00     0.238 A 
ATOM      4  O   UNL     1      12.693  -3.902  20.116  1.00  0.00    -0.285 OA
ATOM      5  C   UNL     1      10.500  -4.606  19.732  1.00  0.00     0.111 A 
ATOM      6  C   UNL     1      10.728  -6.004  19.898  1.00  0.00     0.134 A 
ATOM      7  C   UNL     1       9.638  -6.883  19.929  1.00  0.00     0.093 A 
ATOM      8  C   UNL     1       8.337  -6.422  19.735  1.00  0.00     0.123 A 
ATOM      9  C   UNL     1       8.107  -5.063  19.513  1.00  0.00     0.094 A 
ATOM     10  C   UNL     1       9.172  -4.159  19.512  1.00  0.00     0.146 A 
ATOM     11  O   UNL     1       8.911  -2.872  19.307  1.00  0.00    -0.452 OA
ENDROOT
BRANCH   1  12
ATOM     12  C   UNL     1       9.423  -0.532  19.040  1.00  0.00     0.021 A 
ATOM     13  C   UNL     1      10.127   0.529  19.635  1.00  0.00     0.016 A 
ATOM     14  C   UNL     1       9.735   1.852  19.412  1.00  0.00     0.047 A 
ATOM     15  C   UNL     1       8.625   2.130  18.604  1.00  0.00     0.115 A 
ATOM     16  C   UNL     1       8.298  -0.246  18.247  1.00  0.00     0.016 A 
ATOM     17  C   UNL     1       7.907   1.079  18.026  1.00  0.00     0.047 A 
BRANCH  15  18
ATOM     18  O   UNL     1       8.225   3.445  18.375  1.00  0.00    -0.508 OA
ATOM     19  H   UNL     1       8.457   3.926  17.513  1.00  0.00     0.293 HD
ENDBRANCH  15  18
ENDBRANCH   1  12
BRANCH   2  20
ATOM     20  O   UNL     1      12.151  -1.266  19.685  1.00  0.00    -0.502 OA
ATOM     21  H   UNL     1      12.822  -1.090  18.947  1.00  0.00     0.293 HD
ENDBRANCH   2  20
BRANCH   6  22
ATOM     22  O   UNL     1      11.997  -6.581  20.008  1.00  0.00    -0.507 OA
ATOM     23  H   UNL     1      12.811  -6.282  19.492  1.00  0.00     0.293 HD
ENDBRANCH   6  22
BRANCH   8  24
ATOM     24  O   UNL     1       7.277  -7.327  19.757  1.00  0.00    -0.508 OA
ATOM     25  H   UNL     1       6.584  -7.349  19.018  1.00  0.00     0.293 HD
ENDBRANCH   8  24
TORSDOF 5
ENDMDL
MODEL 4
REMARK VINA RESULT:    -5.450      2.795      6.500
REMARK INTER + INTRA:          -6.233
REMARK INTER:                  -6.806
REMARK INTRA:                   0.574
REMARK UNBOUND:                 0.174
REMARK SMILES O=c1c(O)c(-c2ccc(O)cc2)oc2cc(O)cc(O)c12
REMARK SMILES IDX 5 1 3 2 2 3 1 4 21 5 19 6 18 7 16 8 15 9 14 10 13 11 6 12
REMARK SMILES IDX 7 13 8 14 9 15 12 16 11 17 10 18 4 20 20 22 17 24
REMARK H PARENT 10 19 4 21 20 23 17 25
REMARK Flexibility Score: inf
ROOT
ATOM      1  C   UNL     1      12.533  -3.404  19.573  1.00  0.00     0.180 A 
ATOM      2  C   UNL     1      11.475  -2.579  19.153  1.00  0.00     0.208 A 
ATOM      3  C   UNL     1      10.186  -3.124  19.050  1.00  0.00     0.238 A 
ATOM      4  O   UNL     1       9.254  -2.394  18.620  1.00  0.00    -0.285 OA
ATOM      5  C   UNL     1       9.965  -4.482  19.383  1.00  0.00     0.111 A 
ATOM      6  C   UNL     1       8.693  -5.128  19.353  1.00  0.00     0.134 A 
ATOM      7  C   UNL     1       8.613  -6.508  19.577  1.00  0.00     0.093 A 
ATOM      8  C   UNL     1       9.749  -7.252  19.893  1.00  0.00     0.123 A 
ATOM      9  C   UNL     1      10.990  -6.621  19.983  1.00  0.00     0.094 A 
ATOM     10  C   UNL     1      11.106  -5.252  19.730  1.00  0.00     0.146 A 
ATOM     11  O   UNL     1      12.307  -4.690  19.816  1.00  0.00    -0.452 OA
ENDROOT
BRANCH   1  12
ATOM     12  C   UNL     1      13.915  -2.896  19.732  1.00  0.00     0.021 A 
ATOM     13  C   UNL     1      14.171  -1.525  19.560  1.00  0.00     0.016 A 
ATOM     14  C   UNL     1      15.472  -1.028  19.683  1.00  0.00     0.047 A 
ATOM     15  C   UNL     1      16.534  -1.897  19.965  1.00  0.00     0.115 A 
ATOM     16  C   UNL     1      14.989  -3.765  19.995  1.00  0.00     0.016 A 
ATOM     17  C   UNL     1      16.289  -3.265  20.117  1.00  0.00     0.047 A 
BRANCH  15  18
ATOM     18  O   UNL     1      17.835  -1.412  20.090  1.00  0.00    -0.508 OA
ATOM     19  H   UNL     1      18.547  -1.622  19.401  1.00  0.00     0.293 HD
ENDBRANCH  15  18
ENDBRANCH   1  12
BRANCH   2  20
ATOM     20  O   UNL     1      11.719  -1.246  18.808  1.00  0.00    -0.502 OA
ATOM     21  H   UNL     1      12.298  -0.987  18.018  1.00  0.00     0.293 HD
ENDBRANCH   2  20
BRANCH   6  22
ATOM     22  O   UNL     1       7.483  -4.460  19.138  1.00  0.00    -0.507 OA
ATOM     23  H   UNL     1       7.206  -4.042  18.262  1.00  0.00     0.293 HD
ENDBRANCH   6  22
BRANCH   8  24
ATOM     24  O   UNL     1       9.629  -8.621  20.125  1.00  0.00    -0.508 OA
ATOM     25  H   UNL     1       8.850  -9.155  19.758  1.00  0.00     0.293 HD
ENDBRANCH   8  24
TORSDOF 5
ENDMDL
MODEL 5
REMARK VINA RESULT:    -5.396      3.088      5.683
REMARK INTER + INTRA:          -6.169
REMARK INTER:                  -5.873
REMARK INTRA:                  -0.296
REMARK UNBOUND:                 0.174
REMARK SMILES O=c1c(O)c(-c2ccc(O)cc2)oc2cc(O)cc(O)c12
REMARK SMILES IDX 5 1 3 2 2 3 1 4 21 5 19 6 18 7 16 8 15 9 14 10 13 11 6 12
REMARK SMILES IDX 7 13 8 14 9 15 12 16 11 17 10 18 4 20 20 22 17 24
REMARK H PARENT 10 19 4 21 20 23 17 25
REMARK Flexibility Score: inf
ROOT
ATOM      1  C   UNL     1      11.104  -2.230  18.111  1.00  0.00     0.180 A 
ATOM      2  C   UNL     1      11.637  -0.951  18.350  1.00  0.00     0.208 A 
ATOM      3  C   UNL     1      12.936  -0.842  18.871  1.00  0.00     0.238 A 
ATOM      4  O   UNL     1      13.387   0.303  19.134  1.00  0.00    -0.285 OA
ATOM      5  C   UNL     1      13.692  -2.011  19.132  1.00  0.00     0.111 A 
ATOM      6  C   UNL     1      15.032  -2.017  19.623  1.00  0.00     0.134 A 
ATOM      7  C   UNL     1      15.636  -3.232  19.968  1.00  0.00     0.093 A 
ATOM      8  C   UNL     1      14.973  -4.444  19.779  1.00  0.00     0.123 A 
ATOM      9  C   UNL     1      13.684  -4.455  19.245  1.00  0.00     0.094 A 
ATOM     10  C   UNL     1      13.043  -3.255  18.924  1.00  0.00     0.146 A 
ATOM     11  O   UNL     1      11.812  -3.308  18.427  1.00  0.00    -0.452 OA
ENDROOT
BRANCH   1  12
ATOM     12  C   UNL     1       9.752  -2.426  17.539  1.00  0.00     0.021 A 
ATOM     13  C   UNL     1       8.652  -2.578  18.400  1.00  0.00     0.016 A 
ATOM     14  C   UNL     1       7.370  -2.786  17.882  1.00  0.00     0.047 A 
ATOM     15  C   UNL     1       7.175  -2.860  16.497  1.00  0.00     0.115 A 
ATOM     16  C   UNL     1       9.551  -2.521  16.150  1.00  0.00     0.016 A 
ATOM     17  C   UNL     1       8.268  -2.730  15.634  1.00  0.00     0.047 A 
BRANCH  15  18
ATOM     18  O   UNL     1       5.902  -3.066  15.969  1.00  0.00    -0.508 OA
ATOM     19  H   UNL     1       5.761  -3.604  15.122  1.00  0.00     0.293 HD
ENDBRANCH  15  18
ENDBRANCH   1  12
BRANCH   2  20
ATOM     20  O   UNL     1      10.866   0.188  18.106  1.00  0.00    -0.502 OA
ATOM     21  H   UNL     1       9.864   0.207  18.251  1.00  0.00     0.293 HD
ENDBRANCH   2  20
BRANCH   6  22
ATOM     22  O   UNL     1      15.817  -0.868  19.762  1.00  0.00    -0.507 OA
ATOM     23  H   UNL     1      15.875  -0.310  20.601  1.00  0.00     0.293 HD
ENDBRANCH   6  22
BRANCH   8  24
ATOM     24  O   UNL     1      15.611  -5.636  20.120  1.00  0.00    -0.508 OA
ATOM     25  H   UNL     1      15.914  -6.295  19.412  1.00  0.00     0.293 HD
ENDBRANCH   8  24
TORSDOF 5
ENDMDL
MODEL 6
REMARK VINA RESULT:    -4.997      2.914      4.543
REMARK INTER + INTRA:          -5.700
REMARK INTER:                  -5.848
REMARK INTRA:                   0.148
REMARK UNBOUND:                 0.174
REMARK SMILES O=c1c(O)c(-c2ccc(O)cc2)oc2cc(O)cc(O)c12
REMARK SMILES IDX 5 1 3 2 2 3 1 4 21 5 19 6 18 7 16 8 15 9 14 10 13 11 6 12
REMARK SMILES IDX 7 13 8 14 9 15 12 16 11 17 10 18 4 20 20 22 17 24
REMARK H PARENT 10 19 4 21 20 23 17 25
REMARK Flexibility Score: inf
ROOT
ATOM      1  C   UNL     1      10.875  -0.864  18.866  1.00  0.00     0.180 A 
ATOM      2  C   UNL     1       9.813  -1.770  18.696  1.00  0.00     0.208 A 
ATOM      3  C   UNL     1       8.516  -1.271  18.505  1.00  0.00     0.238 A 
ATOM      4  O   UNL     1       7.562  -2.088  18.409  1.00  0.00    -0.285 OA
ATOM      5  C   UNL     1       8.296   0.128  18.469  1.00  0.00     0.111 A 
ATOM      6  C   UNL     1       7.029   0.743  18.242  1.00  0.00     0.134 A 
ATOM      7  C   UNL     1       6.906   2.134  18.357  1.00  0.00     0.093 A 
ATOM      8  C   UNL     1       8.015   2.934  18.626  1.00  0.00     0.123 A 
ATOM      9  C   UNL     1       9.271   2.348  18.792  1.00  0.00     0.094 A 
ATOM     10  C   UNL     1       9.417   0.960  18.718  1.00  0.00     0.146 A 
ATOM     11  O   UNL     1      10.627   0.440  18.892  1.00  0.00    -0.452 OA
ENDROOT
BRANCH   1  12
ATOM     12  C   UNL     1      12.274  -1.313  19.046  1.00  0.00     0.021 A 
ATOM     13  C   UNL     1      13.120  -0.607  19.919  1.00  0.00     0.016 A 
ATOM     14  C   UNL     1      14.451  -1.000  20.087  1.00  0.00     0.047 A 
ATOM     15  C   UNL     1      14.957  -2.095  19.375  1.00  0.00     0.115 A 
ATOM     16  C   UNL     1      12.795  -2.399  18.319  1.00  0.00     0.016 A 
ATOM     17  C   UNL     1      14.127  -2.790  18.490  1.00  0.00     0.047 A 
BRANCH  15  18
ATOM     18  O   UNL     1      16.282  -2.496  19.536  1.00  0.00    -0.508 OA
ATOM     19  H   UNL     1      16.711  -3.167  18.909  1.00  0.00     0.293 HD
ENDBRANCH  15  18
ENDBRANCH   1  12
BRANCH   2  20
ATOM     20  O   UNL     1      10.049  -3.147  18.757  1.00  0.00    -0.502 OA
ATOM     21  H   UNL     1      10.128  -3.722  17.927  1.00  0.00     0.293 HD
ENDBRANCH   2  20
BRANCH   6  22
ATOM     22  O   UNL     1       5.875   0.043  17.875  1.00  0.00    -0.507 OA
ATOM     23  H   UNL     1       5.315  -0.511  18.505  1.00  0.00     0.293 HD
ENDBRANCH   6  22
BRANCH   8  24
ATOM     24  O   UNL     1       7.858   4.316  18.718  1.00  0.00    -0.508 OA
ATOM     25  H   UNL     1       8.604   4.912  19.059  1.00  0.00     0.293 HD
ENDBRANCH   8  24
TORSDOF 5
ENDMDL
MODEL 7
REMARK VINA RESULT:    -4.943      1.684      7.102
REMARK INTER + INTRA:          -5.637
REMARK INTER:                  -5.586
REMARK INTRA:                  -0.051
REMARK UNBOUND:                 0.174
REMARK SMILES O=c1c(O)c(-c2ccc(O)cc2)oc2cc(O)cc(O)c12
REMARK SMILES IDX 5 1 3 2 2 3 1 4 21 5 19 6 18 7 16 8 15 9 14 10 13 11 6 12
REMARK SMILES IDX 7 13 8 14 9 15 12 16 11 17 10 18 4 20 20 22 17 24
REMARK H PARENT 10 19 4 21 20 23 17 25
REMARK Flexibility Score: inf
ROOT
ATOM      1  C   UNL     1       9.677  -2.610  19.383  1.00  0.00     0.180 A 
ATOM      2  C   UNL     1       8.592  -3.503  19.324  1.00  0.00     0.208 A 
ATOM      3  C   UNL     1       8.830  -4.876  19.493  1.00  0.00     0.238 A 
ATOM      4  O   UNL     1       7.862  -5.674  19.384  1.00  0.00    -0.285 OA
ATOM      5  C   UNL     1      10.146  -5.339  19.735  1.00  0.00     0.111 A 
ATOM      6  C   UNL     1      10.496  -6.704  19.961  1.00  0.00     0.134 A 
ATOM      7  C   UNL     1      11.845  -7.064  20.060  1.00  0.00     0.093 A 
ATOM      8  C   UNL     1      12.852  -6.102  20.007  1.00  0.00     0.123 A 
ATOM      9  C   UNL     1      12.519  -4.756  19.846  1.00  0.00     0.094 A 
ATOM     10  C   UNL     1      11.183  -4.371  19.709  1.00  0.00     0.146 A 
ATOM     11  O   UNL     1      10.908  -3.082  19.546  1.00  0.00    -0.452 OA
ENDROOT
BRANCH   1  12
ATOM     12  C   UNL     1       9.503  -1.147  19.240  1.00  0.00     0.021 A 
ATOM     13  C   UNL     1      10.283  -0.446  18.304  1.00  0.00     0.016 A 
ATOM     14  C   UNL     1      10.151   0.939  18.167  1.00  0.00     0.047 A 
ATOM     15  C   UNL     1       9.249   1.643  18.977  1.00  0.00     0.115 A 
ATOM     16  C   UNL     1       8.615  -0.431  20.063  1.00  0.00     0.016 A 
ATOM     17  C   UNL     1       8.485   0.955  19.925  1.00  0.00     0.047 A 
BRANCH  15  18
ATOM     18  O   UNL     1       9.109   3.023  18.849  1.00  0.00    -0.508 OA
ATOM     19  H   UNL     1       8.940   3.457  17.949  1.00  0.00     0.293 HD
ENDBRANCH  15  18
ENDBRANCH   1  12
BRANCH   2  20
ATOM     20  O   UNL     1       7.305  -3.026  19.062  1.00  0.00    -0.502 OA
ATOM     21  H   UNL     1       6.528  -3.184  19.693  1.00  0.00     0.293 HD
ENDBRANCH   2  20
BRANCH   6  22
ATOM     22  O   UNL     1       9.562  -7.733  20.122  1.00  0.00    -0.507 OA
ATOM     23  H   UNL     1       9.454  -8.514  19.492  1.00  0.00     0.293 HD
ENDBRANCH   6  22
BRANCH   8  24
ATOM     24  O   UNL     1      14.184  -6.495  20.125  1.00  0.00    -0.508 OA
ATOM     25  H   UNL     1      14.494  -7.413  19.827  1.00  0.00     0.293 HD
ENDBRANCH   8  24
TORSDOF 5
ENDMDL
MODEL 8
REMARK VINA RESULT:    -4.836      3.681      6.708
REMARK INTER + INTRA:          -5.510
REMARK INTER:                  -6.014
REMARK INTRA:                   0.504
REMARK UNBOUND:                 0.174
REMARK SMILES O=c1c(O)c(-c2ccc(O)cc2)oc2cc(O)cc(O)c12
REMARK SMILES IDX 5 1 3 2 2 3 1 4 21 5 19 6 18 7 16 8 15 9 14 10 13 11 6 12
REMARK SMILES IDX 7 13 8 14 9 15 12 16 11 17 10 18 4 20 20 22 17 24
REMARK H PARENT 10 19 4 21 20 23 17 25
REMARK Flexibility Score: inf
ROOT
ATOM      1  C   UNL     1      14.000  -2.807  19.398  1.00  0.00     0.180 A 
ATOM      2  C   UNL     1      13.085  -1.812  19.012  1.00  0.00     0.208 A 
ATOM      3  C   UNL     1      11.717  -2.124  18.966  1.00  0.00     0.238 A 
ATOM      4  O   UNL     1      10.910  -1.245  18.567  1.00  0.00    -0.285 OA
ATOM      5  C   UNL     1      11.278  -3.422  19.323  1.00  0.00     0.111 A 
ATOM      6  C   UNL     1       9.913  -3.836  19.352  1.00  0.00     0.134 A 
ATOM      7  C   UNL     1       9.604  -5.181  19.594  1.00  0.00     0.093 A 
ATOM      8  C   UNL     1      10.605  -6.110  19.873  1.00  0.00     0.123 A 
ATOM      9  C   UNL     1      11.940  -5.704  19.906  1.00  0.00     0.094 A 
ATOM     10  C   UNL     1      12.281  -4.377  19.633  1.00  0.00     0.146 A 
ATOM     11  O   UNL     1      13.564  -4.033  19.664  1.00  0.00    -0.452 OA
ENDROOT
BRANCH   1  12
ATOM     12  C   UNL     1      15.454  -2.547  19.495  1.00  0.00     0.021 A 
ATOM     13  C   UNL     1      16.303  -3.547  19.999  1.00  0.00     0.016 A 
ATOM     14  C   UNL     1      17.677  -3.315  20.120  1.00  0.00     0.047 A 
ATOM     15  C   UNL     1      18.216  -2.075  19.753  1.00  0.00     0.115 A 
ATOM     16  C   UNL     1      16.000  -1.298  19.147  1.00  0.00     0.016 A 
ATOM     17  C   UNL     1      17.374  -1.069  19.270  1.00  0.00     0.047 A 
BRANCH  15  18
ATOM     18  O   UNL     1      19.583  -1.833  19.868  1.00  0.00    -0.508 OA
ATOM     19  H   UNL     1      19.955  -1.235  20.596  1.00  0.00     0.293 HD
ENDBRANCH  15  18
ENDBRANCH   1  12
BRANCH   2  20
ATOM     20  O   UNL     1      13.543  -0.543  18.642  1.00  0.00    -0.502 OA
ATOM     21  H   UNL     1      13.551  -0.228  17.680  1.00  0.00     0.293 HD
ENDBRANCH   2  20
BRANCH   6  22
ATOM     22  O   UNL     1       8.830  -2.969  19.178  1.00  0.00    -0.507 OA
ATOM     23  H   UNL     1       8.890  -2.051  18.764  1.00  0.00     0.293 HD
ENDBRANCH   6  22
BRANCH   8  24
ATOM     24  O   UNL     1      10.259  -7.437  20.124  1.00  0.00    -0.508 OA
ATOM     25  H   UNL     1      10.725  -8.204  19.653  1.00  0.00     0.293 HD
ENDBRANCH   8  24
TORSDOF 5
ENDMDL
MODEL 9
REMARK VINA RESULT:    -4.790      4.097      6.034
REMARK INTER + INTRA:          -5.457
REMARK INTER:                  -5.688
REMARK INTRA:                   0.231
REMARK UNBOUND:                 0.174
REMARK SMILES O=c1c(O)c(-c2ccc(O)cc2)oc2cc(O)cc(O)c12
REMARK SMILES IDX 5 1 3 2 2 3 1 4 21 5 19 6 18 7 16 8 15 9 14 10 13 11 6 12
REMARK SMILES IDX 7 13 8 14 9 15 12 16 11 17 10 18 4 20 20 22 17 24
REMARK H PARENT 10 19 4 21 20 23 17 25
REMARK Flexibility Score: inf
ROOT
ATOM      1  C   UNL     1      14.559  -1.788  19.402  1.00  0.00     0.180 A 
ATOM      2  C   UNL     1      13.671  -2.835  19.098  1.00  0.00     0.208 A 
ATOM      3  C   UNL     1      12.300  -2.554  18.989  1.00  0.00     0.238 A 
ATOM      4  O   UNL     1      11.505  -3.506  18.771  1.00  0.00    -0.285 OA
ATOM      5  C   UNL     1      11.835  -1.229  19.168  1.00  0.00     0.111 A 
ATOM      6  C   UNL     1      10.472  -0.824  19.041  1.00  0.00     0.134 A 
ATOM      7  C   UNL     1      10.108   0.488  19.368  1.00  0.00     0.093 A 
ATOM      8  C   UNL     1      11.065   1.425  19.754  1.00  0.00     0.123 A 
ATOM      9  C   UNL     1      12.409   1.056  19.825  1.00  0.00     0.094 A 
ATOM     10  C   UNL     1      12.797  -0.255  19.539  1.00  0.00     0.146 A 
ATOM     11  O   UNL     1      14.085  -0.569  19.628  1.00  0.00    -0.452 OA
ENDROOT
BRANCH   1  12
ATOM     12  C   UNL     1      16.021  -2.000  19.508  1.00  0.00     0.021 A 
ATOM     13  C   UNL     1      16.899  -1.025  19.004  1.00  0.00     0.016 A 
ATOM     14  C   UNL     1      18.283  -1.215  19.073  1.00  0.00     0.047 A 
ATOM     15  C   UNL     1      18.805  -2.387  19.634  1.00  0.00     0.115 A 
ATOM     16  C   UNL     1      16.552  -3.184  20.051  1.00  0.00     0.016 A 
ATOM     17  C   UNL     1      17.937  -3.371  20.119  1.00  0.00     0.047 A 
BRANCH  15  18
ATOM     18  O   UNL     1      20.182  -2.587  19.710  1.00  0.00    -0.508 OA
ATOM     19  H   UNL     1      20.817  -1.822  19.907  1.00  0.00     0.293 HD
ENDBRANCH  15  18
ENDBRANCH   1  12
BRANCH   2  20
ATOM     20  O   UNL     1      14.150  -4.140  18.947  1.00  0.00    -0.502 OA
ATOM     21  H   UNL     1      13.578  -4.888  18.574  1.00  0.00     0.293 HD
ENDBRANCH   2  20
BRANCH   6  22
ATOM     22  O   UNL     1       9.451  -1.658  18.574  1.00  0.00    -0.507 OA
ATOM     23  H   UNL     1       8.858  -1.452  17.783  1.00  0.00     0.293 HD
ENDBRANCH   6  22
BRANCH   8  24
ATOM     24  O   UNL     1      10.668   2.726  20.057  1.00  0.00    -0.508 OA
ATOM     25  H   UNL     1      10.725   3.470  19.372  1.00  0.00     0.293 HD
ENDBRANCH   8  24
TORSDOF 5
ENDMDL
