MODEL 1
REMARK VINA RESULT:    -8.119      0.000      0.000
REMARK INTER + INTRA:          -9.851
REMARK INTER:                  -9.543
REMARK INTRA:                  -0.308
REMARK UNBOUND:                -0.308
REMARK SMILES O=c1cc(-c2ccc(O)c(O)c2)oc2cc(O)cc(O)c12
REMARK SMILES IDX 4 1 3 2 2 3 1 4 21 5 19 6 18 7 16 8 15 9 14 10 13 11 5 12
REMARK SMILES IDX 6 13 7 14 8 15 12 16 10 17 9 18 11 20 20 22 17 24
REMARK H PARENT 9 19 11 21 20 23 17 25
REMARK Flexibility Score: inf
ROOT
ATOM      1  C   UNL     1     -51.649  35.947  22.195  1.00  0.00     0.138 A 
ATOM      2  C   UNL     1     -52.869  36.446  21.708  1.00  0.00     0.100 A 
ATOM      3  C   UNL     1     -53.639  35.659  20.852  1.00  0.00     0.197 A 
ATOM      4  O   UNL     1     -54.733  36.116  20.422  1.00  0.00    -0.289 OA
ATOM      5  C   UNL     1     -53.186  34.376  20.491  1.00  0.00     0.107 A 
ATOM      6  C   UNL     1     -53.905  33.514  19.628  1.00  0.00     0.134 A 
ATOM      7  C   UNL     1     -53.387  32.247  19.321  1.00  0.00     0.093 A 
ATOM      8  C   UNL     1     -52.169  31.825  19.860  1.00  0.00     0.123 A 
ATOM      9  C   UNL     1     -51.455  32.672  20.714  1.00  0.00     0.094 A 
ATOM     10  C   UNL     1     -51.952  33.939  21.030  1.00  0.00     0.146 A 
ATOM     11  O   UNL     1     -51.254  34.727  21.843  1.00  0.00    -0.456 OA
ENDROOT
BRANCH   1  12
ATOM     12  C   UNL     1     -50.788  36.739  23.110  1.00  0.00     0.021 A 
ATOM     13  C   UNL     1     -50.858  38.143  23.082  1.00  0.00     0.016 A 
ATOM     14  C   UNL     1     -50.064  38.912  23.937  1.00  0.00     0.051 A 
ATOM     15  C   UNL     1     -49.194  38.290  24.841  1.00  0.00     0.157 A 
ATOM     16  C   UNL     1     -49.920  36.121  24.031  1.00  0.00     0.062 A 
ATOM     17  C   UNL     1     -49.124  36.894  24.891  1.00  0.00     0.158 A 
BRANCH  15  18
ATOM     18  O   UNL     1     -48.399  39.054  25.694  1.00  0.00    -0.504 OA
ATOM     19  H   UNL     1     -48.525  39.031  26.699  1.00  0.00     0.293 HD
ENDBRANCH  15  18
BRANCH  17  20
ATOM     20  O   UNL     1     -48.265  36.278  25.800  1.00  0.00    -0.504 OA
ATOM     21  H   UNL     1     -47.874  35.360  25.622  1.00  0.00     0.293 HD
ENDBRANCH  17  20
ENDBRANCH   1  12
BRANCH   6  22
ATOM     22  O   UNL     1     -55.125  33.907  19.075  1.00  0.00    -0.507 OA
ATOM     23  H   UNL     1     -55.612  33.332  18.398  1.00  0.00     0.293 HD
ENDBRANCH   6  22
BRANCH   8  24
ATOM     24  O   UNL     1     -51.678  30.562  19.539  1.00  0.00    -0.508 OA
ATOM     25  H   UNL     1     -50.849  30.187  19.986  1.00  0.00     0.293 HD
ENDBRANCH   8  24
TORSDOF 5
ENDMDL
MODEL 2
REMARK VINA RESULT:    -7.990      1.924      6.990
REMARK INTER + INTRA:          -9.699
REMARK INTER:                  -9.418
REMARK INTRA:                  -0.281
REMARK UNBOUND:                -0.308
REMARK SMILES O=c1cc(-c2ccc(O)c(O)c2)oc2cc(O)cc(O)c12
REMARK SMILES IDX 4 1 3 2 2 3 1 4 21 5 19 6 18 7 16 8 15 9 14 10 13 11 5 12
REMARK SMILES IDX 6 13 7 14 8 15 12 16 10 17 9 18 11 20 20 22 17 24
REMARK H PARENT 9 19 11 21 20 23 17 25
REMARK Flexibility Score: inf
ROOT
ATOM      1  C   UNL     1     -52.729  34.798  21.996  1.00  0.00     0.138 A 
ATOM      2  C   UNL     1     -53.862  35.180  22.734  1.00  0.00     0.100 A 
ATOM      3  C   UNL     1     -53.735  36.140  23.737  1.00  0.00     0.197 A 
ATOM      4  O   UNL     1     -54.759  36.477  24.393  1.00  0.00    -0.289 OA
ATOM      5  C   UNL     1     -52.476  36.716  23.995  1.00  0.00     0.107 A 
ATOM      6  C   UNL     1     -52.261  37.695  24.994  1.00  0.00     0.134 A 
ATOM      7  C   UNL     1     -50.975  38.224  25.184  1.00  0.00     0.093 A 
ATOM      8  C   UNL     1     -49.904  37.794  24.396  1.00  0.00     0.123 A 
ATOM      9  C   UNL     1     -50.111  36.827  23.407  1.00  0.00     0.094 A 
ATOM     10  C   UNL     1     -51.384  36.287  23.203  1.00  0.00     0.146 A 
ATOM     11  O   UNL     1     -51.555  35.368  22.258  1.00  0.00    -0.456 OA
ENDROOT
BRANCH   1  12
ATOM     12  C   UNL     1     -52.803  33.782  20.916  1.00  0.00     0.021 A 
ATOM     13  C   UNL     1     -51.779  32.826  20.794  1.00  0.00     0.016 A 
ATOM     14  C   UNL     1     -51.828  31.855  19.791  1.00  0.00     0.051 A 
ATOM     15  C   UNL     1     -52.907  31.815  18.899  1.00  0.00     0.157 A 
ATOM     16  C   UNL     1     -53.892  33.727  20.023  1.00  0.00     0.062 A 
ATOM     17  C   UNL     1     -53.942  32.750  19.017  1.00  0.00     0.158 A 
BRANCH  15  18
ATOM     18  O   UNL     1     -52.959  30.849  17.896  1.00  0.00    -0.504 OA
ATOM     19  H   UNL     1     -52.234  30.149  17.796  1.00  0.00     0.293 HD
ENDBRANCH  15  18
BRANCH  17  20
ATOM     20  O   UNL     1     -55.020  32.701  18.135  1.00  0.00    -0.504 OA
ATOM     21  H   UNL     1     -55.272  31.847  17.652  1.00  0.00     0.293 HD
ENDBRANCH  17  20
ENDBRANCH   1  12
BRANCH   6  22
ATOM     22  O   UNL     1     -53.311  38.145  25.796  1.00  0.00    -0.507 OA
ATOM     23  H   UNL     1     -53.818  37.519  26.411  1.00  0.00     0.293 HD
ENDBRANCH   6  22
BRANCH   8  24
ATOM     24  O   UNL     1     -48.638  38.336  24.606  1.00  0.00    -0.508 OA
ATOM     25  H   UNL     1     -47.797  37.823  24.369  1.00  0.00     0.293 HD
ENDBRANCH   8  24
TORSDOF 5
ENDMDL
MODEL 3
REMARK VINA RESULT:    -7.763      2.617      7.134
REMARK INTER + INTRA:          -9.433
REMARK INTER:                  -9.165
REMARK INTRA:                  -0.268
REMARK UNBOUND:                -0.308
REMARK SMILES O=c1cc(-c2ccc(O)c(O)c2)oc2cc(O)cc(O)c12
REMARK SMILES IDX 4 1 3 2 2 3 1 4 21 5 19 6 18 7 16 8 15 9 14 10 13 11 5 12
REMARK SMILES IDX 6 13 7 14 8 15 12 16 10 17 9 18 11 20 20 22 17 24
REMARK H PARENT 9 19 11 21 20 23 17 25
REMARK Flexibility Score: inf
ROOT
ATOM      1  C   UNL     1     -53.183  34.943  21.329  1.00  0.00     0.138 A 
ATOM      2  C   UNL     1     -52.133  35.865  21.186  1.00  0.00     0.100 A 
ATOM      3  C   UNL     1     -51.874  36.775  22.211  1.00  0.00     0.197 A 
ATOM      4  O   UNL     1     -50.928  37.598  22.074  1.00  0.00    -0.289 OA
ATOM      5  C   UNL     1     -52.666  36.754  23.376  1.00  0.00     0.107 A 
ATOM      6  C   UNL     1     -52.471  37.641  24.461  1.00  0.00     0.134 A 
ATOM      7  C   UNL     1     -53.300  37.552  25.590  1.00  0.00     0.093 A 
ATOM      8  C   UNL     1     -54.317  36.596  25.653  1.00  0.00     0.123 A 
ATOM      9  C   UNL     1     -54.513  35.716  24.584  1.00  0.00     0.094 A 
ATOM     10  C   UNL     1     -53.699  35.789  23.450  1.00  0.00     0.146 A 
ATOM     11  O   UNL     1     -53.906  34.943  22.446  1.00  0.00    -0.456 OA
ENDROOT
BRANCH   1  12
ATOM     12  C   UNL     1     -53.504  33.951  20.272  1.00  0.00     0.021 A 
ATOM     13  C   UNL     1     -54.786  33.946  19.695  1.00  0.00     0.016 A 
ATOM     14  C   UNL     1     -55.112  33.028  18.694  1.00  0.00     0.051 A 
ATOM     15  C   UNL     1     -54.159  32.106  18.244  1.00  0.00     0.157 A 
ATOM     16  C   UNL     1     -52.546  33.030  19.805  1.00  0.00     0.062 A 
ATOM     17  C   UNL     1     -52.874  32.109  18.797  1.00  0.00     0.158 A 
BRANCH  15  18
ATOM     18  O   UNL     1     -54.480  31.188  17.246  1.00  0.00    -0.504 OA
ATOM     19  H   UNL     1     -54.506  30.192  17.431  1.00  0.00     0.293 HD
ENDBRANCH  15  18
BRANCH  17  20
ATOM     20  O   UNL     1     -51.923  31.197  18.339  1.00  0.00    -0.504 OA
ATOM     21  H   UNL     1     -52.185  30.394  17.779  1.00  0.00     0.293 HD
ENDBRANCH  17  20
ENDBRANCH   1  12
BRANCH   6  22
ATOM     22  O   UNL     1     -51.464  38.607  24.427  1.00  0.00    -0.507 OA
ATOM     23  H   UNL     1     -50.609  38.505  24.961  1.00  0.00     0.293 HD
ENDBRANCH   6  22
BRANCH   8  24
ATOM     24  O   UNL     1     -55.125  36.528  26.786  1.00  0.00    -0.508 OA
ATOM     25  H   UNL     1     -55.972  37.079  26.865  1.00  0.00     0.293 HD
ENDBRANCH   8  24
TORSDOF 5
ENDMDL
MODEL 4
REMARK VINA RESULT:    -7.496      5.414     11.628
REMARK INTER + INTRA:          -9.119
REMARK INTER:                  -8.802
REMARK INTRA:                  -0.317
REMARK UNBOUND:                -0.308
REMARK SMILES O=c1cc(-c2ccc(O)c(O)c2)oc2cc(O)cc(O)c12
REMARK SMILES IDX 4 1 3 2 2 3 1 4 21 5 19 6 18 7 16 8 15 9 14 10 13 11 5 12
REMARK SMILES IDX 6 13 7 14 8 15 12 16 10 17 9 18 11 20 20 22 17 24
REMARK H PARENT 9 19 11 21 20 23 17 25
REMARK Flexibility Score: inf
ROOT
ATOM      1  C   UNL     1     -47.231  39.771  27.990  1.00  0.00     0.138 A 
ATOM      2  C   UNL     1     -46.900  39.187  29.225  1.00  0.00     0.100 A 
ATOM      3  C   UNL     1     -46.268  39.959  30.200  1.00  0.00     0.197 A 
ATOM      4  O   UNL     1     -45.976  39.426  31.305  1.00  0.00    -0.289 OA
ATOM      5  C   UNL     1     -45.975  41.311  29.936  1.00  0.00     0.107 A 
ATOM      6  C   UNL     1     -45.336  42.161  30.869  1.00  0.00     0.134 A 
ATOM      7  C   UNL     1     -45.083  43.500  30.531  1.00  0.00     0.093 A 
ATOM      8  C   UNL     1     -45.457  44.001  29.281  1.00  0.00     0.123 A 
ATOM      9  C   UNL     1     -46.090  43.165  28.356  1.00  0.00     0.094 A 
ATOM     10  C   UNL     1     -46.349  41.829  28.673  1.00  0.00     0.146 A 
ATOM     11  O   UNL     1     -46.949  41.053  27.776  1.00  0.00    -0.456 OA
ENDROOT
BRANCH   1  12
ATOM     12  C   UNL     1     -47.905  38.999  26.915  1.00  0.00     0.021 A 
ATOM     13  C   UNL     1     -48.060  37.609  27.055  1.00  0.00     0.016 A 
ATOM     14  C   UNL     1     -48.696  36.861  26.062  1.00  0.00     0.051 A 
ATOM     15  C   UNL     1     -49.199  37.490  24.916  1.00  0.00     0.157 A 
ATOM     16  C   UNL     1     -48.425  39.628  25.766  1.00  0.00     0.062 A 
ATOM     17  C   UNL     1     -49.066  38.875  24.770  1.00  0.00     0.158 A 
BRANCH  15  18
ATOM     18  O   UNL     1     -49.833  36.747  23.922  1.00  0.00    -0.504 OA
ATOM     19  H   UNL     1     -50.033  35.761  24.044  1.00  0.00     0.293 HD
ENDBRANCH  15  18
BRANCH  17  20
ATOM     20  O   UNL     1     -49.578  39.501  23.634  1.00  0.00    -0.504 OA
ATOM     21  H   UNL     1     -50.575  39.541  23.453  1.00  0.00     0.293 HD
ENDBRANCH  17  20
ENDBRANCH   1  12
BRANCH   6  22
ATOM     22  O   UNL     1     -44.950  41.690  32.124  1.00  0.00    -0.507 OA
ATOM     23  H   UNL     1     -44.130  41.108  32.246  1.00  0.00     0.293 HD
ENDBRANCH   6  22
BRANCH   8  24
ATOM     24  O   UNL     1     -45.196  45.334  28.971  1.00  0.00    -0.508 OA
ATOM     25  H   UNL     1     -45.944  45.986  28.764  1.00  0.00     0.293 HD
ENDBRANCH   8  24
TORSDOF 5
ENDMDL
MODEL 5
REMARK VINA RESULT:    -7.164      2.205      3.888
REMARK INTER + INTRA:          -8.729
REMARK INTER:                  -8.457
REMARK INTRA:                  -0.272
REMARK UNBOUND:                -0.308
REMARK SMILES O=c1cc(-c2ccc(O)c(O)c2)oc2cc(O)cc(O)c12
REMARK SMILES IDX 4 1 3 2 2 3 1 4 21 5 19 6 18 7 16 8 15 9 14 10 13 11 5 12
REMARK SMILES IDX 6 13 7 14 8 15 12 16 10 17 9 18 11 20 20 22 17 24
REMARK H PARENT 9 19 11 21 20 23 17 25
REMARK Flexibility Score: inf
ROOT
ATOM      1  C   UNL     1     -50.237  37.912  24.738  1.00  0.00     0.138 A 
ATOM      2  C   UNL     1     -51.401  38.692  24.634  1.00  0.00     0.100 A 
ATOM      3  C   UNL     1     -52.385  38.337  23.712  1.00  0.00     0.197 A 
ATOM      4  O   UNL     1     -53.427  39.044  23.628  1.00  0.00    -0.289 OA
ATOM      5  C   UNL     1     -52.202  37.200  22.901  1.00  0.00     0.107 A 
ATOM      6  C   UNL     1     -53.149  36.771  21.942  1.00  0.00     0.134 A 
ATOM      7  C   UNL     1     -52.894  35.623  21.176  1.00  0.00     0.093 A 
ATOM      8  C   UNL     1     -51.712  34.898  21.353  1.00  0.00     0.123 A 
ATOM      9  C   UNL     1     -50.773  35.317  22.300  1.00  0.00     0.094 A 
ATOM     10  C   UNL     1     -51.008  36.459  23.071  1.00  0.00     0.146 A 
ATOM     11  O   UNL     1     -50.099  36.838  23.964  1.00  0.00    -0.456 OA
ENDROOT
BRANCH   1  12
ATOM     12  C   UNL     1     -49.157  38.241  25.701  1.00  0.00     0.021 A 
ATOM     13  C   UNL     1     -48.711  37.258  26.602  1.00  0.00     0.016 A 
ATOM     14  C   UNL     1     -47.691  37.539  27.514  1.00  0.00     0.051 A 
ATOM     15  C   UNL     1     -47.091  38.805  27.535  1.00  0.00     0.157 A 
ATOM     16  C   UNL     1     -48.540  39.507  25.719  1.00  0.00     0.062 A 
ATOM     17  C   UNL     1     -47.514  39.789  26.634  1.00  0.00     0.158 A 
BRANCH  15  18
ATOM     18  O   UNL     1     -46.075  39.090  28.444  1.00  0.00    -0.504 OA
ATOM     19  H   UNL     1     -46.118  38.772  29.405  1.00  0.00     0.293 HD
ENDBRANCH  15  18
BRANCH  17  20
ATOM     20  O   UNL     1     -46.907  41.044  26.649  1.00  0.00    -0.504 OA
ATOM     21  H   UNL     1     -47.074  41.705  27.399  1.00  0.00     0.293 HD
ENDBRANCH  17  20
ENDBRANCH   1  12
BRANCH   6  22
ATOM     22  O   UNL     1     -54.338  37.475  21.743  1.00  0.00    -0.507 OA
ATOM     23  H   UNL     1     -54.820  37.466  20.851  1.00  0.00     0.293 HD
ENDBRANCH   6  22
BRANCH   8  24
ATOM     24  O   UNL     1     -51.484  33.762  20.580  1.00  0.00    -0.508 OA
ATOM     25  H   UNL     1     -50.709  33.138  20.773  1.00  0.00     0.293 HD
ENDBRANCH   8  24
TORSDOF 5
ENDMDL
MODEL 6
REMARK VINA RESULT:    -6.954      1.947      2.949
REMARK INTER + INTRA:          -8.482
REMARK INTER:                  -8.215
REMARK INTRA:                  -0.268
REMARK UNBOUND:                -0.308
REMARK SMILES O=c1cc(-c2ccc(O)c(O)c2)oc2cc(O)cc(O)c12
REMARK SMILES IDX 4 1 3 2 2 3 1 4 21 5 19 6 18 7 16 8 15 9 14 10 13 11 5 12
REMARK SMILES IDX 6 13 7 14 8 15 12 16 10 17 9 18 11 20 20 22 17 24
REMARK H PARENT 9 19 11 21 20 23 17 25
REMARK Flexibility Score: inf
ROOT
ATOM      1  C   UNL     1     -50.778  37.656  24.267  1.00  0.00     0.138 A 
ATOM      2  C   UNL     1     -52.046  38.257  24.197  1.00  0.00     0.100 A 
ATOM      3  C   UNL     1     -53.007  37.732  23.334  1.00  0.00     0.197 A 
ATOM      4  O   UNL     1     -54.142  38.278  23.280  1.00  0.00    -0.289 OA
ATOM      5  C   UNL     1     -52.695  36.605  22.548  1.00  0.00     0.107 A 
ATOM      6  C   UNL     1     -53.611  36.012  21.648  1.00  0.00     0.134 A 
ATOM      7  C   UNL     1     -53.225  34.886  20.904  1.00  0.00     0.093 A 
ATOM      8  C   UNL     1     -51.944  34.345  21.044  1.00  0.00     0.123 A 
ATOM      9  C   UNL     1     -51.035  34.927  21.933  1.00  0.00     0.094 A 
ATOM     10  C   UNL     1     -51.400  36.050  22.682  1.00  0.00     0.146 A 
ATOM     11  O   UNL     1     -50.518  36.587  23.519  1.00  0.00    -0.456 OA
ENDROOT
BRANCH   1  12
ATOM     12  C   UNL     1     -49.716  38.171  25.168  1.00  0.00     0.021 A 
ATOM     13  C   UNL     1     -48.973  39.301  24.786  1.00  0.00     0.016 A 
ATOM     14  C   UNL     1     -47.972  39.810  25.618  1.00  0.00     0.051 A 
ATOM     15  C   UNL     1     -47.705  39.204  26.852  1.00  0.00     0.157 A 
ATOM     16  C   UNL     1     -49.449  37.574  26.417  1.00  0.00     0.062 A 
ATOM     17  C   UNL     1     -48.446  38.087  27.253  1.00  0.00     0.158 A 
BRANCH  15  18
ATOM     18  O   UNL     1     -46.706  39.708  27.684  1.00  0.00    -0.504 OA
ATOM     19  H   UNL     1     -45.726  39.635  27.440  1.00  0.00     0.293 HD
ENDBRANCH  15  18
BRANCH  17  20
ATOM     20  O   UNL     1     -48.185  37.493  28.487  1.00  0.00    -0.504 OA
ATOM     21  H   UNL     1     -47.248  37.464  28.875  1.00  0.00     0.293 HD
ENDBRANCH  17  20
ENDBRANCH   1  12
BRANCH   6  22
ATOM     22  O   UNL     1     -54.897  36.529  21.486  1.00  0.00    -0.507 OA
ATOM     23  H   UNL     1     -55.076  37.526  21.498  1.00  0.00     0.293 HD
ENDBRANCH   6  22
BRANCH   8  24
ATOM     24  O   UNL     1     -51.587  33.227  20.294  1.00  0.00    -0.508 OA
ATOM     25  H   UNL     1     -50.989  32.502  20.677  1.00  0.00     0.293 HD
ENDBRANCH   8  24
TORSDOF 5
ENDMDL
MODEL 7
REMARK VINA RESULT:    -6.867      2.934      8.402
REMARK INTER + INTRA:          -8.380
REMARK INTER:                  -8.085
REMARK INTRA:                  -0.295
REMARK UNBOUND:                -0.308
REMARK SMILES O=c1cc(-c2ccc(O)c(O)c2)oc2cc(O)cc(O)c12
REMARK SMILES IDX 4 1 3 2 2 3 1 4 21 5 19 6 18 7 16 8 15 9 14 10 13 11 5 12
REMARK SMILES IDX 6 13 7 14 8 15 12 16 10 17 9 18 11 20 20 22 17 24
REMARK H PARENT 9 19 11 21 20 23 17 25
REMARK Flexibility Score: inf
ROOT
ATOM      1  C   UNL     1     -51.050  37.562  25.034  1.00  0.00     0.138 A 
ATOM      2  C   UNL     1     -49.766  37.066  25.315  1.00  0.00     0.100 A 
ATOM      3  C   UNL     1     -49.141  37.415  26.512  1.00  0.00     0.197 A 
ATOM      4  O   UNL     1     -47.989  36.963  26.755  1.00  0.00    -0.289 OA
ATOM      5  C   UNL     1     -49.807  38.256  27.424  1.00  0.00     0.107 A 
ATOM      6  C   UNL     1     -49.246  38.659  28.659  1.00  0.00     0.134 A 
ATOM      7  C   UNL     1     -49.977  39.496  29.516  1.00  0.00     0.093 A 
ATOM      8  C   UNL     1     -51.256  39.935  29.163  1.00  0.00     0.123 A 
ATOM      9  C   UNL     1     -51.816  39.539  27.944  1.00  0.00     0.094 A 
ATOM     10  C   UNL     1     -51.103  38.708  27.075  1.00  0.00     0.146 A 
ATOM     11  O   UNL     1     -51.656  38.347  25.922  1.00  0.00    -0.456 OA
ENDROOT
BRANCH   1  12
ATOM     12  C   UNL     1     -51.763  37.224  23.777  1.00  0.00     0.021 A 
ATOM     13  C   UNL     1     -51.058  37.224  22.561  1.00  0.00     0.016 A 
ATOM     14  C   UNL     1     -51.704  36.903  21.364  1.00  0.00     0.051 A 
ATOM     15  C   UNL     1     -53.063  36.565  21.364  1.00  0.00     0.157 A 
ATOM     16  C   UNL     1     -53.127  36.871  23.771  1.00  0.00     0.062 A 
ATOM     17  C   UNL     1     -53.774  36.546  22.568  1.00  0.00     0.158 A 
BRANCH  15  18
ATOM     18  O   UNL     1     -53.711  36.246  20.172  1.00  0.00    -0.504 OA
ATOM     19  H   UNL     1     -53.402  36.621  19.283  1.00  0.00     0.293 HD
ENDBRANCH  15  18
BRANCH  17  20
ATOM     20  O   UNL     1     -55.125  36.199  22.566  1.00  0.00    -0.504 OA
ATOM     21  H   UNL     1     -55.794  36.668  23.166  1.00  0.00     0.293 HD
ENDBRANCH  17  20
ENDBRANCH   1  12
BRANCH   6  22
ATOM     22  O   UNL     1     -47.972  38.236  29.040  1.00  0.00    -0.507 OA
ATOM     23  H   UNL     1     -47.752  38.004  30.002  1.00  0.00     0.293 HD
ENDBRANCH   6  22
BRANCH   8  24
ATOM     24  O   UNL     1     -51.960  40.764  30.032  1.00  0.00    -0.508 OA
ATOM     25  H   UNL     1     -51.535  41.129  30.877  1.00  0.00     0.293 HD
ENDBRANCH   8  24
TORSDOF 5
ENDMDL
MODEL 8
REMARK VINA RESULT:    -6.865      3.839      9.406
REMARK INTER + INTRA:          -8.377
REMARK INTER:                  -8.072
REMARK INTRA:                  -0.305
REMARK UNBOUND:                -0.308
REMARK SMILES O=c1cc(-c2ccc(O)c(O)c2)oc2cc(O)cc(O)c12
REMARK SMILES IDX 4 1 3 2 2 3 1 4 21 5 19 6 18 7 16 8 15 9 14 10 13 11 5 12
REMARK SMILES IDX 6 13 7 14 8 15 12 16 10 17 9 18 11 20 20 22 17 24
REMARK H PARENT 9 19 11 21 20 23 17 25
REMARK Flexibility Score: inf
ROOT
ATOM      1  C   UNL     1     -49.630  38.366  26.384  1.00  0.00     0.138 A 
ATOM      2  C   UNL     1     -48.228  38.289  26.422  1.00  0.00     0.100 A 
ATOM      3  C   UNL     1     -47.558  38.565  27.614  1.00  0.00     0.197 A 
ATOM      4  O   UNL     1     -46.299  38.492  27.638  1.00  0.00    -0.289 OA
ATOM      5  C   UNL     1     -48.296  38.912  28.762  1.00  0.00     0.107 A 
ATOM      6  C   UNL     1     -47.695  39.207  30.009  1.00  0.00     0.134 A 
ATOM      7  C   UNL     1     -48.501  39.540  31.109  1.00  0.00     0.093 A 
ATOM      8  C   UNL     1     -49.892  39.582  30.985  1.00  0.00     0.123 A 
ATOM      9  C   UNL     1     -50.491  39.290  29.755  1.00  0.00     0.094 A 
ATOM     10  C   UNL     1     -49.706  38.958  28.648  1.00  0.00     0.146 A 
ATOM     11  O   UNL     1     -50.298  38.687  27.489  1.00  0.00    -0.456 OA
ENDROOT
BRANCH   1  12
ATOM     12  C   UNL     1     -50.397  38.082  25.145  1.00  0.00     0.021 A 
ATOM     13  C   UNL     1     -49.894  37.152  24.218  1.00  0.00     0.016 A 
ATOM     14  C   UNL     1     -50.599  36.862  23.047  1.00  0.00     0.051 A 
ATOM     15  C   UNL     1     -51.824  37.489  22.787  1.00  0.00     0.157 A 
ATOM     16  C   UNL     1     -51.637  38.699  24.882  1.00  0.00     0.062 A 
ATOM     17  C   UNL     1     -52.345  38.405  23.707  1.00  0.00     0.158 A 
BRANCH  15  18
ATOM     18  O   UNL     1     -52.529  37.203  21.619  1.00  0.00    -0.504 OA
ATOM     19  H   UNL     1     -52.197  36.514  20.954  1.00  0.00     0.293 HD
ENDBRANCH  15  18
BRANCH  17  20
ATOM     20  O   UNL     1     -53.570  39.019  23.450  1.00  0.00    -0.504 OA
ATOM     21  H   UNL     1     -54.437  38.493  23.448  1.00  0.00     0.293 HD
ENDBRANCH  17  20
ENDBRANCH   1  12
BRANCH   6  22
ATOM     22  O   UNL     1     -46.308  39.173  30.164  1.00  0.00    -0.507 OA
ATOM     23  H   UNL     1     -45.703  38.769  29.459  1.00  0.00     0.293 HD
ENDBRANCH   6  22
BRANCH   8  24
ATOM     24  O   UNL     1     -50.669  39.914  32.092  1.00  0.00    -0.508 OA
ATOM     25  H   UNL     1     -50.726  40.867  32.432  1.00  0.00     0.293 HD
ENDBRANCH   8  24
TORSDOF 5
ENDMDL
MODEL 9
REMARK VINA RESULT:    -6.839      2.211      7.506
REMARK INTER + INTRA:          -8.347
REMARK INTER:                  -8.061
REMARK INTRA:                  -0.286
REMARK UNBOUND:                -0.308
REMARK SMILES O=c1cc(-c2ccc(O)c(O)c2)oc2cc(O)cc(O)c12
REMARK SMILES IDX 4 1 3 2 2 3 1 4 21 5 19 6 18 7 16 8 15 9 14 10 13 11 5 12
REMARK SMILES IDX 6 13 7 14 8 15 12 16 10 17 9 18 11 20 20 22 17 24
REMARK H PARENT 9 19 11 21 20 23 17 25
REMARK Flexibility Score: inf
ROOT
ATOM      1  C   UNL     1     -52.066  36.421  23.120  1.00  0.00     0.138 A 
ATOM      2  C   UNL     1     -50.668  36.301  23.195  1.00  0.00     0.100 A 
ATOM      3  C   UNL     1     -49.978  36.953  24.217  1.00  0.00     0.197 A 
ATOM      4  O   UNL     1     -48.723  36.837  24.276  1.00  0.00    -0.289 OA
ATOM      5  C   UNL     1     -50.691  37.718  25.160  1.00  0.00     0.107 A 
ATOM      6  C   UNL     1     -50.068  38.410  26.226  1.00  0.00     0.134 A 
ATOM      7  C   UNL     1     -50.850  39.147  27.128  1.00  0.00     0.093 A 
ATOM      8  C   UNL     1     -52.239  39.204  26.985  1.00  0.00     0.123 A 
ATOM      9  C   UNL     1     -52.860  38.520  25.935  1.00  0.00     0.094 A 
ATOM     10  C   UNL     1     -52.098  37.782  25.025  1.00  0.00     0.146 A 
ATOM     11  O   UNL     1     -52.711  37.143  24.033  1.00  0.00    -0.456 OA
ENDROOT
BRANCH   1  12
ATOM     12  C   UNL     1     -52.854  35.749  22.056  1.00  0.00     0.021 A 
ATOM     13  C   UNL     1     -54.017  36.365  21.563  1.00  0.00     0.016 A 
ATOM     14  C   UNL     1     -54.773  35.758  20.558  1.00  0.00     0.051 A 
ATOM     15  C   UNL     1     -54.373  34.529  20.019  1.00  0.00     0.157 A 
ATOM     16  C   UNL     1     -52.451  34.519  21.500  1.00  0.00     0.062 A 
ATOM     17  C   UNL     1     -53.209  33.910  20.488  1.00  0.00     0.158 A 
BRANCH  15  18
ATOM     18  O   UNL     1     -55.125  33.919  19.016  1.00  0.00    -0.504 OA
ATOM     19  H   UNL     1     -54.990  34.149  18.038  1.00  0.00     0.293 HD
ENDBRANCH  15  18
BRANCH  17  20
ATOM     20  O   UNL     1     -52.807  32.692  19.941  1.00  0.00    -0.504 OA
ATOM     21  H   UNL     1     -53.177  31.811  20.280  1.00  0.00     0.293 HD
ENDBRANCH  17  20
ENDBRANCH   1  12
BRANCH   6  22
ATOM     22  O   UNL     1     -48.683  38.373  26.395  1.00  0.00    -0.507 OA
ATOM     23  H   UNL     1     -48.077  39.071  25.980  1.00  0.00     0.293 HD
ENDBRANCH   6  22
BRANCH   8  24
ATOM     24  O   UNL     1     -52.992  39.942  27.896  1.00  0.00    -0.508 OA
ATOM     25  H   UNL     1     -53.612  39.490  28.559  1.00  0.00     0.293 HD
ENDBRANCH   8  24
TORSDOF 5
ENDMDL
