MODEL 1
REMARK VINA RESULT:    -2.909      0.000      0.000
REMARK INTER + INTRA:          -4.783
REMARK INTER:                  -4.440
REMARK INTRA:                  -0.343
REMARK UNBOUND:                -0.343
REMARK SMILES CCCCCCCCCCC(=O)[O-]
REMARK SMILES IDX 7 1 8 2 9 3 10 4 11 5 12 6 13 7 6 8 5 9 4 10 3 11 2 12 1 13
REMARK H PARENT
REMARK Flexibility Score: inf
ROOT
ATOM      1  C   UNL     1      28.053   7.838  -1.422  1.00  0.00     0.000 C 
ENDROOT
BRANCH   1   2
ATOM      2  C   UNL     1      27.132   6.803  -0.758  1.00  0.00     0.000 C 
BRANCH   2   3
ATOM      3  C   UNL     1      26.119   6.188  -1.741  1.00  0.00     0.006 C 
BRANCH   3   4
ATOM      4  C   UNL     1      25.694   4.751  -1.399  1.00  0.00     0.053 C 
BRANCH   4   5
ATOM      5  C   UNL     1      24.647   4.235  -2.337  1.00  0.00     0.041 C 
ATOM      6  O   UNL     1      23.924   5.039  -2.983  1.00  0.00    -0.550 OA
ATOM      7  O   UNL     1      24.492   2.867  -2.524  1.00  0.00    -0.550 OA
ENDBRANCH   4   5
ENDBRANCH   3   4
ENDBRANCH   2   3
ENDBRANCH   1   2
BRANCH   1   8
ATOM      8  C   UNL     1      27.818   9.237  -0.834  1.00  0.00     0.000 C 
BRANCH   8   9
ATOM      9  C   UNL     1      28.401  10.361  -1.711  1.00  0.00    -0.000 C 
BRANCH   9  10
ATOM     10  C   UNL     1      28.018  10.294  -3.203  1.00  0.00    -0.000 C 
BRANCH  10  11
ATOM     11  C   UNL     1      28.163  11.617  -3.975  1.00  0.00    -0.000 C 
BRANCH  11  12
ATOM     12  C   UNL     1      29.112  12.608  -3.286  1.00  0.00    -0.003 C 
ATOM     13  C   UNL     1      28.694  14.050  -3.558  1.00  0.00     0.004 C 
ENDBRANCH  11  12
ENDBRANCH  10  11
ENDBRANCH   9  10
ENDBRANCH   8   9
ENDBRANCH   1   8
TORSDOF 9
ENDMDL
MODEL 2
REMARK VINA RESULT:    -2.721      1.348      2.288
REMARK INTER + INTRA:          -4.495
REMARK INTER:                  -3.578
REMARK INTRA:                  -0.917
REMARK UNBOUND:                -0.343
REMARK SMILES CCCCCCCCCCC(=O)[O-]
REMARK SMILES IDX 7 1 8 2 9 3 10 4 11 5 12 6 13 7 6 8 5 9 4 10 3 11 2 12 1 13
REMARK H PARENT
REMARK Flexibility Score: inf
ROOT
ATOM      1  C   UNL     1      27.207   8.392  -0.527  1.00  0.00     0.000 C 
ENDROOT
BRANCH   1   2
ATOM      2  C   UNL     1      28.096   7.141  -0.569  1.00  0.00     0.000 C 
BRANCH   2   3
ATOM      3  C   UNL     1      27.292   5.845  -0.785  1.00  0.00     0.006 C 
BRANCH   3   4
ATOM      4  C   UNL     1      26.013   6.022  -1.618  1.00  0.00     0.053 C 
BRANCH   4   5
ATOM      5  C   UNL     1      25.389   4.708  -1.978  1.00  0.00     0.041 C 
ATOM      6  O   UNL     1      25.962   3.630  -1.672  1.00  0.00    -0.550 OA
ATOM      7  O   UNL     1      24.157   4.675  -2.620  1.00  0.00    -0.550 OA
ENDBRANCH   4   5
ENDBRANCH   3   4
ENDBRANCH   2   3
ENDBRANCH   1   2
BRANCH   1   8
ATOM      8  C   UNL     1      28.059   9.665  -0.417  1.00  0.00     0.000 C 
BRANCH   8   9
ATOM      9  C   UNL     1      29.112   9.780  -1.535  1.00  0.00    -0.000 C 
BRANCH   9  10
ATOM     10  C   UNL     1      28.955  11.005  -2.458  1.00  0.00    -0.000 C 
BRANCH  10  11
ATOM     11  C   UNL     1      28.013  10.802  -3.658  1.00  0.00    -0.000 C 
BRANCH  11  12
ATOM     12  C   UNL     1      27.857   9.327  -4.051  1.00  0.00    -0.003 C 
ATOM     13  C   UNL     1      26.386   8.929  -4.125  1.00  0.00     0.004 C 
ENDBRANCH  11  12
ENDBRANCH  10  11
ENDBRANCH   9  10
ENDBRANCH   8   9
ENDBRANCH   1   8
TORSDOF 9
ENDMDL
MODEL 3
REMARK VINA RESULT:    -2.596      3.305      7.179
REMARK INTER + INTRA:          -4.305
REMARK INTER:                  -3.953
REMARK INTRA:                  -0.352
REMARK UNBOUND:                -0.343
REMARK SMILES CCCCCCCCCCC(=O)[O-]
REMARK SMILES IDX 7 1 8 2 9 3 10 4 11 5 12 6 13 7 6 8 5 9 4 10 3 11 2 12 1 13
REMARK H PARENT
REMARK Flexibility Score: inf
ROOT
ATOM      1  C   UNL     1      27.164   8.442  -0.626  1.00  0.00     0.000 C 
ENDROOT
BRANCH   1   2
ATOM      2  C   UNL     1      28.176   9.568  -0.372  1.00  0.00     0.000 C 
BRANCH   2   3
ATOM      3  C   UNL     1      29.060   9.865  -1.598  1.00  0.00     0.006 C 
BRANCH   3   4
ATOM      4  C   UNL     1      29.125  11.350  -1.990  1.00  0.00     0.053 C 
BRANCH   4   5
ATOM      5  C   UNL     1      28.536  11.601  -3.344  1.00  0.00     0.041 C 
ATOM      6  O   UNL     1      27.771  10.751  -3.869  1.00  0.00    -0.550 OA
ATOM      7  O   UNL     1      28.805  12.790  -4.011  1.00  0.00    -0.550 OA
ENDBRANCH   4   5
ENDBRANCH   3   4
ENDBRANCH   2   3
ENDBRANCH   1   2
BRANCH   1   8
ATOM      8  C   UNL     1      27.868   7.179  -1.143  1.00  0.00     0.000 C 
BRANCH   8   9
ATOM      9  C   UNL     1      27.265   5.881  -0.574  1.00  0.00    -0.000 C 
BRANCH   9  10
ATOM     10  C   UNL     1      25.967   5.407  -1.257  1.00  0.00    -0.000 C 
BRANCH  10  11
ATOM     11  C   UNL     1      25.932   3.914  -1.628  1.00  0.00    -0.000 C 
BRANCH  11  12
ATOM     12  C   UNL     1      24.626   3.502  -2.323  1.00  0.00    -0.003 C 
ATOM     13  C   UNL     1      23.849   4.725  -2.801  1.00  0.00     0.004 C 
ENDBRANCH  11  12
ENDBRANCH  10  11
ENDBRANCH   9  10
ENDBRANCH   8   9
ENDBRANCH   1   8
TORSDOF 9
ENDMDL
MODEL 4
REMARK VINA RESULT:    -2.427      6.164     11.207
REMARK INTER + INTRA:          -4.048
REMARK INTER:                  -3.744
REMARK INTRA:                  -0.304
REMARK UNBOUND:                -0.343
REMARK SMILES CCCCCCCCCCC(=O)[O-]
REMARK SMILES IDX 7 1 8 2 9 3 10 4 11 5 12 6 13 7 6 8 5 9 4 10 3 11 2 12 1 13
REMARK H PARENT
REMARK Flexibility Score: inf
ROOT
ATOM      1  C   UNL     1      23.246  -0.881  -2.437  1.00  0.00     0.000 C 
ENDROOT
BRANCH   1   2
ATOM      2  C   UNL     1      22.859   0.535  -2.887  1.00  0.00     0.000 C 
BRANCH   2   3
ATOM      3  C   UNL     1      23.996   1.555  -2.694  1.00  0.00     0.006 C 
BRANCH   3   4
ATOM      4  C   UNL     1      23.549   3.024  -2.757  1.00  0.00     0.053 C 
BRANCH   4   5
ATOM      5  C   UNL     1      24.649   3.964  -2.367  1.00  0.00     0.041 C 
ATOM      6  O   UNL     1      24.540   5.196  -2.599  1.00  0.00    -0.550 OA
ATOM      7  O   UNL     1      25.779   3.483  -1.717  1.00  0.00    -0.550 OA
ENDBRANCH   4   5
ENDBRANCH   3   4
ENDBRANCH   2   3
ENDBRANCH   1   2
BRANCH   1   8
ATOM      8  C   UNL     1      24.281  -1.495  -3.391  1.00  0.00     0.000 C 
BRANCH   8   9
ATOM      9  C   UNL     1      25.409  -2.240  -2.652  1.00  0.00    -0.000 C 
BRANCH   9  10
ATOM     10  C   UNL     1      25.910  -3.523  -3.346  1.00  0.00    -0.000 C 
BRANCH  10  11
ATOM     11  C   UNL     1      27.262  -4.055  -2.837  1.00  0.00    -0.000 C 
BRANCH  11  12
ATOM     12  C   UNL     1      27.109  -5.159  -1.782  1.00  0.00    -0.003 C 
ATOM     13  C   UNL     1      27.697  -4.724  -0.442  1.00  0.00     0.004 C 
ENDBRANCH  11  12
ENDBRANCH  10  11
ENDBRANCH   9  10
ENDBRANCH   8   9
ENDBRANCH   1   8
TORSDOF 9
ENDMDL
MODEL 5
REMARK VINA RESULT:    -2.207      7.074     10.184
REMARK INTER + INTRA:          -3.712
REMARK INTER:                  -3.419
REMARK INTRA:                  -0.292
REMARK UNBOUND:                -0.343
REMARK SMILES CCCCCCCCCCC(=O)[O-]
REMARK SMILES IDX 7 1 8 2 9 3 10 4 11 5 12 6 13 7 6 8 5 9 4 10 3 11 2 12 1 13
REMARK H PARENT
REMARK Flexibility Score: inf
ROOT
ATOM      1  C   UNL     1      24.468  -1.535  -3.349  1.00  0.00     0.000 C 
ENDROOT
BRANCH   1   2
ATOM      2  C   UNL     1      25.511  -2.386  -2.613  1.00  0.00     0.000 C 
BRANCH   2   3
ATOM      3  C   UNL     1      26.068  -3.531  -3.479  1.00  0.00     0.006 C 
BRANCH   3   4
ATOM      4  C   UNL     1      26.134  -4.892  -2.769  1.00  0.00     0.053 C 
BRANCH   4   5
ATOM      5  C   UNL     1      27.441  -5.099  -2.068  1.00  0.00     0.041 C 
ATOM      6  O   UNL     1      28.393  -5.672  -2.659  1.00  0.00    -0.550 OA
ATOM      7  O   UNL     1      27.618  -4.630  -0.772  1.00  0.00    -0.550 OA
ENDBRANCH   4   5
ENDBRANCH   3   4
ENDBRANCH   2   3
ENDBRANCH   1   2
BRANCH   1   8
ATOM      8  C   UNL     1      23.462  -0.924  -2.362  1.00  0.00     0.000 C 
BRANCH   8   9
ATOM      9  C   UNL     1      22.920   0.441  -2.825  1.00  0.00    -0.000 C 
BRANCH   9  10
ATOM     10  C   UNL     1      23.971   1.565  -2.916  1.00  0.00    -0.000 C 
BRANCH  10  11
ATOM     11  C   UNL     1      23.449   2.975  -2.586  1.00  0.00    -0.000 C 
BRANCH  11  12
ATOM     12  C   UNL     1      24.566   4.026  -2.526  1.00  0.00    -0.003 C 
ATOM     13  C   UNL     1      25.558   3.713  -1.410  1.00  0.00     0.004 C 
ENDBRANCH  11  12
ENDBRANCH  10  11
ENDBRANCH   9  10
ENDBRANCH   8   9
ENDBRANCH   1   8
TORSDOF 9
ENDMDL
MODEL 6
REMARK VINA RESULT:    -1.894      2.869      5.067
REMARK INTER + INTRA:          -3.234
REMARK INTER:                  -3.092
REMARK INTRA:                  -0.142
REMARK UNBOUND:                -0.343
REMARK SMILES CCCCCCCCCCC(=O)[O-]
REMARK SMILES IDX 7 1 8 2 9 3 10 4 11 5 12 6 13 7 6 8 5 9 4 10 3 11 2 12 1 13
REMARK H PARENT
REMARK Flexibility Score: inf
ROOT
ATOM      1  C   UNL     1      25.076   3.583  -1.923  1.00  0.00     0.000 C 
ENDROOT
BRANCH   1   2
ATOM      2  C   UNL     1      23.798   3.014  -2.556  1.00  0.00     0.000 C 
BRANCH   2   3
ATOM      3  C   UNL     1      23.956   1.551  -3.008  1.00  0.00     0.006 C 
BRANCH   3   4
ATOM      4  C   UNL     1      22.736   0.662  -2.720  1.00  0.00     0.053 C 
BRANCH   4   5
ATOM      5  C   UNL     1      23.131  -0.743  -2.382  1.00  0.00     0.041 C 
ATOM      6  O   UNL     1      22.536  -1.365  -1.463  1.00  0.00    -0.550 OA
ATOM      7  O   UNL     1      24.133  -1.378  -3.105  1.00  0.00    -0.550 OA
ENDBRANCH   4   5
ENDBRANCH   3   4
ENDBRANCH   2   3
ENDBRANCH   1   2
BRANCH   1   8
ATOM      8  C   UNL     1      25.185   5.095  -2.171  1.00  0.00     0.000 C 
BRANCH   8   9
ATOM      9  C   UNL     1      26.161   5.792  -1.206  1.00  0.00    -0.000 C 
BRANCH   9  10
ATOM     10  C   UNL     1      26.547   7.234  -1.593  1.00  0.00    -0.000 C 
BRANCH  10  11
ATOM     11  C   UNL     1      27.888   7.728  -1.020  1.00  0.00    -0.000 C 
BRANCH  11  12
ATOM     12  C   UNL     1      27.803   9.148  -0.444  1.00  0.00    -0.003 C 
ATOM     13  C   UNL     1      28.524  10.150  -1.340  1.00  0.00     0.004 C 
ENDBRANCH  11  12
ENDBRANCH  10  11
ENDBRANCH   9  10
ENDBRANCH   8   9
ENDBRANCH   1   8
TORSDOF 9
ENDMDL
MODEL 7
REMARK VINA RESULT:    -1.790      1.517      2.604
REMARK INTER + INTRA:          -3.075
REMARK INTER:                  -2.470
REMARK INTRA:                  -0.605
REMARK UNBOUND:                -0.343
REMARK SMILES CCCCCCCCCCC(=O)[O-]
REMARK SMILES IDX 7 1 8 2 9 3 10 4 11 5 12 6 13 7 6 8 5 9 4 10 3 11 2 12 1 13
REMARK H PARENT
REMARK Flexibility Score: inf
ROOT
ATOM      1  C   UNL     1      29.124   5.242  -0.592  1.00  0.00     0.000 C 
ENDROOT
BRANCH   1   2
ATOM      2  C   UNL     1      28.254   4.205   0.131  1.00  0.00     0.000 C 
BRANCH   2   3
ATOM      3  C   UNL     1      27.031   3.770  -0.696  1.00  0.00     0.006 C 
BRANCH   3   4
ATOM      4  C   UNL     1      26.080   4.916  -1.077  1.00  0.00     0.053 C 
BRANCH   4   5
ATOM      5  C   UNL     1      25.057   4.488  -2.084  1.00  0.00     0.041 C 
ATOM      6  O   UNL     1      24.510   5.340  -2.832  1.00  0.00    -0.550 OA
ATOM      7  O   UNL     1      24.732   3.144  -2.219  1.00  0.00    -0.550 OA
ENDBRANCH   4   5
ENDBRANCH   3   4
ENDBRANCH   2   3
ENDBRANCH   1   2
BRANCH   1   8
ATOM      8  C   UNL     1      29.064   6.601   0.121  1.00  0.00     0.000 C 
BRANCH   8   9
ATOM      9  C   UNL     1      29.098   7.792  -0.855  1.00  0.00    -0.000 C 
BRANCH   9  10
ATOM     10  C   UNL     1      27.761   8.541  -1.020  1.00  0.00    -0.000 C 
BRANCH  10  11
ATOM     11  C   UNL     1      27.179   8.532  -2.445  1.00  0.00    -0.000 C 
BRANCH  11  12
ATOM     12  C   UNL     1      28.041   9.312  -3.446  1.00  0.00    -0.003 C 
ATOM     13  C   UNL     1      28.393  10.696  -2.909  1.00  0.00     0.004 C 
ENDBRANCH  11  12
ENDBRANCH  10  11
ENDBRANCH   9  10
ENDBRANCH   8   9
ENDBRANCH   1   8
TORSDOF 9
ENDMDL
MODEL 8
REMARK VINA RESULT:    -1.581      1.483      2.751
REMARK INTER + INTRA:          -2.757
REMARK INTER:                  -2.489
REMARK INTRA:                  -0.268
REMARK UNBOUND:                -0.343
REMARK SMILES CCCCCCCCCCC(=O)[O-]
REMARK SMILES IDX 7 1 8 2 9 3 10 4 11 5 12 6 13 7 6 8 5 9 4 10 3 11 2 12 1 13
REMARK H PARENT
REMARK Flexibility Score: inf
ROOT
ATOM      1  C   UNL     1      26.151   8.131  -3.380  1.00  0.00     0.000 C 
ENDROOT
BRANCH   1   2
ATOM      2  C   UNL     1      26.625   7.934  -1.934  1.00  0.00     0.000 C 
BRANCH   2   3
ATOM      3  C   UNL     1      26.414   6.495  -1.426  1.00  0.00     0.006 C 
BRANCH   3   4
ATOM      4  C   UNL     1      25.365   5.692  -2.212  1.00  0.00     0.053 C 
BRANCH   4   5
ATOM      5  C   UNL     1      25.423   4.229  -1.895  1.00  0.00     0.041 C 
ATOM      6  O   UNL     1      24.384   3.523  -1.970  1.00  0.00    -0.550 OA
ATOM      7  O   UNL     1      26.633   3.639  -1.549  1.00  0.00    -0.550 OA
ENDBRANCH   4   5
ENDBRANCH   3   4
ENDBRANCH   2   3
ENDBRANCH   1   2
BRANCH   1   8
ATOM      8  C   UNL     1      26.899   9.293  -4.049  1.00  0.00     0.000 C 
BRANCH   8   9
ATOM      9  C   UNL     1      28.358   9.420  -3.573  1.00  0.00    -0.000 C 
BRANCH   9  10
ATOM     10  C   UNL     1      28.756  10.814  -3.046  1.00  0.00    -0.000 C 
BRANCH  10  11
ATOM     11  C   UNL     1      29.125  10.867  -1.553  1.00  0.00    -0.000 C 
BRANCH  11  12
ATOM     12  C   UNL     1      29.059   9.492  -0.873  1.00  0.00    -0.003 C 
ATOM     13  C   UNL     1      28.269   9.560   0.431  1.00  0.00     0.004 C 
ENDBRANCH  11  12
ENDBRANCH  10  11
ENDBRANCH   9  10
ENDBRANCH   8   9
ENDBRANCH   1   8
TORSDOF 9
ENDMDL
MODEL 9
REMARK VINA RESULT:    -1.433     22.818     24.895
REMARK INTER + INTRA:          -2.531
REMARK INTER:                  -2.288
REMARK INTRA:                  -0.243
REMARK UNBOUND:                -0.343
REMARK SMILES CCCCCCCCCCC(=O)[O-]
REMARK SMILES IDX 7 1 8 2 9 3 10 4 11 5 12 6 13 7 6 8 5 9 4 10 3 11 2 12 1 13
REMARK H PARENT
REMARK Flexibility Score: inf
ROOT
ATOM      1  C   UNL     1       9.470  -4.679   9.621  1.00  0.00     0.000 C 
ENDROOT
BRANCH   1   2
ATOM      2  C   UNL     1       9.543  -5.941   8.751  1.00  0.00     0.000 C 
BRANCH   2   3
ATOM      3  C   UNL     1       9.280  -5.655   7.261  1.00  0.00     0.006 C 
BRANCH   3   4
ATOM      4  C   UNL     1      10.445  -6.022   6.328  1.00  0.00     0.053 C 
BRANCH   4   5
ATOM      5  C   UNL     1      10.316  -5.373   4.984  1.00  0.00     0.041 C 
ATOM      6  O   UNL     1      11.138  -4.488   4.627  1.00  0.00    -0.550 OA
ATOM      7  O   UNL     1       9.310  -5.769   4.113  1.00  0.00    -0.550 OA
ENDBRANCH   4   5
ENDBRANCH   3   4
ENDBRANCH   2   3
ENDBRANCH   1   2
BRANCH   1   8
ATOM      8  C   UNL     1       8.876  -4.998  11.001  1.00  0.00     0.000 C 
BRANCH   8   9
ATOM      9  C   UNL     1       8.875  -3.784  11.949  1.00  0.00    -0.000 C 
BRANCH   9  10
ATOM     10  C   UNL     1       9.228  -4.099  13.417  1.00  0.00    -0.000 C 
BRANCH  10  11
ATOM     11  C   UNL     1       9.647  -2.883  14.263  1.00  0.00    -0.000 C 
BRANCH  11  12
ATOM     12  C   UNL     1       9.074  -1.562  13.733  1.00  0.00    -0.003 C 
ATOM     13  C   UNL     1      10.067  -0.418  13.916  1.00  0.00     0.004 C 
ENDBRANCH  11  12
ENDBRANCH  10  11
ENDBRANCH   9  10
ENDBRANCH   8   9
ENDBRANCH   1   8
TORSDOF 9
ENDMDL
