MODEL 1
REMARK VINA RESULT:    -3.676      0.000      0.000
REMARK INTER + INTRA:          -5.579
REMARK INTER:                  -5.180
REMARK INTRA:                  -0.399
REMARK UNBOUND:                -0.399
REMARK SMILES C=CCCCCCCC(=O)[O-]
REMARK SMILES IDX 6 1 7 2 8 3 9 4 10 5 11 6 5 7 4 8 3 9 2 10 1 11
REMARK H PARENT
REMARK Flexibility Score: inf
ROOT
ATOM      1  C   UNL     1      17.760   9.896   2.479  1.00  0.00     0.000 C 
ENDROOT
BRANCH   1   2
ATOM      2  C   UNL     1      17.441   8.627   1.675  1.00  0.00     0.006 C 
BRANCH   2   3
ATOM      3  C   UNL     1      18.075   7.373   2.293  1.00  0.00     0.053 C 
BRANCH   3   4
ATOM      4  C   UNL     1      18.483   6.383   1.244  1.00  0.00     0.041 C 
ATOM      5  O   UNL     1      18.881   5.235   1.576  1.00  0.00    -0.550 OA
ATOM      6  O   UNL     1      18.392   6.719  -0.100  1.00  0.00    -0.550 OA
ENDBRANCH   3   4
ENDBRANCH   2   3
ENDBRANCH   1   2
BRANCH   1   7
ATOM      7  C   UNL     1      16.478  10.548   3.008  1.00  0.00     0.000 C 
BRANCH   7   8
ATOM      8  C   UNL     1      16.782  11.490   4.180  1.00  0.00     0.004 C 
BRANCH   8   9
ATOM      9  C   UNL     1      18.279  11.490   4.510  1.00  0.00     0.027 C 
BRANCH   9  10
ATOM     10  C   UNL     1      18.847  12.882   4.467  1.00  0.00    -0.035 C 
ATOM     11  C   UNL     1      18.515  13.747   3.503  1.00  0.00     0.004 C 
ENDBRANCH   9  10
ENDBRANCH   8   9
ENDBRANCH   7   8
ENDBRANCH   1   7
TORSDOF 7
ENDMDL
MODEL 2
REMARK VINA RESULT:    -3.480      0.973      1.661
REMARK INTER + INTRA:          -5.303
REMARK INTER:                  -4.957
REMARK INTRA:                  -0.346
REMARK UNBOUND:                -0.399
REMARK SMILES C=CCCCCCCC(=O)[O-]
REMARK SMILES IDX 6 1 7 2 8 3 9 4 10 5 11 6 5 7 4 8 3 9 2 10 1 11
REMARK H PARENT
REMARK Flexibility Score: inf
ROOT
ATOM      1  C   UNL     1      17.752   9.928   2.491  1.00  0.00     0.000 C 
ENDROOT
BRANCH   1   2
ATOM      2  C   UNL     1      17.366   8.631   1.765  1.00  0.00     0.006 C 
BRANCH   2   3
ATOM      3  C   UNL     1      18.142   7.417   2.295  1.00  0.00     0.053 C 
BRANCH   3   4
ATOM      4  C   UNL     1      18.411   6.415   1.214  1.00  0.00     0.041 C 
ATOM      5  O   UNL     1      18.377   6.764   0.004  1.00  0.00    -0.550 OA
ATOM      6  O   UNL     1      18.731   5.105   1.544  1.00  0.00    -0.550 OA
ENDBRANCH   3   4
ENDBRANCH   2   3
ENDBRANCH   1   2
BRANCH   1   7
ATOM      7  C   UNL     1      17.979  11.069   1.492  1.00  0.00     0.000 C 
BRANCH   7   8
ATOM      8  C   UNL     1      17.734  12.434   2.150  1.00  0.00     0.004 C 
BRANCH   8   9
ATOM      9  C   UNL     1      18.879  12.798   3.102  1.00  0.00     0.027 C 
BRANCH   9  10
ATOM     10  C   UNL     1      18.361  13.148   4.470  1.00  0.00    -0.035 C 
ATOM     11  C   UNL     1      17.144  12.773   4.878  1.00  0.00     0.004 C 
ENDBRANCH   9  10
ENDBRANCH   8   9
ENDBRANCH   7   8
ENDBRANCH   1   7
TORSDOF 7
ENDMDL
MODEL 3
REMARK VINA RESULT:    -3.457      3.651      6.092
REMARK INTER + INTRA:          -5.270
REMARK INTER:                  -4.950
REMARK INTRA:                  -0.320
REMARK UNBOUND:                -0.399
REMARK SMILES C=CCCCCCCC(=O)[O-]
REMARK SMILES IDX 6 1 7 2 8 3 9 4 10 5 11 6 5 7 4 8 3 9 2 10 1 11
REMARK H PARENT
REMARK Flexibility Score: inf
ROOT
ATOM      1  C   UNL     1      18.359  10.357   3.391  1.00  0.00     0.000 C 
ENDROOT
BRANCH   1   2
ATOM      2  C   UNL     1      17.813  11.491   4.271  1.00  0.00     0.006 C 
BRANCH   2   3
ATOM      3  C   UNL     1      18.715  12.734   4.242  1.00  0.00     0.053 C 
BRANCH   3   4
ATOM      4  C   UNL     1      18.172  13.792   3.331  1.00  0.00     0.041 C 
ATOM      5  O   UNL     1      18.933  14.683   2.870  1.00  0.00    -0.550 OA
ATOM      6  O   UNL     1      16.832  13.775   2.967  1.00  0.00    -0.550 OA
ENDBRANCH   3   4
ENDBRANCH   2   3
ENDBRANCH   1   2
BRANCH   1   7
ATOM      7  C   UNL     1      17.808  10.456   1.964  1.00  0.00     0.000 C 
BRANCH   7   8
ATOM      8  C   UNL     1      17.236   9.110   1.501  1.00  0.00     0.004 C 
BRANCH   8   9
ATOM      9  C   UNL     1      17.876   7.947   2.269  1.00  0.00     0.027 C 
BRANCH   9  10
ATOM     10  C   UNL     1      18.186   6.794   1.355  1.00  0.00    -0.035 C 
ATOM     11  C   UNL     1      19.063   5.844   1.694  1.00  0.00     0.004 C 
ENDBRANCH   9  10
ENDBRANCH   8   9
ENDBRANCH   7   8
ENDBRANCH   1   7
TORSDOF 7
ENDMDL
MODEL 4
REMARK VINA RESULT:    -3.442      1.147      1.688
REMARK INTER + INTRA:          -5.249
REMARK INTER:                  -4.802
REMARK INTRA:                  -0.447
REMARK UNBOUND:                -0.399
REMARK SMILES C=CCCCCCCC(=O)[O-]
REMARK SMILES IDX 6 1 7 2 8 3 9 4 10 5 11 6 5 7 4 8 3 9 2 10 1 11
REMARK H PARENT
REMARK Flexibility Score: inf
ROOT
ATOM      1  C   UNL     1      16.502  10.539   2.955  1.00  0.00     0.000 C 
ENDROOT
BRANCH   1   2
ATOM      2  C   UNL     1      17.775   9.782   2.547  1.00  0.00     0.006 C 
BRANCH   2   3
ATOM      3  C   UNL     1      17.493   8.694   1.501  1.00  0.00     0.053 C 
BRANCH   3   4
ATOM      4  C   UNL     1      17.672   7.319   2.069  1.00  0.00     0.041 C 
ATOM      5  O   UNL     1      18.761   6.994   2.611  1.00  0.00    -0.550 OA
ATOM      6  O   UNL     1      16.625   6.409   2.028  1.00  0.00    -0.550 OA
ENDBRANCH   3   4
ENDBRANCH   2   3
ENDBRANCH   1   2
BRANCH   1   7
ATOM      7  C   UNL     1      16.783  11.499   4.116  1.00  0.00     0.000 C 
BRANCH   7   8
ATOM      8  C   UNL     1      18.253  11.425   4.549  1.00  0.00     0.004 C 
BRANCH   8   9
ATOM      9  C   UNL     1      18.939  12.788   4.397  1.00  0.00     0.027 C 
BRANCH   9  10
ATOM     10  C   UNL     1      18.085  13.744   3.610  1.00  0.00    -0.035 C 
ATOM     11  C   UNL     1      18.564  14.409   2.555  1.00  0.00     0.004 C 
ENDBRANCH   9  10
ENDBRANCH   8   9
ENDBRANCH   7   8
ENDBRANCH   1   7
TORSDOF 7
ENDMDL
MODEL 5
REMARK VINA RESULT:    -3.368      1.575      2.171
REMARK INTER + INTRA:          -5.145
REMARK INTER:                  -4.463
REMARK INTRA:                  -0.681
REMARK UNBOUND:                -0.399
REMARK SMILES C=CCCCCCCC(=O)[O-]
REMARK SMILES IDX 6 1 7 2 8 3 9 4 10 5 11 6 5 7 4 8 3 9 2 10 1 11
REMARK H PARENT
REMARK Flexibility Score: inf
ROOT
ATOM      1  C   UNL     1      17.783  11.567   1.158  1.00  0.00     0.000 C 
ENDROOT
BRANCH   1   2
ATOM      2  C   UNL     1      16.910  10.349   1.496  1.00  0.00     0.006 C 
BRANCH   2   3
ATOM      3  C   UNL     1      17.663   9.311   2.341  1.00  0.00     0.053 C 
BRANCH   3   4
ATOM      4  C   UNL     1      17.744   7.985   1.648  1.00  0.00     0.041 C 
ATOM      5  O   UNL     1      17.750   6.919   2.319  1.00  0.00    -0.550 OA
ATOM      6  O   UNL     1      17.779   7.927   0.261  1.00  0.00    -0.550 OA
ENDBRANCH   3   4
ENDBRANCH   2   3
ENDBRANCH   1   2
BRANCH   1   7
ATOM      7  C   UNL     1      16.956  12.858   1.181  1.00  0.00     0.000 C 
BRANCH   7   8
ATOM      8  C   UNL     1      17.486  13.833   2.241  1.00  0.00     0.004 C 
BRANCH   8   9
ATOM      9  C   UNL     1      18.599  13.186   3.074  1.00  0.00     0.027 C 
BRANCH   9  10
ATOM     10  C   UNL     1      18.174  13.006   4.505  1.00  0.00    -0.035 C 
ATOM     11  C   UNL     1      17.157  12.206   4.841  1.00  0.00     0.004 C 
ENDBRANCH   9  10
ENDBRANCH   8   9
ENDBRANCH   7   8
ENDBRANCH   1   7
TORSDOF 7
ENDMDL
MODEL 6
REMARK VINA RESULT:    -3.354      3.568      6.002
REMARK INTER + INTRA:          -5.125
REMARK INTER:                  -4.796
REMARK INTRA:                  -0.329
REMARK UNBOUND:                -0.399
REMARK SMILES C=CCCCCCCC(=O)[O-]
REMARK SMILES IDX 6 1 7 2 8 3 9 4 10 5 11 6 5 7 4 8 3 9 2 10 1 11
REMARK H PARENT
REMARK Flexibility Score: inf
ROOT
ATOM      1  C   UNL     1      17.628   9.168   2.011  1.00  0.00     0.000 C 
ENDROOT
BRANCH   1   2
ATOM      2  C   UNL     1      18.099  10.308   2.926  1.00  0.00     0.006 C 
BRANCH   2   3
ATOM      3  C   UNL     1      18.334  11.613   2.154  1.00  0.00     0.053 C 
BRANCH   3   4
ATOM      4  C   UNL     1      18.669  12.749   3.072  1.00  0.00     0.041 C 
ATOM      5  O   UNL     1      18.554  13.939   2.677  1.00  0.00    -0.550 OA
ATOM      6  O   UNL     1      19.077  12.492   4.374  1.00  0.00    -0.550 OA
ENDBRANCH   3   4
ENDBRANCH   2   3
ENDBRANCH   1   2
BRANCH   1   7
ATOM      7  C   UNL     1      18.044   7.804   2.575  1.00  0.00     0.000 C 
BRANCH   7   8
ATOM      8  C   UNL     1      18.338   6.808   1.445  1.00  0.00     0.004 C 
BRANCH   8   9
ATOM      9  C   UNL     1      17.382   7.019   0.265  1.00  0.00     0.027 C 
BRANCH   9  10
ATOM     10  C   UNL     1      18.136   7.333  -0.998  1.00  0.00    -0.035 C 
ATOM     11  C   UNL     1      17.884   8.433  -1.713  1.00  0.00     0.004 C 
ENDBRANCH   9  10
ENDBRANCH   8   9
ENDBRANCH   7   8
ENDBRANCH   1   7
TORSDOF 7
ENDMDL
MODEL 7
REMARK VINA RESULT:    -3.339      3.899      5.878
REMARK INTER + INTRA:          -5.105
REMARK INTER:                  -4.418
REMARK INTRA:                  -0.686
REMARK UNBOUND:                -0.399
REMARK SMILES C=CCCCCCCC(=O)[O-]
REMARK SMILES IDX 6 1 7 2 8 3 9 4 10 5 11 6 5 7 4 8 3 9 2 10 1 11
REMARK H PARENT
REMARK Flexibility Score: inf
ROOT
ATOM      1  C   UNL     1      18.887  13.279   3.542  1.00  0.00     0.000 C 
ENDROOT
BRANCH   1   2
ATOM      2  C   UNL     1      18.426  14.370   2.564  1.00  0.00     0.006 C 
BRANCH   2   3
ATOM      3  C   UNL     1      16.952  14.209   2.167  1.00  0.00     0.053 C 
BRANCH   3   4
ATOM      4  C   UNL     1      16.708  14.640   0.753  1.00  0.00     0.041 C 
ATOM      5  O   UNL     1      16.299  13.810  -0.101  1.00  0.00    -0.550 OA
ATOM      6  O   UNL     1      16.902  15.965   0.387  1.00  0.00    -0.550 OA
ENDBRANCH   3   4
ENDBRANCH   2   3
ENDBRANCH   1   2
BRANCH   1   7
ATOM      7  C   UNL     1      17.788  12.956   4.561  1.00  0.00     0.000 C 
BRANCH   7   8
ATOM      8  C   UNL     1      17.411  11.470   4.512  1.00  0.00     0.004 C 
BRANCH   8   9
ATOM      9  C   UNL     1      18.416  10.677   3.667  1.00  0.00     0.027 C 
BRANCH   9  10
ATOM     10  C   UNL     1      17.734   9.982   2.520  1.00  0.00    -0.035 C 
ATOM     11  C   UNL     1      17.555  10.585   1.340  1.00  0.00     0.004 C 
ENDBRANCH   9  10
ENDBRANCH   8   9
ENDBRANCH   7   8
ENDBRANCH   1   7
TORSDOF 7
ENDMDL
MODEL 8
REMARK VINA RESULT:    -3.213      3.519      6.128
REMARK INTER + INTRA:          -4.926
REMARK INTER:                  -4.597
REMARK INTRA:                  -0.329
REMARK UNBOUND:                -0.399
REMARK SMILES C=CCCCCCCC(=O)[O-]
REMARK SMILES IDX 6 1 7 2 8 3 9 4 10 5 11 6 5 7 4 8 3 9 2 10 1 11
REMARK H PARENT
REMARK Flexibility Score: inf
ROOT
ATOM      1  C   UNL     1      17.381  10.579   0.504  1.00  0.00     0.000 C 
ENDROOT
BRANCH   1   2
ATOM      2  C   UNL     1      17.758  10.687   1.989  1.00  0.00     0.006 C 
BRANCH   2   3
ATOM      3  C   UNL     1      18.316  12.071   2.348  1.00  0.00     0.053 C 
BRANCH   3   4
ATOM      4  C   UNL     1      18.453  12.247   3.829  1.00  0.00     0.041 C 
ATOM      5  O   UNL     1      18.565  13.400   4.323  1.00  0.00    -0.550 OA
ATOM      6  O   UNL     1      18.425  11.139   4.666  1.00  0.00    -0.550 OA
ENDBRANCH   3   4
ENDBRANCH   2   3
ENDBRANCH   1   2
BRANCH   1   7
ATOM      7  C   UNL     1      16.974   9.146   0.144  1.00  0.00     0.000 C 
BRANCH   7   8
ATOM      8  C   UNL     1      17.615   8.707  -1.179  1.00  0.00     0.004 C 
BRANCH   8   9
ATOM      9  C   UNL     1      18.209   7.298  -1.061  1.00  0.00     0.027 C 
BRANCH   9  10
ATOM     10  C   UNL     1      18.075   6.766   0.340  1.00  0.00    -0.035 C 
ATOM     11  C   UNL     1      18.712   5.660   0.735  1.00  0.00     0.004 C 
ENDBRANCH   9  10
ENDBRANCH   8   9
ENDBRANCH   7   8
ENDBRANCH   1   7
TORSDOF 7
ENDMDL
MODEL 9
REMARK VINA RESULT:    -3.165      4.240      5.842
REMARK INTER + INTRA:          -4.858
REMARK INTER:                  -4.168
REMARK INTRA:                  -0.690
REMARK UNBOUND:                -0.399
REMARK SMILES C=CCCCCCCC(=O)[O-]
REMARK SMILES IDX 6 1 7 2 8 3 9 4 10 5 11 6 5 7 4 8 3 9 2 10 1 11
REMARK H PARENT
REMARK Flexibility Score: inf
ROOT
ATOM      1  C   UNL     1      18.143  11.409   4.652  1.00  0.00     0.000 C 
ENDROOT
BRANCH   1   2
ATOM      2  C   UNL     1      18.183  12.923   4.398  1.00  0.00     0.006 C 
BRANCH   2   3
ATOM      3  C   UNL     1      19.108  13.291   3.229  1.00  0.00     0.053 C 
BRANCH   3   4
ATOM      4  C   UNL     1      18.606  14.489   2.481  1.00  0.00     0.041 C 
ATOM      5  O   UNL     1      19.386  15.439   2.210  1.00  0.00    -0.550 OA
ATOM      6  O   UNL     1      17.285  14.539   2.056  1.00  0.00    -0.550 OA
ENDBRANCH   3   4
ENDBRANCH   2   3
ENDBRANCH   1   2
BRANCH   1   7
ATOM      7  C   UNL     1      18.019  10.634   3.335  1.00  0.00     0.000 C 
BRANCH   7   8
ATOM      8  C   UNL     1      16.547  10.418   2.959  1.00  0.00     0.004 C 
BRANCH   8   9
ATOM      9  C   UNL     1      16.165  11.255   1.732  1.00  0.00     0.027 C 
BRANCH   9  10
ATOM     10  C   UNL     1      17.226  11.177   0.668  1.00  0.00    -0.035 C 
ATOM     11  C   UNL     1      17.161  10.286  -0.327  1.00  0.00     0.004 C 
ENDBRANCH   9  10
ENDBRANCH   8   9
ENDBRANCH   7   8
ENDBRANCH   1   7
TORSDOF 7
ENDMDL
