MODEL 1
REMARK VINA RESULT:    -3.939      0.000      0.000
REMARK INTER + INTRA:          -5.207
REMARK INTER:                  -5.090
REMARK INTRA:                  -0.117
REMARK UNBOUND:                -0.117
REMARK SMILES CCCCCCC(=O)[O-]
REMARK SMILES IDX 5 1 6 2 7 3 8 4 9 5 4 6 3 7 2 8 1 9
REMARK H PARENT
REMARK Flexibility Score: inf
ROOT
ATOM      1  C   UNL     1      37.960  20.337   5.308  1.00  0.00     0.006 C 
ENDROOT
BRANCH   1   2
ATOM      2  C   UNL     1      37.781  20.687   6.791  1.00  0.00     0.053 C 
BRANCH   2   3
ATOM      3  C   UNL     1      37.664  19.460   7.642  1.00  0.00     0.041 C 
ATOM      4  O   UNL     1      36.655  19.290   8.377  1.00  0.00    -0.550 OA
ATOM      5  O   UNL     1      38.683  18.516   7.644  1.00  0.00    -0.550 OA
ENDBRANCH   2   3
ENDBRANCH   1   2
BRANCH   1   6
ATOM      6  C   UNL     1      36.622  20.005   4.623  1.00  0.00     0.000 C 
BRANCH   6   7
ATOM      7  C   UNL     1      36.438  20.737   3.282  1.00  0.00    -0.000 C 
BRANCH   7   8
ATOM      8  C   UNL     1      35.205  20.303   2.470  1.00  0.00    -0.003 C 
ATOM      9  C   UNL     1      34.480  21.475   1.810  1.00  0.00     0.004 C 
ENDBRANCH   7   8
ENDBRANCH   6   7
ENDBRANCH   1   6
TORSDOF 5
ENDMDL
MODEL 2
REMARK VINA RESULT:    -3.933      0.629      1.278
REMARK INTER + INTRA:          -5.200
REMARK INTER:                  -5.042
REMARK INTRA:                  -0.157
REMARK UNBOUND:                -0.117
REMARK SMILES CCCCCCC(=O)[O-]
REMARK SMILES IDX 5 1 6 2 7 3 8 4 9 5 4 6 3 7 2 8 1 9
REMARK H PARENT
REMARK Flexibility Score: inf
ROOT
ATOM      1  C   UNL     1      37.118  19.967   5.158  1.00  0.00     0.006 C 
ENDROOT
BRANCH   1   2
ATOM      2  C   UNL     1      37.608  20.533   6.497  1.00  0.00     0.053 C 
BRANCH   2   3
ATOM      3  C   UNL     1      37.702  19.471   7.549  1.00  0.00     0.041 C 
ATOM      4  O   UNL     1      38.730  18.748   7.632  1.00  0.00    -0.550 OA
ATOM      5  O   UNL     1      36.641  19.261   8.422  1.00  0.00    -0.550 OA
ENDBRANCH   2   3
ENDBRANCH   1   2
BRANCH   1   6
ATOM      6  C   UNL     1      37.840  20.605   3.958  1.00  0.00     0.000 C 
BRANCH   6   7
ATOM      7  C   UNL     1      36.870  21.176   2.910  1.00  0.00    -0.000 C 
BRANCH   7   8
ATOM      8  C   UNL     1      35.525  20.437   2.800  1.00  0.00    -0.003 C 
ATOM      9  C   UNL     1      34.426  21.287   2.163  1.00  0.00     0.004 C 
ENDBRANCH   7   8
ENDBRANCH   6   7
ENDBRANCH   1   6
TORSDOF 5
ENDMDL
MODEL 3
REMARK VINA RESULT:    -3.891      1.215      1.831
REMARK INTER + INTRA:          -5.146
REMARK INTER:                  -4.880
REMARK INTRA:                  -0.266
REMARK UNBOUND:                -0.117
REMARK SMILES CCCCCCC(=O)[O-]
REMARK SMILES IDX 5 1 6 2 7 3 8 4 9 5 4 6 3 7 2 8 1 9
REMARK H PARENT
REMARK Flexibility Score: inf
ROOT
ATOM      1  C   UNL     1      39.361  20.178   5.929  1.00  0.00     0.006 C 
ENDROOT
BRANCH   1   2
ATOM      2  C   UNL     1      38.620  19.221   6.873  1.00  0.00     0.053 C 
BRANCH   2   3
ATOM      3  C   UNL     1      37.537  19.920   7.636  1.00  0.00     0.041 C 
ATOM      4  O   UNL     1      37.478  21.179   7.648  1.00  0.00    -0.550 OA
ATOM      5  O   UNL     1      36.607  19.182   8.357  1.00  0.00    -0.550 OA
ENDBRANCH   2   3
ENDBRANCH   1   2
BRANCH   1   6
ATOM      6  C   UNL     1      38.915  20.010   4.466  1.00  0.00     0.000 C 
BRANCH   6   7
ATOM      7  C   UNL     1      37.740  20.929   4.089  1.00  0.00    -0.000 C 
BRANCH   7   8
ATOM      8  C   UNL     1      36.362  20.243   4.069  1.00  0.00    -0.003 C 
ATOM      9  C   UNL     1      35.589  20.492   2.774  1.00  0.00     0.004 C 
ENDBRANCH   7   8
ENDBRANCH   6   7
ENDBRANCH   1   6
TORSDOF 5
ENDMDL
MODEL 4
REMARK VINA RESULT:    -3.728      2.135      2.843
REMARK INTER + INTRA:          -4.934
REMARK INTER:                  -4.663
REMARK INTRA:                  -0.271
REMARK UNBOUND:                -0.117
REMARK SMILES CCCCCCC(=O)[O-]
REMARK SMILES IDX 5 1 6 2 7 3 8 4 9 5 4 6 3 7 2 8 1 9
REMARK H PARENT
REMARK Flexibility Score: inf
ROOT
ATOM      1  C   UNL     1      37.667  20.510   7.406  1.00  0.00     0.006 C 
ENDROOT
BRANCH   1   2
ATOM      2  C   UNL     1      38.279  21.897   7.170  1.00  0.00     0.053 C 
BRANCH   2   3
ATOM      3  C   UNL     1      39.723  21.809   6.782  1.00  0.00     0.041 C 
ATOM      4  O   UNL     1      40.114  22.273   5.678  1.00  0.00    -0.550 OA
ATOM      5  O   UNL     1      40.634  21.189   7.628  1.00  0.00    -0.550 OA
ENDBRANCH   2   3
ENDBRANCH   1   2
BRANCH   1   6
ATOM      6  C   UNL     1      37.711  19.633   6.142  1.00  0.00     0.000 C 
BRANCH   6   7
ATOM      7  C   UNL     1      36.591  19.968   5.141  1.00  0.00    -0.000 C 
BRANCH   7   8
ATOM      8  C   UNL     1      37.068  20.602   3.823  1.00  0.00    -0.003 C 
ATOM      9  C   UNL     1      35.957  20.721   2.779  1.00  0.00     0.004 C 
ENDBRANCH   7   8
ENDBRANCH   6   7
ENDBRANCH   1   6
TORSDOF 5
ENDMDL
MODEL 5
REMARK VINA RESULT:    -3.621      3.464      5.250
REMARK INTER + INTRA:          -4.796
REMARK INTER:                  -4.573
REMARK INTRA:                  -0.223
REMARK UNBOUND:                -0.117
REMARK SMILES CCCCCCC(=O)[O-]
REMARK SMILES IDX 5 1 6 2 7 3 8 4 9 5 4 6 3 7 2 8 1 9
REMARK H PARENT
REMARK Flexibility Score: inf
ROOT
ATOM      1  C   UNL     1      37.529  20.877   3.682  1.00  0.00     0.006 C 
ENDROOT
BRANCH   1   2
ATOM      2  C   UNL     1      36.098  20.353   3.512  1.00  0.00     0.053 C 
BRANCH   2   3
ATOM      3  C   UNL     1      35.498  20.784   2.209  1.00  0.00     0.041 C 
ATOM      4  O   UNL     1      36.236  21.003   1.212  1.00  0.00    -0.550 OA
ATOM      5  O   UNL     1      34.126  20.971   2.103  1.00  0.00    -0.550 OA
ENDBRANCH   2   3
ENDBRANCH   1   2
BRANCH   1   6
ATOM      6  C   UNL     1      38.271  20.179   4.836  1.00  0.00     0.000 C 
BRANCH   6   7
ATOM      7  C   UNL     1      37.344  19.810   6.007  1.00  0.00    -0.000 C 
BRANCH   7   8
ATOM      8  C   UNL     1      37.717  20.449   7.357  1.00  0.00    -0.003 C 
ATOM      9  C   UNL     1      37.766  21.976   7.302  1.00  0.00     0.004 C 
ENDBRANCH   7   8
ENDBRANCH   6   7
ENDBRANCH   1   6
TORSDOF 5
ENDMDL
MODEL 6
REMARK VINA RESULT:    -3.576      2.002      3.454
REMARK INTER + INTRA:          -4.738
REMARK INTER:                  -4.422
REMARK INTRA:                  -0.317
REMARK UNBOUND:                -0.117
REMARK SMILES CCCCCCC(=O)[O-]
REMARK SMILES IDX 5 1 6 2 7 3 8 4 9 5 4 6 3 7 2 8 1 9
REMARK H PARENT
REMARK Flexibility Score: inf
ROOT
ATOM      1  C   UNL     1      37.334  19.952   5.089  1.00  0.00     0.006 C 
ENDROOT
BRANCH   1   2
ATOM      2  C   UNL     1      37.461  20.603   6.473  1.00  0.00     0.053 C 
BRANCH   2   3
ATOM      3  C   UNL     1      37.642  19.580   7.553  1.00  0.00     0.041 C 
ATOM      4  O   UNL     1      36.735  19.390   8.406  1.00  0.00    -0.550 OA
ATOM      5  O   UNL     1      38.825  18.857   7.634  1.00  0.00    -0.550 OA
ENDBRANCH   2   3
ENDBRANCH   1   2
BRANCH   1   6
ATOM      6  C   UNL     1      38.187  20.671   4.029  1.00  0.00     0.000 C 
BRANCH   6   7
ATOM      7  C   UNL     1      39.646  20.182   4.001  1.00  0.00    -0.000 C 
BRANCH   7   8
ATOM      8  C   UNL     1      40.699  21.266   4.292  1.00  0.00    -0.003 C 
ATOM      9  C   UNL     1      40.946  21.473   5.786  1.00  0.00     0.004 C 
ENDBRANCH   7   8
ENDBRANCH   6   7
ENDBRANCH   1   6
TORSDOF 5
ENDMDL
MODEL 7
REMARK VINA RESULT:    -3.574      3.114      4.998
REMARK INTER + INTRA:          -4.735
REMARK INTER:                  -4.481
REMARK INTRA:                  -0.255
REMARK UNBOUND:                -0.117
REMARK SMILES CCCCCCC(=O)[O-]
REMARK SMILES IDX 5 1 6 2 7 3 8 4 9 5 4 6 3 7 2 8 1 9
REMARK H PARENT
REMARK Flexibility Score: inf
ROOT
ATOM      1  C   UNL     1      38.095  21.303   4.510  1.00  0.00     0.006 C 
ENDROOT
BRANCH   1   2
ATOM      2  C   UNL     1      37.026  20.255   4.171  1.00  0.00     0.053 C 
BRANCH   2   3
ATOM      3  C   UNL     1      36.206  20.661   2.984  1.00  0.00     0.041 C 
ATOM      4  O   UNL     1      35.326  19.886   2.525  1.00  0.00    -0.550 OA
ATOM      5  O   UNL     1      36.434  21.885   2.368  1.00  0.00    -0.550 OA
ENDBRANCH   2   3
ENDBRANCH   1   2
BRANCH   1   6
ATOM      6  C   UNL     1      38.613  21.159   5.952  1.00  0.00     0.000 C 
BRANCH   6   7
ATOM      7  C   UNL     1      39.286  19.800   6.213  1.00  0.00    -0.000 C 
BRANCH   7   8
ATOM      8  C   UNL     1      38.629  18.953   7.317  1.00  0.00    -0.003 C 
ATOM      9  C   UNL     1      37.321  19.552   7.833  1.00  0.00     0.004 C 
ENDBRANCH   7   8
ENDBRANCH   6   7
ENDBRANCH   1   6
TORSDOF 5
ENDMDL
MODEL 8
REMARK VINA RESULT:    -3.537      1.477      2.017
REMARK INTER + INTRA:          -4.687
REMARK INTER:                  -4.457
REMARK INTRA:                  -0.231
REMARK UNBOUND:                -0.117
REMARK SMILES CCCCCCC(=O)[O-]
REMARK SMILES IDX 5 1 6 2 7 3 8 4 9 5 4 6 3 7 2 8 1 9
REMARK H PARENT
REMARK Flexibility Score: inf
ROOT
ATOM      1  C   UNL     1      37.208  20.242   5.731  1.00  0.00     0.006 C 
ENDROOT
BRANCH   1   2
ATOM      2  C   UNL     1      38.263  20.737   6.729  1.00  0.00     0.053 C 
BRANCH   2   3
ATOM      3  C   UNL     1      39.127  19.618   7.226  1.00  0.00     0.041 C 
ATOM      4  O   UNL     1      38.642  18.468   7.393  1.00  0.00    -0.550 OA
ATOM      5  O   UNL     1      40.462  19.853   7.531  1.00  0.00    -0.550 OA
ENDBRANCH   2   3
ENDBRANCH   1   2
BRANCH   1   6
ATOM      6  C   UNL     1      37.722  20.264   4.281  1.00  0.00     0.000 C 
BRANCH   6   7
ATOM      7  C   UNL     1      36.629  20.635   3.264  1.00  0.00    -0.000 C 
BRANCH   7   8
ATOM      8  C   UNL     1      36.881  21.940   2.488  1.00  0.00    -0.003 C 
ATOM      9  C   UNL     1      38.011  22.780   3.082  1.00  0.00     0.004 C 
ENDBRANCH   7   8
ENDBRANCH   6   7
ENDBRANCH   1   6
TORSDOF 5
ENDMDL
MODEL 9
REMARK VINA RESULT:    -3.404      1.563      2.102
REMARK INTER + INTRA:          -4.516
REMARK INTER:                  -4.253
REMARK INTRA:                  -0.263
REMARK UNBOUND:                -0.117
REMARK SMILES CCCCCCC(=O)[O-]
REMARK SMILES IDX 5 1 6 2 7 3 8 4 9 5 4 6 3 7 2 8 1 9
REMARK H PARENT
REMARK Flexibility Score: inf
ROOT
ATOM      1  C   UNL     1      38.650  20.083   4.981  1.00  0.00     0.006 C 
ENDROOT
BRANCH   1   2
ATOM      2  C   UNL     1      37.409  19.909   5.866  1.00  0.00     0.053 C 
BRANCH   2   3
ATOM      3  C   UNL     1      37.775  19.558   7.276  1.00  0.00     0.041 C 
ATOM      4  O   UNL     1      36.991  19.831   8.223  1.00  0.00    -0.550 OA
ATOM      5  O   UNL     1      38.997  18.954   7.547  1.00  0.00    -0.550 OA
ENDBRANCH   2   3
ENDBRANCH   1   2
BRANCH   1   6
ATOM      6  C   UNL     1      39.088  21.554   4.876  1.00  0.00     0.000 C 
BRANCH   6   7
ATOM      7  C   UNL     1      39.090  22.076   3.428  1.00  0.00    -0.000 C 
BRANCH   7   8
ATOM      8  C   UNL     1      37.810  22.815   3.003  1.00  0.00    -0.003 C 
ATOM      9  C   UNL     1      36.821  21.920   2.257  1.00  0.00     0.004 C 
ENDBRANCH   7   8
ENDBRANCH   6   7
ENDBRANCH   1   6
TORSDOF 5
ENDMDL
