MODEL 1
REMARK VINA RESULT:    -5.074      0.000      0.000
REMARK INTER + INTRA:          -5.500
REMARK INTER:                  -5.371
REMARK INTRA:                  -0.129
REMARK UNBOUND:                -0.129
REMARK SMILES C=C(C)[C@H]1CC=C(C)CC1
REMARK SMILES IDX 8 1 7 2 6 3 5 4 4 5 10 6 9 7 2 8 1 9 3 10
REMARK H PARENT
REMARK Flexibility Score: inf
ROOT
ATOM      1  C   UNL     1     109.575 110.751 113.668  1.00  0.00     0.039 C 
ATOM      2  C   UNL     1     109.558 110.946 112.177  1.00  0.00    -0.077 C 
ATOM      3  C   UNL     1     109.347 109.877 111.378  1.00  0.00    -0.027 C 
ATOM      4  C   UNL     1     109.366 109.961 109.872  1.00  0.00     0.035 C 
ATOM      5  C   UNL     1     109.090 111.388 109.365  1.00  0.00     0.018 C 
ATOM      6  C   UNL     1     109.972 112.391 110.125  1.00  0.00     0.013 C 
ATOM      7  C   UNL     1     109.646 112.355 111.622  1.00  0.00     0.031 C 
ENDROOT
BRANCH   5   8
ATOM      8  C   UNL     1     109.282 111.495 107.858  1.00  0.00    -0.077 C 
ATOM      9  C   UNL     1     109.469 112.683 107.259  1.00  0.00     0.008 C 
ATOM     10  C   UNL     1     109.261 110.254 107.003  1.00  0.00     0.039 C 
ENDBRANCH   5   8
TORSDOF 1
ENDMDL
MODEL 2
REMARK VINA RESULT:    -5.060      1.097      4.957
REMARK INTER + INTRA:          -5.485
REMARK INTER:                  -5.356
REMARK INTRA:                  -0.130
REMARK UNBOUND:                -0.129
REMARK SMILES C=C(C)[C@H]1CC=C(C)CC1
REMARK SMILES IDX 8 1 7 2 6 3 5 4 4 5 10 6 9 7 2 8 1 9 3 10
REMARK H PARENT
REMARK Flexibility Score: inf
ROOT
ATOM      1  C   UNL     1     109.442 111.057 108.437  1.00  0.00     0.039 C 
ATOM      2  C   UNL     1     109.466 111.130 109.939  1.00  0.00    -0.077 C 
ATOM      3  C   UNL     1     109.773 112.304 110.533  1.00  0.00    -0.027 C 
ATOM      4  C   UNL     1     109.877 112.465 112.029  1.00  0.00     0.035 C 
ATOM      5  C   UNL     1     109.085 111.384 112.787  1.00  0.00     0.018 C 
ATOM      6  C   UNL     1     109.419 109.996 112.216  1.00  0.00     0.013 C 
ATOM      7  C   UNL     1     109.018 109.921 110.738  1.00  0.00     0.031 C 
ENDROOT
BRANCH   5   8
ATOM      8  C   UNL     1     109.337 111.452 114.288  1.00  0.00    -0.077 C 
ATOM      9  C   UNL     1     109.857 112.551 114.860  1.00  0.00     0.008 C 
ATOM     10  C   UNL     1     109.007 110.271 115.164  1.00  0.00     0.039 C 
ENDBRANCH   5   8
TORSDOF 1
ENDMDL
MODEL 3
REMARK VINA RESULT:    -5.050      3.356      3.919
REMARK INTER + INTRA:          -5.475
REMARK INTER:                  -5.346
REMARK INTRA:                  -0.129
REMARK UNBOUND:                -0.129
REMARK SMILES C=C(C)[C@H]1CC=C(C)CC1
REMARK SMILES IDX 8 1 7 2 6 3 5 4 4 5 10 6 9 7 2 8 1 9 3 10
REMARK H PARENT
REMARK Flexibility Score: inf
ROOT
ATOM      1  C   UNL     1     112.603 111.634 113.689  1.00  0.00     0.039 C 
ATOM      2  C   UNL     1     112.656 111.395 112.205  1.00  0.00    -0.077 C 
ATOM      3  C   UNL     1     112.917 112.435 111.382  1.00  0.00    -0.027 C 
ATOM      4  C   UNL     1     112.937 112.308 109.879  1.00  0.00     0.035 C 
ATOM      5  C   UNL     1     113.190 110.861 109.421  1.00  0.00     0.018 C 
ATOM      6  C   UNL     1     112.262 109.902 110.183  1.00  0.00     0.013 C 
ATOM      7  C   UNL     1     112.547 109.973 111.688  1.00  0.00     0.031 C 
ENDROOT
BRANCH   5   8
ATOM      8  C   UNL     1     113.037 110.715 107.912  1.00  0.00    -0.077 C 
ATOM      9  C   UNL     1     112.959 109.506 107.331  1.00  0.00     0.008 C 
ATOM     10  C   UNL     1     112.974 111.941 107.037  1.00  0.00     0.039 C 
ENDBRANCH   5   8
TORSDOF 1
ENDMDL
MODEL 4
REMARK VINA RESULT:    -5.035      3.542      6.009
REMARK INTER + INTRA:          -5.458
REMARK INTER:                  -5.329
REMARK INTRA:                  -0.129
REMARK UNBOUND:                -0.129
REMARK SMILES C=C(C)[C@H]1CC=C(C)CC1
REMARK SMILES IDX 8 1 7 2 6 3 5 4 4 5 10 6 9 7 2 8 1 9 3 10
REMARK H PARENT
REMARK Flexibility Score: inf
ROOT
ATOM      1  C   UNL     1     112.854 110.777 108.689  1.00  0.00     0.039 C 
ATOM      2  C   UNL     1     112.823 110.844 110.191  1.00  0.00    -0.077 C 
ATOM      3  C   UNL     1     112.530 109.727 110.891  1.00  0.00    -0.027 C 
ATOM      4  C   UNL     1     112.422 109.705 112.396  1.00  0.00     0.035 C 
ATOM      5  C   UNL     1     113.195 110.864 113.051  1.00  0.00     0.018 C 
ATOM      6  C   UNL     1     112.845 112.187 112.352  1.00  0.00     0.013 C 
ATOM      7  C   UNL     1     113.252 112.129 110.875  1.00  0.00     0.031 C 
ENDROOT
BRANCH   5   8
ATOM      8  C   UNL     1     112.937 110.933 114.551  1.00  0.00    -0.077 C 
ATOM      9  C   UNL     1     112.410 109.892 115.218  1.00  0.00     0.008 C 
ATOM     10  C   UNL     1     113.269 112.186 115.318  1.00  0.00     0.039 C 
ENDBRANCH   5   8
TORSDOF 1
ENDMDL
MODEL 5
REMARK VINA RESULT:    -5.023      2.938      4.914
REMARK INTER + INTRA:          -5.446
REMARK INTER:                  -5.317
REMARK INTRA:                  -0.129
REMARK UNBOUND:                -0.129
REMARK SMILES C=C(C)[C@H]1CC=C(C)CC1
REMARK SMILES IDX 8 1 7 2 6 3 5 4 4 5 10 6 9 7 2 8 1 9 3 10
REMARK H PARENT
REMARK Flexibility Score: inf
ROOT
ATOM      1  C   UNL     1     109.516 111.010 118.593  1.00  0.00     0.039 C 
ATOM      2  C   UNL     1     109.521 111.144 117.095  1.00  0.00    -0.077 C 
ATOM      3  C   UNL     1     109.119 110.097 116.342  1.00  0.00    -0.027 C 
ATOM      4  C   UNL     1     109.139 110.114 114.834  1.00  0.00     0.035 C 
ATOM      5  C   UNL     1     109.113 111.545 114.268  1.00  0.00     0.018 C 
ATOM      6  C   UNL     1     110.163 112.408 114.983  1.00  0.00     0.013 C 
ATOM      7  C   UNL     1     109.850 112.492 116.482  1.00  0.00     0.031 C 
ENDROOT
BRANCH   5   8
ATOM      8  C   UNL     1     109.307 111.554 112.757  1.00  0.00    -0.077 C 
ATOM      9  C   UNL     1     109.460 112.704 112.079  1.00  0.00     0.008 C 
ATOM     10  C   UNL     1     109.327 110.257 111.989  1.00  0.00     0.039 C 
ENDBRANCH   5   8
TORSDOF 1
ENDMDL
MODEL 6
REMARK VINA RESULT:    -4.985      3.455      6.316
REMARK INTER + INTRA:          -5.406
REMARK INTER:                  -5.277
REMARK INTRA:                  -0.129
REMARK UNBOUND:                -0.129
REMARK SMILES C=C(C)[C@H]1CC=C(C)CC1
REMARK SMILES IDX 8 1 7 2 6 3 5 4 4 5 10 6 9 7 2 8 1 9 3 10
REMARK H PARENT
REMARK Flexibility Score: inf
ROOT
ATOM      1  C   UNL     1     112.531 110.512 109.161  1.00  0.00     0.039 C 
ATOM      2  C   UNL     1     112.635 110.611 110.658  1.00  0.00    -0.077 C 
ATOM      3  C   UNL     1     112.744 111.831 111.228  1.00  0.00    -0.027 C 
ATOM      4  C   UNL     1     112.908 112.031 112.714  1.00  0.00     0.035 C 
ATOM      5  C   UNL     1     112.392 110.828 113.524  1.00  0.00     0.018 C 
ATOM      6  C   UNL     1     112.953 109.524 112.936  1.00  0.00     0.013 C 
ATOM      7  C   UNL     1     112.482 109.350 111.487  1.00  0.00     0.031 C 
ENDROOT
BRANCH   5   8
ATOM      8  C   UNL     1     112.719 110.966 115.005  1.00  0.00    -0.077 C 
ATOM      9  C   UNL     1     112.503 109.958 115.866  1.00  0.00     0.008 C 
ATOM     10  C   UNL     1     113.294 112.255 115.535  1.00  0.00     0.039 C 
ENDBRANCH   5   8
TORSDOF 1
ENDMDL
MODEL 7
REMARK VINA RESULT:    -4.966      4.367      6.158
REMARK INTER + INTRA:          -5.386
REMARK INTER:                  -5.257
REMARK INTRA:                  -0.129
REMARK UNBOUND:                -0.129
REMARK SMILES C=C(C)[C@H]1CC=C(C)CC1
REMARK SMILES IDX 8 1 7 2 6 3 5 4 4 5 10 6 9 7 2 8 1 9 3 10
REMARK H PARENT
REMARK Flexibility Score: inf
ROOT
ATOM      1  C   UNL     1     112.684 111.003 118.672  1.00  0.00     0.039 C 
ATOM      2  C   UNL     1     112.655 110.990 117.169  1.00  0.00    -0.077 C 
ATOM      3  C   UNL     1     112.894 112.138 116.498  1.00  0.00    -0.027 C 
ATOM      4  C   UNL     1     112.834 112.239 114.994  1.00  0.00     0.035 C 
ATOM      5  C   UNL     1     113.035 110.874 114.311  1.00  0.00     0.018 C 
ATOM      6  C   UNL     1     112.129 109.822 114.970  1.00  0.00     0.013 C 
ATOM      7  C   UNL     1     112.492 109.663 116.451  1.00  0.00     0.031 C 
ENDROOT
BRANCH   5   8
ATOM      8  C   UNL     1     112.802 110.959 112.809  1.00  0.00    -0.077 C 
ATOM      9  C   UNL     1     112.882 112.130 112.153  1.00  0.00     0.008 C 
ATOM     10  C   UNL     1     112.469 109.716 112.024  1.00  0.00     0.039 C 
ENDBRANCH   5   8
TORSDOF 1
ENDMDL
MODEL 8
REMARK VINA RESULT:    -4.957      1.418      5.302
REMARK INTER + INTRA:          -5.376
REMARK INTER:                  -5.246
REMARK INTRA:                  -0.129
REMARK UNBOUND:                -0.129
REMARK SMILES C=C(C)[C@H]1CC=C(C)CC1
REMARK SMILES IDX 8 1 7 2 6 3 5 4 4 5 10 6 9 7 2 8 1 9 3 10
REMARK H PARENT
REMARK Flexibility Score: inf
ROOT
ATOM      1  C   UNL     1     109.454 111.540 103.818  1.00  0.00     0.039 C 
ATOM      2  C   UNL     1     109.469 111.430 105.317  1.00  0.00    -0.077 C 
ATOM      3  C   UNL     1     109.725 112.533 106.053  1.00  0.00    -0.027 C 
ATOM      4  C   UNL     1     109.816 112.513 107.559  1.00  0.00     0.035 C 
ATOM      5  C   UNL     1     109.064 111.318 108.171  1.00  0.00     0.018 C 
ATOM      6  C   UNL     1     109.456 110.025 107.438  1.00  0.00     0.013 C 
ATOM      7  C   UNL     1     109.065 110.115 105.959  1.00  0.00     0.031 C 
ENDROOT
BRANCH   5   8
ATOM      8  C   UNL     1     109.306 111.212 109.672  1.00  0.00    -0.077 C 
ATOM      9  C   UNL     1     109.064 110.071 110.340  1.00  0.00     0.008 C 
ATOM     10  C   UNL     1     109.824 112.401 110.440  1.00  0.00     0.039 C 
ENDBRANCH   5   8
TORSDOF 1
ENDMDL
MODEL 9
REMARK VINA RESULT:    -4.923      3.005      3.111
REMARK INTER + INTRA:          -5.340
REMARK INTER:                  -5.216
REMARK INTRA:                  -0.124
REMARK UNBOUND:                -0.129
REMARK SMILES C=C(C)[C@H]1CC=C(C)CC1
REMARK SMILES IDX 8 1 7 2 6 3 5 4 4 5 10 6 9 7 2 8 1 9 3 10
REMARK H PARENT
REMARK Flexibility Score: inf
ROOT
ATOM      1  C   UNL     1     113.191 110.320 113.820  1.00  0.00     0.039 C 
ATOM      2  C   UNL     1     112.911 110.692 112.390  1.00  0.00    -0.077 C 
ATOM      3  C   UNL     1     112.526 109.728 111.525  1.00  0.00    -0.027 C 
ATOM      4  C   UNL     1     112.275 109.991 110.061  1.00  0.00     0.035 C 
ATOM      5  C   UNL     1     111.955 111.470 109.782  1.00  0.00     0.018 C 
ATOM      6  C   UNL     1     112.990 112.368 110.478  1.00  0.00     0.013 C 
ATOM      7  C   UNL     1     112.940 112.156 111.995  1.00  0.00     0.031 C 
ENDROOT
BRANCH   5   8
ATOM      8  C   UNL     1     111.874 111.754 108.288  1.00  0.00    -0.077 C 
ATOM      9  C   UNL     1     112.983 111.867 107.536  1.00  0.00     0.008 C 
ATOM     10  C   UNL     1     110.533 111.920 107.621  1.00  0.00     0.039 C 
ENDBRANCH   5   8
TORSDOF 1
ENDMDL
