MODEL 1
REMARK VINA RESULT:    -4.061      0.000      0.000
REMARK INTER + INTRA:          -9.233
REMARK INTER:                  -7.148
REMARK INTRA:                  -2.085
REMARK UNBOUND:                -2.085
REMARK SMILES CCCCCCCCCCCCCCC(=O)[O-]
REMARK SMILES IDX 9 1 10 2 11 3 12 4 13 5 14 6 15 7 16 8 17 9 8 10 7 11 6 12
REMARK SMILES IDX 5 13 4 14 3 15 2 16 1 17
REMARK H PARENT
REMARK Flexibility Score: inf
ROOT
ATOM      1  C   UNL     1     164.144 179.360 181.019  1.00  0.00     0.000 C 
ENDROOT
BRANCH   1   2
ATOM      2  C   UNL     1     164.653 177.930 181.277  1.00  0.00     0.000 C 
BRANCH   2   3
ATOM      3  C   UNL     1     164.781 177.102 179.990  1.00  0.00     0.000 C 
BRANCH   3   4
ATOM      4  C   UNL     1     163.714 175.998 179.940  1.00  0.00     0.000 C 
BRANCH   4   5
ATOM      5  C   UNL     1     162.779 176.016 181.164  1.00  0.00     0.006 C 
BRANCH   5   6
ATOM      6  C   UNL     1     161.286 176.132 180.818  1.00  0.00     0.053 C 
BRANCH   6   7
ATOM      7  C   UNL     1     160.638 174.790 180.669  1.00  0.00     0.041 C 
ATOM      8  O   UNL     1     160.725 173.938 181.592  1.00  0.00    -0.550 OA
ATOM      9  O   UNL     1     159.910 174.491 179.524  1.00  0.00    -0.550 OA
ENDBRANCH   6   7
ENDBRANCH   5   6
ENDBRANCH   4   5
ENDBRANCH   3   4
ENDBRANCH   2   3
ENDBRANCH   1   2
BRANCH   1  10
ATOM     10  C   UNL     1     162.784 179.695 181.666  1.00  0.00     0.000 C 
BRANCH  10  11
ATOM     11  C   UNL     1     161.681 180.125 180.682  1.00  0.00    -0.000 C 
BRANCH  11  12
ATOM     12  C   UNL     1     162.138 180.077 179.216  1.00  0.00    -0.000 C 
BRANCH  12  13
ATOM     13  C   UNL     1     161.337 179.031 178.427  1.00  0.00    -0.000 C 
BRANCH  13  14
ATOM     14  C   UNL     1     162.224 178.130 177.550  1.00  0.00    -0.000 C 
BRANCH  14  15
ATOM     15  C   UNL     1     163.444 178.830 176.923  1.00  0.00    -0.000 C 
BRANCH  15  16
ATOM     16  C   UNL     1     163.150 179.409 175.532  1.00  0.00    -0.003 C 
ATOM     17  C   UNL     1     162.794 178.305 174.541  1.00  0.00     0.004 C 
ENDBRANCH  15  16
ENDBRANCH  14  15
ENDBRANCH  13  14
ENDBRANCH  12  13
ENDBRANCH  11  12
ENDBRANCH  10  11
ENDBRANCH   1  10
TORSDOF 13
ENDMDL
MODEL 2
REMARK VINA RESULT:    -4.054      1.264      2.196
REMARK INTER + INTRA:          -9.220
REMARK INTER:                  -7.081
REMARK INTRA:                  -2.139
REMARK UNBOUND:                -2.085
REMARK SMILES CCCCCCCCCCCCCCC(=O)[O-]
REMARK SMILES IDX 9 1 10 2 11 3 12 4 13 5 14 6 15 7 16 8 17 9 8 10 7 11 6 12
REMARK SMILES IDX 5 13 4 14 3 15 2 16 1 17
REMARK H PARENT
REMARK Flexibility Score: inf
ROOT
ATOM      1  C   UNL     1     164.778 177.445 180.722  1.00  0.00     0.000 C 
ENDROOT
BRANCH   1   2
ATOM      2  C   UNL     1     163.839 176.455 181.434  1.00  0.00     0.000 C 
BRANCH   2   3
ATOM      3  C   UNL     1     162.818 175.812 180.483  1.00  0.00     0.000 C 
BRANCH   3   4
ATOM      4  C   UNL     1     161.391 176.261 180.828  1.00  0.00     0.000 C 
BRANCH   4   5
ATOM      5  C   UNL     1     160.452 175.080 181.140  1.00  0.00     0.006 C 
BRANCH   5   6
ATOM      6  C   UNL     1     161.176 173.794 181.571  1.00  0.00     0.053 C 
BRANCH   6   7
ATOM      7  C   UNL     1     160.806 172.625 180.709  1.00  0.00     0.041 C 
ATOM      8  O   UNL     1     160.936 171.451 181.145  1.00  0.00    -0.550 OA
ATOM      9  O   UNL     1     160.285 172.834 179.439  1.00  0.00    -0.550 OA
ENDBRANCH   6   7
ENDBRANCH   5   6
ENDBRANCH   4   5
ENDBRANCH   3   4
ENDBRANCH   2   3
ENDBRANCH   1   2
BRANCH   1  10
ATOM     10  C   UNL     1     164.485 178.935 180.994  1.00  0.00     0.000 C 
BRANCH  10  11
ATOM     11  C   UNL     1     163.315 179.205 181.957  1.00  0.00    -0.000 C 
BRANCH  11  12
ATOM     12  C   UNL     1     162.104 179.844 181.261  1.00  0.00    -0.000 C 
BRANCH  12  13
ATOM     13  C   UNL     1     162.389 180.075 179.770  1.00  0.00    -0.000 C 
BRANCH  13  14
ATOM     14  C   UNL     1     161.363 179.391 178.849  1.00  0.00    -0.000 C 
BRANCH  14  15
ATOM     15  C   UNL     1     161.966 178.463 177.779  1.00  0.00    -0.000 C 
BRANCH  15  16
ATOM     16  C   UNL     1     163.449 178.751 177.506  1.00  0.00    -0.003 C 
ATOM     17  C   UNL     1     164.135 177.545 176.872  1.00  0.00     0.004 C 
ENDBRANCH  15  16
ENDBRANCH  14  15
ENDBRANCH  13  14
ENDBRANCH  12  13
ENDBRANCH  11  12
ENDBRANCH  10  11
ENDBRANCH   1  10
TORSDOF 13
ENDMDL
MODEL 3
REMARK VINA RESULT:    -4.008      1.891      3.362
REMARK INTER + INTRA:          -9.139
REMARK INTER:                  -6.925
REMARK INTRA:                  -2.213
REMARK UNBOUND:                -2.085
REMARK SMILES CCCCCCCCCCCCCCC(=O)[O-]
REMARK SMILES IDX 9 1 10 2 11 3 12 4 13 5 14 6 15 7 16 8 17 9 8 10 7 11 6 12
REMARK SMILES IDX 5 13 4 14 3 15 2 16 1 17
REMARK H PARENT
REMARK Flexibility Score: inf
ROOT
ATOM      1  C   UNL     1     163.853 176.124 180.267  1.00  0.00     0.000 C 
ENDROOT
BRANCH   1   2
ATOM      2  C   UNL     1     162.450 175.617 179.887  1.00  0.00     0.000 C 
BRANCH   2   3
ATOM      3  C   UNL     1     161.359 176.098 180.856  1.00  0.00     0.000 C 
BRANCH   3   4
ATOM      4  C   UNL     1     160.537 174.914 181.385  1.00  0.00     0.000 C 
BRANCH   4   5
ATOM      5  C   UNL     1     161.240 173.559 181.181  1.00  0.00     0.006 C 
BRANCH   5   6
ATOM      6  C   UNL     1     161.592 172.826 182.486  1.00  0.00     0.053 C 
BRANCH   6   7
ATOM      7  C   UNL     1     163.066 172.598 182.622  1.00  0.00     0.041 C 
ATOM      8  O   UNL     1     163.544 171.442 182.480  1.00  0.00    -0.550 OA
ATOM      9  O   UNL     1     163.916 173.668 182.874  1.00  0.00    -0.550 OA
ENDBRANCH   6   7
ENDBRANCH   5   6
ENDBRANCH   4   5
ENDBRANCH   3   4
ENDBRANCH   2   3
ENDBRANCH   1   2
BRANCH   1  10
ATOM     10  C   UNL     1     163.911 176.990 181.542  1.00  0.00     0.000 C 
BRANCH  10  11
ATOM     11  C   UNL     1     164.023 178.506 181.298  1.00  0.00    -0.000 C 
BRANCH  11  12
ATOM     12  C   UNL     1     162.922 179.307 182.010  1.00  0.00    -0.000 C 
BRANCH  12  13
ATOM     13  C   UNL     1     161.907 179.860 180.999  1.00  0.00    -0.000 C 
BRANCH  13  14
ATOM     14  C   UNL     1     162.427 179.838 179.551  1.00  0.00    -0.000 C 
BRANCH  14  15
ATOM     15  C   UNL     1     161.548 179.056 178.557  1.00  0.00    -0.000 C 
BRANCH  15  16
ATOM     16  C   UNL     1     162.352 178.447 177.400  1.00  0.00    -0.003 C 
ATOM     17  C   UNL     1     163.842 178.738 177.553  1.00  0.00     0.004 C 
ENDBRANCH  15  16
ENDBRANCH  14  15
ENDBRANCH  13  14
ENDBRANCH  12  13
ENDBRANCH  11  12
ENDBRANCH  10  11
ENDBRANCH   1  10
TORSDOF 13
ENDMDL
MODEL 4
REMARK VINA RESULT:    -3.984      2.042      5.441
REMARK INTER + INTRA:          -9.097
REMARK INTER:                  -7.296
REMARK INTRA:                  -1.801
REMARK UNBOUND:                -2.085
REMARK SMILES CCCCCCCCCCCCCCC(=O)[O-]
REMARK SMILES IDX 9 1 10 2 11 3 12 4 13 5 14 6 15 7 16 8 17 9 8 10 7 11 6 12
REMARK SMILES IDX 5 13 4 14 3 15 2 16 1 17
REMARK H PARENT
REMARK Flexibility Score: inf
ROOT
ATOM      1  C   UNL     1     164.127 178.193 181.151  1.00  0.00     0.000 C 
ENDROOT
BRANCH   1   2
ATOM      2  C   UNL     1     163.285 179.238 181.904  1.00  0.00     0.000 C 
BRANCH   2   3
ATOM      3  C   UNL     1     162.113 179.775 181.067  1.00  0.00     0.000 C 
BRANCH   3   4
ATOM      4  C   UNL     1     162.518 179.926 179.594  1.00  0.00     0.000 C 
BRANCH   4   5
ATOM      5  C   UNL     1     161.640 179.089 178.644  1.00  0.00     0.006 C 
BRANCH   5   6
ATOM      6  C   UNL     1     162.417 178.384 177.521  1.00  0.00     0.053 C 
BRANCH   6   7
ATOM      7  C   UNL     1     161.672 177.203 176.978  1.00  0.00     0.041 C 
ATOM      8  O   UNL     1     160.789 176.637 177.673  1.00  0.00    -0.550 OA
ATOM      9  O   UNL     1     161.931 176.749 175.690  1.00  0.00    -0.550 OA
ENDBRANCH   6   7
ENDBRANCH   5   6
ENDBRANCH   4   5
ENDBRANCH   3   4
ENDBRANCH   2   3
ENDBRANCH   1   2
BRANCH   1  10
ATOM     10  C   UNL     1     163.803 176.724 181.493  1.00  0.00     0.000 C 
BRANCH  10  11
ATOM     11  C   UNL     1     162.725 176.070 180.609  1.00  0.00    -0.000 C 
BRANCH  11  12
ATOM     12  C   UNL     1     161.306 176.252 181.165  1.00  0.00    -0.000 C 
BRANCH  12  13
ATOM     13  C   UNL     1     160.428 175.035 180.838  1.00  0.00    -0.000 C 
BRANCH  13  14
ATOM     14  C   UNL     1     161.208 173.708 180.860  1.00  0.00    -0.000 C 
BRANCH  14  15
ATOM     15  C   UNL     1     161.241 172.996 182.225  1.00  0.00    -0.000 C 
BRANCH  15  16
ATOM     16  C   UNL     1     162.557 172.249 182.478  1.00  0.00    -0.003 C 
ATOM     17  C   UNL     1     163.663 173.213 182.899  1.00  0.00     0.004 C 
ENDBRANCH  15  16
ENDBRANCH  14  15
ENDBRANCH  13  14
ENDBRANCH  12  13
ENDBRANCH  11  12
ENDBRANCH  10  11
ENDBRANCH   1  10
TORSDOF 13
ENDMDL
MODEL 5
REMARK VINA RESULT:    -3.882     11.993     13.974
REMARK INTER + INTRA:          -8.918
REMARK INTER:                  -6.979
REMARK INTRA:                  -1.939
REMARK UNBOUND:                -2.085
REMARK SMILES CCCCCCCCCCCCCCC(=O)[O-]
REMARK SMILES IDX 9 1 10 2 11 3 12 4 13 5 14 6 15 7 16 8 17 9 8 10 7 11 6 12
REMARK SMILES IDX 5 13 4 14 3 15 2 16 1 17
REMARK H PARENT
REMARK Flexibility Score: inf
ROOT
ATOM      1  C   UNL     1     176.499 178.769 181.662  1.00  0.00     0.000 C 
ENDROOT
BRANCH   1   2
ATOM      2  C   UNL     1     176.902 180.114 181.031  1.00  0.00     0.000 C 
BRANCH   2   3
ATOM      3  C   UNL     1     177.444 179.964 179.602  1.00  0.00     0.000 C 
BRANCH   3   4
ATOM      4  C   UNL     1     176.319 180.125 178.570  1.00  0.00     0.000 C 
BRANCH   4   5
ATOM      5  C   UNL     1     175.813 178.777 178.022  1.00  0.00     0.006 C 
BRANCH   5   6
ATOM      6  C   UNL     1     176.838 178.019 177.164  1.00  0.00     0.053 C 
BRANCH   6   7
ATOM      7  C   UNL     1     176.972 178.612 175.794  1.00  0.00     0.041 C 
ATOM      8  O   UNL     1     178.071 179.099 175.420  1.00  0.00    -0.550 OA
ATOM      9  O   UNL     1     175.892 178.596 174.920  1.00  0.00    -0.550 OA
ENDBRANCH   6   7
ENDBRANCH   5   6
ENDBRANCH   4   5
ENDBRANCH   3   4
ENDBRANCH   2   3
ENDBRANCH   1   2
BRANCH   1  10
ATOM     10  C   UNL     1     177.248 177.539 181.111  1.00  0.00     0.000 C 
BRANCH  10  11
ATOM     11  C   UNL     1     176.352 176.347 180.725  1.00  0.00    -0.000 C 
BRANCH  11  12
ATOM     12  C   UNL     1     174.911 176.495 181.237  1.00  0.00    -0.000 C 
BRANCH  12  13
ATOM     13  C   UNL     1     173.905 176.378 180.083  1.00  0.00    -0.000 C 
BRANCH  13  14
ATOM     14  C   UNL     1     172.779 177.426 180.159  1.00  0.00    -0.000 C 
BRANCH  14  15
ATOM     15  C   UNL     1     173.256 178.887 180.252  1.00  0.00    -0.000 C 
BRANCH  15  16
ATOM     16  C   UNL     1     172.452 179.714 181.264  1.00  0.00    -0.003 C 
ATOM     17  C   UNL     1     171.072 179.106 181.498  1.00  0.00     0.004 C 
ENDBRANCH  15  16
ENDBRANCH  14  15
ENDBRANCH  13  14
ENDBRANCH  12  13
ENDBRANCH  11  12
ENDBRANCH  10  11
ENDBRANCH   1  10
TORSDOF 13
ENDMDL
MODEL 6
REMARK VINA RESULT:    -3.859     11.210     13.179
REMARK INTER + INTRA:          -8.877
REMARK INTER:                  -7.145
REMARK INTRA:                  -1.733
REMARK UNBOUND:                -2.085
REMARK SMILES CCCCCCCCCCCCCCC(=O)[O-]
REMARK SMILES IDX 9 1 10 2 11 3 12 4 13 5 14 6 15 7 16 8 17 9 8 10 7 11 6 12
REMARK SMILES IDX 5 13 4 14 3 15 2 16 1 17
REMARK H PARENT
REMARK Flexibility Score: inf
ROOT
ATOM      1  C   UNL     1     176.443 179.663 178.486  1.00  0.00     0.000 C 
ENDROOT
BRANCH   1   2
ATOM      2  C   UNL     1     177.457 179.361 179.604  1.00  0.00     0.000 C 
BRANCH   2   3
ATOM      3  C   UNL     1     176.915 179.683 181.004  1.00  0.00     0.000 C 
BRANCH   3   4
ATOM      4  C   UNL     1     176.778 178.406 181.846  1.00  0.00     0.000 C 
BRANCH   4   5
ATOM      5  C   UNL     1     177.374 177.167 181.152  1.00  0.00     0.006 C 
BRANCH   5   6
ATOM      6  C   UNL     1     176.348 176.069 180.830  1.00  0.00     0.053 C 
BRANCH   6   7
ATOM      7  C   UNL     1     177.006 174.788 180.416  1.00  0.00     0.041 C 
ATOM      8  O   UNL     1     176.316 173.752 180.230  1.00  0.00    -0.550 OA
ATOM      9  O   UNL     1     178.379 174.748 180.203  1.00  0.00    -0.550 OA
ENDBRANCH   6   7
ENDBRANCH   5   6
ENDBRANCH   4   5
ENDBRANCH   3   4
ENDBRANCH   2   3
ENDBRANCH   1   2
BRANCH   1  10
ATOM     10  C   UNL     1     174.971 179.733 178.941  1.00  0.00     0.000 C 
BRANCH  10  11
ATOM     11  C   UNL     1     174.173 178.426 178.776  1.00  0.00    -0.000 C 
BRANCH  11  12
ATOM     12  C   UNL     1     173.375 178.051 180.033  1.00  0.00    -0.000 C 
BRANCH  12  13
ATOM     13  C   UNL     1     173.369 179.208 181.043  1.00  0.00    -0.000 C 
BRANCH  13  14
ATOM     14  C   UNL     1     171.980 179.850 181.214  1.00  0.00    -0.000 C 
BRANCH  14  15
ATOM     15  C   UNL     1     170.793 178.935 180.861  1.00  0.00    -0.000 C 
BRANCH  15  16
ATOM     16  C   UNL     1     169.902 178.619 182.070  1.00  0.00    -0.003 C 
ATOM     17  C   UNL     1     170.291 177.287 182.707  1.00  0.00     0.004 C 
ENDBRANCH  15  16
ENDBRANCH  14  15
ENDBRANCH  13  14
ENDBRANCH  12  13
ENDBRANCH  11  12
ENDBRANCH  10  11
ENDBRANCH   1  10
TORSDOF 13
ENDMDL
MODEL 7
REMARK VINA RESULT:    -3.825      1.913      4.624
REMARK INTER + INTRA:          -8.818
REMARK INTER:                  -6.760
REMARK INTRA:                  -2.058
REMARK UNBOUND:                -2.085
REMARK SMILES CCCCCCCCCCCCCCC(=O)[O-]
REMARK SMILES IDX 9 1 10 2 11 3 12 4 13 5 14 6 15 7 16 8 17 9 8 10 7 11 6 12
REMARK SMILES IDX 5 13 4 14 3 15 2 16 1 17
REMARK H PARENT
REMARK Flexibility Score: inf
ROOT
ATOM      1  C   UNL     1     163.368 179.107 181.739  1.00  0.00     0.000 C 
ENDROOT
BRANCH   1   2
ATOM      2  C   UNL     1     162.004 179.154 181.029  1.00  0.00     0.000 C 
BRANCH   2   3
ATOM      3  C   UNL     1     161.989 180.109 179.826  1.00  0.00     0.000 C 
BRANCH   3   4
ATOM      4  C   UNL     1     161.688 179.348 178.527  1.00  0.00     0.000 C 
BRANCH   4   5
ATOM      5  C   UNL     1     161.695 177.819 178.714  1.00  0.00     0.006 C 
BRANCH   5   6
ATOM      6  C   UNL     1     162.127 177.032 177.466  1.00  0.00     0.053 C 
BRANCH   6   7
ATOM      7  C   UNL     1     161.119 175.992 177.082  1.00  0.00     0.041 C 
ATOM      8  O   UNL     1     160.097 176.315 176.420  1.00  0.00    -0.550 OA
ATOM      9  O   UNL     1     161.324 174.662 177.426  1.00  0.00    -0.550 OA
ENDBRANCH   6   7
ENDBRANCH   5   6
ENDBRANCH   4   5
ENDBRANCH   3   4
ENDBRANCH   2   3
ENDBRANCH   1   2
BRANCH   1  10
ATOM     10  C   UNL     1     164.577 179.485 180.858  1.00  0.00     0.000 C 
BRANCH  10  11
ATOM     11  C   UNL     1     165.623 178.371 180.672  1.00  0.00    -0.000 C 
BRANCH  11  12
ATOM     12  C   UNL     1     165.039 177.108 180.023  1.00  0.00    -0.000 C 
BRANCH  12  13
ATOM     13  C   UNL     1     165.118 175.912 180.983  1.00  0.00    -0.000 C 
BRANCH  13  14
ATOM     14  C   UNL     1     163.743 175.484 181.526  1.00  0.00    -0.000 C 
BRANCH  14  15
ATOM     15  C   UNL     1     162.873 174.686 180.537  1.00  0.00    -0.000 C 
BRANCH  15  16
ATOM     16  C   UNL     1     161.478 174.368 181.092  1.00  0.00    -0.003 C 
ATOM     17  C   UNL     1     160.649 175.639 181.257  1.00  0.00     0.004 C 
ENDBRANCH  15  16
ENDBRANCH  14  15
ENDBRANCH  13  14
ENDBRANCH  12  13
ENDBRANCH  11  12
ENDBRANCH  10  11
ENDBRANCH   1  10
TORSDOF 13
ENDMDL
MODEL 8
REMARK VINA RESULT:    -3.783      1.844      3.973
REMARK INTER + INTRA:          -8.744
REMARK INTER:                  -6.891
REMARK INTRA:                  -1.853
REMARK UNBOUND:                -2.085
REMARK SMILES CCCCCCCCCCCCCCC(=O)[O-]
REMARK SMILES IDX 9 1 10 2 11 3 12 4 13 5 14 6 15 7 16 8 17 9 8 10 7 11 6 12
REMARK SMILES IDX 5 13 4 14 3 15 2 16 1 17
REMARK H PARENT
REMARK Flexibility Score: inf
ROOT
ATOM      1  C   UNL     1     162.221 176.069 179.081  1.00  0.00     0.000 C 
ENDROOT
BRANCH   1   2
ATOM      2  C   UNL     1     161.239 176.272 180.250  1.00  0.00     0.000 C 
BRANCH   2   3
ATOM      3  C   UNL     1     161.176 175.061 181.193  1.00  0.00     0.000 C 
BRANCH   3   4
ATOM      4  C   UNL     1     162.461 174.226 181.099  1.00  0.00     0.000 C 
BRANCH   4   5
ATOM      5  C   UNL     1     162.319 172.835 181.743  1.00  0.00     0.006 C 
BRANCH   5   6
ATOM      6  C   UNL     1     160.873 172.319 181.821  1.00  0.00     0.053 C 
BRANCH   6   7
ATOM      7  C   UNL     1     160.519 171.457 180.648  1.00  0.00     0.041 C 
ATOM      8  O   UNL     1     160.534 170.203 180.757  1.00  0.00    -0.550 OA
ATOM      9  O   UNL     1     160.142 172.040 179.445  1.00  0.00    -0.550 OA
ENDBRANCH   6   7
ENDBRANCH   5   6
ENDBRANCH   4   5
ENDBRANCH   3   4
ENDBRANCH   2   3
ENDBRANCH   1   2
BRANCH   1  10
ATOM     10  C   UNL     1     162.456 177.313 178.201  1.00  0.00     0.000 C 
BRANCH  10  11
ATOM     11  C   UNL     1     161.474 178.476 178.439  1.00  0.00    -0.000 C 
BRANCH  11  12
ATOM     12  C   UNL     1     162.173 179.758 178.914  1.00  0.00    -0.000 C 
BRANCH  12  13
ATOM     13  C   UNL     1     161.857 180.040 180.390  1.00  0.00    -0.000 C 
BRANCH  13  14
ATOM     14  C   UNL     1     162.931 179.495 181.349  1.00  0.00    -0.000 C 
BRANCH  14  15
ATOM     15  C   UNL     1     164.375 179.578 180.823  1.00  0.00    -0.000 C 
BRANCH  15  16
ATOM     16  C   UNL     1     165.058 178.207 180.735  1.00  0.00    -0.003 C 
ATOM     17  C   UNL     1     164.428 177.215 181.708  1.00  0.00     0.004 C 
ENDBRANCH  15  16
ENDBRANCH  14  15
ENDBRANCH  13  14
ENDBRANCH  12  13
ENDBRANCH  11  12
ENDBRANCH  10  11
ENDBRANCH   1  10
TORSDOF 13
ENDMDL
MODEL 9
REMARK VINA RESULT:    -3.735     10.902     12.554
REMARK INTER + INTRA:          -8.659
REMARK INTER:                  -6.791
REMARK INTRA:                  -1.868
REMARK UNBOUND:                -2.085
REMARK SMILES CCCCCCCCCCCCCCC(=O)[O-]
REMARK SMILES IDX 9 1 10 2 11 3 12 4 13 5 14 6 15 7 16 8 17 9 8 10 7 11 6 12
REMARK SMILES IDX 5 13 4 14 3 15 2 16 1 17
REMARK H PARENT
REMARK Flexibility Score: inf
ROOT
ATOM      1  C   UNL     1     176.354 176.859 181.055  1.00  0.00     0.000 C 
ENDROOT
BRANCH   1   2
ATOM      2  C   UNL     1     174.979 176.172 180.976  1.00  0.00     0.000 C 
BRANCH   2   3
ATOM      3  C   UNL     1     173.954 176.980 180.167  1.00  0.00     0.000 C 
BRANCH   3   4
ATOM      4  C   UNL     1     172.936 177.659 181.095  1.00  0.00     0.000 C 
BRANCH   4   5
ATOM      5  C   UNL     1     172.928 179.193 180.953  1.00  0.00     0.006 C 
BRANCH   5   6
ATOM      6  C   UNL     1     171.564 179.784 180.561  1.00  0.00     0.053 C 
BRANCH   6   7
ATOM      7  C   UNL     1     171.166 179.403 179.168  1.00  0.00     0.041 C 
ATOM      8  O   UNL     1     170.065 178.830 178.958  1.00  0.00    -0.550 OA
ATOM      9  O   UNL     1     171.997 179.711 178.097  1.00  0.00    -0.550 OA
ENDBRANCH   6   7
ENDBRANCH   5   6
ENDBRANCH   4   5
ENDBRANCH   3   4
ENDBRANCH   2   3
ENDBRANCH   1   2
BRANCH   1  10
ATOM     10  C   UNL     1     176.400 178.134 181.921  1.00  0.00     0.000 C 
BRANCH  10  11
ATOM     11  C   UNL     1     176.599 179.447 181.140  1.00  0.00    -0.000 C 
BRANCH  11  12
ATOM     12  C   UNL     1     177.503 179.277 179.910  1.00  0.00    -0.000 C 
BRANCH  12  13
ATOM     13  C   UNL     1     176.982 180.109 178.729  1.00  0.00    -0.000 C 
BRANCH  13  14
ATOM     14  C   UNL     1     175.521 179.787 178.365  1.00  0.00    -0.000 C 
BRANCH  14  15
ATOM     15  C   UNL     1     175.341 178.642 177.352  1.00  0.00    -0.000 C 
BRANCH  15  16
ATOM     16  C   UNL     1     176.589 178.404 176.491  1.00  0.00    -0.003 C 
ATOM     17  C   UNL     1     176.272 178.566 175.007  1.00  0.00     0.004 C 
ENDBRANCH  15  16
ENDBRANCH  14  15
ENDBRANCH  13  14
ENDBRANCH  12  13
ENDBRANCH  11  12
ENDBRANCH  10  11
ENDBRANCH   1  10
TORSDOF 13
ENDMDL
