MODEL 1
REMARK VINA RESULT:    -6.347      0.000      0.000
REMARK INTER + INTRA:          -9.898
REMARK INTER:                  -8.759
REMARK INTRA:                  -1.139
REMARK UNBOUND:                -1.139
REMARK SMILES O=C([O-])[C@H]1O[C@@H](Oc2cc3oc(-c4ccccc4)cc(=O)c3c(O)c2O)[C@H](O)[C@H](O)[C@@H]1O
REMARK SMILES IDX 7 1 6 2 4 3 31 4 5 5 29 6 27 7 2 8 1 9 3 10 32 11 30 13
REMARK SMILES IDX 28 15 8 17 25 18 9 19 23 20 10 21 22 22 11 23 20 24 12 25
REMARK SMILES IDX 19 26 21 27 26 28 24 30 13 32 14 33 18 34 15 35 17 36 16 37
REMARK H PARENT 32 12 30 14 28 16 26 29 24 31
REMARK Flexibility Score: inf
ROOT
ATOM      1  O   UNL     1     481.275  39.833 457.974  1.00  0.00    -0.458 OA
ENDROOT
BRANCH   1   2
ATOM      2  C   UNL     1     482.150  40.881 458.416  1.00  0.00     0.339 C 
ATOM      3  C   UNL     1     483.855  40.458 456.791  1.00  0.00     0.199 C 
ATOM      4  C   UNL     1     484.844  39.946 457.865  1.00  0.00     0.180 C 
ATOM      5  O   UNL     1     482.913  41.388 457.321  1.00  0.00    -0.328 OA
ATOM      6  C   UNL     1     484.079  39.399 459.089  1.00  0.00     0.181 C 
ATOM      7  C   UNL     1     483.025  40.404 459.593  1.00  0.00     0.214 C 
BRANCH   3   8
ATOM      8  C   UNL     1     483.183  39.361 455.994  1.00  0.00     0.073 C 
ATOM      9  O   UNL     1     482.350  39.667 455.100  1.00  0.00    -0.547 OA
ATOM     10  O   UNL     1     483.495  38.022 456.202  1.00  0.00    -0.547 OA
ENDBRANCH   3   8
BRANCH   4  11
ATOM     11  O   UNL     1     485.753  40.955 458.233  1.00  0.00    -0.387 OA
ATOM     12  H   UNL     1     486.356  41.124 457.462  1.00  0.00     0.211 HD
ENDBRANCH   4  11
BRANCH   6  13
ATOM     13  O   UNL     1     484.949  38.982 460.113  1.00  0.00    -0.387 OA
ATOM     14  H   UNL     1     485.885  39.155 459.826  1.00  0.00     0.211 HD
ENDBRANCH   6  13
BRANCH   7  15
ATOM     15  O   UNL     1     483.623  41.517 460.201  1.00  0.00    -0.384 OA
ATOM     16  H   UNL     1     483.478  41.433 461.178  1.00  0.00     0.211 HD
ENDBRANCH   7  15
ENDBRANCH   1   2
BRANCH   1  17
ATOM     17  C   UNL     1     480.478  39.023 458.798  1.00  0.00     0.172 A 
ATOM     18  C   UNL     1     480.515  37.630 458.610  1.00  0.00     0.201 A 
ATOM     19  C   UNL     1     479.622  39.560 459.772  1.00  0.00     0.098 A 
ATOM     20  C   UNL     1     479.693  36.781 459.374  1.00  0.00     0.176 A 
ATOM     21  C   UNL     1     478.794  38.731 460.533  1.00  0.00     0.146 A 
ATOM     22  C   UNL     1     478.817  37.332 460.337  1.00  0.00     0.111 A 
ATOM     23  O   UNL     1     477.979  39.273 461.436  1.00  0.00    -0.456 OA
ATOM     24  C   UNL     1     477.945  36.547 461.120  1.00  0.00     0.197 A 
ATOM     25  C   UNL     1     477.143  38.561 462.189  1.00  0.00     0.138 A 
ATOM     26  C   UNL     1     477.100  37.167 462.043  1.00  0.00     0.100 A 
ATOM     27  O   UNL     1     477.911  35.291 461.008  1.00  0.00    -0.289 OA
BRANCH  18  28
ATOM     28  O   UNL     1     481.369  37.069 457.658  1.00  0.00    -0.502 OA
ATOM     29  H   UNL     1     482.375  37.113 457.748  1.00  0.00     0.293 HD
ENDBRANCH  18  28
BRANCH  20  30
ATOM     30  O   UNL     1     479.749  35.399 459.174  1.00  0.00    -0.504 OA
ATOM     31  H   UNL     1     478.928  34.807 459.221  1.00  0.00     0.293 HD
ENDBRANCH  20  30
BRANCH  25  32
ATOM     32  C   UNL     1     476.286  39.268 463.176  1.00  0.00     0.017 A 
ATOM     33  C   UNL     1     474.922  38.944 463.265  1.00  0.00     0.012 A 
ATOM     34  C   UNL     1     476.813  40.238 464.049  1.00  0.00     0.012 A 
ATOM     35  C   UNL     1     474.098  39.589 464.192  1.00  0.00     0.001 A 
ATOM     36  C   UNL     1     475.982  40.874 464.978  1.00  0.00     0.001 A 
ATOM     37  C   UNL     1     474.627  40.557 465.043  1.00  0.00     0.000 A 
ENDBRANCH  25  32
ENDBRANCH   1  17
TORSDOF 9
ENDMDL
MODEL 2
REMARK VINA RESULT:    -6.035      1.950      3.809
REMARK INTER + INTRA:          -9.467
REMARK INTER:                  -8.543
REMARK INTRA:                  -0.924
REMARK UNBOUND:                -1.139
REMARK SMILES O=C([O-])[C@H]1O[C@@H](Oc2cc3oc(-c4ccccc4)cc(=O)c3c(O)c2O)[C@H](O)[C@H](O)[C@@H]1O
REMARK SMILES IDX 7 1 6 2 4 3 31 4 5 5 29 6 27 7 2 8 1 9 3 10 32 11 30 13
REMARK SMILES IDX 28 15 8 17 25 18 9 19 23 20 10 21 22 22 11 23 20 24 12 25
REMARK SMILES IDX 19 26 21 27 26 28 24 30 13 32 14 33 18 34 15 35 17 36 16 37
REMARK H PARENT 32 12 30 14 28 16 26 29 24 31
REMARK Flexibility Score: inf
ROOT
ATOM      1  O   UNL     1     481.770  40.281 459.208  1.00  0.00    -0.458 OA
ENDROOT
BRANCH   1   2
ATOM      2  C   UNL     1     483.040  40.181 459.871  1.00  0.00     0.339 C 
ATOM      3  C   UNL     1     484.331  40.955 458.011  1.00  0.00     0.199 C 
ATOM      4  C   UNL     1     484.971  39.562 457.791  1.00  0.00     0.180 C 
ATOM      5  O   UNL     1     483.943  41.164 459.366  1.00  0.00    -0.328 OA
ATOM      6  C   UNL     1     484.047  38.450 458.333  1.00  0.00     0.181 C 
ATOM      7  C   UNL     1     483.595  38.745 459.776  1.00  0.00     0.214 C 
BRANCH   3   8
ATOM      8  C   UNL     1     483.216  41.284 457.043  1.00  0.00     0.073 C 
ATOM      9  O   UNL     1     482.925  40.464 456.132  1.00  0.00    -0.547 OA
ATOM     10  O   UNL     1     482.478  42.457 457.162  1.00  0.00    -0.547 OA
ENDBRANCH   3   8
BRANCH   4  11
ATOM     11  O   UNL     1     486.250  39.499 458.372  1.00  0.00    -0.387 OA
ATOM     12  H   UNL     1     486.912  39.796 457.693  1.00  0.00     0.211 HD
ENDBRANCH   4  11
BRANCH   6  13
ATOM     13  O   UNL     1     484.625  37.174 458.206  1.00  0.00    -0.387 OA
ATOM     14  H   UNL     1     484.179  36.696 457.458  1.00  0.00     0.211 HD
ENDBRANCH   6  13
BRANCH   7  15
ATOM     15  O   UNL     1     484.651  38.601 460.687  1.00  0.00    -0.384 OA
ATOM     16  H   UNL     1     485.493  38.588 460.163  1.00  0.00     0.211 HD
ENDBRANCH   7  15
ENDBRANCH   1   2
BRANCH   1  17
ATOM     17  C   UNL     1     480.511  40.158 459.817  1.00  0.00     0.172 A 
ATOM     18  C   UNL     1     479.754  41.322 460.037  1.00  0.00     0.201 A 
ATOM     19  C   UNL     1     480.006  38.920 460.245  1.00  0.00     0.098 A 
ATOM     20  C   UNL     1     478.511  41.255 460.693  1.00  0.00     0.176 A 
ATOM     21  C   UNL     1     478.777  38.839 460.905  1.00  0.00     0.146 A 
ATOM     22  C   UNL     1     478.019  40.008 461.142  1.00  0.00     0.111 A 
ATOM     23  O   UNL     1     478.333  37.653 461.316  1.00  0.00    -0.456 OA
ATOM     24  C   UNL     1     476.796  39.867 461.830  1.00  0.00     0.197 A 
ATOM     25  C   UNL     1     477.185  37.486 461.970  1.00  0.00     0.138 A 
ATOM     26  C   UNL     1     476.384  38.602 462.252  1.00  0.00     0.100 A 
ATOM     27  O   UNL     1     476.060  40.862 462.073  1.00  0.00    -0.289 OA
BRANCH  18  28
ATOM     28  O   UNL     1     480.228  42.563 459.607  1.00  0.00    -0.502 OA
ATOM     29  H   UNL     1     479.610  43.277 459.244  1.00  0.00     0.293 HD
ENDBRANCH  18  28
BRANCH  20  30
ATOM     30  O   UNL     1     477.772  42.424 460.897  1.00  0.00    -0.504 OA
ATOM     31  H   UNL     1     476.772  42.473 460.739  1.00  0.00     0.293 HD
ENDBRANCH  20  30
BRANCH  25  32
ATOM     32  C   UNL     1     476.780  36.114 462.371  1.00  0.00     0.017 A 
ATOM     33  C   UNL     1     477.586  35.022 462.011  1.00  0.00     0.012 A 
ATOM     34  C   UNL     1     475.618  35.881 463.130  1.00  0.00     0.012 A 
ATOM     35  C   UNL     1     477.231  33.722 462.383  1.00  0.00     0.001 A 
ATOM     36  C   UNL     1     475.273  34.576 463.505  1.00  0.00     0.001 A 
ATOM     37  C   UNL     1     476.072  33.500 463.125  1.00  0.00     0.000 A 
ENDBRANCH  25  32
ENDBRANCH   1  17
TORSDOF 9
ENDMDL
MODEL 3
REMARK VINA RESULT:    -5.951      1.590      2.878
REMARK INTER + INTRA:          -9.350
REMARK INTER:                  -8.192
REMARK INTRA:                  -1.158
REMARK UNBOUND:                -1.139
REMARK SMILES O=C([O-])[C@H]1O[C@@H](Oc2cc3oc(-c4ccccc4)cc(=O)c3c(O)c2O)[C@H](O)[C@H](O)[C@@H]1O
REMARK SMILES IDX 7 1 6 2 4 3 31 4 5 5 29 6 27 7 2 8 1 9 3 10 32 11 30 13
REMARK SMILES IDX 28 15 8 17 25 18 9 19 23 20 10 21 22 22 11 23 20 24 12 25
REMARK SMILES IDX 19 26 21 27 26 28 24 30 13 32 14 33 18 34 15 35 17 36 16 37
REMARK H PARENT 32 12 30 14 28 16 26 29 24 31
REMARK Flexibility Score: inf
ROOT
ATOM      1  O   UNL     1     481.060  39.227 457.103  1.00  0.00    -0.458 OA
ENDROOT
BRANCH   1   2
ATOM      2  C   UNL     1     480.789  39.181 455.694  1.00  0.00     0.339 C 
ATOM      3  C   UNL     1     483.076  38.963 455.027  1.00  0.00     0.199 C 
ATOM      4  C   UNL     1     483.099  40.380 454.405  1.00  0.00     0.180 C 
ATOM      5  O   UNL     1     481.770  38.391 455.024  1.00  0.00    -0.328 OA
ATOM      6  C   UNL     1     482.043  41.284 455.077  1.00  0.00     0.181 C 
ATOM      7  C   UNL     1     480.660  40.605 455.115  1.00  0.00     0.214 C 
BRANCH   3   8
ATOM      8  C   UNL     1     483.733  38.872 456.387  1.00  0.00     0.073 C 
ATOM      9  O   UNL     1     483.886  37.744 456.926  1.00  0.00    -0.547 OA
ATOM     10  O   UNL     1     484.206  40.006 457.038  1.00  0.00    -0.547 OA
ENDBRANCH   3   8
BRANCH   4  11
ATOM     11  O   UNL     1     482.915  40.320 453.011  1.00  0.00    -0.387 OA
ATOM     12  H   UNL     1     483.762  39.999 452.602  1.00  0.00     0.211 HD
ENDBRANCH   4  11
BRANCH   6  13
ATOM     13  O   UNL     1     481.992  42.562 454.493  1.00  0.00    -0.387 OA
ATOM     14  H   UNL     1     482.897  42.792 454.151  1.00  0.00     0.211 HD
ENDBRANCH   6  13
BRANCH   7  15
ATOM     15  O   UNL     1     480.087  40.530 453.838  1.00  0.00    -0.384 OA
ATOM     16  H   UNL     1     480.787  40.196 453.219  1.00  0.00     0.211 HD
ENDBRANCH   7  15
ENDBRANCH   1   2
BRANCH   1  17
ATOM     17  C   UNL     1     480.388  38.498 458.096  1.00  0.00     0.172 A 
ATOM     18  C   UNL     1     480.443  37.093 458.053  1.00  0.00     0.201 A 
ATOM     19  C   UNL     1     479.635  39.123 459.103  1.00  0.00     0.098 A 
ATOM     20  C   UNL     1     479.740  36.318 458.994  1.00  0.00     0.176 A 
ATOM     21  C   UNL     1     478.925  38.366 460.039  1.00  0.00     0.146 A 
ATOM     22  C   UNL     1     478.966  36.955 459.990  1.00  0.00     0.111 A 
ATOM     23  O   UNL     1     478.205  38.989 460.970  1.00  0.00    -0.456 OA
ATOM     24  C   UNL     1     478.214  36.245 460.949  1.00  0.00     0.197 A 
ATOM     25  C   UNL     1     477.482  38.348 461.887  1.00  0.00     0.138 A 
ATOM     26  C   UNL     1     477.463  36.946 461.895  1.00  0.00     0.100 A 
ATOM     27  O   UNL     1     478.204  34.983 460.975  1.00  0.00    -0.289 OA
BRANCH  18  28
ATOM     28  O   UNL     1     481.198  36.447 457.071  1.00  0.00    -0.502 OA
ATOM     29  H   UNL     1     481.389  36.874 456.175  1.00  0.00     0.293 HD
ENDBRANCH  18  28
BRANCH  20  30
ATOM     30  O   UNL     1     479.814  34.924 458.935  1.00  0.00    -0.504 OA
ATOM     31  H   UNL     1     479.469  34.327 459.678  1.00  0.00     0.293 HD
ENDBRANCH  20  30
BRANCH  25  32
ATOM     32  C   UNL     1     476.725  39.144 462.888  1.00  0.00     0.017 A 
ATOM     33  C   UNL     1     475.350  38.912 463.059  1.00  0.00     0.012 A 
ATOM     34  C   UNL     1     477.357  40.108 463.695  1.00  0.00     0.012 A 
ATOM     35  C   UNL     1     474.618  39.640 464.001  1.00  0.00     0.001 A 
ATOM     36  C   UNL     1     476.617  40.829 464.640  1.00  0.00     0.001 A 
ATOM     37  C   UNL     1     475.250  40.602 464.786  1.00  0.00     0.000 A 
ENDBRANCH  25  32
ENDBRANCH   1  17
TORSDOF 9
ENDMDL
MODEL 4
REMARK VINA RESULT:    -5.854      1.589      2.199
REMARK INTER + INTRA:          -9.218
REMARK INTER:                  -8.395
REMARK INTRA:                  -0.823
REMARK UNBOUND:                -1.139
REMARK SMILES O=C([O-])[C@H]1O[C@@H](Oc2cc3oc(-c4ccccc4)cc(=O)c3c(O)c2O)[C@H](O)[C@H](O)[C@@H]1O
REMARK SMILES IDX 7 1 6 2 4 3 31 4 5 5 29 6 27 7 2 8 1 9 3 10 32 11 30 13
REMARK SMILES IDX 28 15 8 17 25 18 9 19 23 20 10 21 22 22 11 23 20 24 12 25
REMARK SMILES IDX 19 26 21 27 26 28 24 30 13 32 14 33 18 34 15 35 17 36 16 37
REMARK H PARENT 32 12 30 14 28 16 26 29 24 31
REMARK Flexibility Score: inf
ROOT
ATOM      1  O   UNL     1     480.066  38.357 458.204  1.00  0.00    -0.458 OA
ENDROOT
BRANCH   1   2
ATOM      2  C   UNL     1     481.071  39.378 458.302  1.00  0.00     0.339 C 
ATOM      3  C   UNL     1     481.473  39.532 455.948  1.00  0.00     0.199 C 
ATOM      4  C   UNL     1     482.887  38.915 456.083  1.00  0.00     0.180 C 
ATOM      5  O   UNL     1     481.060  40.201 457.137  1.00  0.00    -0.328 OA
ATOM      6  C   UNL     1     482.972  38.023 457.340  1.00  0.00     0.181 C 
ATOM      7  C   UNL     1     482.453  38.758 458.591  1.00  0.00     0.214 C 
BRANCH   3   8
ATOM      8  C   UNL     1     480.423  38.567 455.445  1.00  0.00     0.073 C 
ATOM      9  O   UNL     1     480.758  37.392 455.138  1.00  0.00    -0.547 OA
ATOM     10  O   UNL     1     479.086  38.938 455.350  1.00  0.00    -0.547 OA
ENDBRANCH   3   8
BRANCH   4  11
ATOM     11  O   UNL     1     483.873  39.918 456.095  1.00  0.00    -0.387 OA
ATOM     12  H   UNL     1     483.541  40.672 456.652  1.00  0.00     0.211 HD
ENDBRANCH   4  11
BRANCH   6  13
ATOM     13  O   UNL     1     484.262  37.496 457.528  1.00  0.00    -0.387 OA
ATOM     14  H   UNL     1     484.180  36.578 457.901  1.00  0.00     0.211 HD
ENDBRANCH   6  13
BRANCH   7  15
ATOM     15  O   UNL     1     483.334  39.772 458.995  1.00  0.00    -0.384 OA
ATOM     16  H   UNL     1     483.169  39.941 459.958  1.00  0.00     0.211 HD
ENDBRANCH   7  15
ENDBRANCH   1   2
BRANCH   1  17
ATOM     17  C   UNL     1     479.278  37.873 459.260  1.00  0.00     0.172 A 
ATOM     18  C   UNL     1     479.371  36.511 459.599  1.00  0.00     0.201 A 
ATOM     19  C   UNL     1     478.377  38.693 459.957  1.00  0.00     0.098 A 
ATOM     20  C   UNL     1     478.560  35.968 460.613  1.00  0.00     0.176 A 
ATOM     21  C   UNL     1     477.560  38.166 460.961  1.00  0.00     0.146 A 
ATOM     22  C   UNL     1     477.639  36.796 461.295  1.00  0.00     0.111 A 
ATOM     23  O   UNL     1     476.702  38.966 461.591  1.00  0.00    -0.456 OA
ATOM     24  C   UNL     1     476.776  36.317 462.302  1.00  0.00     0.197 A 
ATOM     25  C   UNL     1     475.873  38.545 462.544  1.00  0.00     0.138 A 
ATOM     26  C   UNL     1     475.884  37.194 462.922  1.00  0.00     0.100 A 
ATOM     27  O   UNL     1     476.791  35.107 462.661  1.00  0.00    -0.289 OA
BRANCH  18  28
ATOM     28  O   UNL     1     480.271  35.678 458.931  1.00  0.00    -0.502 OA
ATOM     29  H   UNL     1     481.222  35.553 459.247  1.00  0.00     0.293 HD
ENDBRANCH  18  28
BRANCH  20  30
ATOM     30  O   UNL     1     478.672  34.613 460.937  1.00  0.00    -0.504 OA
ATOM     31  H   UNL     1     478.267  34.217 461.778  1.00  0.00     0.293 HD
ENDBRANCH  20  30
BRANCH  25  32
ATOM     32  C   UNL     1     474.964  39.527 463.191  1.00  0.00     0.017 A 
ATOM     33  C   UNL     1     473.824  39.973 462.502  1.00  0.00     0.012 A 
ATOM     34  C   UNL     1     475.201  40.003 464.494  1.00  0.00     0.012 A 
ATOM     35  C   UNL     1     472.950  40.890 463.093  1.00  0.00     0.001 A 
ATOM     36  C   UNL     1     474.317  40.917 465.080  1.00  0.00     0.001 A 
ATOM     37  C   UNL     1     473.200  41.365 464.379  1.00  0.00     0.000 A 
ENDBRANCH  25  32
ENDBRANCH   1  17
TORSDOF 9
ENDMDL
MODEL 5
REMARK VINA RESULT:    -5.801      2.688      5.070
REMARK INTER + INTRA:          -9.144
REMARK INTER:                  -8.302
REMARK INTRA:                  -0.842
REMARK UNBOUND:                -1.139
REMARK SMILES O=C([O-])[C@H]1O[C@@H](Oc2cc3oc(-c4ccccc4)cc(=O)c3c(O)c2O)[C@H](O)[C@H](O)[C@@H]1O
REMARK SMILES IDX 7 1 6 2 4 3 31 4 5 5 29 6 27 7 2 8 1 9 3 10 32 11 30 13
REMARK SMILES IDX 28 15 8 17 25 18 9 19 23 20 10 21 22 22 11 23 20 24 12 25
REMARK SMILES IDX 19 26 21 27 26 28 24 30 13 32 14 33 18 34 15 35 17 36 16 37
REMARK H PARENT 32 12 30 14 28 16 26 29 24 31
REMARK Flexibility Score: inf
ROOT
ATOM      1  O   UNL     1     484.255  41.233 460.474  1.00  0.00    -0.458 OA
ENDROOT
BRANCH   1   2
ATOM      2  C   UNL     1     484.656  41.169 461.850  1.00  0.00     0.339 C 
ATOM      3  C   UNL     1     484.187  43.464 462.335  1.00  0.00     0.199 C 
ATOM      4  C   UNL     1     485.689  43.805 462.498  1.00  0.00     0.180 C 
ATOM      5  O   UNL     1     483.907  42.099 462.632  1.00  0.00    -0.328 OA
ATOM      6  C   UNL     1     486.559  42.820 461.687  1.00  0.00     0.181 C 
ATOM      7  C   UNL     1     486.181  41.356 461.985  1.00  0.00     0.214 C 
BRANCH   3   8
ATOM      8  C   UNL     1     483.596  43.891 461.010  1.00  0.00     0.073 C 
ATOM      9  O   UNL     1     484.320  44.495 460.174  1.00  0.00    -0.547 OA
ATOM     10  O   UNL     1     482.278  43.595 460.677  1.00  0.00    -0.547 OA
ENDBRANCH   3   8
BRANCH   4  11
ATOM     11  O   UNL     1     486.056  43.821 463.856  1.00  0.00    -0.387 OA
ATOM     12  H   UNL     1     486.507  44.687 464.043  1.00  0.00     0.211 HD
ENDBRANCH   4  11
BRANCH   6  13
ATOM     13  O   UNL     1     487.933  43.062 461.863  1.00  0.00    -0.387 OA
ATOM     14  H   UNL     1     488.178  43.886 461.363  1.00  0.00     0.211 HD
ENDBRANCH   6  13
BRANCH   7  15
ATOM     15  O   UNL     1     486.578  40.973 463.274  1.00  0.00    -0.384 OA
ATOM     16  H   UNL     1     485.773  40.635 463.744  1.00  0.00     0.211 HD
ENDBRANCH   7  15
ENDBRANCH   1   2
BRANCH   1  17
ATOM     17  C   UNL     1     483.411  40.323 459.818  1.00  0.00     0.172 A 
ATOM     18  C   UNL     1     483.575  40.131 458.434  1.00  0.00     0.201 A 
ATOM     19  C   UNL     1     482.391  39.632 460.489  1.00  0.00     0.098 A 
ATOM     20  C   UNL     1     482.717  39.272 457.723  1.00  0.00     0.176 A 
ATOM     21  C   UNL     1     481.526  38.781 459.795  1.00  0.00     0.146 A 
ATOM     22  C   UNL     1     481.677  38.597 458.403  1.00  0.00     0.111 A 
ATOM     23  O   UNL     1     480.556  38.155 460.458  1.00  0.00    -0.456 OA
ATOM     24  C   UNL     1     480.763  37.742 457.753  1.00  0.00     0.197 A 
ATOM     25  C   UNL     1     479.676  37.344 459.874  1.00  0.00     0.138 A 
ATOM     26  C   UNL     1     479.755  37.120 458.492  1.00  0.00     0.100 A 
ATOM     27  O   UNL     1     480.836  37.521 456.513  1.00  0.00    -0.289 OA
BRANCH  18  28
ATOM     28  O   UNL     1     484.592  40.795 457.745  1.00  0.00    -0.502 OA
ATOM     29  H   UNL     1     484.400  41.414 456.970  1.00  0.00     0.293 HD
ENDBRANCH  18  28
BRANCH  20  30
ATOM     30  O   UNL     1     482.900  39.092 456.349  1.00  0.00    -0.504 OA
ATOM     31  H   UNL     1     482.146  39.195 455.680  1.00  0.00     0.293 HD
ENDBRANCH  20  30
BRANCH  25  32
ATOM     32  C   UNL     1     478.640  36.685 460.713  1.00  0.00     0.017 A 
ATOM     33  C   UNL     1     478.619  35.284 460.812  1.00  0.00     0.012 A 
ATOM     34  C   UNL     1     477.693  37.432 461.437  1.00  0.00     0.012 A 
ATOM     35  C   UNL     1     477.661  34.641 461.601  1.00  0.00     0.001 A 
ATOM     36  C   UNL     1     476.740  36.781 462.230  1.00  0.00     0.001 A 
ATOM     37  C   UNL     1     476.719  35.390 462.304  1.00  0.00     0.000 A 
ENDBRANCH  25  32
ENDBRANCH   1  17
TORSDOF 9
ENDMDL
MODEL 6
REMARK VINA RESULT:    -5.758      2.317      3.775
REMARK INTER + INTRA:          -9.084
REMARK INTER:                  -8.243
REMARK INTRA:                  -0.841
REMARK UNBOUND:                -1.139
REMARK SMILES O=C([O-])[C@H]1O[C@@H](Oc2cc3oc(-c4ccccc4)cc(=O)c3c(O)c2O)[C@H](O)[C@H](O)[C@@H]1O
REMARK SMILES IDX 7 1 6 2 4 3 31 4 5 5 29 6 27 7 2 8 1 9 3 10 32 11 30 13
REMARK SMILES IDX 28 15 8 17 25 18 9 19 23 20 10 21 22 22 11 23 20 24 12 25
REMARK SMILES IDX 19 26 21 27 26 28 24 30 13 32 14 33 18 34 15 35 17 36 16 37
REMARK H PARENT 32 12 30 14 28 16 26 29 24 31
REMARK Flexibility Score: inf
ROOT
ATOM      1  O   UNL     1     483.841  40.341 459.851  1.00  0.00    -0.458 OA
ENDROOT
BRANCH   1   2
ATOM      2  C   UNL     1     484.586  39.423 459.036  1.00  0.00     0.339 C 
ATOM      3  C   UNL     1     484.034  40.464 456.953  1.00  0.00     0.199 C 
ATOM      4  C   UNL     1     483.157  39.267 456.512  1.00  0.00     0.180 C 
ATOM      5  O   UNL     1     485.063  40.076 457.859  1.00  0.00    -0.328 OA
ATOM      6  C   UNL     1     482.621  38.505 457.743  1.00  0.00     0.181 C 
ATOM      7  C   UNL     1     483.753  38.162 458.732  1.00  0.00     0.214 C 
BRANCH   3   8
ATOM      8  C   UNL     1     483.248  41.653 457.461  1.00  0.00     0.073 C 
ATOM      9  O   UNL     1     483.854  42.722 457.737  1.00  0.00    -0.547 OA
ATOM     10  O   UNL     1     481.865  41.603 457.593  1.00  0.00    -0.547 OA
ENDBRANCH   3   8
BRANCH   4  11
ATOM     11  O   UNL     1     483.867  38.415 455.647  1.00  0.00    -0.387 OA
ATOM     12  H   UNL     1     484.578  38.949 455.202  1.00  0.00     0.211 HD
ENDBRANCH   4  11
BRANCH   6  13
ATOM     13  O   UNL     1     481.871  37.372 457.379  1.00  0.00    -0.387 OA
ATOM     14  H   UNL     1     481.970  36.683 458.088  1.00  0.00     0.211 HD
ENDBRANCH   6  13
BRANCH   7  15
ATOM     15  O   UNL     1     484.598  37.166 458.221  1.00  0.00    -0.384 OA
ATOM     16  H   UNL     1     485.500  37.566 458.121  1.00  0.00     0.211 HD
ENDBRANCH   7  15
ENDBRANCH   1   2
BRANCH   1  17
ATOM     17  C   UNL     1     483.102  40.011 460.998  1.00  0.00     0.172 A 
ATOM     18  C   UNL     1     483.791  39.535 462.128  1.00  0.00     0.201 A 
ATOM     19  C   UNL     1     481.702  40.106 461.038  1.00  0.00     0.098 A 
ATOM     20  C   UNL     1     483.089  39.140 463.281  1.00  0.00     0.176 A 
ATOM     21  C   UNL     1     480.991  39.710 462.174  1.00  0.00     0.146 A 
ATOM     22  C   UNL     1     481.677  39.217 463.305  1.00  0.00     0.111 A 
ATOM     23  O   UNL     1     479.662  39.794 462.174  1.00  0.00    -0.456 OA
ATOM     24  C   UNL     1     480.905  38.814 464.415  1.00  0.00     0.197 A 
ATOM     25  C   UNL     1     478.905  39.420 463.203  1.00  0.00     0.138 A 
ATOM     26  C   UNL     1     479.513  38.909 464.358  1.00  0.00     0.100 A 
ATOM     27  O   UNL     1     481.445  38.369 465.465  1.00  0.00    -0.289 OA
BRANCH  18  28
ATOM     28  O   UNL     1     485.185  39.446 462.118  1.00  0.00    -0.502 OA
ATOM     29  H   UNL     1     485.693  38.919 462.815  1.00  0.00     0.293 HD
ENDBRANCH  18  28
BRANCH  20  30
ATOM     30  O   UNL     1     483.794  38.674 464.395  1.00  0.00    -0.504 OA
ATOM     31  H   UNL     1     484.112  39.288 465.136  1.00  0.00     0.293 HD
ENDBRANCH  20  30
BRANCH  25  32
ATOM     32  C   UNL     1     477.429  39.570 463.101  1.00  0.00     0.017 A 
ATOM     33  C   UNL     1     476.740  38.929 462.059  1.00  0.00     0.012 A 
ATOM     34  C   UNL     1     476.697  40.317 464.042  1.00  0.00     0.012 A 
ATOM     35  C   UNL     1     475.352  39.047 461.946  1.00  0.00     0.001 A 
ATOM     36  C   UNL     1     475.306  40.425 463.926  1.00  0.00     0.001 A 
ATOM     37  C   UNL     1     474.637  39.800 462.876  1.00  0.00     0.000 A 
ENDBRANCH  25  32
ENDBRANCH   1  17
TORSDOF 9
ENDMDL
MODEL 7
REMARK VINA RESULT:    -5.607      2.456      4.096
REMARK INTER + INTRA:          -8.877
REMARK INTER:                  -7.719
REMARK INTRA:                  -1.157
REMARK UNBOUND:                -1.139
REMARK SMILES O=C([O-])[C@H]1O[C@@H](Oc2cc3oc(-c4ccccc4)cc(=O)c3c(O)c2O)[C@H](O)[C@H](O)[C@@H]1O
REMARK SMILES IDX 7 1 6 2 4 3 31 4 5 5 29 6 27 7 2 8 1 9 3 10 32 11 30 13
REMARK SMILES IDX 28 15 8 17 25 18 9 19 23 20 10 21 22 22 11 23 20 24 12 25
REMARK SMILES IDX 19 26 21 27 26 28 24 30 13 32 14 33 18 34 15 35 17 36 16 37
REMARK H PARENT 32 12 30 14 28 16 26 29 24 31
REMARK Flexibility Score: inf
ROOT
ATOM      1  O   UNL     1     482.804  39.532 459.761  1.00  0.00    -0.458 OA
ENDROOT
BRANCH   1   2
ATOM      2  C   UNL     1     482.788  38.407 458.869  1.00  0.00     0.339 C 
ATOM      3  C   UNL     1     484.624  39.152 457.527  1.00  0.00     0.199 C 
ATOM      4  C   UNL     1     483.710  39.418 456.306  1.00  0.00     0.180 C 
ATOM      5  O   UNL     1     484.103  38.138 458.383  1.00  0.00    -0.328 OA
ATOM      6  C   UNL     1     482.263  39.700 456.764  1.00  0.00     0.181 C 
ATOM      7  C   UNL     1     481.758  38.619 457.740  1.00  0.00     0.214 C 
BRANCH   3   8
ATOM      8  C   UNL     1     485.013  40.397 458.293  1.00  0.00     0.073 C 
ATOM      9  O   UNL     1     485.748  40.294 459.311  1.00  0.00    -0.547 OA
ATOM     10  O   UNL     1     484.608  41.659 457.874  1.00  0.00    -0.547 OA
ENDBRANCH   3   8
BRANCH   4  11
ATOM     11  O   UNL     1     483.764  38.347 455.396  1.00  0.00    -0.387 OA
ATOM     12  H   UNL     1     482.846  37.980 455.295  1.00  0.00     0.211 HD
ENDBRANCH   4  11
BRANCH   6  13
ATOM     13  O   UNL     1     481.391  39.884 455.676  1.00  0.00    -0.387 OA
ATOM     14  H   UNL     1     480.556  39.372 455.847  1.00  0.00     0.211 HD
ENDBRANCH   6  13
BRANCH   7  15
ATOM     15  O   UNL     1     481.536  37.398 457.087  1.00  0.00    -0.384 OA
ATOM     16  H   UNL     1     481.080  36.797 457.730  1.00  0.00     0.211 HD
ENDBRANCH   7  15
ENDBRANCH   1   2
BRANCH   1  17
ATOM     17  C   UNL     1     482.383  39.527 461.100  1.00  0.00     0.172 A 
ATOM     18  C   UNL     1     483.314  39.185 462.097  1.00  0.00     0.201 A 
ATOM     19  C   UNL     1     481.059  39.815 461.468  1.00  0.00     0.098 A 
ATOM     20  C   UNL     1     482.925  39.113 463.447  1.00  0.00     0.176 A 
ATOM     21  C   UNL     1     480.656  39.740 462.804  1.00  0.00     0.146 A 
ATOM     22  C   UNL     1     481.584  39.382 463.807  1.00  0.00     0.111 A 
ATOM     23  O   UNL     1     479.389  40.000 463.119  1.00  0.00    -0.456 OA
ATOM     24  C   UNL     1     481.115  39.303 465.135  1.00  0.00     0.197 A 
ATOM     25  C   UNL     1     478.914  39.932 464.362  1.00  0.00     0.138 A 
ATOM     26  C   UNL     1     479.773  39.572 465.410  1.00  0.00     0.100 A 
ATOM     27  O   UNL     1     481.885  38.996 466.087  1.00  0.00    -0.289 OA
BRANCH  18  28
ATOM     28  O   UNL     1     484.641  38.910 461.758  1.00  0.00    -0.502 OA
ATOM     29  H   UNL     1     485.027  39.161 460.859  1.00  0.00     0.293 HD
ENDBRANCH  18  28
BRANCH  20  30
ATOM     30  O   UNL     1     483.868  38.776 464.422  1.00  0.00    -0.504 OA
ATOM     31  H   UNL     1     484.864  38.754 464.233  1.00  0.00     0.293 HD
ENDBRANCH  20  30
BRANCH  25  32
ATOM     32  C   UNL     1     477.484  40.256 464.603  1.00  0.00     0.017 A 
ATOM     33  C   UNL     1     477.081  40.710 465.869  1.00  0.00     0.012 A 
ATOM     34  C   UNL     1     476.521  40.147 463.582  1.00  0.00     0.012 A 
ATOM     35  C   UNL     1     475.744  41.029 466.118  1.00  0.00     0.001 A 
ATOM     36  C   UNL     1     475.184  40.476 463.838  1.00  0.00     0.001 A 
ATOM     37  C   UNL     1     474.796  40.907 465.104  1.00  0.00     0.000 A 
ENDBRANCH  25  32
ENDBRANCH   1  17
TORSDOF 9
ENDMDL
MODEL 8
REMARK VINA RESULT:    -5.502      3.641      5.635
REMARK INTER + INTRA:          -8.731
REMARK INTER:                  -7.599
REMARK INTRA:                  -1.132
REMARK UNBOUND:                -1.139
REMARK SMILES O=C([O-])[C@H]1O[C@@H](Oc2cc3oc(-c4ccccc4)cc(=O)c3c(O)c2O)[C@H](O)[C@H](O)[C@@H]1O
REMARK SMILES IDX 7 1 6 2 4 3 31 4 5 5 29 6 27 7 2 8 1 9 3 10 32 11 30 13
REMARK SMILES IDX 28 15 8 17 25 18 9 19 23 20 10 21 22 22 11 23 20 24 12 25
REMARK SMILES IDX 19 26 21 27 26 28 24 30 13 32 14 33 18 34 15 35 17 36 16 37
REMARK H PARENT 32 12 30 14 28 16 26 29 24 31
REMARK Flexibility Score: inf
ROOT
ATOM      1  O   UNL     1     485.030  40.189 462.719  1.00  0.00    -0.458 OA
ENDROOT
BRANCH   1   2
ATOM      2  C   UNL     1     484.659  41.132 463.736  1.00  0.00     0.339 C 
ATOM      3  C   UNL     1     486.232  42.811 463.080  1.00  0.00     0.199 C 
ATOM      4  C   UNL     1     487.077  42.614 464.362  1.00  0.00     0.180 C 
ATOM      5  O   UNL     1     484.863  42.467 463.276  1.00  0.00    -0.328 OA
ATOM      6  C   UNL     1     486.887  41.189 464.922  1.00  0.00     0.181 C 
ATOM      7  C   UNL     1     485.394  40.829 465.057  1.00  0.00     0.214 C 
BRANCH   3   8
ATOM      8  C   UNL     1     486.812  42.151 461.848  1.00  0.00     0.073 C 
ATOM      9  O   UNL     1     487.822  41.407 461.963  1.00  0.00    -0.547 OA
ATOM     10  O   UNL     1     486.230  42.317 460.596  1.00  0.00    -0.547 OA
ENDBRANCH   3   8
BRANCH   4  11
ATOM     11  O   UNL     1     486.766  43.593 465.323  1.00  0.00    -0.387 OA
ATOM     12  H   UNL     1     486.298  44.339 464.864  1.00  0.00     0.211 HD
ENDBRANCH   4  11
BRANCH   6  13
ATOM     13  O   UNL     1     487.592  40.995 466.124  1.00  0.00    -0.387 OA
ATOM     14  H   UNL     1     487.441  40.063 466.435  1.00  0.00     0.211 HD
ENDBRANCH   6  13
BRANCH   7  15
ATOM     15  O   UNL     1     484.784  41.546 466.096  1.00  0.00    -0.384 OA
ATOM     16  H   UNL     1     484.105  40.951 466.507  1.00  0.00     0.211 HD
ENDBRANCH   7  15
ENDBRANCH   1   2
BRANCH   1  17
ATOM     17  C   UNL     1     484.190  39.691 461.711  1.00  0.00     0.172 A 
ATOM     18  C   UNL     1     484.776  39.176 460.541  1.00  0.00     0.201 A 
ATOM     19  C   UNL     1     482.791  39.726 461.819  1.00  0.00     0.098 A 
ATOM     20  C   UNL     1     483.974  38.717 459.480  1.00  0.00     0.176 A 
ATOM     21  C   UNL     1     481.982  39.281 460.770  1.00  0.00     0.146 A 
ATOM     22  C   UNL     1     482.565  38.777 459.587  1.00  0.00     0.111 A 
ATOM     23  O   UNL     1     480.658  39.344 460.896  1.00  0.00    -0.456 OA
ATOM     24  C   UNL     1     481.699  38.360 458.555  1.00  0.00     0.197 A 
ATOM     25  C   UNL     1     479.812  38.962 459.940  1.00  0.00     0.138 A 
ATOM     26  C   UNL     1     480.317  38.462 458.732  1.00  0.00     0.100 A 
ATOM     27  O   UNL     1     482.143  37.893 457.471  1.00  0.00    -0.289 OA
BRANCH  18  28
ATOM     28  O   UNL     1     486.166  39.116 460.415  1.00  0.00    -0.502 OA
ATOM     29  H   UNL     1     486.625  38.391 459.883  1.00  0.00     0.293 HD
ENDBRANCH  18  28
BRANCH  20  30
ATOM     30  O   UNL     1     484.577  38.205 458.328  1.00  0.00    -0.504 OA
ATOM     31  H   UNL     1     484.899  38.798 457.571  1.00  0.00     0.293 HD
ENDBRANCH  20  30
BRANCH  25  32
ATOM     32  C   UNL     1     478.351  39.065 460.191  1.00  0.00     0.017 A 
ATOM     33  C   UNL     1     477.554  39.839 459.332  1.00  0.00     0.012 A 
ATOM     34  C   UNL     1     477.736  38.380 461.256  1.00  0.00     0.012 A 
ATOM     35  C   UNL     1     476.176  39.944 459.542  1.00  0.00     0.001 A 
ATOM     36  C   UNL     1     476.354  38.485 461.455  1.00  0.00     0.001 A 
ATOM     37  C   UNL     1     475.578  39.272 460.606  1.00  0.00     0.000 A 
ENDBRANCH  25  32
ENDBRANCH   1  17
TORSDOF 9
ENDMDL
MODEL 9
REMARK VINA RESULT:    -5.389      3.143      5.616
REMARK INTER + INTRA:          -8.576
REMARK INTER:                  -7.829
REMARK INTRA:                  -0.747
REMARK UNBOUND:                -1.139
REMARK SMILES O=C([O-])[C@H]1O[C@@H](Oc2cc3oc(-c4ccccc4)cc(=O)c3c(O)c2O)[C@H](O)[C@H](O)[C@@H]1O
REMARK SMILES IDX 7 1 6 2 4 3 31 4 5 5 29 6 27 7 2 8 1 9 3 10 32 11 30 13
REMARK SMILES IDX 28 15 8 17 25 18 9 19 23 20 10 21 22 22 11 23 20 24 12 25
REMARK SMILES IDX 19 26 21 27 26 28 24 30 13 32 14 33 18 34 15 35 17 36 16 37
REMARK H PARENT 32 12 30 14 28 16 26 29 24 31
REMARK Flexibility Score: inf
ROOT
ATOM      1  O   UNL     1     485.049  39.849 462.370  1.00  0.00    -0.458 OA
ENDROOT
BRANCH   1   2
ATOM      2  C   UNL     1     486.049  40.865 462.208  1.00  0.00     0.339 C 
ATOM      3  C   UNL     1     485.657  41.914 464.323  1.00  0.00     0.199 C 
ATOM      4  C   UNL     1     485.066  43.181 463.659  1.00  0.00     0.180 C 
ATOM      5  O   UNL     1     486.586  41.242 463.475  1.00  0.00    -0.328 OA
ATOM      6  C   UNL     1     484.482  42.843 462.270  1.00  0.00     0.181 C 
ATOM      7  C   UNL     1     485.491  42.060 461.408  1.00  0.00     0.214 C 
BRANCH   3   8
ATOM      8  C   UNL     1     484.619  40.969 464.888  1.00  0.00     0.073 C 
ATOM      9  O   UNL     1     484.991  39.970 465.559  1.00  0.00    -0.547 OA
ATOM     10  O   UNL     1     483.259  41.202 464.716  1.00  0.00    -0.547 OA
ENDBRANCH   3   8
BRANCH   4  11
ATOM     11  O   UNL     1     486.030  44.202 463.579  1.00  0.00    -0.387 OA
ATOM     12  H   UNL     1     486.401  44.349 464.489  1.00  0.00     0.211 HD
ENDBRANCH   4  11
BRANCH   6  13
ATOM     13  O   UNL     1     483.992  43.985 461.611  1.00  0.00    -0.387 OA
ATOM     14  H   UNL     1     483.003  44.007 461.704  1.00  0.00     0.211 HD
ENDBRANCH   6  13
BRANCH   7  15
ATOM     15  O   UNL     1     486.556  42.873 460.995  1.00  0.00    -0.384 OA
ATOM     16  H   UNL     1     487.386  42.337 461.077  1.00  0.00     0.211 HD
ENDBRANCH   7  15
ENDBRANCH   1   2
BRANCH   1  17
ATOM     17  C   UNL     1     484.176  39.386 461.373  1.00  0.00     0.172 A 
ATOM     18  C   UNL     1     484.723  38.812 460.211  1.00  0.00     0.201 A 
ATOM     19  C   UNL     1     482.782  39.512 461.483  1.00  0.00     0.098 A 
ATOM     20  C   UNL     1     483.890  38.385 459.162  1.00  0.00     0.176 A 
ATOM     21  C   UNL     1     481.942  39.099 460.445  1.00  0.00     0.146 A 
ATOM     22  C   UNL     1     482.489  38.537 459.270  1.00  0.00     0.111 A 
ATOM     23  O   UNL     1     480.625  39.250 460.572  1.00  0.00    -0.456 OA
ATOM     24  C   UNL     1     481.594  38.157 458.249  1.00  0.00     0.197 A 
ATOM     25  C   UNL     1     479.754  38.904 459.626  1.00  0.00     0.138 A 
ATOM     26  C   UNL     1     480.222  38.350 458.426  1.00  0.00     0.100 A 
ATOM     27  O   UNL     1     482.004  37.641 457.173  1.00  0.00    -0.289 OA
BRANCH  18  28
ATOM     28  O   UNL     1     486.106  38.661 460.084  1.00  0.00    -0.502 OA
ATOM     29  H   UNL     1     486.733  38.781 460.868  1.00  0.00     0.293 HD
ENDBRANCH  18  28
BRANCH  20  30
ATOM     30  O   UNL     1     484.456  37.813 458.018  1.00  0.00    -0.504 OA
ATOM     31  H   UNL     1     484.283  36.852 457.746  1.00  0.00     0.293 HD
ENDBRANCH  20  30
BRANCH  25  32
ATOM     32  C   UNL     1     478.303  39.105 459.878  1.00  0.00     0.017 A 
ATOM     33  C   UNL     1     477.714  38.535 461.018  1.00  0.00     0.012 A 
ATOM     34  C   UNL     1     477.505  39.879 459.016  1.00  0.00     0.012 A 
ATOM     35  C   UNL     1     476.353  38.716 461.282  1.00  0.00     0.001 A 
ATOM     36  C   UNL     1     476.144  40.061 459.290  1.00  0.00     0.001 A 
ATOM     37  C   UNL     1     475.569  39.474 460.415  1.00  0.00     0.000 A 
ENDBRANCH  25  32
ENDBRANCH   1  17
TORSDOF 9
ENDMDL
