MODEL 1
REMARK VINA RESULT:    -4.986      0.000      0.000
REMARK INTER + INTRA:         -11.154
REMARK INTER:                  -9.066
REMARK INTRA:                  -2.087
REMARK UNBOUND:                -2.087
REMARK SMILES CCCCCCCCCCCCCCCC(=O)[O-]
REMARK SMILES IDX 9 1 10 2 11 3 12 4 13 5 14 6 15 7 16 8 17 9 18 10 8 11 7 12
REMARK SMILES IDX 6 13 5 14 4 15 3 16 2 17 1 18
REMARK H PARENT
REMARK Flexibility Score: inf
ROOT
ATOM      1  C   UNL     1     159.165 166.181 160.347  1.00  0.00     0.000 C 
ENDROOT
BRANCH   1   2
ATOM      2  C   UNL     1     159.878 165.450 161.495  1.00  0.00     0.000 C 
BRANCH   2   3
ATOM      3  C   UNL     1     160.550 164.163 160.991  1.00  0.00     0.000 C 
BRANCH   3   4
ATOM      4  C   UNL     1     160.437 163.991 159.468  1.00  0.00     0.000 C 
BRANCH   4   5
ATOM      5  C   UNL     1     160.118 162.546 159.058  1.00  0.00     0.000 C 
BRANCH   5   6
ATOM      6  C   UNL     1     161.306 161.906 158.331  1.00  0.00     0.006 C 
BRANCH   6   7
ATOM      7  C   UNL     1     162.499 162.866 158.274  1.00  0.00     0.053 C 
BRANCH   7   8
ATOM      8  C   UNL     1     163.786 162.105 158.288  1.00  0.00     0.041 C 
ATOM      9  O   UNL     1     164.884 162.715 158.192  1.00  0.00    -0.550 OA
ATOM     10  O   UNL     1     163.773 160.718 158.355  1.00  0.00    -0.550 OA
ENDBRANCH   7   8
ENDBRANCH   6   7
ENDBRANCH   5   6
ENDBRANCH   4   5
ENDBRANCH   3   4
ENDBRANCH   2   3
ENDBRANCH   1   2
BRANCH   1  11
ATOM     11  C   UNL     1     159.966 167.379 159.815  1.00  0.00     0.000 C 
BRANCH  11  12
ATOM     12  C   UNL     1     161.081 167.820 160.780  1.00  0.00    -0.000 C 
BRANCH  12  13
ATOM     13  C   UNL     1     162.449 167.933 160.087  1.00  0.00    -0.000 C 
BRANCH  13  14
ATOM     14  C   UNL     1     163.158 166.574 159.960  1.00  0.00    -0.000 C 
BRANCH  14  15
ATOM     15  C   UNL     1     163.524 166.224 158.508  1.00  0.00    -0.000 C 
BRANCH  15  16
ATOM     16  C   UNL     1     163.249 167.366 157.506  1.00  0.00    -0.000 C 
BRANCH  16  17
ATOM     17  C   UNL     1     162.424 166.893 156.300  1.00  0.00    -0.003 C 
ATOM     18  C   UNL     1     161.228 166.056 156.745  1.00  0.00     0.004 C 
ENDBRANCH  16  17
ENDBRANCH  15  16
ENDBRANCH  14  15
ENDBRANCH  13  14
ENDBRANCH  12  13
ENDBRANCH  11  12
ENDBRANCH   1  11
TORSDOF 14
ENDMDL
MODEL 2
REMARK VINA RESULT:    -4.683      2.295      2.811
REMARK INTER + INTRA:         -10.603
REMARK INTER:                  -8.370
REMARK INTRA:                  -2.233
REMARK UNBOUND:                -2.087
REMARK SMILES CCCCCCCCCCCCCCCC(=O)[O-]
REMARK SMILES IDX 9 1 10 2 11 3 12 4 13 5 14 6 15 7 16 8 17 9 18 10 8 11 7 12
REMARK SMILES IDX 6 13 5 14 4 15 3 16 2 17 1 18
REMARK H PARENT
REMARK Flexibility Score: inf
ROOT
ATOM      1  C   UNL     1     159.556 166.337 160.942  1.00  0.00     0.000 C 
ENDROOT
BRANCH   1   2
ATOM      2  C   UNL     1     160.479 166.116 162.150  1.00  0.00     0.000 C 
BRANCH   2   3
ATOM      3  C   UNL     1     161.268 164.806 162.005  1.00  0.00     0.000 C 
BRANCH   3   4
ATOM      4  C   UNL     1     160.605 163.818 161.032  1.00  0.00     0.000 C 
BRANCH   4   5
ATOM      5  C   UNL     1     161.610 163.175 160.065  1.00  0.00     0.000 C 
BRANCH   5   6
ATOM      6  C   UNL     1     160.967 162.917 158.697  1.00  0.00     0.006 C 
BRANCH   6   7
ATOM      7  C   UNL     1     159.751 163.823 158.480  1.00  0.00     0.053 C 
BRANCH   7   8
ATOM      8  C   UNL     1     158.486 163.029 158.548  1.00  0.00     0.041 C 
ATOM      9  O   UNL     1     157.551 163.392 159.309  1.00  0.00    -0.550 OA
ATOM     10  O   UNL     1     158.358 161.860 157.809  1.00  0.00    -0.550 OA
ENDBRANCH   7   8
ENDBRANCH   6   7
ENDBRANCH   5   6
ENDBRANCH   4   5
ENDBRANCH   3   4
ENDBRANCH   2   3
ENDBRANCH   1   2
BRANCH   1  11
ATOM     11  C   UNL     1     160.072 167.425 159.989  1.00  0.00     0.000 C 
BRANCH  11  12
ATOM     12  C   UNL     1     161.312 168.153 160.538  1.00  0.00    -0.000 C 
BRANCH  12  13
ATOM     13  C   UNL     1     162.510 168.081 159.577  1.00  0.00    -0.000 C 
BRANCH  13  14
ATOM     14  C   UNL     1     163.192 166.702 159.588  1.00  0.00    -0.000 C 
BRANCH  14  15
ATOM     15  C   UNL     1     163.066 165.964 158.244  1.00  0.00    -0.000 C 
BRANCH  15  16
ATOM     16  C   UNL     1     162.538 166.850 157.096  1.00  0.00    -0.000 C 
BRANCH  16  17
ATOM     17  C   UNL     1     161.246 166.294 156.482  1.00  0.00    -0.003 C 
ATOM     18  C   UNL     1     161.121 166.685 155.012  1.00  0.00     0.004 C 
ENDBRANCH  16  17
ENDBRANCH  15  16
ENDBRANCH  14  15
ENDBRANCH  13  14
ENDBRANCH  12  13
ENDBRANCH  11  12
ENDBRANCH   1  11
TORSDOF 14
ENDMDL
MODEL 3
REMARK VINA RESULT:    -4.678      2.831      5.164
REMARK INTER + INTRA:         -10.595
REMARK INTER:                  -8.928
REMARK INTRA:                  -1.666
REMARK UNBOUND:                -2.087
REMARK SMILES CCCCCCCCCCCCCCCC(=O)[O-]
REMARK SMILES IDX 9 1 10 2 11 3 12 4 13 5 14 6 15 7 16 8 17 9 18 10 8 11 7 12
REMARK SMILES IDX 6 13 5 14 4 15 3 16 2 17 1 18
REMARK H PARENT
REMARK Flexibility Score: inf
ROOT
ATOM      1  C   UNL     1     162.372 167.671 159.856  1.00  0.00     0.000 C 
ENDROOT
BRANCH   1   2
ATOM      2  C   UNL     1     163.223 166.404 160.030  1.00  0.00     0.000 C 
BRANCH   2   3
ATOM      3  C   UNL     1     163.801 165.943 158.683  1.00  0.00     0.000 C 
BRANCH   3   4
ATOM      4  C   UNL     1     163.257 164.576 158.239  1.00  0.00     0.000 C 
BRANCH   4   5
ATOM      5  C   UNL     1     161.742 164.596 157.987  1.00  0.00     0.000 C 
BRANCH   5   6
ATOM      6  C   UNL     1     161.011 163.672 158.969  1.00  0.00     0.006 C 
BRANCH   6   7
ATOM      7  C   UNL     1     160.215 162.596 158.223  1.00  0.00     0.053 C 
BRANCH   7   8
ATOM      8  C   UNL     1     158.757 162.713 158.534  1.00  0.00     0.041 C 
ATOM      9  O   UNL     1     157.911 162.079 157.850  1.00  0.00    -0.550 OA
ATOM     10  O   UNL     1     158.328 163.562 159.546  1.00  0.00    -0.550 OA
ENDBRANCH   7   8
ENDBRANCH   6   7
ENDBRANCH   5   6
ENDBRANCH   4   5
ENDBRANCH   3   4
ENDBRANCH   2   3
ENDBRANCH   1   2
BRANCH   1  11
ATOM     11  C   UNL     1     161.210 167.750 160.859  1.00  0.00     0.000 C 
BRANCH  11  12
ATOM     12  C   UNL     1     160.014 166.872 160.448  1.00  0.00    -0.000 C 
BRANCH  12  13
ATOM     13  C   UNL     1     159.385 166.139 161.644  1.00  0.00    -0.000 C 
BRANCH  13  14
ATOM     14  C   UNL     1     160.424 165.751 162.710  1.00  0.00    -0.000 C 
BRANCH  14  15
ATOM     15  C   UNL     1     161.088 164.392 162.431  1.00  0.00    -0.000 C 
BRANCH  15  16
ATOM     16  C   UNL     1     161.913 163.849 163.616  1.00  0.00    -0.000 C 
BRANCH  16  17
ATOM     17  C   UNL     1     161.040 163.555 164.845  1.00  0.00    -0.003 C 
ATOM     18  C   UNL     1     161.885 163.064 166.017  1.00  0.00     0.004 C 
ENDBRANCH  16  17
ENDBRANCH  15  16
ENDBRANCH  14  15
ENDBRANCH  13  14
ENDBRANCH  12  13
ENDBRANCH  11  12
ENDBRANCH   1  11
TORSDOF 14
ENDMDL
MODEL 4
REMARK VINA RESULT:    -4.658      2.011      4.503
REMARK INTER + INTRA:         -10.557
REMARK INTER:                  -8.660
REMARK INTRA:                  -1.896
REMARK UNBOUND:                -2.087
REMARK SMILES CCCCCCCCCCCCCCCC(=O)[O-]
REMARK SMILES IDX 9 1 10 2 11 3 12 4 13 5 14 6 15 7 16 8 17 9 18 10 8 11 7 12
REMARK SMILES IDX 6 13 5 14 4 15 3 16 2 17 1 18
REMARK H PARENT
REMARK Flexibility Score: inf
ROOT
ATOM      1  C   UNL     1     159.327 166.770 160.655  1.00  0.00     0.000 C 
ENDROOT
BRANCH   1   2
ATOM      2  C   UNL     1     160.141 167.787 159.840  1.00  0.00     0.000 C 
BRANCH   2   3
ATOM      3  C   UNL     1     161.470 168.112 160.539  1.00  0.00     0.000 C 
BRANCH   3   4
ATOM      4  C   UNL     1     162.679 167.997 159.598  1.00  0.00     0.000 C 
BRANCH   4   5
ATOM      5  C   UNL     1     163.321 166.602 159.626  1.00  0.00     0.000 C 
BRANCH   5   6
ATOM      6  C   UNL     1     163.472 166.039 158.208  1.00  0.00     0.006 C 
BRANCH   6   7
ATOM      7  C   UNL     1     162.900 167.007 157.167  1.00  0.00     0.053 C 
BRANCH   7   8
ATOM      8  C   UNL     1     161.673 166.431 156.534  1.00  0.00     0.041 C 
ATOM      9  O   UNL     1     161.371 166.731 155.349  1.00  0.00    -0.550 OA
ATOM     10  O   UNL     1     160.835 165.603 157.270  1.00  0.00    -0.550 OA
ENDBRANCH   7   8
ENDBRANCH   6   7
ENDBRANCH   5   6
ENDBRANCH   4   5
ENDBRANCH   3   4
ENDBRANCH   2   3
ENDBRANCH   1   2
BRANCH   1  11
ATOM     11  C   UNL     1     159.971 166.443 162.011  1.00  0.00     0.000 C 
BRANCH  11  12
ATOM     12  C   UNL     1     159.952 164.937 162.327  1.00  0.00    -0.000 C 
BRANCH  12  13
ATOM     13  C   UNL     1     161.276 164.244 161.968  1.00  0.00    -0.000 C 
BRANCH  13  14
ATOM     14  C   UNL     1     161.433 164.023 160.454  1.00  0.00    -0.000 C 
BRANCH  14  15
ATOM     15  C   UNL     1     160.270 163.222 159.844  1.00  0.00    -0.000 C 
BRANCH  15  16
ATOM     16  C   UNL     1     160.667 162.401 158.599  1.00  0.00    -0.000 C 
BRANCH  16  17
ATOM     17  C   UNL     1     162.179 162.445 158.333  1.00  0.00    -0.003 C 
ATOM     18  C   UNL     1     162.846 161.132 158.729  1.00  0.00     0.004 C 
ENDBRANCH  16  17
ENDBRANCH  15  16
ENDBRANCH  14  15
ENDBRANCH  13  14
ENDBRANCH  12  13
ENDBRANCH  11  12
ENDBRANCH   1  11
TORSDOF 14
ENDMDL
MODEL 5
REMARK VINA RESULT:    -4.649      2.329      4.708
REMARK INTER + INTRA:         -10.541
REMARK INTER:                  -8.976
REMARK INTRA:                  -1.566
REMARK UNBOUND:                -2.087
REMARK SMILES CCCCCCCCCCCCCCCC(=O)[O-]
REMARK SMILES IDX 9 1 10 2 11 3 12 4 13 5 14 6 15 7 16 8 17 9 18 10 8 11 7 12
REMARK SMILES IDX 6 13 5 14 4 15 3 16 2 17 1 18
REMARK H PARENT
REMARK Flexibility Score: inf
ROOT
ATOM      1  C   UNL     1     163.596 166.125 159.065  1.00  0.00     0.000 C 
ENDROOT
BRANCH   1   2
ATOM      2  C   UNL     1     164.464 164.943 158.606  1.00  0.00     0.000 C 
BRANCH   2   3
ATOM      3  C   UNL     1     163.656 163.980 157.723  1.00  0.00     0.000 C 
BRANCH   3   4
ATOM      4  C   UNL     1     163.823 162.510 158.140  1.00  0.00     0.000 C 
BRANCH   4   5
ATOM      5  C   UNL     1     162.509 161.879 158.623  1.00  0.00     0.000 C 
BRANCH   5   6
ATOM      6  C   UNL     1     161.350 162.877 158.520  1.00  0.00     0.006 C 
BRANCH   6   7
ATOM      7  C   UNL     1     160.044 162.260 159.028  1.00  0.00     0.053 C 
BRANCH   7   8
ATOM      8  C   UNL     1     158.893 162.691 158.176  1.00  0.00     0.041 C 
ATOM      9  O   UNL     1     159.050 162.862 156.938  1.00  0.00    -0.550 OA
ATOM     10  O   UNL     1     157.658 162.954 158.756  1.00  0.00    -0.550 OA
ENDBRANCH   7   8
ENDBRANCH   6   7
ENDBRANCH   5   6
ENDBRANCH   4   5
ENDBRANCH   3   4
ENDBRANCH   2   3
ENDBRANCH   1   2
BRANCH   1  11
ATOM     11  C   UNL     1     162.737 166.707 157.933  1.00  0.00     0.000 C 
BRANCH  11  12
ATOM     12  C   UNL     1     161.246 166.352 158.079  1.00  0.00    -0.000 C 
BRANCH  12  13
ATOM     13  C   UNL     1     160.636 166.898 159.381  1.00  0.00    -0.000 C 
BRANCH  13  14
ATOM     14  C   UNL     1     159.739 165.868 160.088  1.00  0.00    -0.000 C 
BRANCH  14  15
ATOM     15  C   UNL     1     159.236 166.355 161.457  1.00  0.00    -0.000 C 
BRANCH  15  16
ATOM     16  C   UNL     1     159.963 165.705 162.653  1.00  0.00    -0.000 C 
BRANCH  16  17
ATOM     17  C   UNL     1     161.058 164.726 162.204  1.00  0.00    -0.003 C 
ATOM     18  C   UNL     1     161.631 163.958 163.391  1.00  0.00     0.004 C 
ENDBRANCH  16  17
ENDBRANCH  15  16
ENDBRANCH  14  15
ENDBRANCH  13  14
ENDBRANCH  12  13
ENDBRANCH  11  12
ENDBRANCH   1  11
TORSDOF 14
ENDMDL
MODEL 6
REMARK VINA RESULT:    -4.634      2.583      5.100
REMARK INTER + INTRA:         -10.513
REMARK INTER:                  -8.684
REMARK INTRA:                  -1.829
REMARK UNBOUND:                -2.087
REMARK SMILES CCCCCCCCCCCCCCCC(=O)[O-]
REMARK SMILES IDX 9 1 10 2 11 3 12 4 13 5 14 6 15 7 16 8 17 9 18 10 8 11 7 12
REMARK SMILES IDX 6 13 5 14 4 15 3 16 2 17 1 18
REMARK H PARENT
REMARK Flexibility Score: inf
ROOT
ATOM      1  C   UNL     1     161.051 167.998 160.531  1.00  0.00     0.000 C 
ENDROOT
BRANCH   1   2
ATOM      2  C   UNL     1     162.418 167.926 159.834  1.00  0.00     0.000 C 
BRANCH   2   3
ATOM      3  C   UNL     1     163.144 166.618 160.184  1.00  0.00     0.000 C 
BRANCH   3   4
ATOM      4  C   UNL     1     163.732 165.916 158.950  1.00  0.00     0.000 C 
BRANCH   4   5
ATOM      5  C   UNL     1     162.654 165.481 157.946  1.00  0.00     0.000 C 
BRANCH   5   6
ATOM      6  C   UNL     1     161.909 164.238 158.445  1.00  0.00     0.006 C 
BRANCH   6   7
ATOM      7  C   UNL     1     160.493 164.174 157.865  1.00  0.00     0.053 C 
BRANCH   7   8
ATOM      8  C   UNL     1     159.707 163.083 158.520  1.00  0.00     0.041 C 
ATOM      9  O   UNL     1     158.462 163.201 158.668  1.00  0.00    -0.550 OA
ATOM     10  O   UNL     1     160.355 161.958 159.012  1.00  0.00    -0.550 OA
ENDBRANCH   7   8
ENDBRANCH   6   7
ENDBRANCH   5   6
ENDBRANCH   4   5
ENDBRANCH   3   4
ENDBRANCH   2   3
ENDBRANCH   1   2
BRANCH   1  11
ATOM     11  C   UNL     1     160.029 167.014 159.942  1.00  0.00     0.000 C 
BRANCH  11  12
ATOM     12  C   UNL     1     159.073 166.446 161.006  1.00  0.00    -0.000 C 
BRANCH  12  13
ATOM     13  C   UNL     1     159.538 165.084 161.548  1.00  0.00    -0.000 C 
BRANCH  13  14
ATOM     14  C   UNL     1     160.605 165.221 162.647  1.00  0.00    -0.000 C 
BRANCH  14  15
ATOM     15  C   UNL     1     161.567 164.022 162.697  1.00  0.00    -0.000 C 
BRANCH  15  16
ATOM     16  C   UNL     1     161.942 163.587 164.130  1.00  0.00    -0.000 C 
BRANCH  16  17
ATOM     17  C   UNL     1     160.748 163.667 165.092  1.00  0.00    -0.003 C 
ATOM     18  C   UNL     1     160.731 162.480 166.050  1.00  0.00     0.004 C 
ENDBRANCH  16  17
ENDBRANCH  15  16
ENDBRANCH  14  15
ENDBRANCH  13  14
ENDBRANCH  12  13
ENDBRANCH  11  12
ENDBRANCH   1  11
TORSDOF 14
ENDMDL
MODEL 7
REMARK VINA RESULT:    -4.523      3.219      5.406
REMARK INTER + INTRA:         -10.313
REMARK INTER:                  -8.122
REMARK INTRA:                  -2.191
REMARK UNBOUND:                -2.087
REMARK SMILES CCCCCCCCCCCCCCCC(=O)[O-]
REMARK SMILES IDX 9 1 10 2 11 3 12 4 13 5 14 6 15 7 16 8 17 9 18 10 8 11 7 12
REMARK SMILES IDX 6 13 5 14 4 15 3 16 2 17 1 18
REMARK H PARENT
REMARK Flexibility Score: inf
ROOT
ATOM      1  C   UNL     1     163.118 166.414 160.123  1.00  0.00     0.000 C 
ENDROOT
BRANCH   1   2
ATOM      2  C   UNL     1     162.843 167.562 159.140  1.00  0.00     0.000 C 
BRANCH   2   3
ATOM      3  C   UNL     1     163.300 167.190 157.721  1.00  0.00     0.000 C 
BRANCH   3   4
ATOM      4  C   UNL     1     162.469 166.051 157.109  1.00  0.00     0.000 C 
BRANCH   4   5
ATOM      5  C   UNL     1     161.023 166.470 156.805  1.00  0.00     0.000 C 
BRANCH   5   6
ATOM      6  C   UNL     1     160.621 166.061 155.383  1.00  0.00     0.006 C 
BRANCH   6   7
ATOM      7  C   UNL     1     161.413 166.851 154.337  1.00  0.00     0.053 C 
BRANCH   7   8
ATOM      8  C   UNL     1     160.526 167.253 153.202  1.00  0.00     0.041 C 
ATOM      9  O   UNL     1     160.916 167.113 152.013  1.00  0.00    -0.550 OA
ATOM     10  O   UNL     1     159.288 167.829 153.457  1.00  0.00    -0.550 OA
ENDBRANCH   7   8
ENDBRANCH   6   7
ENDBRANCH   5   6
ENDBRANCH   4   5
ENDBRANCH   3   4
ENDBRANCH   2   3
ENDBRANCH   1   2
BRANCH   1  11
ATOM     11  C   UNL     1     161.850 165.933 160.845  1.00  0.00     0.000 C 
BRANCH  11  12
ATOM     12  C   UNL     1     160.659 166.890 160.652  1.00  0.00    -0.000 C 
BRANCH  12  13
ATOM     13  C   UNL     1     159.358 166.148 160.306  1.00  0.00    -0.000 C 
BRANCH  13  14
ATOM     14  C   UNL     1     159.437 164.644 160.620  1.00  0.00    -0.000 C 
BRANCH  14  15
ATOM     15  C   UNL     1     158.920 163.766 159.468  1.00  0.00    -0.000 C 
BRANCH  15  16
ATOM     16  C   UNL     1     160.023 163.321 158.484  1.00  0.00    -0.000 C 
BRANCH  16  17
ATOM     17  C   UNL     1     161.138 162.530 159.184  1.00  0.00    -0.003 C 
ATOM     18  C   UNL     1     162.483 162.748 158.497  1.00  0.00     0.004 C 
ENDBRANCH  16  17
ENDBRANCH  15  16
ENDBRANCH  14  15
ENDBRANCH  13  14
ENDBRANCH  12  13
ENDBRANCH  11  12
ENDBRANCH   1  11
TORSDOF 14
ENDMDL
MODEL 8
REMARK VINA RESULT:    -4.479      2.721      5.344
REMARK INTER + INTRA:         -10.233
REMARK INTER:                  -8.017
REMARK INTRA:                  -2.216
REMARK UNBOUND:                -2.087
REMARK SMILES CCCCCCCCCCCCCCCC(=O)[O-]
REMARK SMILES IDX 9 1 10 2 11 3 12 4 13 5 14 6 15 7 16 8 17 9 18 10 8 11 7 12
REMARK SMILES IDX 6 13 5 14 4 15 3 16 2 17 1 18
REMARK H PARENT
REMARK Flexibility Score: inf
ROOT
ATOM      1  C   UNL     1     163.193 166.669 158.043  1.00  0.00     0.000 C 
ENDROOT
BRANCH   1   2
ATOM      2  C   UNL     1     163.691 166.473 159.483  1.00  0.00     0.000 C 
BRANCH   2   3
ATOM      3  C   UNL     1     162.553 166.696 160.491  1.00  0.00     0.000 C 
BRANCH   3   4
ATOM      4  C   UNL     1     161.752 167.977 160.210  1.00  0.00     0.000 C 
BRANCH   4   5
ATOM      5  C   UNL     1     160.281 167.693 159.870  1.00  0.00     0.000 C 
BRANCH   5   6
ATOM      6  C   UNL     1     159.983 166.191 159.935  1.00  0.00     0.006 C 
BRANCH   6   7
ATOM      7  C   UNL     1     158.993 165.874 161.060  1.00  0.00     0.053 C 
BRANCH   7   8
ATOM      8  C   UNL     1     159.712 165.716 162.362  1.00  0.00     0.041 C 
ATOM      9  O   UNL     1     159.537 166.553 163.287  1.00  0.00    -0.550 OA
ATOM     10  O   UNL     1     160.613 164.674 162.538  1.00  0.00    -0.550 OA
ENDBRANCH   7   8
ENDBRANCH   6   7
ENDBRANCH   5   6
ENDBRANCH   4   5
ENDBRANCH   3   4
ENDBRANCH   2   3
ENDBRANCH   1   2
BRANCH   1  11
ATOM     11  C   UNL     1     162.782 165.350 157.370  1.00  0.00     0.000 C 
BRANCH  11  12
ATOM     12  C   UNL     1     163.626 164.154 157.848  1.00  0.00    -0.000 C 
BRANCH  12  13
ATOM     13  C   UNL     1     162.764 162.931 158.199  1.00  0.00    -0.000 C 
BRANCH  13  14
ATOM     14  C   UNL     1     162.007 163.105 159.527  1.00  0.00    -0.000 C 
BRANCH  14  15
ATOM     15  C   UNL     1     160.549 162.621 159.450  1.00  0.00    -0.000 C 
BRANCH  15  16
ATOM     16  C   UNL     1     160.111 162.192 158.033  1.00  0.00    -0.000 C 
BRANCH  16  17
ATOM     17  C   UNL     1     158.718 162.727 157.669  1.00  0.00    -0.003 C 
ATOM     18  C   UNL     1     157.909 163.053 158.921  1.00  0.00     0.004 C 
ENDBRANCH  16  17
ENDBRANCH  15  16
ENDBRANCH  14  15
ENDBRANCH  13  14
ENDBRANCH  12  13
ENDBRANCH  11  12
ENDBRANCH   1  11
TORSDOF 14
ENDMDL
MODEL 9
REMARK VINA RESULT:    -4.447      2.872      4.495
REMARK INTER + INTRA:         -10.174
REMARK INTER:                  -8.717
REMARK INTRA:                  -1.457
REMARK UNBOUND:                -2.087
REMARK SMILES CCCCCCCCCCCCCCCC(=O)[O-]
REMARK SMILES IDX 9 1 10 2 11 3 12 4 13 5 14 6 15 7 16 8 17 9 18 10 8 11 7 12
REMARK SMILES IDX 6 13 5 14 4 15 3 16 2 17 1 18
REMARK H PARENT
REMARK Flexibility Score: inf
ROOT
ATOM      1  C   UNL     1     162.566 163.343 157.888  1.00  0.00     0.000 C 
ENDROOT
BRANCH   1   2
ATOM      2  C   UNL     1     162.082 162.433 159.027  1.00  0.00     0.000 C 
BRANCH   2   3
ATOM      3  C   UNL     1     160.552 162.290 159.001  1.00  0.00     0.000 C 
BRANCH   3   4
ATOM      4  C   UNL     1     159.832 163.639 158.847  1.00  0.00     0.000 C 
BRANCH   4   5
ATOM      5  C   UNL     1     158.630 163.780 159.793  1.00  0.00     0.000 C 
BRANCH   5   6
ATOM      6  C   UNL     1     158.591 165.176 160.426  1.00  0.00     0.006 C 
BRANCH   6   7
ATOM      7  C   UNL     1     159.999 165.653 160.797  1.00  0.00     0.053 C 
BRANCH   7   8
ATOM      8  C   UNL     1     160.173 165.668 162.282  1.00  0.00     0.041 C 
ATOM      9  O   UNL     1     159.637 166.573 162.973  1.00  0.00    -0.550 OA
ATOM     10  O   UNL     1     160.971 164.712 162.898  1.00  0.00    -0.550 OA
ENDBRANCH   7   8
ENDBRANCH   6   7
ENDBRANCH   5   6
ENDBRANCH   4   5
ENDBRANCH   3   4
ENDBRANCH   2   3
ENDBRANCH   1   2
BRANCH   1  11
ATOM     11  C   UNL     1     163.506 164.457 158.375  1.00  0.00     0.000 C 
BRANCH  11  12
ATOM     12  C   UNL     1     162.798 165.819 158.492  1.00  0.00    -0.000 C 
BRANCH  12  13
ATOM     13  C   UNL     1     163.389 166.873 157.543  1.00  0.00    -0.000 C 
BRANCH  13  14
ATOM     14  C   UNL     1     162.674 166.908 156.182  1.00  0.00    -0.000 C 
BRANCH  14  15
ATOM     15  C   UNL     1     161.192 166.507 156.276  1.00  0.00    -0.000 C 
BRANCH  15  16
ATOM     16  C   UNL     1     160.499 166.365 154.904  1.00  0.00    -0.000 C 
BRANCH  16  17
ATOM     17  C   UNL     1     161.409 166.801 153.747  1.00  0.00    -0.003 C 
ATOM     18  C   UNL     1     160.606 167.476 152.639  1.00  0.00     0.004 C 
ENDBRANCH  16  17
ENDBRANCH  15  16
ENDBRANCH  14  15
ENDBRANCH  13  14
ENDBRANCH  12  13
ENDBRANCH  11  12
ENDBRANCH   1  11
TORSDOF 14
ENDMDL
