MODEL 1
REMARK VINA RESULT:    -4.257      0.000      0.000
REMARK INTER + INTRA:          -6.473
REMARK INTER:                  -6.000
REMARK INTRA:                  -0.473
REMARK UNBOUND:                -0.473
REMARK SMILES C=CCCCCCCC(=O)[O-]
REMARK SMILES IDX 6 1 7 2 8 3 9 4 10 5 11 6 5 7 4 8 3 9 2 10 1 11
REMARK H PARENT
REMARK Flexibility Score: inf
ROOT
ATOM      1  C   UNL     1      18.431  21.414  21.256  1.00  0.00     0.000 C 
ENDROOT
BRANCH   1   2
ATOM      2  C   UNL     1      18.727  21.702  22.738  1.00  0.00     0.006 C 
BRANCH   2   3
ATOM      3  C   UNL     1      17.468  22.124  23.506  1.00  0.00     0.053 C 
BRANCH   3   4
ATOM      4  C   UNL     1      17.743  22.299  24.969  1.00  0.00     0.041 C 
ATOM      5  O   UNL     1      18.848  22.761  25.355  1.00  0.00    -0.550 OA
ATOM      6  O   UNL     1      16.764  21.984  25.902  1.00  0.00    -0.550 OA
ENDBRANCH   3   4
ENDBRANCH   2   3
ENDBRANCH   1   2
BRANCH   1   7
ATOM      7  C   UNL     1      19.679  20.956  20.483  1.00  0.00     0.000 C 
BRANCH   7   8
ATOM      8  C   UNL     1      20.341  19.717  21.112  1.00  0.00     0.004 C 
BRANCH   8   9
ATOM      9  C   UNL     1      21.839  19.930  21.364  1.00  0.00     0.027 C 
BRANCH   9  10
ATOM     10  C   UNL     1      22.167  19.857  22.832  1.00  0.00    -0.035 C 
ATOM     11  C   UNL     1      21.303  19.366  23.723  1.00  0.00     0.004 C 
ENDBRANCH   9  10
ENDBRANCH   8   9
ENDBRANCH   7   8
ENDBRANCH   1   7
TORSDOF 7
ENDMDL
MODEL 2
REMARK VINA RESULT:    -4.059      1.025      2.653
REMARK INTER + INTRA:          -6.194
REMARK INTER:                  -5.605
REMARK INTRA:                  -0.589
REMARK UNBOUND:                -0.473
REMARK SMILES C=CCCCCCCC(=O)[O-]
REMARK SMILES IDX 6 1 7 2 8 3 9 4 10 5 11 6 5 7 4 8 3 9 2 10 1 11
REMARK H PARENT
REMARK Flexibility Score: inf
ROOT
ATOM      1  C   UNL     1      20.539  19.132  24.053  1.00  0.00     0.000 C 
ENDROOT
BRANCH   1   2
ATOM      2  C   UNL     1      19.748  20.002  25.046  1.00  0.00     0.006 C 
BRANCH   2   3
ATOM      3  C   UNL     1      18.545  20.685  24.383  1.00  0.00     0.053 C 
BRANCH   3   4
ATOM      4  C   UNL     1      18.122  21.913  25.130  1.00  0.00     0.041 C 
ATOM      5  O   UNL     1      18.928  22.867  25.287  1.00  0.00    -0.550 OA
ATOM      6  O   UNL     1      16.827  22.016  25.621  1.00  0.00    -0.550 OA
ENDBRANCH   3   4
ENDBRANCH   2   3
ENDBRANCH   1   2
BRANCH   1   7
ATOM      7  C   UNL     1      21.390  19.969  23.084  1.00  0.00     0.000 C 
BRANCH   7   8
ATOM      8  C   UNL     1      21.544  19.302  21.706  1.00  0.00     0.004 C 
BRANCH   8   9
ATOM      9  C   UNL     1      20.380  19.644  20.768  1.00  0.00     0.027 C 
BRANCH   9  10
ATOM     10  C   UNL     1      19.896  21.054  20.980  1.00  0.00    -0.035 C 
ATOM     11  C   UNL     1      18.684  21.451  20.584  1.00  0.00     0.004 C 
ENDBRANCH   9  10
ENDBRANCH   8   9
ENDBRANCH   7   8
ENDBRANCH   1   7
TORSDOF 7
ENDMDL
MODEL 3
REMARK VINA RESULT:    -3.878     14.711     16.026
REMARK INTER + INTRA:          -5.939
REMARK INTER:                  -5.540
REMARK INTRA:                  -0.399
REMARK UNBOUND:                -0.473
REMARK SMILES C=CCCCCCCC(=O)[O-]
REMARK SMILES IDX 6 1 7 2 8 3 9 4 10 5 11 6 5 7 4 8 3 9 2 10 1 11
REMARK H PARENT
REMARK Flexibility Score: inf
ROOT
ATOM      1  C   UNL     1      23.386  35.767  28.578  1.00  0.00     0.000 C 
ENDROOT
BRANCH   1   2
ATOM      2  C   UNL     1      21.944  35.238  28.664  1.00  0.00     0.006 C 
BRANCH   2   3
ATOM      3  C   UNL     1      21.716  34.384  29.918  1.00  0.00     0.053 C 
BRANCH   3   4
ATOM      4  C   UNL     1      21.402  32.961  29.571  1.00  0.00     0.041 C 
ATOM      5  O   UNL     1      20.703  32.259  30.348  1.00  0.00    -0.550 OA
ATOM      6  O   UNL     1      21.852  32.422  28.373  1.00  0.00    -0.550 OA
ENDBRANCH   3   4
ENDBRANCH   2   3
ENDBRANCH   1   2
BRANCH   1   7
ATOM      7  C   UNL     1      23.921  36.244  29.938  1.00  0.00     0.000 C 
BRANCH   7   8
ATOM      8  C   UNL     1      25.449  36.429  29.940  1.00  0.00     0.004 C 
BRANCH   8   9
ATOM      9  C   UNL     1      26.047  36.304  28.534  1.00  0.00     0.027 C 
BRANCH   9  10
ATOM     10  C   UNL     1      27.462  35.791  28.580  1.00  0.00    -0.035 C 
ATOM     11  C   UNL     1      27.866  34.920  29.508  1.00  0.00     0.004 C 
ENDBRANCH   9  10
ENDBRANCH   8   9
ENDBRANCH   7   8
ENDBRANCH   1   7
TORSDOF 7
ENDMDL
MODEL 4
REMARK VINA RESULT:    -3.818      1.233      2.231
REMARK INTER + INTRA:          -5.854
REMARK INTER:                  -5.267
REMARK INTRA:                  -0.586
REMARK UNBOUND:                -0.473
REMARK SMILES C=CCCCCCCC(=O)[O-]
REMARK SMILES IDX 6 1 7 2 8 3 9 4 10 5 11 6 5 7 4 8 3 9 2 10 1 11
REMARK H PARENT
REMARK Flexibility Score: inf
ROOT
ATOM      1  C   UNL     1      17.777  19.709  23.229  1.00  0.00     0.000 C 
ENDROOT
BRANCH   1   2
ATOM      2  C   UNL     1      18.109  21.100  22.660  1.00  0.00     0.006 C 
BRANCH   2   3
ATOM      3  C   UNL     1      17.389  22.221  23.420  1.00  0.00     0.053 C 
BRANCH   3   4
ATOM      4  C   UNL     1      17.747  22.224  24.875  1.00  0.00     0.041 C 
ATOM      5  O   UNL     1      16.853  22.065  25.747  1.00  0.00    -0.550 OA
ATOM      6  O   UNL     1      19.072  22.366  25.264  1.00  0.00    -0.550 OA
ENDBRANCH   3   4
ENDBRANCH   2   3
ENDBRANCH   1   2
BRANCH   1   7
ATOM      7  C   UNL     1      18.944  18.719  23.085  1.00  0.00     0.000 C 
BRANCH   7   8
ATOM      8  C   UNL     1      19.949  18.818  24.245  1.00  0.00     0.004 C 
BRANCH   8   9
ATOM      9  C   UNL     1      21.222  19.574  23.843  1.00  0.00     0.027 C 
BRANCH   9  10
ATOM     10  C   UNL     1      21.409  19.581  22.348  1.00  0.00    -0.035 C 
ATOM     11  C   UNL     1      22.612  19.737  21.790  1.00  0.00     0.004 C 
ENDBRANCH   9  10
ENDBRANCH   8   9
ENDBRANCH   7   8
ENDBRANCH   1   7
TORSDOF 7
ENDMDL
MODEL 5
REMARK VINA RESULT:    -3.770     12.545     14.200
REMARK INTER + INTRA:          -5.786
REMARK INTER:                  -5.537
REMARK INTRA:                  -0.248
REMARK UNBOUND:                -0.473
REMARK SMILES C=CCCCCCCC(=O)[O-]
REMARK SMILES IDX 6 1 7 2 8 3 9 4 10 5 11 6 5 7 4 8 3 9 2 10 1 11
REMARK H PARENT
REMARK Flexibility Score: inf
ROOT
ATOM      1  C   UNL     1      20.706  29.336  34.582  1.00  0.00     0.000 C 
ENDROOT
BRANCH   1   2
ATOM      2  C   UNL     1      21.846  28.384  34.179  1.00  0.00     0.006 C 
BRANCH   2   3
ATOM      3  C   UNL     1      21.845  27.097  35.014  1.00  0.00     0.053 C 
BRANCH   3   4
ATOM      4  C   UNL     1      22.001  25.879  34.156  1.00  0.00     0.041 C 
ATOM      5  O   UNL     1      21.001  25.381  33.575  1.00  0.00    -0.550 OA
ATOM      6  O   UNL     1      23.257  25.316  33.970  1.00  0.00    -0.550 OA
ENDBRANCH   3   4
ENDBRANCH   2   3
ENDBRANCH   1   2
BRANCH   1   7
ATOM      7  C   UNL     1      20.809  30.705  33.889  1.00  0.00     0.000 C 
BRANCH   7   8
ATOM      8  C   UNL     1      19.449  31.212  33.380  1.00  0.00     0.004 C 
BRANCH   8   9
ATOM      9  C   UNL     1      19.591  32.461  32.501  1.00  0.00     0.027 C 
BRANCH   9  10
ATOM     10  C   UNL     1      20.758  32.340  31.556  1.00  0.00    -0.035 C 
ATOM     11  C   UNL     1      20.643  32.618  30.255  1.00  0.00     0.004 C 
ENDBRANCH   9  10
ENDBRANCH   8   9
ENDBRANCH   7   8
ENDBRANCH   1   7
TORSDOF 7
ENDMDL
MODEL 6
REMARK VINA RESULT:    -3.746      2.643      4.492
REMARK INTER + INTRA:          -5.753
REMARK INTER:                  -5.054
REMARK INTRA:                  -0.699
REMARK UNBOUND:                -0.473
REMARK SMILES C=CCCCCCCC(=O)[O-]
REMARK SMILES IDX 6 1 7 2 8 3 9 4 10 5 11 6 5 7 4 8 3 9 2 10 1 11
REMARK H PARENT
REMARK Flexibility Score: inf
ROOT
ATOM      1  C   UNL     1      18.088  21.112  21.631  1.00  0.00     0.000 C 
ENDROOT
BRANCH   1   2
ATOM      2  C   UNL     1      19.596  21.369  21.792  1.00  0.00     0.006 C 
BRANCH   2   3
ATOM      3  C   UNL     1      20.440  20.202  21.263  1.00  0.00     0.053 C 
BRANCH   3   4
ATOM      4  C   UNL     1      21.668  19.985  22.094  1.00  0.00     0.041 C 
ATOM      5  O   UNL     1      21.642  20.204  23.333  1.00  0.00    -0.550 OA
ATOM      6  O   UNL     1      22.830  19.506  21.503  1.00  0.00    -0.550 OA
ENDBRANCH   3   4
ENDBRANCH   2   3
ENDBRANCH   1   2
BRANCH   1   7
ATOM      7  C   UNL     1      17.253  21.793  22.728  1.00  0.00     0.000 C 
BRANCH   7   8
ATOM      8  C   UNL     1      18.125  22.460  23.805  1.00  0.00     0.004 C 
BRANCH   8   9
ATOM      9  C   UNL     1      17.894  21.851  25.194  1.00  0.00     0.027 C 
BRANCH   9  10
ATOM     10  C   UNL     1      18.951  20.832  25.531  1.00  0.00    -0.035 C 
ATOM     11  C   UNL     1      18.789  19.534  25.266  1.00  0.00     0.004 C 
ENDBRANCH   9  10
ENDBRANCH   8   9
ENDBRANCH   7   8
ENDBRANCH   1   7
TORSDOF 7
ENDMDL
MODEL 7
REMARK VINA RESULT:    -3.728     13.293     14.234
REMARK INTER + INTRA:          -5.726
REMARK INTER:                  -5.354
REMARK INTRA:                  -0.373
REMARK UNBOUND:                -0.473
REMARK SMILES C=CCCCCCCC(=O)[O-]
REMARK SMILES IDX 6 1 7 2 8 3 9 4 10 5 11 6 5 7 4 8 3 9 2 10 1 11
REMARK H PARENT
REMARK Flexibility Score: inf
ROOT
ATOM      1  C   UNL     1      27.903  30.279  18.153  1.00  0.00     0.000 C 
ENDROOT
BRANCH   1   2
ATOM      2  C   UNL     1      28.030  29.267  17.000  1.00  0.00     0.006 C 
BRANCH   2   3
ATOM      3  C   UNL     1      26.765  29.219  16.134  1.00  0.00     0.053 C 
BRANCH   3   4
ATOM      4  C   UNL     1      25.526  29.089  16.966  1.00  0.00     0.041 C 
ATOM      5  O   UNL     1      24.651  29.994  16.945  1.00  0.00    -0.550 OA
ATOM      6  O   UNL     1      25.324  27.952  17.737  1.00  0.00    -0.550 OA
ENDBRANCH   3   4
ENDBRANCH   2   3
ENDBRANCH   1   2
BRANCH   1   7
ATOM      7  C   UNL     1      28.160  31.725  17.699  1.00  0.00     0.000 C 
BRANCH   7   8
ATOM      8  C   UNL     1      29.631  32.144  17.866  1.00  0.00     0.004 C 
BRANCH   8   9
ATOM      9  C   UNL     1      30.314  31.406  19.024  1.00  0.00     0.027 C 
BRANCH   9  10
ATOM     10  C   UNL     1      30.748  32.359  20.106  1.00  0.00    -0.035 C 
ATOM     11  C   UNL     1      31.916  32.221  20.739  1.00  0.00     0.004 C 
ENDBRANCH   9  10
ENDBRANCH   8   9
ENDBRANCH   7   8
ENDBRANCH   1   7
TORSDOF 7
ENDMDL
MODEL 8
REMARK VINA RESULT:    -3.722      2.819      5.196
REMARK INTER + INTRA:          -5.719
REMARK INTER:                  -5.004
REMARK INTRA:                  -0.715
REMARK UNBOUND:                -0.473
REMARK SMILES C=CCCCCCCC(=O)[O-]
REMARK SMILES IDX 6 1 7 2 8 3 9 4 10 5 11 6 5 7 4 8 3 9 2 10 1 11
REMARK H PARENT
REMARK Flexibility Score: inf
ROOT
ATOM      1  C   UNL     1      19.445  18.897  24.829  1.00  0.00     0.000 C 
ENDROOT
BRANCH   1   2
ATOM      2  C   UNL     1      20.277  18.654  23.557  1.00  0.00     0.006 C 
BRANCH   2   3
ATOM      3  C   UNL     1      21.384  19.701  23.383  1.00  0.00     0.053 C 
BRANCH   3   4
ATOM      4  C   UNL     1      21.730  19.909  21.940  1.00  0.00     0.041 C 
ATOM      5  O   UNL     1      20.842  20.262  21.121  1.00  0.00    -0.550 OA
ATOM      6  O   UNL     1      23.040  19.747  21.510  1.00  0.00    -0.550 OA
ENDBRANCH   3   4
ENDBRANCH   2   3
ENDBRANCH   1   2
BRANCH   1   7
ATOM      7  C   UNL     1      19.605  20.325  25.375  1.00  0.00     0.000 C 
BRANCH   7   8
ATOM      8  C   UNL     1      18.254  21.020  25.615  1.00  0.00     0.004 C 
BRANCH   8   9
ATOM      9  C   UNL     1      18.098  22.288  24.767  1.00  0.00     0.027 C 
BRANCH   9  10
ATOM     10  C   UNL     1      18.554  22.062  23.349  1.00  0.00    -0.035 C 
ATOM     11  C   UNL     1      17.693  21.780  22.368  1.00  0.00     0.004 C 
ENDBRANCH   9  10
ENDBRANCH   8   9
ENDBRANCH   7   8
ENDBRANCH   1   7
TORSDOF 7
ENDMDL
MODEL 9
REMARK VINA RESULT:    -3.721     15.354     16.311
REMARK INTER + INTRA:          -5.717
REMARK INTER:                  -5.088
REMARK INTRA:                  -0.629
REMARK UNBOUND:                -0.473
REMARK SMILES C=CCCCCCCC(=O)[O-]
REMARK SMILES IDX 6 1 7 2 8 3 9 4 10 5 11 6 5 7 4 8 3 9 2 10 1 11
REMARK H PARENT
REMARK Flexibility Score: inf
ROOT
ATOM      1  C   UNL     1      30.799  32.870  17.649  1.00  0.00     0.000 C 
ENDROOT
BRANCH   1   2
ATOM      2  C   UNL     1      29.797  31.958  16.919  1.00  0.00     0.006 C 
BRANCH   2   3
ATOM      3  C   UNL     1      28.485  31.802  17.699  1.00  0.00     0.053 C 
BRANCH   3   4
ATOM      4  C   UNL     1      28.368  30.445  18.323  1.00  0.00     0.041 C 
ATOM      5  O   UNL     1      29.340  29.952  18.953  1.00  0.00    -0.550 OA
ATOM      6  O   UNL     1      27.173  29.742  18.240  1.00  0.00    -0.550 OA
ENDBRANCH   3   4
ENDBRANCH   2   3
ENDBRANCH   1   2
BRANCH   1   7
ATOM      7  C   UNL     1      32.066  32.119  18.090  1.00  0.00     0.000 C 
BRANCH   7   8
ATOM      8  C   UNL     1      32.174  31.991  19.620  1.00  0.00     0.004 C 
BRANCH   8   9
ATOM      9  C   UNL     1      31.036  32.724  20.342  1.00  0.00     0.027 C 
BRANCH   9  10
ATOM     10  C   UNL     1      31.550  33.901  21.128  1.00  0.00    -0.035 C 
ATOM     11  C   UNL     1      32.826  33.988  21.514  1.00  0.00     0.004 C 
ENDBRANCH   9  10
ENDBRANCH   8   9
ENDBRANCH   7   8
ENDBRANCH   1   7
TORSDOF 7
ENDMDL
