MODEL 1
REMARK VINA RESULT:    -4.280      0.000      0.000
REMARK INTER + INTRA:          -6.597
REMARK INTER:                  -6.282
REMARK INTRA:                  -0.315
REMARK UNBOUND:                -0.315
REMARK SMILES O=C([O-])CCCCCCCC(=O)[O-]
REMARK SMILES IDX 7 1 6 2 5 3 4 4 2 5 1 6 3 7 8 8 9 9 10 10 11 11 12 12 13 13
REMARK H PARENT
REMARK Flexibility Score: inf
ROOT
ATOM      1  C   UNL     1     -17.071  -0.672  -2.191  1.00  0.00     0.000 C 
ENDROOT
BRANCH   1   2
ATOM      2  C   UNL     1     -17.111   0.358  -1.056  1.00  0.00     0.000 C 
BRANCH   2   3
ATOM      3  C   UNL     1     -16.170  -0.044   0.089  1.00  0.00     0.006 C 
BRANCH   3   4
ATOM      4  C   UNL     1     -16.926  -0.303   1.398  1.00  0.00     0.053 C 
BRANCH   4   5
ATOM      5  C   UNL     1     -15.990  -0.497   2.552  1.00  0.00     0.041 C 
ATOM      6  O   UNL     1     -16.434  -0.843   3.678  1.00  0.00    -0.550 OA
ATOM      7  O   UNL     1     -14.623  -0.327   2.374  1.00  0.00    -0.550 OA
ENDBRANCH   4   5
ENDBRANCH   3   4
ENDBRANCH   2   3
ENDBRANCH   1   2
BRANCH   1   8
ATOM      8  C   UNL     1     -16.942  -2.098  -1.634  1.00  0.00     0.000 C 
BRANCH   8   9
ATOM      9  C   UNL     1     -16.330  -3.077  -2.649  1.00  0.00     0.006 C 
BRANCH   9  10
ATOM     10  C   UNL     1     -16.476  -2.594  -4.097  1.00  0.00     0.053 C 
BRANCH  10  11
ATOM     11  C   UNL     1     -15.223  -2.867  -4.867  1.00  0.00     0.041 C 
ATOM     12  O   UNL     1     -14.236  -3.407  -4.301  1.00  0.00    -0.550 OA
ATOM     13  O   UNL     1     -15.126  -2.480  -6.198  1.00  0.00    -0.550 OA
ENDBRANCH  10  11
ENDBRANCH   9  10
ENDBRANCH   8   9
ENDBRANCH   1   8
TORSDOF 8
ENDMDL
MODEL 2
REMARK VINA RESULT:    -4.198      0.573      6.462
REMARK INTER + INTRA:          -6.476
REMARK INTER:                  -6.148
REMARK INTRA:                  -0.327
REMARK UNBOUND:                -0.315
REMARK SMILES O=C([O-])CCCCCCCC(=O)[O-]
REMARK SMILES IDX 7 1 6 2 5 3 4 4 2 5 1 6 3 7 8 8 9 9 10 10 11 11 12 12 13 13
REMARK H PARENT
REMARK Flexibility Score: inf
ROOT
ATOM      1  C   UNL     1     -16.835  -0.442  -2.383  1.00  0.00     0.000 C 
ENDROOT
BRANCH   1   2
ATOM      2  C   UNL     1     -17.031  -1.923  -2.035  1.00  0.00     0.000 C 
BRANCH   2   3
ATOM      3  C   UNL     1     -16.907  -2.805  -3.286  1.00  0.00     0.006 C 
BRANCH   3   4
ATOM      4  C   UNL     1     -15.602  -3.611  -3.301  1.00  0.00     0.053 C 
BRANCH   4   5
ATOM      5  C   UNL     1     -14.766  -3.291  -4.503  1.00  0.00     0.041 C 
ATOM      6  O   UNL     1     -13.646  -3.845  -4.662  1.00  0.00    -0.550 OA
ATOM      7  O   UNL     1     -15.238  -2.405  -5.463  1.00  0.00    -0.550 OA
ENDBRANCH   4   5
ENDBRANCH   3   4
ENDBRANCH   2   3
ENDBRANCH   1   2
BRANCH   1   8
ATOM      8  C   UNL     1     -17.023   0.444  -1.142  1.00  0.00     0.000 C 
BRANCH   8   9
ATOM      9  C   UNL     1     -16.086   0.051   0.012  1.00  0.00     0.006 C 
BRANCH   9  10
ATOM     10  C   UNL     1     -16.847  -0.359   1.278  1.00  0.00     0.053 C 
BRANCH  10  11
ATOM     11  C   UNL     1     -15.902  -0.524   2.425  1.00  0.00     0.041 C 
ATOM     12  O   UNL     1     -14.665  -0.362   2.256  1.00  0.00    -0.550 OA
ATOM     13  O   UNL     1     -16.381  -0.906   3.673  1.00  0.00    -0.550 OA
ENDBRANCH  10  11
ENDBRANCH   9  10
ENDBRANCH   8   9
ENDBRANCH   1   8
TORSDOF 8
ENDMDL
MODEL 3
REMARK VINA RESULT:    -4.187      1.265      5.877
REMARK INTER + INTRA:          -6.460
REMARK INTER:                  -6.045
REMARK INTRA:                  -0.415
REMARK UNBOUND:                -0.315
REMARK SMILES O=C([O-])CCCCCCCC(=O)[O-]
REMARK SMILES IDX 7 1 6 2 5 3 4 4 2 5 1 6 3 7 8 8 9 9 10 10 11 11 12 12 13 13
REMARK H PARENT
REMARK Flexibility Score: inf
ROOT
ATOM      1  C   UNL     1     -17.010  -1.219  -1.677  1.00  0.00     0.000 C 
ENDROOT
BRANCH   1   2
ATOM      2  C   UNL     1     -16.982  -1.506  -3.183  1.00  0.00     0.000 C 
BRANCH   2   3
ATOM      3  C   UNL     1     -16.485  -2.932  -3.464  1.00  0.00     0.006 C 
BRANCH   3   4
ATOM      4  C   UNL     1     -15.950  -3.620  -2.202  1.00  0.00     0.053 C 
BRANCH   4   5
ATOM      5  C   UNL     1     -14.528  -4.061  -2.370  1.00  0.00     0.041 C 
ATOM      6  O   UNL     1     -13.990  -4.044  -3.509  1.00  0.00    -0.550 OA
ATOM      7  O   UNL     1     -13.788  -4.459  -1.265  1.00  0.00    -0.550 OA
ENDBRANCH   4   5
ENDBRANCH   3   4
ENDBRANCH   2   3
ENDBRANCH   1   2
BRANCH   1   8
ATOM      8  C   UNL     1     -16.715   0.262  -1.394  1.00  0.00     0.000 C 
BRANCH   8   9
ATOM      9  C   UNL     1     -16.124   0.490   0.007  1.00  0.00     0.006 C 
BRANCH   9  10
ATOM     10  C   UNL     1     -16.565  -0.577   1.016  1.00  0.00     0.053 C 
BRANCH  10  11
ATOM     11  C   UNL     1     -15.696  -0.536   2.232  1.00  0.00     0.041 C 
ATOM     12  O   UNL     1     -16.207  -0.624   3.380  1.00  0.00    -0.550 OA
ATOM     13  O   UNL     1     -14.325  -0.352   2.102  1.00  0.00    -0.550 OA
ENDBRANCH  10  11
ENDBRANCH   9  10
ENDBRANCH   8   9
ENDBRANCH   1   8
TORSDOF 8
ENDMDL
MODEL 4
REMARK VINA RESULT:    -3.980      1.461      5.989
REMARK INTER + INTRA:          -6.156
REMARK INTER:                  -5.747
REMARK INTRA:                  -0.410
REMARK UNBOUND:                -0.315
REMARK SMILES O=C([O-])CCCCCCCC(=O)[O-]
REMARK SMILES IDX 7 1 6 2 5 3 4 4 2 5 1 6 3 7 8 8 9 9 10 10 11 11 12 12 13 13
REMARK H PARENT
REMARK Flexibility Score: inf
ROOT
ATOM      1  C   UNL     1     -16.767  -1.437  -2.946  1.00  0.00     0.000 C 
ENDROOT
BRANCH   1   2
ATOM      2  C   UNL     1     -17.081  -2.789  -2.294  1.00  0.00     0.000 C 
BRANCH   2   3
ATOM      3  C   UNL     1     -16.248  -3.914  -2.926  1.00  0.00     0.006 C 
BRANCH   3   4
ATOM      4  C   UNL     1     -15.045  -4.304  -2.057  1.00  0.00     0.053 C 
BRANCH   4   5
ATOM      5  C   UNL     1     -13.800  -4.464  -2.873  1.00  0.00     0.041 C 
ATOM      6  O   UNL     1     -12.827  -5.125  -2.421  1.00  0.00    -0.550 OA
ATOM      7  O   UNL     1     -13.726  -3.913  -4.146  1.00  0.00    -0.550 OA
ENDBRANCH   4   5
ENDBRANCH   3   4
ENDBRANCH   2   3
ENDBRANCH   1   2
BRANCH   1   8
ATOM      8  C   UNL     1     -16.922  -0.290  -1.936  1.00  0.00     0.000 C 
BRANCH   8   9
ATOM      9  C   UNL     1     -16.757  -0.757  -0.481  1.00  0.00     0.006 C 
BRANCH   9  10
ATOM     10  C   UNL     1     -15.951   0.233   0.369  1.00  0.00     0.053 C 
BRANCH  10  11
ATOM     11  C   UNL     1     -15.685  -0.340   1.725  1.00  0.00     0.041 C 
ATOM     12  O   UNL     1     -14.514  -0.356   2.187  1.00  0.00    -0.550 OA
ATOM     13  O   UNL     1     -16.723  -0.901   2.459  1.00  0.00    -0.550 OA
ENDBRANCH  10  11
ENDBRANCH   9  10
ENDBRANCH   8   9
ENDBRANCH   1   8
TORSDOF 8
ENDMDL
MODEL 5
REMARK VINA RESULT:    -3.727      2.220      3.194
REMARK INTER + INTRA:          -5.785
REMARK INTER:                  -5.406
REMARK INTRA:                  -0.380
REMARK UNBOUND:                -0.315
REMARK SMILES O=C([O-])CCCCCCCC(=O)[O-]
REMARK SMILES IDX 7 1 6 2 5 3 4 4 2 5 1 6 3 7 8 8 9 9 10 10 11 11 12 12 13 13
REMARK H PARENT
REMARK Flexibility Score: inf
ROOT
ATOM      1  C   UNL     1     -16.265  -3.922  -2.386  1.00  0.00     0.000 C 
ENDROOT
BRANCH   1   2
ATOM      2  C   UNL     1     -16.537  -2.466  -2.783  1.00  0.00     0.000 C 
BRANCH   2   3
ATOM      3  C   UNL     1     -16.887  -1.615  -1.552  1.00  0.00     0.006 C 
BRANCH   3   4
ATOM      4  C   UNL     1     -16.881  -0.114  -1.864  1.00  0.00     0.053 C 
BRANCH   4   5
ATOM      5  C   UNL     1     -16.380   0.692  -0.704  1.00  0.00     0.041 C 
ATOM      6  O   UNL     1     -16.551   1.940  -0.678  1.00  0.00    -0.550 OA
ATOM      7  O   UNL     1     -15.753   0.061   0.362  1.00  0.00    -0.550 OA
ENDBRANCH   4   5
ENDBRANCH   3   4
ENDBRANCH   2   3
ENDBRANCH   1   2
BRANCH   1   8
ATOM      8  C   UNL     1     -14.796  -4.116  -1.981  1.00  0.00     0.000 C 
BRANCH   8   9
ATOM      9  C   UNL     1     -14.016  -4.984  -2.982  1.00  0.00     0.006 C 
BRANCH   9  10
ATOM     10  C   UNL     1     -13.352  -4.156  -4.089  1.00  0.00     0.053 C 
BRANCH  10  11
ATOM     11  C   UNL     1     -13.733  -4.685  -5.435  1.00  0.00     0.041 C 
ATOM     12  O   UNL     1     -12.850  -5.121  -6.219  1.00  0.00    -0.550 OA
ATOM     13  O   UNL     1     -15.061  -4.652  -5.846  1.00  0.00    -0.550 OA
ENDBRANCH  10  11
ENDBRANCH   9  10
ENDBRANCH   8   9
ENDBRANCH   1   8
TORSDOF 8
ENDMDL
MODEL 6
REMARK VINA RESULT:    -3.575      1.743      6.643
REMARK INTER + INTRA:          -5.562
REMARK INTER:                  -5.179
REMARK INTRA:                  -0.384
REMARK UNBOUND:                -0.315
REMARK SMILES O=C([O-])CCCCCCCC(=O)[O-]
REMARK SMILES IDX 7 1 6 2 5 3 4 4 2 5 1 6 3 7 8 8 9 9 10 10 11 11 12 12 13 13
REMARK H PARENT
REMARK Flexibility Score: inf
ROOT
ATOM      1  C   UNL     1     -15.366  -3.589  -2.095  1.00  0.00     0.000 C 
ENDROOT
BRANCH   1   2
ATOM      2  C   UNL     1     -14.998  -4.626  -3.163  1.00  0.00     0.000 C 
BRANCH   2   3
ATOM      3  C   UNL     1     -13.636  -4.307  -3.797  1.00  0.00     0.006 C 
BRANCH   3   4
ATOM      4  C   UNL     1     -13.684  -4.344  -5.329  1.00  0.00     0.053 C 
BRANCH   4   5
ATOM      5  C   UNL     1     -14.890  -3.634  -5.864  1.00  0.00     0.041 C 
ATOM      6  O   UNL     1     -14.938  -2.375  -5.859  1.00  0.00    -0.550 OA
ATOM      7  O   UNL     1     -15.945  -4.361  -6.399  1.00  0.00    -0.550 OA
ENDBRANCH   4   5
ENDBRANCH   3   4
ENDBRANCH   2   3
ENDBRANCH   1   2
BRANCH   1   8
ATOM      8  C   UNL     1     -16.453  -2.633  -2.609  1.00  0.00     0.000 C 
BRANCH   8   9
ATOM      9  C   UNL     1     -17.125  -1.839  -1.476  1.00  0.00     0.006 C 
BRANCH   9  10
ATOM     10  C   UNL     1     -16.754  -0.352  -1.497  1.00  0.00     0.053 C 
BRANCH  10  11
ATOM     11  C   UNL     1     -16.372   0.110  -0.127  1.00  0.00     0.041 C 
ATOM     12  O   UNL     1     -16.824  -0.480   0.890  1.00  0.00    -0.550 OA
ATOM     13  O   UNL     1     -15.554   1.222   0.030  1.00  0.00    -0.550 OA
ENDBRANCH  10  11
ENDBRANCH   9  10
ENDBRANCH   8   9
ENDBRANCH   1   8
TORSDOF 8
ENDMDL
MODEL 7
REMARK VINA RESULT:    -3.516      3.646      5.076
REMARK INTER + INTRA:          -5.475
REMARK INTER:                  -4.885
REMARK INTRA:                  -0.590
REMARK UNBOUND:                -0.315
REMARK SMILES O=C([O-])CCCCCCCC(=O)[O-]
REMARK SMILES IDX 7 1 6 2 5 3 4 4 2 5 1 6 3 7 8 8 9 9 10 10 11 11 12 12 13 13
REMARK H PARENT
REMARK Flexibility Score: inf
ROOT
ATOM      1  C   UNL     1     -13.859  -4.262  -3.055  1.00  0.00     0.000 C 
ENDROOT
BRANCH   1   2
ATOM      2  C   UNL     1     -14.990  -5.012  -2.342  1.00  0.00     0.000 C 
BRANCH   2   3
ATOM      3  C   UNL     1     -16.356  -4.387  -2.664  1.00  0.00     0.006 C 
BRANCH   3   4
ATOM      4  C   UNL     1     -16.478  -2.954  -2.131  1.00  0.00     0.053 C 
BRANCH   4   5
ATOM      5  C   UNL     1     -16.770  -1.976  -3.228  1.00  0.00     0.041 C 
ATOM      6  O   UNL     1     -16.913  -0.753  -2.965  1.00  0.00    -0.550 OA
ATOM      7  O   UNL     1     -16.850  -2.412  -4.544  1.00  0.00    -0.550 OA
ENDBRANCH   4   5
ENDBRANCH   3   4
ENDBRANCH   2   3
ENDBRANCH   1   2
BRANCH   1   8
ATOM      8  C   UNL     1     -13.247  -5.122  -4.171  1.00  0.00     0.000 C 
BRANCH   8   9
ATOM      9  C   UNL     1     -13.511  -4.547  -5.573  1.00  0.00     0.006 C 
BRANCH   9  10
ATOM     10  C   UNL     1     -14.892  -4.931  -6.118  1.00  0.00     0.053 C 
BRANCH  10  11
ATOM     11  C   UNL     1     -15.082  -4.376  -7.494  1.00  0.00     0.041 C 
ATOM     12  O   UNL     1     -14.454  -4.867  -8.468  1.00  0.00    -0.550 OA
ATOM     13  O   UNL     1     -15.917  -3.284  -7.694  1.00  0.00    -0.550 OA
ENDBRANCH  10  11
ENDBRANCH   9  10
ENDBRANCH   8   9
ENDBRANCH   1   8
TORSDOF 8
ENDMDL
MODEL 8
REMARK VINA RESULT:    -3.382      1.982      6.399
REMARK INTER + INTRA:          -5.278
REMARK INTER:                  -4.953
REMARK INTRA:                  -0.325
REMARK UNBOUND:                -0.315
REMARK SMILES O=C([O-])CCCCCCCC(=O)[O-]
REMARK SMILES IDX 7 1 6 2 5 3 4 4 2 5 1 6 3 7 8 8 9 9 10 10 11 11 12 12 13 13
REMARK H PARENT
REMARK Flexibility Score: inf
ROOT
ATOM      1  C   UNL     1     -16.265  -2.492  -3.756  1.00  0.00     0.000 C 
ENDROOT
BRANCH   1   2
ATOM      2  C   UNL     1     -16.617  -3.911  -3.294  1.00  0.00     0.000 C 
BRANCH   2   3
ATOM      3  C   UNL     1     -15.698  -4.950  -3.954  1.00  0.00     0.006 C 
BRANCH   3   4
ATOM      4  C   UNL     1     -14.648  -4.301  -4.865  1.00  0.00     0.053 C 
BRANCH   4   5
ATOM      5  C   UNL     1     -13.254  -4.595  -4.404  1.00  0.00     0.041 C 
ATOM      6  O   UNL     1     -12.300  -4.595  -5.227  1.00  0.00    -0.550 OA
ATOM      7  O   UNL     1     -13.003  -4.838  -3.059  1.00  0.00    -0.550 OA
ENDBRANCH   4   5
ENDBRANCH   3   4
ENDBRANCH   2   3
ENDBRANCH   1   2
BRANCH   1   8
ATOM      8  C   UNL     1     -17.124  -1.448  -3.027  1.00  0.00     0.000 C 
BRANCH   8   9
ATOM      9  C   UNL     1     -16.553  -1.068  -1.650  1.00  0.00     0.006 C 
BRANCH   9  10
ATOM     10  C   UNL     1     -16.856   0.385  -1.265  1.00  0.00     0.053 C 
BRANCH  10  11
ATOM     11  C   UNL     1     -16.002   0.807  -0.112  1.00  0.00     0.041 C 
ATOM     12  O   UNL     1     -15.635   2.006  -0.001  1.00  0.00    -0.550 OA
ATOM     13  O   UNL     1     -15.570  -0.133   0.815  1.00  0.00    -0.550 OA
ENDBRANCH  10  11
ENDBRANCH   9  10
ENDBRANCH   8   9
ENDBRANCH   1   8
TORSDOF 8
ENDMDL
