MODEL 1
REMARK VINA RESULT:    -4.609      0.000      0.000
REMARK INTER + INTRA:          -9.489
REMARK INTER:                  -8.381
REMARK INTRA:                  -1.108
REMARK UNBOUND:                -1.108
REMARK SMILES CCCCCC=CCC=CCCCCCCCC(=O)[O-]
REMARK SMILES IDX 11 1 12 2 13 3 14 4 15 5 16 6 17 7 18 8 19 9 20 10 10 11
REMARK SMILES IDX 9 12 8 13 7 14 6 15 5 16 4 17 3 18 2 19 1 20
REMARK H PARENT
REMARK Flexibility Score: inf
ROOT
ATOM      1  C   UNL     1      15.634  -3.727  -3.128  1.00  0.00     0.027 C 
ENDROOT
BRANCH   1   2
ATOM      2  C   UNL     1      14.650  -3.396  -1.996  1.00  0.00     0.004 C 
BRANCH   2   3
ATOM      3  C   UNL     1      15.340  -2.702  -0.812  1.00  0.00     0.000 C 
BRANCH   3   4
ATOM      4  C   UNL     1      14.337  -1.870  -0.002  1.00  0.00     0.000 C 
BRANCH   4   5
ATOM      5  C   UNL     1      14.373  -2.260   1.483  1.00  0.00     0.000 C 
BRANCH   5   6
ATOM      6  C   UNL     1      15.088  -3.601   1.731  1.00  0.00     0.006 C 
BRANCH   6   7
ATOM      7  C   UNL     1      14.142  -4.799   1.914  1.00  0.00     0.053 C 
BRANCH   7   8
ATOM      8  C   UNL     1      14.713  -6.058   1.338  1.00  0.00     0.041 C 
ATOM      9  O   UNL     1      14.617  -7.143   1.970  1.00  0.00    -0.550 OA
ATOM     10  O   UNL     1      15.380  -6.027   0.120  1.00  0.00    -0.550 OA
ENDBRANCH   7   8
ENDBRANCH   6   7
ENDBRANCH   5   6
ENDBRANCH   4   5
ENDBRANCH   3   4
ENDBRANCH   2   3
ENDBRANCH   1   2
BRANCH   1  11
ATOM     11  C   UNL     1      17.032  -3.246  -2.824  1.00  0.00    -0.031 C 
ATOM     12  C   UNL     1      17.735  -2.409  -3.608  1.00  0.00    -0.027 C 
BRANCH  12  13
ATOM     13  C   UNL     1      17.194  -1.802  -4.879  1.00  0.00     0.054 C 
BRANCH  13  14
ATOM     14  C   UNL     1      18.178  -0.838  -5.480  1.00  0.00    -0.027 C 
ATOM     15  C   UNL     1      19.382  -0.635  -4.925  1.00  0.00    -0.031 C 
BRANCH  15  16
ATOM     16  C   UNL     1      20.393   0.292  -5.546  1.00  0.00     0.027 C 
BRANCH  16  17
ATOM     17  C   UNL     1      20.813   1.400  -4.571  1.00  0.00     0.004 C 
BRANCH  17  18
ATOM     18  C   UNL     1      21.977   0.962  -3.664  1.00  0.00     0.000 C 
BRANCH  18  19
ATOM     19  C   UNL     1      21.812   1.451  -2.217  1.00  0.00    -0.003 C 
ATOM     20  C   UNL     1      21.178   2.840  -2.130  1.00  0.00     0.004 C 
ENDBRANCH  18  19
ENDBRANCH  17  18
ENDBRANCH  16  17
ENDBRANCH  15  16
ENDBRANCH  13  14
ENDBRANCH  12  13
ENDBRANCH   1  11
TORSDOF 14
ENDMDL
MODEL 2
REMARK VINA RESULT:    -4.326      4.951      9.193
REMARK INTER + INTRA:          -8.975
REMARK INTER:                  -7.756
REMARK INTRA:                  -1.219
REMARK UNBOUND:                -1.108
REMARK SMILES CCCCCC=CCC=CCCCCCCCC(=O)[O-]
REMARK SMILES IDX 11 1 12 2 13 3 14 4 15 5 16 6 17 7 18 8 19 9 20 10 10 11
REMARK SMILES IDX 9 12 8 13 7 14 6 15 5 16 4 17 3 18 2 19 1 20
REMARK H PARENT
REMARK Flexibility Score: inf
ROOT
ATOM      1  C   UNL     1      20.347   0.842  -6.022  1.00  0.00     0.027 C 
ENDROOT
BRANCH   1   2
ATOM      2  C   UNL     1      20.730   1.885  -4.962  1.00  0.00     0.004 C 
BRANCH   2   3
ATOM      3  C   UNL     1      22.031   1.520  -4.232  1.00  0.00     0.000 C 
BRANCH   3   4
ATOM      4  C   UNL     1      21.823   1.504  -2.713  1.00  0.00     0.000 C 
BRANCH   4   5
ATOM      5  C   UNL     1      21.027   2.735  -2.253  1.00  0.00     0.000 C 
BRANCH   5   6
ATOM      6  C   UNL     1      21.886   4.011  -2.189  1.00  0.00     0.006 C 
BRANCH   6   7
ATOM      7  C   UNL     1      21.110   5.310  -2.461  1.00  0.00     0.053 C 
BRANCH   7   8
ATOM      8  C   UNL     1      20.927   6.126  -1.218  1.00  0.00     0.041 C 
ATOM      9  O   UNL     1      19.774   6.313  -0.748  1.00  0.00    -0.550 OA
ATOM     10  O   UNL     1      22.026   6.708  -0.599  1.00  0.00    -0.550 OA
ENDBRANCH   7   8
ENDBRANCH   6   7
ENDBRANCH   5   6
ENDBRANCH   4   5
ENDBRANCH   3   4
ENDBRANCH   2   3
ENDBRANCH   1   2
BRANCH   1  11
ATOM     11  C   UNL     1      20.587  -0.569  -5.543  1.00  0.00    -0.031 C 
ATOM     12  C   UNL     1      19.619  -1.489  -5.373  1.00  0.00    -0.027 C 
BRANCH  12  13
ATOM     13  C   UNL     1      18.165  -1.239  -5.686  1.00  0.00     0.054 C 
BRANCH  13  14
ATOM     14  C   UNL     1      17.272  -1.905  -4.676  1.00  0.00    -0.027 C 
ATOM     15  C   UNL     1      17.755  -2.356  -3.509  1.00  0.00    -0.031 C 
BRANCH  15  16
ATOM     16  C   UNL     1      16.862  -2.981  -2.471  1.00  0.00     0.027 C 
BRANCH  16  17
ATOM     17  C   UNL     1      15.502  -3.376  -3.064  1.00  0.00     0.004 C 
BRANCH  17  18
ATOM     18  C   UNL     1      15.016  -4.738  -2.537  1.00  0.00     0.000 C 
BRANCH  18  19
ATOM     19  C   UNL     1      15.096  -5.843  -3.602  1.00  0.00    -0.003 C 
ATOM     20  C   UNL     1      16.454  -6.544  -3.626  1.00  0.00     0.004 C 
ENDBRANCH  18  19
ENDBRANCH  17  18
ENDBRANCH  16  17
ENDBRANCH  15  16
ENDBRANCH  13  14
ENDBRANCH  12  13
ENDBRANCH   1  11
TORSDOF 14
ENDMDL
MODEL 3
REMARK VINA RESULT:    -4.315      9.909     13.176
REMARK INTER + INTRA:          -8.955
REMARK INTER:                  -6.237
REMARK INTRA:                  -2.718
REMARK UNBOUND:                -1.108
REMARK SMILES CCCCCC=CCC=CCCCCCCCC(=O)[O-]
REMARK SMILES IDX 11 1 12 2 13 3 14 4 15 5 16 6 17 7 18 8 19 9 20 10 10 11
REMARK SMILES IDX 9 12 8 13 7 14 6 15 5 16 4 17 3 18 2 19 1 20
REMARK H PARENT
REMARK Flexibility Score: inf
ROOT
ATOM      1  C   UNL     1      32.993  -1.470   0.636  1.00  0.00     0.027 C 
ENDROOT
BRANCH   1   2
ATOM      2  C   UNL     1      32.924  -2.962   0.993  1.00  0.00     0.004 C 
BRANCH   2   3
ATOM      3  C   UNL     1      31.648  -3.628   0.458  1.00  0.00     0.000 C 
BRANCH   3   4
ATOM      4  C   UNL     1      30.395  -2.910   0.975  1.00  0.00     0.000 C 
BRANCH   4   5
ATOM      5  C   UNL     1      29.575  -2.330  -0.187  1.00  0.00     0.000 C 
BRANCH   5   6
ATOM      6  C   UNL     1      28.606  -1.220   0.262  1.00  0.00     0.006 C 
BRANCH   6   7
ATOM      7  C   UNL     1      27.303  -1.151  -0.550  1.00  0.00     0.053 C 
BRANCH   7   8
ATOM      8  C   UNL     1      26.095  -1.393   0.303  1.00  0.00     0.041 C 
ATOM      9  O   UNL     1      25.958  -2.487   0.910  1.00  0.00    -0.550 OA
ATOM     10  O   UNL     1      25.106  -0.422   0.400  1.00  0.00    -0.550 OA
ENDBRANCH   7   8
ENDBRANCH   6   7
ENDBRANCH   5   6
ENDBRANCH   4   5
ENDBRANCH   3   4
ENDBRANCH   2   3
ENDBRANCH   1   2
BRANCH   1  11
ATOM     11  C   UNL     1      33.221  -1.249  -0.840  1.00  0.00    -0.031 C 
ATOM     12  C   UNL     1      32.596  -0.309  -1.573  1.00  0.00    -0.027 C 
BRANCH  12  13
ATOM     13  C   UNL     1      31.614   0.682  -0.999  1.00  0.00     0.054 C 
BRANCH  13  14
ATOM     14  C   UNL     1      30.580   1.070  -2.018  1.00  0.00    -0.027 C 
ATOM     15  C   UNL     1      30.062   0.168  -2.865  1.00  0.00    -0.031 C 
BRANCH  15  16
ATOM     16  C   UNL     1      28.991   0.536  -3.857  1.00  0.00     0.027 C 
BRANCH  16  17
ATOM     17  C   UNL     1      28.222   1.787  -3.415  1.00  0.00     0.004 C 
BRANCH  17  18
ATOM     18  C   UNL     1      26.736   1.489  -3.149  1.00  0.00     0.000 C 
BRANCH  18  19
ATOM     19  C   UNL     1      26.235   2.115  -1.839  1.00  0.00    -0.003 C 
ATOM     20  C   UNL     1      27.373   2.614  -0.949  1.00  0.00     0.004 C 
ENDBRANCH  18  19
ENDBRANCH  17  18
ENDBRANCH  16  17
ENDBRANCH  15  16
ENDBRANCH  13  14
ENDBRANCH  12  13
ENDBRANCH   1  11
TORSDOF 14
ENDMDL
MODEL 4
REMARK VINA RESULT:    -4.283      4.853      6.558
REMARK INTER + INTRA:          -8.896
REMARK INTER:                  -8.221
REMARK INTRA:                  -0.675
REMARK UNBOUND:                -1.108
REMARK SMILES CCCCCC=CCC=CCCCCCCCC(=O)[O-]
REMARK SMILES IDX 11 1 12 2 13 3 14 4 15 5 16 6 17 7 18 8 19 9 20 10 10 11
REMARK SMILES IDX 9 12 8 13 7 14 6 15 5 16 4 17 3 18 2 19 1 20
REMARK H PARENT
REMARK Flexibility Score: inf
ROOT
ATOM      1  C   UNL     1      15.015  -3.133   1.737  1.00  0.00     0.027 C 
ENDROOT
BRANCH   1   2
ATOM      2  C   UNL     1      14.146  -3.007   2.997  1.00  0.00     0.004 C 
BRANCH   2   3
ATOM      3  C   UNL     1      13.877  -1.542   3.372  1.00  0.00     0.000 C 
BRANCH   3   4
ATOM      4  C   UNL     1      14.055  -1.318   4.879  1.00  0.00     0.000 C 
BRANCH   4   5
ATOM      5  C   UNL     1      14.607   0.087   5.164  1.00  0.00     0.000 C 
BRANCH   5   6
ATOM      6  C   UNL     1      14.842   0.343   6.664  1.00  0.00     0.006 C 
BRANCH   6   7
ATOM      7  C   UNL     1      15.965   1.348   6.966  1.00  0.00     0.053 C 
BRANCH   7   8
ATOM      8  C   UNL     1      15.437   2.733   7.182  1.00  0.00     0.041 C 
ATOM      9  O   UNL     1      15.645   3.327   8.272  1.00  0.00    -0.550 OA
ATOM     10  O   UNL     1      14.685   3.353   6.192  1.00  0.00    -0.550 OA
ENDBRANCH   7   8
ENDBRANCH   6   7
ENDBRANCH   5   6
ENDBRANCH   4   5
ENDBRANCH   3   4
ENDBRANCH   2   3
ENDBRANCH   1   2
BRANCH   1  11
ATOM     11  C   UNL     1      14.418  -4.086   0.729  1.00  0.00    -0.031 C 
ATOM     12  C   UNL     1      15.121  -4.713  -0.232  1.00  0.00    -0.027 C 
BRANCH  12  13
ATOM     13  C   UNL     1      16.614  -4.579  -0.398  1.00  0.00     0.054 C 
BRANCH  13  14
ATOM     14  C   UNL     1      16.954  -3.882  -1.685  1.00  0.00    -0.027 C 
ATOM     15  C   UNL     1      16.061  -3.782  -2.681  1.00  0.00    -0.031 C 
BRANCH  15  16
ATOM     16  C   UNL     1      16.375  -3.044  -3.955  1.00  0.00     0.027 C 
BRANCH  16  17
ATOM     17  C   UNL     1      17.718  -2.307  -3.861  1.00  0.00     0.004 C 
BRANCH  17  18
ATOM     18  C   UNL     1      17.850  -1.207  -4.929  1.00  0.00     0.000 C 
BRANCH  18  19
ATOM     19  C   UNL     1      19.274  -0.637  -5.015  1.00  0.00    -0.003 C 
ATOM     20  C   UNL     1      20.244  -1.575  -5.733  1.00  0.00     0.004 C 
ENDBRANCH  18  19
ENDBRANCH  17  18
ENDBRANCH  16  17
ENDBRANCH  15  16
ENDBRANCH  13  14
ENDBRANCH  12  13
ENDBRANCH   1  11
TORSDOF 14
ENDMDL
MODEL 5
REMARK VINA RESULT:    -4.263      9.014     11.757
REMARK INTER + INTRA:          -8.861
REMARK INTER:                  -6.074
REMARK INTRA:                  -2.787
REMARK UNBOUND:                -1.108
REMARK SMILES CCCCCC=CCC=CCCCCCCCC(=O)[O-]
REMARK SMILES IDX 11 1 12 2 13 3 14 4 15 5 16 6 17 7 18 8 19 9 20 10 10 11
REMARK SMILES IDX 9 12 8 13 7 14 6 15 5 16 4 17 3 18 2 19 1 20
REMARK H PARENT
REMARK Flexibility Score: inf
ROOT
ATOM      1  C   UNL     1      26.791   3.546  -2.726  1.00  0.00     0.027 C 
ENDROOT
BRANCH   1   2
ATOM      2  C   UNL     1      25.334   3.245  -3.109  1.00  0.00     0.004 C 
BRANCH   2   3
ATOM      3  C   UNL     1      25.208   1.963  -3.945  1.00  0.00     0.000 C 
BRANCH   3   4
ATOM      4  C   UNL     1      24.956   0.744  -3.049  1.00  0.00     0.000 C 
BRANCH   4   5
ATOM      5  C   UNL     1      26.143  -0.230  -3.100  1.00  0.00     0.000 C 
BRANCH   5   6
ATOM      6  C   UNL     1      26.401  -0.928  -1.752  1.00  0.00     0.006 C 
BRANCH   6   7
ATOM      7  C   UNL     1      25.769  -0.221  -0.542  1.00  0.00     0.053 C 
BRANCH   7   8
ATOM      8  C   UNL     1      25.556  -1.157   0.608  1.00  0.00     0.041 C 
ATOM      9  O   UNL     1      26.428  -2.020   0.892  1.00  0.00    -0.550 OA
ATOM     10  O   UNL     1      24.379  -1.100   1.344  1.00  0.00    -0.550 OA
ENDBRANCH   7   8
ENDBRANCH   6   7
ENDBRANCH   5   6
ENDBRANCH   4   5
ENDBRANCH   3   4
ENDBRANCH   2   3
ENDBRANCH   1   2
BRANCH   1  11
ATOM     11  C   UNL     1      27.073   3.232  -1.277  1.00  0.00    -0.031 C 
ATOM     12  C   UNL     1      28.116   2.498  -0.848  1.00  0.00    -0.027 C 
BRANCH  12  13
ATOM     13  C   UNL     1      29.171   1.930  -1.764  1.00  0.00     0.054 C 
BRANCH  13  14
ATOM     14  C   UNL     1      29.884   0.776  -1.118  1.00  0.00    -0.027 C 
ATOM     15  C   UNL     1      29.420   0.211   0.007  1.00  0.00    -0.031 C 
BRANCH  15  16
ATOM     16  C   UNL     1      30.100  -0.975   0.636  1.00  0.00     0.027 C 
BRANCH  16  17
ATOM     17  C   UNL     1      29.734  -2.280  -0.084  1.00  0.00     0.004 C 
BRANCH  17  18
ATOM     18  C   UNL     1      30.868  -2.771  -1.002  1.00  0.00     0.000 C 
BRANCH  18  19
ATOM     19  C   UNL     1      30.341  -3.461  -2.269  1.00  0.00    -0.003 C 
ATOM     20  C   UNL     1      29.578  -2.508  -3.189  1.00  0.00     0.004 C 
ENDBRANCH  18  19
ENDBRANCH  17  18
ENDBRANCH  16  17
ENDBRANCH  15  16
ENDBRANCH  13  14
ENDBRANCH  12  13
ENDBRANCH   1  11
TORSDOF 14
ENDMDL
MODEL 6
REMARK VINA RESULT:    -4.260      1.821      3.098
REMARK INTER + INTRA:          -8.855
REMARK INTER:                  -7.672
REMARK INTRA:                  -1.183
REMARK UNBOUND:                -1.108
REMARK SMILES CCCCCC=CCC=CCCCCCCCC(=O)[O-]
REMARK SMILES IDX 11 1 12 2 13 3 14 4 15 5 16 6 17 7 18 8 19 9 20 10 10 11
REMARK SMILES IDX 9 12 8 13 7 14 6 15 5 16 4 17 3 18 2 19 1 20
REMARK H PARENT
REMARK Flexibility Score: inf
ROOT
ATOM      1  C   UNL     1      17.838  -2.576  -4.109  1.00  0.00     0.027 C 
ENDROOT
BRANCH   1   2
ATOM      2  C   UNL     1      16.617  -3.096  -3.336  1.00  0.00     0.004 C 
BRANCH   2   3
ATOM      3  C   UNL     1      15.358  -3.159  -4.213  1.00  0.00     0.000 C 
BRANCH   3   4
ATOM      4  C   UNL     1      14.953  -4.613  -4.490  1.00  0.00     0.000 C 
BRANCH   4   5
ATOM      5  C   UNL     1      15.597  -5.567  -3.472  1.00  0.00     0.000 C 
BRANCH   5   6
ATOM      6  C   UNL     1      14.585  -6.127  -2.457  1.00  0.00     0.006 C 
BRANCH   6   7
ATOM      7  C   UNL     1      14.371  -5.240  -1.220  1.00  0.00     0.053 C 
BRANCH   7   8
ATOM      8  C   UNL     1      15.341  -5.562  -0.124  1.00  0.00     0.041 C 
ATOM      9  O   UNL     1      15.000  -6.321   0.821  1.00  0.00    -0.550 OA
ATOM     10  O   UNL     1      16.609  -4.995  -0.128  1.00  0.00    -0.550 OA
ENDBRANCH   7   8
ENDBRANCH   6   7
ENDBRANCH   5   6
ENDBRANCH   4   5
ENDBRANCH   3   4
ENDBRANCH   2   3
ENDBRANCH   1   2
BRANCH   1  11
ATOM     11  C   UNL     1      17.444  -1.650  -5.235  1.00  0.00    -0.031 C 
ATOM     12  C   UNL     1      18.316  -1.047  -6.064  1.00  0.00    -0.027 C 
BRANCH  12  13
ATOM     13  C   UNL     1      19.809  -1.258  -6.003  1.00  0.00     0.054 C 
BRANCH  13  14
ATOM     14  C   UNL     1      20.529   0.039  -5.767  1.00  0.00    -0.027 C 
ATOM     15  C   UNL     1      21.234   0.252  -4.646  1.00  0.00    -0.031 C 
BRANCH  15  16
ATOM     16  C   UNL     1      21.999   1.529  -4.422  1.00  0.00     0.027 C 
BRANCH  16  17
ATOM     17  C   UNL     1      22.580   1.595  -3.003  1.00  0.00     0.004 C 
BRANCH  17  18
ATOM     18  C   UNL     1      21.579   2.188  -1.995  1.00  0.00     0.000 C 
BRANCH  18  19
ATOM     19  C   UNL     1      21.007   3.536  -2.459  1.00  0.00    -0.003 C 
ATOM     20  C   UNL     1      22.013   4.680  -2.336  1.00  0.00     0.004 C 
ENDBRANCH  18  19
ENDBRANCH  17  18
ENDBRANCH  16  17
ENDBRANCH  15  16
ENDBRANCH  13  14
ENDBRANCH  12  13
ENDBRANCH   1  11
TORSDOF 14
ENDMDL
MODEL 7
REMARK VINA RESULT:    -4.243      4.902      9.253
REMARK INTER + INTRA:          -8.824
REMARK INTER:                  -7.957
REMARK INTRA:                  -0.867
REMARK UNBOUND:                -1.108
REMARK SMILES CCCCCC=CCC=CCCCCCCCC(=O)[O-]
REMARK SMILES IDX 11 1 12 2 13 3 14 4 15 5 16 6 17 7 18 8 19 9 20 10 10 11
REMARK SMILES IDX 9 12 8 13 7 14 6 15 5 16 4 17 3 18 2 19 1 20
REMARK H PARENT
REMARK Flexibility Score: inf
ROOT
ATOM      1  C   UNL     1      19.897  -0.517  -4.923  1.00  0.00     0.027 C 
ENDROOT
BRANCH   1   2
ATOM      2  C   UNL     1      20.582   0.672  -5.613  1.00  0.00     0.004 C 
BRANCH   2   3
ATOM      3  C   UNL     1      20.789   1.857  -4.659  1.00  0.00     0.000 C 
BRANCH   3   4
ATOM      4  C   UNL     1      21.339   1.384  -3.307  1.00  0.00     0.000 C 
BRANCH   4   5
ATOM      5  C   UNL     1      21.384   2.541  -2.297  1.00  0.00     0.000 C 
BRANCH   5   6
ATOM      6  C   UNL     1      21.397   3.924  -2.974  1.00  0.00     0.006 C 
BRANCH   6   7
ATOM      7  C   UNL     1      20.935   5.077  -2.068  1.00  0.00     0.053 C 
BRANCH   7   8
ATOM      8  C   UNL     1      22.082   5.921  -1.604  1.00  0.00     0.041 C 
ATOM      9  O   UNL     1      21.979   6.605  -0.553  1.00  0.00    -0.550 OA
ATOM     10  O   UNL     1      23.251   5.979  -2.352  1.00  0.00    -0.550 OA
ENDBRANCH   7   8
ENDBRANCH   6   7
ENDBRANCH   5   6
ENDBRANCH   4   5
ENDBRANCH   3   4
ENDBRANCH   2   3
ENDBRANCH   1   2
BRANCH   1  11
ATOM     11  C   UNL     1      18.621  -0.921  -5.623  1.00  0.00    -0.031 C 
ATOM     12  C   UNL     1      17.649  -1.663  -5.061  1.00  0.00    -0.027 C 
BRANCH  12  13
ATOM     13  C   UNL     1      17.689  -2.152  -3.634  1.00  0.00     0.054 C 
BRANCH  13  14
ATOM     14  C   UNL     1      16.891  -3.415  -3.473  1.00  0.00    -0.027 C 
ATOM     15  C   UNL     1      17.254  -4.361  -2.593  1.00  0.00    -0.031 C 
BRANCH  15  16
ATOM     16  C   UNL     1      16.436  -5.608  -2.389  1.00  0.00     0.027 C 
BRANCH  16  17
ATOM     17  C   UNL     1      15.476  -5.462  -1.201  1.00  0.00     0.004 C 
BRANCH  17  18
ATOM     18  C   UNL     1      16.056  -4.560  -0.097  1.00  0.00     0.000 C 
BRANCH  18  19
ATOM     19  C   UNL     1      15.087  -3.442   0.319  1.00  0.00    -0.003 C 
ATOM     20  C   UNL     1      15.067  -3.207   1.829  1.00  0.00     0.004 C 
ENDBRANCH  18  19
ENDBRANCH  17  18
ENDBRANCH  16  17
ENDBRANCH  15  16
ENDBRANCH  13  14
ENDBRANCH  12  13
ENDBRANCH   1  11
TORSDOF 14
ENDMDL
MODEL 8
REMARK VINA RESULT:    -4.163     10.634     14.271
REMARK INTER + INTRA:          -8.678
REMARK INTER:                  -6.405
REMARK INTRA:                  -2.273
REMARK UNBOUND:                -1.108
REMARK SMILES CCCCCC=CCC=CCCCCCCCC(=O)[O-]
REMARK SMILES IDX 11 1 12 2 13 3 14 4 15 5 16 6 17 7 18 8 19 9 20 10 10 11
REMARK SMILES IDX 9 12 8 13 7 14 6 15 5 16 4 17 3 18 2 19 1 20
REMARK H PARENT
REMARK Flexibility Score: inf
ROOT
ATOM      1  C   UNL     1      33.061  -1.292   0.634  1.00  0.00     0.027 C 
ENDROOT
BRANCH   1   2
ATOM      2  C   UNL     1      32.830  -1.067  -0.867  1.00  0.00     0.004 C 
BRANCH   2   3
ATOM      3  C   UNL     1      31.499  -0.354  -1.148  1.00  0.00     0.000 C 
BRANCH   3   4
ATOM      4  C   UNL     1      30.891   0.206   0.144  1.00  0.00     0.000 C 
BRANCH   4   5
ATOM      5  C   UNL     1      29.414  -0.193   0.274  1.00  0.00     0.000 C 
BRANCH   5   6
ATOM      6  C   UNL     1      28.981  -1.231  -0.777  1.00  0.00     0.006 C 
BRANCH   6   7
ATOM      7  C   UNL     1      27.501  -1.141  -1.185  1.00  0.00     0.053 C 
BRANCH   7   8
ATOM      8  C   UNL     1      26.595  -1.059   0.005  1.00  0.00     0.041 C 
ATOM      9  O   UNL     1      25.814  -0.080   0.141  1.00  0.00    -0.550 OA
ATOM     10  O   UNL     1      26.636  -2.047   0.981  1.00  0.00    -0.550 OA
ENDBRANCH   7   8
ENDBRANCH   6   7
ENDBRANCH   5   6
ENDBRANCH   4   5
ENDBRANCH   3   4
ENDBRANCH   2   3
ENDBRANCH   1   2
BRANCH   1  11
ATOM     11  C   UNL     1      33.687  -2.637   0.917  1.00  0.00    -0.031 C 
ATOM     12  C   UNL     1      32.999  -3.734   1.284  1.00  0.00    -0.027 C 
BRANCH  12  13
ATOM     13  C   UNL     1      31.497  -3.772   1.418  1.00  0.00     0.054 C 
BRANCH  13  14
ATOM     14  C   UNL     1      30.841  -3.993   0.084  1.00  0.00    -0.027 C 
ATOM     15  C   UNL     1      31.510  -4.544  -0.940  1.00  0.00    -0.031 C 
BRANCH  15  16
ATOM     16  C   UNL     1      30.849  -4.814  -2.264  1.00  0.00     0.027 C 
BRANCH  16  17
ATOM     17  C   UNL     1      30.435  -3.512  -2.963  1.00  0.00     0.004 C 
BRANCH  17  18
ATOM     18  C   UNL     1      29.379  -3.752  -4.056  1.00  0.00     0.000 C 
BRANCH  18  19
ATOM     19  C   UNL     1      28.989  -5.233  -4.182  1.00  0.00    -0.003 C 
ATOM     20  C   UNL     1      27.665  -5.436  -4.917  1.00  0.00     0.004 C 
ENDBRANCH  18  19
ENDBRANCH  17  18
ENDBRANCH  16  17
ENDBRANCH  15  16
ENDBRANCH  13  14
ENDBRANCH  12  13
ENDBRANCH   1  11
TORSDOF 14
ENDMDL
MODEL 9
REMARK VINA RESULT:    -4.104     11.416     14.483
REMARK INTER + INTRA:          -8.570
REMARK INTER:                  -5.655
REMARK INTRA:                  -2.915
REMARK UNBOUND:                -1.108
REMARK SMILES CCCCCC=CCC=CCCCCCCCC(=O)[O-]
REMARK SMILES IDX 11 1 12 2 13 3 14 4 15 5 16 6 17 7 18 8 19 9 20 10 10 11
REMARK SMILES IDX 9 12 8 13 7 14 6 15 5 16 4 17 3 18 2 19 1 20
REMARK H PARENT
REMARK Flexibility Score: inf
ROOT
ATOM      1  C   UNL     1      31.046  -3.745   0.301  1.00  0.00     0.027 C 
ENDROOT
BRANCH   1   2
ATOM      2  C   UNL     1      30.015  -3.489   1.411  1.00  0.00     0.004 C 
BRANCH   2   3
ATOM      3  C   UNL     1      29.090  -2.308   1.082  1.00  0.00     0.000 C 
BRANCH   3   4
ATOM      4  C   UNL     1      29.604  -1.528  -0.135  1.00  0.00     0.000 C 
BRANCH   4   5
ATOM      5  C   UNL     1      29.753  -0.035   0.193  1.00  0.00     0.000 C 
BRANCH   5   6
ATOM      6  C   UNL     1      29.582   0.866  -1.044  1.00  0.00     0.006 C 
BRANCH   6   7
ATOM      7  C   UNL     1      28.136   0.974  -1.554  1.00  0.00     0.053 C 
BRANCH   7   8
ATOM      8  C   UNL     1      27.165   1.227  -0.442  1.00  0.00     0.041 C 
ATOM      9  O   UNL     1      27.203   2.312   0.196  1.00  0.00    -0.550 OA
ATOM     10  O   UNL     1      26.241   0.252  -0.089  1.00  0.00    -0.550 OA
ENDBRANCH   7   8
ENDBRANCH   6   7
ENDBRANCH   5   6
ENDBRANCH   4   5
ENDBRANCH   3   4
ENDBRANCH   2   3
ENDBRANCH   1   2
BRANCH   1  11
ATOM     11  C   UNL     1      32.417  -4.045   0.858  1.00  0.00    -0.031 C 
ATOM     12  C   UNL     1      33.397  -3.133   0.996  1.00  0.00    -0.027 C 
BRANCH  12  13
ATOM     13  C   UNL     1      33.235  -1.673   0.653  1.00  0.00     0.054 C 
BRANCH  13  14
ATOM     14  C   UNL     1      33.502  -1.428  -0.806  1.00  0.00    -0.027 C 
ATOM     15  C   UNL     1      32.980  -0.368  -1.441  1.00  0.00    -0.031 C 
BRANCH  15  16
ATOM     16  C   UNL     1      33.280  -0.087  -2.889  1.00  0.00     0.027 C 
BRANCH  16  17
ATOM     17  C   UNL     1      32.723  -1.187  -3.802  1.00  0.00     0.004 C 
BRANCH  17  18
ATOM     18  C   UNL     1      31.192  -1.305  -3.699  1.00  0.00     0.000 C 
BRANCH  18  19
ATOM     19  C   UNL     1      30.731  -2.742  -3.412  1.00  0.00    -0.003 C 
ATOM     20  C   UNL     1      31.895  -3.727  -3.304  1.00  0.00     0.004 C 
ENDBRANCH  18  19
ENDBRANCH  17  18
ENDBRANCH  16  17
ENDBRANCH  15  16
ENDBRANCH  13  14
ENDBRANCH  12  13
ENDBRANCH   1  11
TORSDOF 14
ENDMDL
