MODEL 1
REMARK VINA RESULT:    -4.034      0.000      0.000
REMARK INTER + INTRA:          -4.034
REMARK INTER:                  -4.034
REMARK INTRA:                   0.000
REMARK UNBOUND:                 0.000
REMARK SMILES C=C1[C@@H]2CC[C@@H](C2)C1(C)C
REMARK SMILES IDX 9 1 8 2 6 3 5 4 4 5 3 6 7 7 2 8 1 9 10 10
REMARK H PARENT
REMARK Flexibility Score: inf
ROOT
ATOM      1  C   UNL     1      29.280  11.100  32.460  1.00  0.00     0.016 C 
ATOM      2  C   UNL     1      30.791  10.900  32.201  1.00  0.00    -0.012 C 
ATOM      3  C   UNL     1      31.680  11.031  33.488  1.00  0.00    -0.001 C 
ATOM      4  C   UNL     1      31.107  10.186  34.652  1.00  0.00     0.005 C 
ATOM      5  C   UNL     1      31.324   8.738  34.164  1.00  0.00     0.008 C 
ATOM      6  C   UNL     1      32.088   8.930  32.842  1.00  0.00     0.015 C 
ATOM      7  C   UNL     1      32.894  10.176  33.139  1.00  0.00     0.012 C 
ATOM      8  C   UNL     1      31.113   9.472  31.831  1.00  0.00    -0.068 C 
ATOM      9  C   UNL     1      30.589   8.775  30.816  1.00  0.00     0.008 C 
ATOM     10  C   UNL     1      31.247  11.885  31.102  1.00  0.00     0.016 C 
ENDROOT
TORSDOF 0
ENDMDL
MODEL 2
REMARK VINA RESULT:    -3.843      0.776      2.352
REMARK INTER + INTRA:          -3.843
REMARK INTER:                  -3.843
REMARK INTRA:                   0.000
REMARK UNBOUND:                 0.000
REMARK SMILES C=C1[C@@H]2CC[C@@H](C2)C1(C)C
REMARK SMILES IDX 9 1 8 2 6 3 5 4 4 5 3 6 7 7 2 8 1 9 10 10
REMARK H PARENT
REMARK Flexibility Score: inf
ROOT
ATOM      1  C   UNL     1      30.475   9.565  30.683  1.00  0.00     0.016 C 
ATOM      2  C   UNL     1      30.359  10.434  31.956  1.00  0.00    -0.012 C 
ATOM      3  C   UNL     1      30.607   9.645  33.290  1.00  0.00    -0.001 C 
ATOM      4  C   UNL     1      31.896   8.794  33.205  1.00  0.00     0.005 C 
ATOM      5  C   UNL     1      33.011   9.861  33.161  1.00  0.00     0.008 C 
ATOM      6  C   UNL     1      32.234  11.178  33.337  1.00  0.00     0.015 C 
ATOM      7  C   UNL     1      31.098  10.738  34.234  1.00  0.00     0.012 C 
ATOM      8  C   UNL     1      31.485  11.435  32.057  1.00  0.00    -0.068 C 
ATOM      9  C   UNL     1      31.809  12.361  31.148  1.00  0.00     0.008 C 
ATOM     10  C   UNL     1      28.980  11.131  31.966  1.00  0.00     0.016 C 
ENDROOT
TORSDOF 0
ENDMDL
MODEL 3
REMARK VINA RESULT:    -3.733      1.654      2.489
REMARK INTER + INTRA:          -3.733
REMARK INTER:                  -3.733
REMARK INTRA:                   0.000
REMARK UNBOUND:                 0.000
REMARK SMILES C=C1[C@@H]2CC[C@@H](C2)C1(C)C
REMARK SMILES IDX 9 1 8 2 6 3 5 4 4 5 3 6 7 7 2 8 1 9 10 10
REMARK H PARENT
REMARK Flexibility Score: inf
ROOT
ATOM      1  C   UNL     1      30.048  10.131  33.557  1.00  0.00     0.016 C 
ATOM      2  C   UNL     1      31.205   9.174  33.187  1.00  0.00    -0.012 C 
ATOM      3  C   UNL     1      31.386   7.978  34.187  1.00  0.00    -0.001 C 
ATOM      4  C   UNL     1      30.035   7.278  34.471  1.00  0.00     0.005 C 
ATOM      5  C   UNL     1      29.698   6.617  33.117  1.00  0.00     0.008 C 
ATOM      6  C   UNL     1      30.942   6.926  32.265  1.00  0.00     0.015 C 
ATOM      7  C   UNL     1      32.035   6.911  33.311  1.00  0.00     0.012 C 
ATOM      8  C   UNL     1      30.908   8.393  31.930  1.00  0.00    -0.068 C 
ATOM      9  C   UNL     1      30.608   8.902  30.729  1.00  0.00     0.008 C 
ATOM     10  C   UNL     1      32.509   9.992  33.049  1.00  0.00     0.016 C 
ENDROOT
TORSDOF 0
ENDMDL
MODEL 4
REMARK VINA RESULT:    -3.664      2.689      4.512
REMARK INTER + INTRA:          -3.664
REMARK INTER:                  -3.664
REMARK INTRA:                   0.000
REMARK UNBOUND:                 0.000
REMARK SMILES C=C1[C@@H]2CC[C@@H](C2)C1(C)C
REMARK SMILES IDX 9 1 8 2 6 3 5 4 4 5 3 6 7 7 2 8 1 9 10 10
REMARK H PARENT
REMARK Flexibility Score: inf
ROOT
ATOM      1  C   UNL     1      29.474   9.378  36.358  1.00  0.00     0.016 C 
ATOM      2  C   UNL     1      30.790   8.570  36.407  1.00  0.00    -0.012 C 
ATOM      3  C   UNL     1      30.648   7.163  37.088  1.00  0.00    -0.001 C 
ATOM      4  C   UNL     1      29.435   6.387  36.521  1.00  0.00     0.005 C 
ATOM      5  C   UNL     1      29.867   6.085  35.070  1.00  0.00     0.008 C 
ATOM      6  C   UNL     1      31.308   6.623  35.021  1.00  0.00     0.015 C 
ATOM      7  C   UNL     1      31.773   6.365  36.438  1.00  0.00     0.012 C 
ATOM      8  C   UNL     1      31.229   8.126  35.031  1.00  0.00    -0.068 C 
ATOM      9  C   UNL     1      31.458   8.917  33.976  1.00  0.00     0.008 C 
ATOM     10  C   UNL     1      31.878   9.421  37.100  1.00  0.00     0.016 C 
ENDROOT
TORSDOF 0
ENDMDL
MODEL 5
REMARK VINA RESULT:    -3.641      1.251      2.307
REMARK INTER + INTRA:          -3.641
REMARK INTER:                  -3.641
REMARK INTRA:                   0.000
REMARK UNBOUND:                 0.000
REMARK SMILES C=C1[C@@H]2CC[C@@H](C2)C1(C)C
REMARK SMILES IDX 9 1 8 2 6 3 5 4 4 5 3 6 7 7 2 8 1 9 10 10
REMARK H PARENT
REMARK Flexibility Score: inf
ROOT
ATOM      1  C   UNL     1      30.803  10.016  31.967  1.00  0.00     0.016 C 
ATOM      2  C   UNL     1      31.637   9.811  33.252  1.00  0.00    -0.012 C 
ATOM      3  C   UNL     1      31.018  10.486  34.526  1.00  0.00    -0.001 C 
ATOM      4  C   UNL     1      29.516  10.138  34.669  1.00  0.00     0.005 C 
ATOM      5  C   UNL     1      29.542   8.628  34.990  1.00  0.00     0.008 C 
ATOM      6  C   UNL     1      31.047   8.325  35.100  1.00  0.00     0.015 C 
ATOM      7  C   UNL     1      31.576   9.628  35.658  1.00  0.00     0.012 C 
ATOM      8  C   UNL     1      31.620   8.372  33.709  1.00  0.00    -0.068 C 
ATOM      9  C   UNL     1      31.994   7.306  32.993  1.00  0.00     0.008 C 
ATOM     10  C   UNL     1      33.079  10.307  33.000  1.00  0.00     0.016 C 
ENDROOT
TORSDOF 0
ENDMDL
MODEL 6
REMARK VINA RESULT:    -3.618      2.861      4.674
REMARK INTER + INTRA:          -3.618
REMARK INTER:                  -3.618
REMARK INTRA:                   0.000
REMARK UNBOUND:                 0.000
REMARK SMILES C=C1[C@@H]2CC[C@@H](C2)C1(C)C
REMARK SMILES IDX 9 1 8 2 6 3 5 4 4 5 3 6 7 7 2 8 1 9 10 10
REMARK H PARENT
REMARK Flexibility Score: inf
ROOT
ATOM      1  C   UNL     1      31.697   6.263  36.367  1.00  0.00     0.016 C 
ATOM      2  C   UNL     1      30.578   7.243  35.949  1.00  0.00    -0.012 C 
ATOM      3  C   UNL     1      30.124   8.217  37.093  1.00  0.00    -0.001 C 
ATOM      4  C   UNL     1      31.342   8.882  37.777  1.00  0.00     0.005 C 
ATOM      5  C   UNL     1      31.899   9.802  36.669  1.00  0.00     0.008 C 
ATOM      6  C   UNL     1      30.872   9.634  35.534  1.00  0.00     0.015 C 
ATOM      7  C   UNL     1      29.595   9.417  36.315  1.00  0.00     0.012 C 
ATOM      8  C   UNL     1      31.068   8.262  34.948  1.00  0.00    -0.068 C 
ATOM      9  C   UNL     1      31.634   8.003  33.763  1.00  0.00     0.008 C 
ATOM     10  C   UNL     1      29.383   6.435  35.394  1.00  0.00     0.016 C 
ENDROOT
TORSDOF 0
ENDMDL
MODEL 7
REMARK VINA RESULT:    -3.604      2.357      4.430
REMARK INTER + INTRA:          -3.604
REMARK INTER:                  -3.604
REMARK INTRA:                   0.000
REMARK UNBOUND:                 0.000
REMARK SMILES C=C1[C@@H]2CC[C@@H](C2)C1(C)C
REMARK SMILES IDX 9 1 8 2 6 3 5 4 4 5 3 6 7 7 2 8 1 9 10 10
REMARK H PARENT
REMARK Flexibility Score: inf
ROOT
ATOM      1  C   UNL     1      31.635   9.347  36.247  1.00  0.00     0.016 C 
ATOM      2  C   UNL     1      30.569   8.338  35.764  1.00  0.00    -0.012 C 
ATOM      3  C   UNL     1      30.080   8.583  34.293  1.00  0.00    -0.001 C 
ATOM      4  C   UNL     1      31.277   8.767  33.329  1.00  0.00     0.005 C 
ATOM      5  C   UNL     1      31.920   7.364  33.306  1.00  0.00     0.008 C 
ATOM      6  C   UNL     1      30.954   6.529  34.165  1.00  0.00     0.015 C 
ATOM      7  C   UNL     1      29.629   7.192  33.858  1.00  0.00     0.012 C 
ATOM      8  C   UNL     1      31.143   6.951  35.598  1.00  0.00    -0.068 C 
ATOM      9  C   UNL     1      31.767   6.230  36.537  1.00  0.00     0.008 C 
ATOM     10  C   UNL     1      29.385   8.344  36.757  1.00  0.00     0.016 C 
ENDROOT
TORSDOF 0
ENDMDL
MODEL 8
REMARK VINA RESULT:    -3.595      2.490      4.616
REMARK INTER + INTRA:          -3.595
REMARK INTER:                  -3.595
REMARK INTRA:                   0.000
REMARK UNBOUND:                 0.000
REMARK SMILES C=C1[C@@H]2CC[C@@H](C2)C1(C)C
REMARK SMILES IDX 9 1 8 2 6 3 5 4 4 5 3 6 7 7 2 8 1 9 10 10
REMARK H PARENT
REMARK Flexibility Score: inf
ROOT
ATOM      1  C   UNL     1      31.594   9.088  34.067  1.00  0.00     0.016 C 
ATOM      2  C   UNL     1      30.577   8.847  35.206  1.00  0.00    -0.012 C 
ATOM      3  C   UNL     1      29.921   7.422  35.182  1.00  0.00    -0.001 C 
ATOM      4  C   UNL     1      30.992   6.315  35.029  1.00  0.00     0.005 C 
ATOM      5  C   UNL     1      31.751   6.382  36.371  1.00  0.00     0.008 C 
ATOM      6  C   UNL     1      30.955   7.434  37.165  1.00  0.00     0.015 C 
ATOM      7  C   UNL     1      29.552   7.203  36.646  1.00  0.00     0.012 C 
ATOM      8  C   UNL     1      31.251   8.778  36.555  1.00  0.00    -0.068 C 
ATOM      9  C   UNL     1      32.028   9.719  37.105  1.00  0.00     0.008 C 
ATOM     10  C   UNL     1      29.504   9.958  35.166  1.00  0.00     0.016 C 
ENDROOT
TORSDOF 0
ENDMDL
