MODEL 1
REMARK VINA RESULT:    -3.646      0.000      0.000
REMARK INTER + INTRA:          -4.347
REMARK INTER:                  -4.286
REMARK INTRA:                  -0.061
REMARK UNBOUND:                -0.061
REMARK SMILES CCCCC(=O)[O-]
REMARK SMILES IDX 4 1 5 2 6 3 7 4 3 5 2 6 1 7
REMARK H PARENT
REMARK Flexibility Score: inf
ROOT
ATOM      1  C   UNL     1      -8.389  12.181 -31.856  1.00  0.00     0.053 C 
ENDROOT
BRANCH   1   2
ATOM      2  C   UNL     1      -7.370  12.223 -30.760  1.00  0.00     0.041 C 
ATOM      3  O   UNL     1      -6.554  11.275 -30.615  1.00  0.00    -0.550 OA
ATOM      4  O   UNL     1      -7.300  13.326 -29.917  1.00  0.00    -0.550 OA
ENDBRANCH   1   2
BRANCH   1   5
ATOM      5  C   UNL     1      -7.814  11.592 -33.154  1.00  0.00     0.006 C 
BRANCH   5   6
ATOM      6  C   UNL     1      -8.745  10.588 -33.857  1.00  0.00    -0.003 C 
ATOM      7  C   UNL     1     -10.058  10.370 -33.106  1.00  0.00     0.004 C 
ENDBRANCH   5   6
ENDBRANCH   1   5
TORSDOF 3
ENDMDL
MODEL 2
REMARK VINA RESULT:    -3.439     17.555     18.237
REMARK INTER + INTRA:          -4.103
REMARK INTER:                  -4.087
REMARK INTRA:                  -0.016
REMARK UNBOUND:                -0.061
REMARK SMILES CCCCC(=O)[O-]
REMARK SMILES IDX 4 1 5 2 6 3 7 4 3 5 2 6 1 7
REMARK H PARENT
REMARK Flexibility Score: inf
ROOT
ATOM      1  C   UNL     1     -14.840  -0.046 -19.128  1.00  0.00     0.053 C 
ENDROOT
BRANCH   1   2
ATOM      2  C   UNL     1     -14.384  -1.318 -19.775  1.00  0.00     0.041 C 
ATOM      3  O   UNL     1     -13.579  -2.081 -19.179  1.00  0.00    -0.550 OA
ATOM      4  O   UNL     1     -14.875  -1.676 -21.025  1.00  0.00    -0.550 OA
ENDBRANCH   1   2
BRANCH   1   5
ATOM      5  C   UNL     1     -14.855   1.129 -20.118  1.00  0.00     0.006 C 
BRANCH   5   6
ATOM      6  C   UNL     1     -15.219   2.483 -19.483  1.00  0.00    -0.003 C 
ATOM      7  C   UNL     1     -16.380   3.179 -20.192  1.00  0.00     0.004 C 
ENDBRANCH   5   6
ENDBRANCH   1   5
TORSDOF 3
ENDMDL
MODEL 3
REMARK VINA RESULT:    -3.422     17.653     18.344
REMARK INTER + INTRA:          -4.083
REMARK INTER:                  -4.065
REMARK INTRA:                  -0.018
REMARK UNBOUND:                -0.061
REMARK SMILES CCCCC(=O)[O-]
REMARK SMILES IDX 4 1 5 2 6 3 7 4 3 5 2 6 1 7
REMARK H PARENT
REMARK Flexibility Score: inf
ROOT
ATOM      1  C   UNL     1     -14.777  -0.287 -19.121  1.00  0.00     0.053 C 
ENDROOT
BRANCH   1   2
ATOM      2  C   UNL     1     -14.258  -1.524 -19.786  1.00  0.00     0.041 C 
ATOM      3  O   UNL     1     -14.532  -1.759 -20.992  1.00  0.00    -0.550 OA
ATOM      4  O   UNL     1     -13.444  -2.403 -19.081  1.00  0.00    -0.550 OA
ENDBRANCH   1   2
BRANCH   1   5
ATOM      5  C   UNL     1     -14.761   0.924 -20.067  1.00  0.00     0.006 C 
BRANCH   5   6
ATOM      6  C   UNL     1     -15.174   2.249 -19.401  1.00  0.00    -0.003 C 
ATOM      7  C   UNL     1     -16.219   3.018 -20.208  1.00  0.00     0.004 C 
ENDBRANCH   5   6
ENDBRANCH   1   5
TORSDOF 3
ENDMDL
MODEL 4
REMARK VINA RESULT:    -3.404     13.111     13.554
REMARK INTER + INTRA:          -4.062
REMARK INTER:                  -4.017
REMARK INTRA:                  -0.045
REMARK UNBOUND:                -0.061
REMARK SMILES CCCCC(=O)[O-]
REMARK SMILES IDX 4 1 5 2 6 3 7 4 3 5 2 6 1 7
REMARK H PARENT
REMARK Flexibility Score: inf
ROOT
ATOM      1  C   UNL     1     -13.842   5.867 -20.720  1.00  0.00     0.053 C 
ENDROOT
BRANCH   1   2
ATOM      2  C   UNL     1     -14.226   5.584 -22.140  1.00  0.00     0.041 C 
ATOM      3  O   UNL     1     -13.616   4.702 -22.798  1.00  0.00    -0.550 OA
ATOM      4  O   UNL     1     -15.280   6.275 -22.726  1.00  0.00    -0.550 OA
ENDBRANCH   1   2
BRANCH   1   5
ATOM      5  C   UNL     1     -13.013   7.155 -20.595  1.00  0.00     0.006 C 
BRANCH   5   6
ATOM      6  C   UNL     1     -13.849   8.416 -20.307  1.00  0.00    -0.003 C 
ATOM      7  C   UNL     1     -13.021   9.553 -19.712  1.00  0.00     0.004 C 
ENDBRANCH   5   6
ENDBRANCH   1   5
TORSDOF 3
ENDMDL
MODEL 5
REMARK VINA RESULT:    -3.398     16.870     17.467
REMARK INTER + INTRA:          -4.056
REMARK INTER:                  -4.034
REMARK INTRA:                  -0.022
REMARK UNBOUND:                -0.061
REMARK SMILES CCCCC(=O)[O-]
REMARK SMILES IDX 4 1 5 2 6 3 7 4 3 5 2 6 1 7
REMARK H PARENT
REMARK Flexibility Score: inf
ROOT
ATOM      1  C   UNL     1     -15.307   2.018 -19.474  1.00  0.00     0.053 C 
ENDROOT
BRANCH   1   2
ATOM      2  C   UNL     1     -16.168   2.868 -20.357  1.00  0.00     0.041 C 
ATOM      3  O   UNL     1     -16.926   3.739 -19.856  1.00  0.00    -0.550 OA
ATOM      4  O   UNL     1     -16.108   2.718 -21.738  1.00  0.00    -0.550 OA
ENDBRANCH   1   2
BRANCH   1   5
ATOM      5  C   UNL     1     -14.696   0.831 -20.236  1.00  0.00     0.006 C 
BRANCH   5   6
ATOM      6  C   UNL     1     -14.625  -0.472 -19.419  1.00  0.00    -0.003 C 
ATOM      7  C   UNL     1     -13.852  -1.579 -20.133  1.00  0.00     0.004 C 
ENDBRANCH   5   6
ENDBRANCH   1   5
TORSDOF 3
ENDMDL
MODEL 6
REMARK VINA RESULT:    -3.345     13.614     13.876
REMARK INTER + INTRA:          -3.994
REMARK INTER:                  -3.976
REMARK INTRA:                  -0.018
REMARK UNBOUND:                -0.061
REMARK SMILES CCCCC(=O)[O-]
REMARK SMILES IDX 4 1 5 2 6 3 7 4 3 5 2 6 1 7
REMARK H PARENT
REMARK Flexibility Score: inf
ROOT
ATOM      1  C   UNL     1     -13.247   8.926 -20.011  1.00  0.00     0.053 C 
ENDROOT
BRANCH   1   2
ATOM      2  C   UNL     1     -14.136  10.027 -19.521  1.00  0.00     0.041 C 
ATOM      3  O   UNL     1     -13.691  10.897 -18.728  1.00  0.00    -0.550 OA
ATOM      4  O   UNL     1     -15.450  10.111 -19.967  1.00  0.00    -0.550 OA
ENDBRANCH   1   2
BRANCH   1   5
ATOM      5  C   UNL     1     -14.050   7.772 -20.631  1.00  0.00     0.006 C 
BRANCH   5   6
ATOM      6  C   UNL     1     -13.273   6.447 -20.731  1.00  0.00    -0.003 C 
ATOM      7  C   UNL     1     -14.080   5.246 -20.241  1.00  0.00     0.004 C 
ENDBRANCH   5   6
ENDBRANCH   1   5
TORSDOF 3
ENDMDL
MODEL 7
REMARK VINA RESULT:    -3.258     16.786     17.569
REMARK INTER + INTRA:          -3.890
REMARK INTER:                  -3.790
REMARK INTRA:                  -0.100
REMARK UNBOUND:                -0.061
REMARK SMILES CCCCC(=O)[O-]
REMARK SMILES IDX 4 1 5 2 6 3 7 4 3 5 2 6 1 7
REMARK H PARENT
REMARK Flexibility Score: inf
ROOT
ATOM      1  C   UNL     1     -15.282  -0.968 -20.994  1.00  0.00     0.053 C 
ENDROOT
BRANCH   1   2
ATOM      2  C   UNL     1     -15.735  -0.840 -22.416  1.00  0.00     0.041 C 
ATOM      3  O   UNL     1     -14.941  -1.091 -23.360  1.00  0.00    -0.550 OA
ATOM      4  O   UNL     1     -17.046  -0.474 -22.698  1.00  0.00    -0.550 OA
ENDBRANCH   1   2
BRANCH   1   5
ATOM      5  C   UNL     1     -14.120  -0.014 -20.674  1.00  0.00     0.006 C 
BRANCH   5   6
ATOM      6  C   UNL     1     -14.487   1.479 -20.767  1.00  0.00    -0.003 C 
ATOM      7  C   UNL     1     -15.171   2.002 -19.505  1.00  0.00     0.004 C 
ENDBRANCH   5   6
ENDBRANCH   1   5
TORSDOF 3
ENDMDL
MODEL 8
REMARK VINA RESULT:    -3.225     17.796     18.284
REMARK INTER + INTRA:          -3.851
REMARK INTER:                  -3.835
REMARK INTRA:                  -0.016
REMARK UNBOUND:                -0.061
REMARK SMILES CCCCC(=O)[O-]
REMARK SMILES IDX 4 1 5 2 6 3 7 4 3 5 2 6 1 7
REMARK H PARENT
REMARK Flexibility Score: inf
ROOT
ATOM      1  C   UNL     1     -14.167  -0.872 -21.195  1.00  0.00     0.053 C 
ENDROOT
BRANCH   1   2
ATOM      2  C   UNL     1     -13.731  -1.747 -20.061  1.00  0.00     0.041 C 
ATOM      3  O   UNL     1     -14.109  -1.499 -18.886  1.00  0.00    -0.550 OA
ATOM      4  O   UNL     1     -12.931  -2.857 -20.307  1.00  0.00    -0.550 OA
ENDBRANCH   1   2
BRANCH   1   5
ATOM      5  C   UNL     1     -15.692  -0.896 -21.386  1.00  0.00     0.006 C 
BRANCH   5   6
ATOM      6  C   UNL     1     -16.160  -0.427 -22.776  1.00  0.00    -0.003 C 
ATOM      7  C   UNL     1     -17.653  -0.109 -22.824  1.00  0.00     0.004 C 
ENDBRANCH   5   6
ENDBRANCH   1   5
TORSDOF 3
ENDMDL
MODEL 9
REMARK VINA RESULT:    -3.204     16.393     17.058
REMARK INTER + INTRA:          -3.828
REMARK INTER:                  -3.795
REMARK INTRA:                  -0.033
REMARK UNBOUND:                -0.061
REMARK SMILES CCCCC(=O)[O-]
REMARK SMILES IDX 4 1 5 2 6 3 7 4 3 5 2 6 1 7
REMARK H PARENT
REMARK Flexibility Score: inf
ROOT
ATOM      1  C   UNL     1     -15.186   1.803 -19.426  1.00  0.00     0.053 C 
ENDROOT
BRANCH   1   2
ATOM      2  C   UNL     1     -14.554   0.692 -20.206  1.00  0.00     0.041 C 
ATOM      3  O   UNL     1     -13.784   0.950 -21.168  1.00  0.00    -0.550 OA
ATOM      4  O   UNL     1     -14.793  -0.630 -19.851  1.00  0.00    -0.550 OA
ENDBRANCH   1   2
BRANCH   1   5
ATOM      5  C   UNL     1     -15.375   3.069 -20.278  1.00  0.00     0.006 C 
BRANCH   5   6
ATOM      6  C   UNL     1     -16.793   3.665 -20.215  1.00  0.00    -0.003 C 
ATOM      7  C   UNL     1     -17.565   3.501 -21.523  1.00  0.00     0.004 C 
ENDBRANCH   5   6
ENDBRANCH   1   5
TORSDOF 3
ENDMDL
