MODEL 1
REMARK VINA RESULT:    -3.377      0.000      0.000
REMARK INTER + INTRA:          -3.803
REMARK INTER:                  -3.772
REMARK INTRA:                  -0.032
REMARK UNBOUND:                -0.032
REMARK SMILES CCCC(=O)[O-]
REMARK SMILES IDX 3 1 4 2 5 3 6 4 2 5 1 6
REMARK H PARENT
REMARK Flexibility Score: inf
ROOT
ATOM      1  C   UNL     1       5.650 -35.006  21.259  1.00  0.00     0.052 C 
ENDROOT
BRANCH   1   2
ATOM      2  C   UNL     1       4.822 -34.136  22.150  1.00  0.00     0.041 C 
ATOM      3  O   UNL     1       5.307 -33.680  23.218  1.00  0.00    -0.550 OA
ATOM      4  O   UNL     1       3.530 -33.788  21.777  1.00  0.00    -0.550 OA
ENDBRANCH   1   2
BRANCH   1   5
ATOM      5  C   UNL     1       4.871 -35.372  19.993  1.00  0.00     0.003 C 
ATOM      6  C   UNL     1       5.283 -34.490  18.818  1.00  0.00     0.004 C 
ENDBRANCH   1   5
TORSDOF 2
ENDMDL
MODEL 2
REMARK VINA RESULT:    -3.373      2.093      3.271
REMARK INTER + INTRA:          -3.799
REMARK INTER:                  -3.773
REMARK INTRA:                  -0.026
REMARK UNBOUND:                -0.032
REMARK SMILES CCCC(=O)[O-]
REMARK SMILES IDX 3 1 4 2 5 3 6 4 2 5 1 6
REMARK H PARENT
REMARK Flexibility Score: inf
ROOT
ATOM      1  C   UNL     1       5.110 -35.569  22.187  1.00  0.00     0.052 C 
ENDROOT
BRANCH   1   2
ATOM      2  C   UNL     1       5.048 -35.662  20.695  1.00  0.00     0.041 C 
ATOM      3  O   UNL     1       5.006 -36.787  20.133  1.00  0.00    -0.550 OA
ATOM      4  O   UNL     1       4.989 -34.506  19.928  1.00  0.00    -0.550 OA
ENDBRANCH   1   2
BRANCH   1   5
ATOM      5  C   UNL     1       5.012 -34.109  22.636  1.00  0.00     0.003 C 
ATOM      6  C   UNL     1       6.125 -33.759  23.620  1.00  0.00     0.004 C 
ENDBRANCH   1   5
TORSDOF 2
ENDMDL
MODEL 3
REMARK VINA RESULT:    -3.369      2.111      3.277
REMARK INTER + INTRA:          -3.795
REMARK INTER:                  -3.766
REMARK INTRA:                  -0.029
REMARK UNBOUND:                -0.032
REMARK SMILES CCCC(=O)[O-]
REMARK SMILES IDX 3 1 4 2 5 3 6 4 2 5 1 6
REMARK H PARENT
REMARK Flexibility Score: inf
ROOT
ATOM      1  C   UNL     1       5.202 -35.553  22.098  1.00  0.00     0.052 C 
ENDROOT
BRANCH   1   2
ATOM      2  C   UNL     1       5.076 -35.575  20.607  1.00  0.00     0.041 C 
ATOM      3  O   UNL     1       5.095 -34.500  19.954  1.00  0.00    -0.550 OA
ATOM      4  O   UNL     1       4.988 -36.788  19.935  1.00  0.00    -0.550 OA
ENDBRANCH   1   2
BRANCH   1   5
ATOM      5  C   UNL     1       5.025 -34.128  22.628  1.00  0.00     0.003 C 
ATOM      6  C   UNL     1       6.125 -33.769  23.622  1.00  0.00     0.004 C 
ENDBRANCH   1   5
TORSDOF 2
ENDMDL
MODEL 4
REMARK VINA RESULT:    -3.310      1.151      1.562
REMARK INTER + INTRA:          -3.729
REMARK INTER:                  -3.714
REMARK INTRA:                  -0.015
REMARK UNBOUND:                -0.032
REMARK SMILES CCCC(=O)[O-]
REMARK SMILES IDX 3 1 4 2 5 3 6 4 2 5 1 6
REMARK H PARENT
REMARK Flexibility Score: inf
ROOT
ATOM      1  C   UNL     1       5.220 -35.715  22.013  1.00  0.00     0.052 C 
ENDROOT
BRANCH   1   2
ATOM      2  C   UNL     1       4.692 -34.344  22.296  1.00  0.00     0.041 C 
ATOM      3  O   UNL     1       5.301 -33.584  23.093  1.00  0.00    -0.550 OA
ATOM      4  O   UNL     1       3.554 -33.889  21.642  1.00  0.00    -0.550 OA
ENDBRANCH   1   2
BRANCH   1   5
ATOM      5  C   UNL     1       4.961 -36.098  20.553  1.00  0.00     0.003 C 
ATOM      6  C   UNL     1       4.863 -37.612  20.390  1.00  0.00     0.004 C 
ENDBRANCH   1   5
TORSDOF 2
ENDMDL
MODEL 5
REMARK VINA RESULT:    -3.265      1.134      1.429
REMARK INTER + INTRA:          -3.678
REMARK INTER:                  -3.673
REMARK INTRA:                  -0.005
REMARK UNBOUND:                -0.032
REMARK SMILES CCCC(=O)[O-]
REMARK SMILES IDX 3 1 4 2 5 3 6 4 2 5 1 6
REMARK H PARENT
REMARK Flexibility Score: inf
ROOT
ATOM      1  C   UNL     1       4.504 -34.609  21.142  1.00  0.00     0.052 C 
ENDROOT
BRANCH   1   2
ATOM      2  C   UNL     1       5.083 -34.691  22.519  1.00  0.00     0.041 C 
ATOM      3  O   UNL     1       5.312 -33.640  23.172  1.00  0.00    -0.550 OA
ATOM      4  O   UNL     1       5.323 -35.929  23.100  1.00  0.00    -0.550 OA
ENDBRANCH   1   2
BRANCH   1   5
ATOM      5  C   UNL     1       5.563 -34.961  20.094  1.00  0.00     0.003 C 
ATOM      6  C   UNL     1       5.126 -34.522  18.700  1.00  0.00     0.004 C 
ENDBRANCH   1   5
TORSDOF 2
ENDMDL
MODEL 6
REMARK VINA RESULT:    -3.254      1.564      2.938
REMARK INTER + INTRA:          -3.666
REMARK INTER:                  -3.653
REMARK INTRA:                  -0.013
REMARK UNBOUND:                -0.032
REMARK SMILES CCCC(=O)[O-]
REMARK SMILES IDX 3 1 4 2 5 3 6 4 2 5 1 6
REMARK H PARENT
REMARK Flexibility Score: inf
ROOT
ATOM      1  C   UNL     1       5.657 -35.162  21.610  1.00  0.00     0.052 C 
ENDROOT
BRANCH   1   2
ATOM      2  C   UNL     1       4.612 -34.499  20.769  1.00  0.00     0.041 C 
ATOM      3  O   UNL     1       4.679 -34.559  19.514  1.00  0.00    -0.550 OA
ATOM      4  O   UNL     1       3.538 -33.857  21.372  1.00  0.00    -0.550 OA
ENDBRANCH   1   2
BRANCH   1   5
ATOM      5  C   UNL     1       5.368 -34.939  23.097  1.00  0.00     0.003 C 
ATOM      6  C   UNL     1       6.123 -33.725  23.629  1.00  0.00     0.004 C 
ENDBRANCH   1   5
TORSDOF 2
ENDMDL
MODEL 7
REMARK VINA RESULT:    -3.141      2.469      2.812
REMARK INTER + INTRA:          -3.539
REMARK INTER:                  -3.501
REMARK INTRA:                  -0.039
REMARK UNBOUND:                -0.032
REMARK SMILES CCCC(=O)[O-]
REMARK SMILES IDX 3 1 4 2 5 3 6 4 2 5 1 6
REMARK H PARENT
REMARK Flexibility Score: inf
ROOT
ATOM      1  C   UNL     1       5.391 -34.262  23.237  1.00  0.00     0.052 C 
ENDROOT
BRANCH   1   2
ATOM      2  C   UNL     1       5.597 -35.683  23.658  1.00  0.00     0.041 C 
ATOM      3  O   UNL     1       5.765 -35.964  24.873  1.00  0.00    -0.550 OA
ATOM      4  O   UNL     1       5.555 -36.700  22.714  1.00  0.00    -0.550 OA
ENDBRANCH   1   2
BRANCH   1   5
ATOM      5  C   UNL     1       4.974 -34.194  21.765  1.00  0.00     0.003 C 
ATOM      6  C   UNL     1       3.490 -33.872  21.627  1.00  0.00     0.004 C 
ENDBRANCH   1   5
TORSDOF 2
ENDMDL
MODEL 8
REMARK VINA RESULT:    -3.132      2.249      3.486
REMARK INTER + INTRA:          -3.530
REMARK INTER:                  -3.509
REMARK INTRA:                  -0.021
REMARK UNBOUND:                -0.032
REMARK SMILES CCCC(=O)[O-]
REMARK SMILES IDX 3 1 4 2 5 3 6 4 2 5 1 6
REMARK H PARENT
REMARK Flexibility Score: inf
ROOT
ATOM      1  C   UNL     1       5.235 -35.555  23.079  1.00  0.00     0.052 C 
ENDROOT
BRANCH   1   2
ATOM      2  C   UNL     1       5.008 -34.102  22.801  1.00  0.00     0.041 C 
ATOM      3  O   UNL     1       5.757 -33.234  23.321  1.00  0.00    -0.550 OA
ATOM      4  O   UNL     1       4.000 -33.710  21.930  1.00  0.00    -0.550 OA
ENDBRANCH   1   2
BRANCH   1   5
ATOM      5  C   UNL     1       6.009 -35.735  24.388  1.00  0.00     0.003 C 
ATOM      6  C   UNL     1       5.275 -36.679  25.336  1.00  0.00     0.004 C 
ENDBRANCH   1   5
TORSDOF 2
ENDMDL
MODEL 9
REMARK VINA RESULT:    -3.096      1.845      2.475
REMARK INTER + INTRA:          -3.489
REMARK INTER:                  -3.479
REMARK INTRA:                  -0.010
REMARK UNBOUND:                -0.032
REMARK SMILES CCCC(=O)[O-]
REMARK SMILES IDX 3 1 4 2 5 3 6 4 2 5 1 6
REMARK H PARENT
REMARK Flexibility Score: inf
ROOT
ATOM      1  C   UNL     1       4.783 -35.886  21.350  1.00  0.00     0.052 C 
ENDROOT
BRANCH   1   2
ATOM      2  C   UNL     1       4.397 -34.529  20.851  1.00  0.00     0.041 C 
ATOM      3  O   UNL     1       4.744 -34.156  19.700  1.00  0.00    -0.550 OA
ATOM      4  O   UNL     1       3.614 -33.696  21.639  1.00  0.00    -0.550 OA
ENDBRANCH   1   2
BRANCH   1   5
ATOM      5  C   UNL     1       4.973 -36.853  20.178  1.00  0.00     0.003 C 
ATOM      6  C   UNL     1       4.902 -38.303  20.644  1.00  0.00     0.004 C 
ENDBRANCH   1   5
TORSDOF 2
ENDMDL
