MODEL 1
REMARK VINA RESULT:    -3.728      0.000      0.000
REMARK INTER + INTRA:          -5.370
REMARK INTER:                  -5.036
REMARK INTRA:                  -0.333
REMARK UNBOUND:                -0.333
REMARK SMILES CCCCCCCC(=O)[O-]
REMARK SMILES IDX 5 1 6 2 7 3 8 4 9 5 10 6 4 7 3 8 2 9 1 10
REMARK H PARENT
REMARK Flexibility Score: inf
ROOT
ATOM      1  C   UNL     1      25.623 -13.323  -0.658  1.00  0.00     0.000 C 
ENDROOT
BRANCH   1   2
ATOM      2  C   UNL     1      26.886 -13.907  -1.312  1.00  0.00     0.006 C 
BRANCH   2   3
ATOM      3  C   UNL     1      28.171 -13.498  -0.581  1.00  0.00     0.053 C 
BRANCH   3   4
ATOM      4  C   UNL     1      28.269 -14.205   0.735  1.00  0.00     0.041 C 
ATOM      5  O   UNL     1      28.182 -15.459   0.788  1.00  0.00    -0.550 OA
ATOM      6  O   UNL     1      28.505 -13.480   1.896  1.00  0.00    -0.550 OA
ENDBRANCH   3   4
ENDBRANCH   2   3
ENDBRANCH   1   2
BRANCH   1   7
ATOM      7  C   UNL     1      24.343 -13.658  -1.443  1.00  0.00     0.000 C 
BRANCH   7   8
ATOM      8  C   UNL     1      24.631 -14.442  -2.733  1.00  0.00    -0.000 C 
BRANCH   8   9
ATOM      9  C   UNL     1      23.558 -15.500  -3.033  1.00  0.00    -0.003 C 
ATOM     10  C   UNL     1      22.756 -15.840  -1.780  1.00  0.00     0.004 C 
ENDBRANCH   8   9
ENDBRANCH   7   8
ENDBRANCH   1   7
TORSDOF 6
ENDMDL
MODEL 2
REMARK VINA RESULT:    -3.678      0.454      1.104
REMARK INTER + INTRA:          -5.302
REMARK INTER:                  -4.996
REMARK INTRA:                  -0.306
REMARK UNBOUND:                -0.333
REMARK SMILES CCCCCCCC(=O)[O-]
REMARK SMILES IDX 5 1 6 2 7 3 8 4 9 5 10 6 4 7 3 8 2 9 1 10
REMARK H PARENT
REMARK Flexibility Score: inf
ROOT
ATOM      1  C   UNL     1      25.485 -13.125  -0.461  1.00  0.00     0.000 C 
ENDROOT
BRANCH   1   2
ATOM      2  C   UNL     1      26.727 -13.920  -0.894  1.00  0.00     0.006 C 
BRANCH   2   3
ATOM      3  C   UNL     1      27.997 -13.473  -0.161  1.00  0.00     0.053 C 
BRANCH   3   4
ATOM      4  C   UNL     1      28.456 -14.539   0.784  1.00  0.00     0.041 C 
ATOM      5  O   UNL     1      28.760 -14.247   1.970  1.00  0.00    -0.550 OA
ATOM      6  O   UNL     1      28.502 -15.864   0.368  1.00  0.00    -0.550 OA
ENDBRANCH   3   4
ENDBRANCH   2   3
ENDBRANCH   1   2
BRANCH   1   7
ATOM      7  C   UNL     1      24.231 -13.502  -1.270  1.00  0.00     0.000 C 
BRANCH   7   8
ATOM      8  C   UNL     1      24.573 -14.070  -2.657  1.00  0.00    -0.000 C 
BRANCH   8   9
ATOM      9  C   UNL     1      23.681 -15.260  -3.044  1.00  0.00    -0.003 C 
ATOM     10  C   UNL     1      22.875 -15.754  -1.847  1.00  0.00     0.004 C 
ENDBRANCH   8   9
ENDBRANCH   7   8
ENDBRANCH   1   7
TORSDOF 6
ENDMDL
MODEL 3
REMARK VINA RESULT:    -3.624      0.949      1.322
REMARK INTER + INTRA:          -5.228
REMARK INTER:                  -4.989
REMARK INTRA:                  -0.240
REMARK UNBOUND:                -0.333
REMARK SMILES CCCCCCCC(=O)[O-]
REMARK SMILES IDX 5 1 6 2 7 3 8 4 9 5 10 6 4 7 3 8 2 9 1 10
REMARK H PARENT
REMARK Flexibility Score: inf
ROOT
ATOM      1  C   UNL     1      25.017 -13.521  -1.281  1.00  0.00     0.000 C 
ENDROOT
BRANCH   1   2
ATOM      2  C   UNL     1      26.500 -13.856  -1.055  1.00  0.00     0.006 C 
BRANCH   2   3
ATOM      3  C   UNL     1      26.962 -13.551   0.375  1.00  0.00     0.053 C 
BRANCH   3   4
ATOM      4  C   UNL     1      28.023 -14.518   0.798  1.00  0.00     0.041 C 
ATOM      5  O   UNL     1      28.231 -15.562   0.128  1.00  0.00    -0.550 OA
ATOM      6  O   UNL     1      28.814 -14.240   1.905  1.00  0.00    -0.550 OA
ENDBRANCH   3   4
ENDBRANCH   2   3
ENDBRANCH   1   2
BRANCH   1   7
ATOM      7  C   UNL     1      24.436 -14.220  -2.523  1.00  0.00     0.000 C 
BRANCH   7   8
ATOM      8  C   UNL     1      23.211 -15.087  -2.193  1.00  0.00    -0.000 C 
BRANCH   8   9
ATOM      9  C   UNL     1      23.290 -16.486  -2.823  1.00  0.00    -0.003 C 
ATOM     10  C   UNL     1      24.473 -16.590  -3.780  1.00  0.00     0.004 C 
ENDBRANCH   8   9
ENDBRANCH   7   8
ENDBRANCH   1   7
TORSDOF 6
ENDMDL
MODEL 4
REMARK VINA RESULT:    -3.602      3.024      5.230
REMARK INTER + INTRA:          -5.199
REMARK INTER:                  -4.902
REMARK INTRA:                  -0.297
REMARK UNBOUND:                -0.333
REMARK SMILES CCCCCCCC(=O)[O-]
REMARK SMILES IDX 5 1 6 2 7 3 8 4 9 5 10 6 4 7 3 8 2 9 1 10
REMARK H PARENT
REMARK Flexibility Score: inf
ROOT
ATOM      1  C   UNL     1      25.753 -13.268  -0.540  1.00  0.00     0.000 C 
ENDROOT
BRANCH   1   2
ATOM      2  C   UNL     1      24.348 -13.543  -1.100  1.00  0.00     0.006 C 
BRANCH   2   3
ATOM      3  C   UNL     1      24.375 -13.975  -2.571  1.00  0.00     0.053 C 
BRANCH   3   4
ATOM      4  C   UNL     1      23.581 -15.229  -2.761  1.00  0.00     0.041 C 
ATOM      5  O   UNL     1      22.758 -15.597  -1.883  1.00  0.00    -0.550 OA
ATOM      6  O   UNL     1      23.715 -15.966  -3.931  1.00  0.00    -0.550 OA
ENDBRANCH   3   4
ENDBRANCH   2   3
ENDBRANCH   1   2
BRANCH   1   7
ATOM      7  C   UNL     1      26.865 -13.894  -1.401  1.00  0.00     0.000 C 
BRANCH   7   8
ATOM      8  C   UNL     1      28.196 -14.020  -0.644  1.00  0.00    -0.000 C 
BRANCH   8   9
ATOM      9  C   UNL     1      28.008 -14.465   0.814  1.00  0.00    -0.003 C 
ATOM     10  C   UNL     1      28.778 -13.559   1.769  1.00  0.00     0.004 C 
ENDBRANCH   8   9
ENDBRANCH   7   8
ENDBRANCH   1   7
TORSDOF 6
ENDMDL
MODEL 5
REMARK VINA RESULT:    -3.583      0.983      1.121
REMARK INTER + INTRA:          -5.173
REMARK INTER:                  -4.838
REMARK INTRA:                  -0.335
REMARK UNBOUND:                -0.333
REMARK SMILES CCCCCCCC(=O)[O-]
REMARK SMILES IDX 5 1 6 2 7 3 8 4 9 5 10 6 4 7 3 8 2 9 1 10
REMARK H PARENT
REMARK Flexibility Score: inf
ROOT
ATOM      1  C   UNL     1      25.478 -13.138  -0.539  1.00  0.00     0.000 C 
ENDROOT
BRANCH   1   2
ATOM      2  C   UNL     1      26.811 -13.706  -1.052  1.00  0.00     0.006 C 
BRANCH   2   3
ATOM      3  C   UNL     1      27.639 -14.361   0.060  1.00  0.00     0.053 C 
BRANCH   3   4
ATOM      4  C   UNL     1      28.610 -13.377   0.635  1.00  0.00     0.041 C 
ATOM      5  O   UNL     1      29.347 -12.696  -0.124  1.00  0.00    -0.550 OA
ATOM      6  O   UNL     1      28.666 -13.179   2.009  1.00  0.00    -0.550 OA
ENDBRANCH   3   4
ENDBRANCH   2   3
ENDBRANCH   1   2
BRANCH   1   7
ATOM      7  C   UNL     1      24.284 -13.551  -1.418  1.00  0.00     0.000 C 
BRANCH   7   8
ATOM      8  C   UNL     1      24.719 -14.277  -2.701  1.00  0.00    -0.000 C 
BRANCH   8   9
ATOM      9  C   UNL     1      23.854 -15.509  -3.005  1.00  0.00    -0.003 C 
ATOM     10  C   UNL     1      22.792 -15.713  -1.929  1.00  0.00     0.004 C 
ENDBRANCH   8   9
ENDBRANCH   7   8
ENDBRANCH   1   7
TORSDOF 6
ENDMDL
MODEL 6
REMARK VINA RESULT:    -3.576      3.033      5.244
REMARK INTER + INTRA:          -5.164
REMARK INTER:                  -4.892
REMARK INTRA:                  -0.272
REMARK UNBOUND:                -0.333
REMARK SMILES CCCCCCCC(=O)[O-]
REMARK SMILES IDX 5 1 6 2 7 3 8 4 9 5 10 6 4 7 3 8 2 9 1 10
REMARK H PARENT
REMARK Flexibility Score: inf
ROOT
ATOM      1  C   UNL     1      25.570 -13.426  -0.600  1.00  0.00     0.000 C 
ENDROOT
BRANCH   1   2
ATOM      2  C   UNL     1      24.305 -13.557  -1.463  1.00  0.00     0.006 C 
BRANCH   2   3
ATOM      3  C   UNL     1      24.553 -14.346  -2.754  1.00  0.00     0.053 C 
BRANCH   3   4
ATOM      4  C   UNL     1      23.577 -15.475  -2.871  1.00  0.00     0.041 C 
ATOM      5  O   UNL     1      23.582 -16.214  -3.889  1.00  0.00    -0.550 OA
ATOM      6  O   UNL     1      22.694 -15.739  -1.832  1.00  0.00    -0.550 OA
ENDBRANCH   3   4
ENDBRANCH   2   3
ENDBRANCH   1   2
BRANCH   1   7
ATOM      7  C   UNL     1      26.851 -13.788  -1.371  1.00  0.00     0.000 C 
BRANCH   7   8
ATOM      8  C   UNL     1      28.125 -13.550  -0.545  1.00  0.00    -0.000 C 
BRANCH   8   9
ATOM      9  C   UNL     1      28.085 -14.257   0.818  1.00  0.00    -0.003 C 
ATOM     10  C   UNL     1      28.793 -13.431   1.887  1.00  0.00     0.004 C 
ENDBRANCH   8   9
ENDBRANCH   7   8
ENDBRANCH   1   7
TORSDOF 6
ENDMDL
MODEL 7
REMARK VINA RESULT:    -3.332      2.557      3.608
REMARK INTER + INTRA:          -4.835
REMARK INTER:                  -4.378
REMARK INTRA:                  -0.457
REMARK UNBOUND:                -0.333
REMARK SMILES CCCCCCCC(=O)[O-]
REMARK SMILES IDX 5 1 6 2 7 3 8 4 9 5 10 6 4 7 3 8 2 9 1 10
REMARK H PARENT
REMARK Flexibility Score: inf
ROOT
ATOM      1  C   UNL     1      24.240 -16.343  -4.037  1.00  0.00     0.000 C 
ENDROOT
BRANCH   1   2
ATOM      2  C   UNL     1      25.661 -16.858  -3.756  1.00  0.00     0.006 C 
BRANCH   2   3
ATOM      3  C   UNL     1      26.729 -15.776  -3.958  1.00  0.00     0.053 C 
BRANCH   3   4
ATOM      4  C   UNL     1      27.676 -15.757  -2.799  1.00  0.00     0.041 C 
ATOM      5  O   UNL     1      27.990 -16.829  -2.219  1.00  0.00    -0.550 OA
ATOM      6  O   UNL     1      28.249 -14.559  -2.390  1.00  0.00    -0.550 OA
ENDBRANCH   3   4
ENDBRANCH   2   3
ENDBRANCH   1   2
BRANCH   1   7
ATOM      7  C   UNL     1      23.270 -16.624  -2.876  1.00  0.00     0.000 C 
BRANCH   7   8
ATOM      8  C   UNL     1      22.957 -15.365  -2.051  1.00  0.00    -0.000 C 
BRANCH   8   9
ATOM      9  C   UNL     1      23.717 -14.127  -2.552  1.00  0.00    -0.003 C 
ATOM     10  C   UNL     1      24.694 -13.619  -1.497  1.00  0.00     0.004 C 
ENDBRANCH   8   9
ENDBRANCH   7   8
ENDBRANCH   1   7
TORSDOF 6
ENDMDL
MODEL 8
REMARK VINA RESULT:    -3.327      3.117      5.053
REMARK INTER + INTRA:          -4.828
REMARK INTER:                  -4.545
REMARK INTRA:                  -0.283
REMARK UNBOUND:                -0.333
REMARK SMILES CCCCCCCC(=O)[O-]
REMARK SMILES IDX 5 1 6 2 7 3 8 4 9 5 10 6 4 7 3 8 2 9 1 10
REMARK H PARENT
REMARK Flexibility Score: inf
ROOT
ATOM      1  C   UNL     1      26.448 -13.450  -0.120  1.00  0.00     0.000 C 
ENDROOT
BRANCH   1   2
ATOM      2  C   UNL     1      25.755 -13.771  -1.453  1.00  0.00     0.006 C 
BRANCH   2   3
ATOM      3  C   UNL     1      24.225 -13.734  -1.346  1.00  0.00     0.053 C 
BRANCH   3   4
ATOM      4  C   UNL     1      23.610 -14.658  -2.348  1.00  0.00     0.041 C 
ATOM      5  O   UNL     1      23.890 -14.546  -3.570  1.00  0.00    -0.550 OA
ATOM      6  O   UNL     1      22.764 -15.676  -1.927  1.00  0.00    -0.550 OA
ENDBRANCH   3   4
ENDBRANCH   2   3
ENDBRANCH   1   2
BRANCH   1   7
ATOM      7  C   UNL     1      27.952 -13.777  -0.143  1.00  0.00     0.000 C 
BRANCH   7   8
ATOM      8  C   UNL     1      28.298 -15.021   0.691  1.00  0.00    -0.000 C 
BRANCH   8   9
ATOM      9  C   UNL     1      29.141 -16.040  -0.090  1.00  0.00    -0.003 C 
ATOM     10  C   UNL     1      28.603 -16.229  -1.504  1.00  0.00     0.004 C 
ENDBRANCH   8   9
ENDBRANCH   7   8
ENDBRANCH   1   7
TORSDOF 6
ENDMDL
MODEL 9
REMARK VINA RESULT:    -3.161      3.404      5.046
REMARK INTER + INTRA:          -4.603
REMARK INTER:                  -4.146
REMARK INTRA:                  -0.457
REMARK UNBOUND:                -0.333
REMARK SMILES CCCCCCCC(=O)[O-]
REMARK SMILES IDX 5 1 6 2 7 3 8 4 9 5 10 6 4 7 3 8 2 9 1 10
REMARK H PARENT
REMARK Flexibility Score: inf
ROOT
ATOM      1  C   UNL     1      27.602 -16.460  -2.958  1.00  0.00     0.000 C 
ENDROOT
BRANCH   1   2
ATOM      2  C   UNL     1      26.422 -15.886  -3.759  1.00  0.00     0.006 C 
BRANCH   2   3
ATOM      3  C   UNL     1      25.230 -16.849  -3.823  1.00  0.00     0.053 C 
BRANCH   3   4
ATOM      4  C   UNL     1      23.964 -16.136  -3.466  1.00  0.00     0.041 C 
ATOM      5  O   UNL     1      23.132 -16.673  -2.690  1.00  0.00    -0.550 OA
ATOM      6  O   UNL     1      23.726 -14.857  -3.953  1.00  0.00    -0.550 OA
ENDBRANCH   3   4
ENDBRANCH   2   3
ENDBRANCH   1   2
BRANCH   1   7
ATOM      7  C   UNL     1      28.082 -15.506  -1.849  1.00  0.00     0.000 C 
BRANCH   7   8
ATOM      8  C   UNL     1      27.454 -14.108  -1.962  1.00  0.00    -0.000 C 
BRANCH   8   9
ATOM      9  C   UNL     1      26.681 -13.703  -0.697  1.00  0.00    -0.003 C 
ATOM     10  C   UNL     1      25.214 -13.433  -1.013  1.00  0.00     0.004 C 
ENDBRANCH   8   9
ENDBRANCH   7   8
ENDBRANCH   1   7
TORSDOF 6
ENDMDL
