MODEL 1
REMARK VINA RESULT:    -3.094      0.000      0.000
REMARK INTER + INTRA:          -3.094
REMARK INTER:                  -3.094
REMARK INTRA:                   0.000
REMARK UNBOUND:                 0.000
REMARK SMILES O=C1CCCCC1
REMARK SMILES IDX 5 1 4 2 3 3 2 4 1 5 7 6 6 7
REMARK H PARENT
REMARK Flexibility Score: inf
ROOT
ATOM      1  C   UNL     1      -4.455  -9.453  -3.180  1.00  0.00     0.001 C 
ATOM      2  C   UNL     1      -5.356  -9.262  -1.951  1.00  0.00     0.008 C 
ATOM      3  C   UNL     1      -6.788  -9.734  -2.228  1.00  0.00     0.075 C 
ATOM      4  C   UNL     1      -7.303  -9.124  -3.503  1.00  0.00     0.132 C 
ATOM      5  O   UNL     1      -8.441  -8.682  -3.559  1.00  0.00    -0.300 OA
ATOM      6  C   UNL     1      -6.437  -9.152  -4.733  1.00  0.00     0.075 C 
ATOM      7  C   UNL     1      -5.014  -8.693  -4.393  1.00  0.00     0.008 C 
ENDROOT
TORSDOF 0
ENDMDL
MODEL 2
REMARK VINA RESULT:    -3.047     19.675     20.203
REMARK INTER + INTRA:          -3.047
REMARK INTER:                  -3.047
REMARK INTRA:                   0.000
REMARK UNBOUND:                 0.000
REMARK SMILES O=C1CCCCC1
REMARK SMILES IDX 5 1 4 2 3 3 2 4 1 5 7 6 6 7
REMARK H PARENT
REMARK Flexibility Score: inf
ROOT
ATOM      1  C   UNL     1       7.770   2.363   6.313  1.00  0.00     0.001 C 
ATOM      2  C   UNL     1       7.771   3.160   5.000  1.00  0.00     0.008 C 
ATOM      3  C   UNL     1       6.971   4.460   5.134  1.00  0.00     0.075 C 
ATOM      4  C   UNL     1       5.611   4.181   5.713  1.00  0.00     0.132 C 
ATOM      5  O   UNL     1       4.619   4.722   5.248  1.00  0.00    -0.300 OA
ATOM      6  C   UNL     1       5.497   3.305   6.930  1.00  0.00     0.075 C 
ATOM      7  C   UNL     1       6.334   2.032   6.751  1.00  0.00     0.008 C 
ENDROOT
TORSDOF 0
ENDMDL
MODEL 3
REMARK VINA RESULT:    -3.037      1.447      2.203
REMARK INTER + INTRA:          -3.037
REMARK INTER:                  -3.037
REMARK INTRA:                   0.000
REMARK UNBOUND:                 0.000
REMARK SMILES O=C1CCCCC1
REMARK SMILES IDX 5 1 4 2 3 3 2 4 1 5 7 6 6 7
REMARK H PARENT
REMARK Flexibility Score: inf
ROOT
ATOM      1  C   UNL     1      -5.438  -8.953  -4.806  1.00  0.00     0.001 C 
ATOM      2  C   UNL     1      -4.521  -8.600  -3.626  1.00  0.00     0.008 C 
ATOM      3  C   UNL     1      -4.727  -9.562  -2.450  1.00  0.00     0.075 C 
ATOM      4  C   UNL     1      -6.189  -9.675  -2.115  1.00  0.00     0.132 C 
ATOM      5  O   UNL     1      -6.557  -9.664  -0.950  1.00  0.00    -0.300 OA
ATOM      6  C   UNL     1      -7.181  -9.897  -3.223  1.00  0.00     0.075 C 
ATOM      7  C   UNL     1      -6.914  -8.925  -4.380  1.00  0.00     0.008 C 
ENDROOT
TORSDOF 0
ENDMDL
MODEL 4
REMARK VINA RESULT:    -2.950      1.767      3.243
REMARK INTER + INTRA:          -2.950
REMARK INTER:                  -2.950
REMARK INTRA:                   0.000
REMARK UNBOUND:                 0.000
REMARK SMILES O=C1CCCCC1
REMARK SMILES IDX 5 1 4 2 3 3 2 4 1 5 7 6 6 7
REMARK H PARENT
REMARK Flexibility Score: inf
ROOT
ATOM      1  C   UNL     1      -8.169  -9.767  -3.822  1.00  0.00     0.001 C 
ATOM      2  C   UNL     1      -7.536  -9.016  -5.003  1.00  0.00     0.008 C 
ATOM      3  C   UNL     1      -6.022  -9.245  -5.064  1.00  0.00     0.075 C 
ATOM      4  C   UNL     1      -5.397  -8.975  -3.723  1.00  0.00     0.132 C 
ATOM      5  O   UNL     1      -4.351  -8.347  -3.645  1.00  0.00    -0.300 OA
ATOM      6  C   UNL     1      -6.021  -9.567  -2.489  1.00  0.00     0.075 C 
ATOM      7  C   UNL     1      -7.536  -9.329  -2.492  1.00  0.00     0.008 C 
ENDROOT
TORSDOF 0
ENDMDL
MODEL 5
REMARK VINA RESULT:    -2.834     10.877     11.624
REMARK INTER + INTRA:          -2.834
REMARK INTER:                  -2.834
REMARK INTRA:                   0.000
REMARK UNBOUND:                 0.000
REMARK SMILES O=C1CCCCC1
REMARK SMILES IDX 5 1 4 2 3 3 2 4 1 5 7 6 6 7
REMARK H PARENT
REMARK Flexibility Score: inf
ROOT
ATOM      1  C   UNL     1      -8.258   0.712   5.060  1.00  0.00     0.001 C 
ATOM      2  C   UNL     1      -8.493   0.800   3.545  1.00  0.00     0.008 C 
ATOM      3  C   UNL     1      -8.738  -0.585   2.935  1.00  0.00     0.075 C 
ATOM      4  C   UNL     1      -7.661  -1.543   3.362  1.00  0.00     0.132 C 
ATOM      5  O   UNL     1      -7.163  -2.312   2.553  1.00  0.00    -0.300 OA
ATOM      6  C   UNL     1      -7.273  -1.613   4.813  1.00  0.00     0.075 C 
ATOM      7  C   UNL     1      -7.063  -0.201   5.376  1.00  0.00     0.008 C 
ENDROOT
TORSDOF 0
ENDMDL
MODEL 6
REMARK VINA RESULT:    -2.832     19.674     20.001
REMARK INTER + INTRA:          -2.832
REMARK INTER:                  -2.832
REMARK INTRA:                   0.000
REMARK UNBOUND:                 0.000
REMARK SMILES O=C1CCCCC1
REMARK SMILES IDX 5 1 4 2 3 3 2 4 1 5 7 6 6 7
REMARK H PARENT
REMARK Flexibility Score: inf
ROOT
ATOM      1  C   UNL     1       6.014   3.015   7.504  1.00  0.00     0.001 C 
ATOM      2  C   UNL     1       6.202   1.491   7.515  1.00  0.00     0.008 C 
ATOM      3  C   UNL     1       7.513   1.084   6.833  1.00  0.00     0.075 C 
ATOM      4  C   UNL     1       7.625   1.734   5.482  1.00  0.00     0.132 C 
ATOM      5  O   UNL     1       8.020   1.093   4.519  1.00  0.00    -0.300 OA
ATOM      6  C   UNL     1       7.337   3.205   5.348  1.00  0.00     0.075 C 
ATOM      7  C   UNL     1       6.029   3.559   6.067  1.00  0.00     0.008 C 
ENDROOT
TORSDOF 0
ENDMDL
MODEL 7
REMARK VINA RESULT:    -2.755     19.822     20.421
REMARK INTER + INTRA:          -2.755
REMARK INTER:                  -2.755
REMARK INTRA:                   0.000
REMARK UNBOUND:                 0.000
REMARK SMILES O=C1CCCCC1
REMARK SMILES IDX 5 1 4 2 3 3 2 4 1 5 7 6 6 7
REMARK H PARENT
REMARK Flexibility Score: inf
ROOT
ATOM      1  C   UNL     1       7.557   2.115   5.663  1.00  0.00     0.001 C 
ATOM      2  C   UNL     1       6.455   2.180   6.731  1.00  0.00     0.008 C 
ATOM      3  C   UNL     1       5.354   3.173   6.340  1.00  0.00     0.075 C 
ATOM      4  C   UNL     1       5.955   4.497   5.957  1.00  0.00     0.132 C 
ATOM      5  O   UNL     1       5.452   5.539   6.349  1.00  0.00    -0.300 OA
ATOM      6  C   UNL     1       7.123   4.527   5.010  1.00  0.00     0.075 C 
ATOM      7  C   UNL     1       8.180   3.501   5.435  1.00  0.00     0.008 C 
ENDROOT
TORSDOF 0
ENDMDL
MODEL 8
REMARK VINA RESULT:    -2.651      9.341     10.310
REMARK INTER + INTRA:          -2.651
REMARK INTER:                  -2.651
REMARK INTRA:                   0.000
REMARK UNBOUND:                 0.000
REMARK SMILES O=C1CCCCC1
REMARK SMILES IDX 5 1 4 2 3 3 2 4 1 5 7 6 6 7
REMARK H PARENT
REMARK Flexibility Score: inf
ROOT
ATOM      1  C   UNL     1       3.333  -7.843  -6.668  1.00  0.00     0.001 C 
ATOM      2  C   UNL     1       1.857  -7.591  -7.006  1.00  0.00     0.008 C 
ATOM      3  C   UNL     1       1.683  -6.316  -7.839  1.00  0.00     0.075 C 
ATOM      4  C   UNL     1       2.398  -5.164  -7.189  1.00  0.00     0.132 C 
ATOM      5  O   UNL     1       1.865  -4.066  -7.121  1.00  0.00    -0.300 OA
ATOM      6  C   UNL     1       3.811  -5.352  -6.709  1.00  0.00     0.075 C 
ATOM      7  C   UNL     1       3.931  -6.652  -5.903  1.00  0.00     0.008 C 
ENDROOT
TORSDOF 0
ENDMDL
MODEL 9
REMARK VINA RESULT:    -2.627     17.711     18.219
REMARK INTER + INTRA:          -2.627
REMARK INTER:                  -2.627
REMARK INTRA:                   0.000
REMARK UNBOUND:                 0.000
REMARK SMILES O=C1CCCCC1
REMARK SMILES IDX 5 1 4 2 3 3 2 4 1 5 7 6 6 7
REMARK H PARENT
REMARK Flexibility Score: inf
ROOT
ATOM      1  C   UNL     1      -0.154   9.311   0.740  1.00  0.00     0.001 C 
ATOM      2  C   UNL     1       0.180   8.641  -0.601  1.00  0.00     0.008 C 
ATOM      3  C   UNL     1      -0.976   7.759  -1.089  1.00  0.00     0.075 C 
ATOM      4  C   UNL     1      -1.419   6.825   0.003  1.00  0.00     0.132 C 
ATOM      5  O   UNL     1      -1.661   5.654  -0.248  1.00  0.00    -0.300 OA
ATOM      6  C   UNL     1      -1.651   7.369   1.386  1.00  0.00     0.075 C 
ATOM      7  C   UNL     1      -0.478   8.260   1.812  1.00  0.00     0.008 C 
ENDROOT
TORSDOF 0
ENDMDL
