MODEL 1
REMARK VINA RESULT:    -3.408      0.000      0.000
REMARK INTER + INTRA:          -5.851
REMARK INTER:                  -5.001
REMARK INTRA:                  -0.850
REMARK UNBOUND:                -0.850
REMARK SMILES CCCCCCCCCC=O
REMARK SMILES IDX 6 1 5 2 4 3 3 4 2 5 1 6 7 7 8 8 9 9 10 10 11 11
REMARK H PARENT
REMARK Flexibility Score: inf
ROOT
ATOM      1  C   UNL     1     104.141 106.745 102.051  1.00  0.00     0.000 C 
ENDROOT
BRANCH   1   2
ATOM      2  C   UNL     1     104.910 108.063 102.263  1.00  0.00     0.000 C 
BRANCH   2   3
ATOM      3  C   UNL     1     106.187 107.881 103.102  1.00  0.00    -0.000 C 
BRANCH   3   4
ATOM      4  C   UNL     1     107.410 107.520 102.243  1.00  0.00    -0.000 C 
BRANCH   4   5
ATOM      5  C   UNL     1     108.693 107.373 103.074  1.00  0.00    -0.003 C 
ATOM      6  C   UNL     1     108.373 106.988 104.516  1.00  0.00     0.004 C 
ENDBRANCH   4   5
ENDBRANCH   3   4
ENDBRANCH   2   3
ENDBRANCH   1   2
BRANCH   1   7
ATOM      7  C   UNL     1     104.281 105.712 103.188  1.00  0.00     0.000 C 
BRANCH   7   8
ATOM      8  C   UNL     1     104.910 104.369 102.776  1.00  0.00     0.008 C 
BRANCH   8   9
ATOM      9  C   UNL     1     106.272 104.122 103.436  1.00  0.00     0.072 C 
BRANCH   9  10
ATOM     10  C   UNL     1     107.283 103.716 102.408  1.00  0.00     0.224 C 
ATOM     11  O   UNL     1     107.934 102.693 102.549  1.00  0.00    -0.303 OA
ENDBRANCH   9  10
ENDBRANCH   8   9
ENDBRANCH   7   8
ENDBRANCH   1   7
TORSDOF 8
ENDMDL
MODEL 2
REMARK VINA RESULT:    -3.368      1.386      3.490
REMARK INTER + INTRA:          -5.794
REMARK INTER:                  -5.062
REMARK INTRA:                  -0.732
REMARK UNBOUND:                -0.850
REMARK SMILES CCCCCCCCCC=O
REMARK SMILES IDX 6 1 5 2 4 3 3 4 2 5 1 6 7 7 8 8 9 9 10 10 11 11
REMARK H PARENT
REMARK Flexibility Score: inf
ROOT
ATOM      1  C   UNL     1     107.039 107.169 102.093  1.00  0.00     0.000 C 
ENDROOT
BRANCH   1   2
ATOM      2  C   UNL     1     105.979 107.848 102.980  1.00  0.00     0.000 C 
BRANCH   2   3
ATOM      3  C   UNL     1     104.543 107.426 102.623  1.00  0.00    -0.000 C 
BRANCH   3   4
ATOM      4  C   UNL     1     104.141 106.093 103.275  1.00  0.00    -0.000 C 
BRANCH   4   5
ATOM      5  C   UNL     1     103.887 104.983 102.244  1.00  0.00    -0.003 C 
ATOM      6  C   UNL     1     102.678 104.138 102.634  1.00  0.00     0.004 C 
ENDBRANCH   4   5
ENDBRANCH   3   4
ENDBRANCH   2   3
ENDBRANCH   1   2
BRANCH   1   7
ATOM      7  C   UNL     1     107.726 105.937 102.714  1.00  0.00     0.000 C 
BRANCH   7   8
ATOM      8  C   UNL     1     107.505 104.615 101.957  1.00  0.00     0.008 C 
BRANCH   8   9
ATOM      9  C   UNL     1     107.461 103.397 102.886  1.00  0.00     0.072 C 
BRANCH   9  10
ATOM     10  C   UNL     1     106.905 103.781 104.223  1.00  0.00     0.224 C 
ATOM     11  O   UNL     1     107.036 103.041 105.185  1.00  0.00    -0.303 OA
ENDBRANCH   9  10
ENDBRANCH   8   9
ENDBRANCH   7   8
ENDBRANCH   1   7
TORSDOF 8
ENDMDL
MODEL 3
REMARK VINA RESULT:    -3.330      1.797      3.740
REMARK INTER + INTRA:          -5.737
REMARK INTER:                  -4.834
REMARK INTRA:                  -0.903
REMARK UNBOUND:                -0.850
REMARK SMILES CCCCCCCCCC=O
REMARK SMILES IDX 6 1 5 2 4 3 3 4 2 5 1 6 7 7 8 8 9 9 10 10 11 11
REMARK H PARENT
REMARK Flexibility Score: inf
ROOT
ATOM      1  C   UNL     1     104.671 107.803 102.985  1.00  0.00     0.000 C 
ENDROOT
BRANCH   1   2
ATOM      2  C   UNL     1     104.494 106.745 101.880  1.00  0.00     0.000 C 
BRANCH   2   3
ATOM      3  C   UNL     1     103.759 105.486 102.372  1.00  0.00    -0.000 C 
BRANCH   3   4
ATOM      4  C   UNL     1     104.724 104.389 102.851  1.00  0.00    -0.000 C 
BRANCH   4   5
ATOM      5  C   UNL     1     105.917 104.195 101.903  1.00  0.00    -0.003 C 
ATOM      6  C   UNL     1     107.157 103.740 102.667  1.00  0.00     0.004 C 
ENDBRANCH   4   5
ENDBRANCH   3   4
ENDBRANCH   2   3
ENDBRANCH   1   2
BRANCH   1   7
ATOM      7  C   UNL     1     106.074 107.861 103.622  1.00  0.00     0.000 C 
BRANCH   7   8
ATOM      8  C   UNL     1     107.238 107.535 102.669  1.00  0.00     0.008 C 
BRANCH   8   9
ATOM      9  C   UNL     1     108.553 107.259 103.409  1.00  0.00     0.072 C 
BRANCH   9  10
ATOM     10  C   UNL     1     108.277 106.744 104.788  1.00  0.00     0.224 C 
ATOM     11  O   UNL     1     108.924 107.147 105.741  1.00  0.00    -0.303 OA
ENDBRANCH   9  10
ENDBRANCH   8   9
ENDBRANCH   7   8
ENDBRANCH   1   7
TORSDOF 8
ENDMDL
MODEL 4
REMARK VINA RESULT:    -3.323      2.571      3.856
REMARK INTER + INTRA:          -5.727
REMARK INTER:                  -4.833
REMARK INTRA:                  -0.894
REMARK UNBOUND:                -0.850
REMARK SMILES CCCCCCCCCC=O
REMARK SMILES IDX 6 1 5 2 4 3 3 4 2 5 1 6 7 7 8 8 9 9 10 10 11 11
REMARK H PARENT
REMARK Flexibility Score: inf
ROOT
ATOM      1  C   UNL     1     105.165 104.373 103.541  1.00  0.00     0.000 C 
ENDROOT
BRANCH   1   2
ATOM      2  C   UNL     1     106.163 104.395 102.368  1.00  0.00     0.000 C 
BRANCH   2   3
ATOM      3  C   UNL     1     107.558 104.896 102.780  1.00  0.00    -0.000 C 
BRANCH   3   4
ATOM      4  C   UNL     1     107.554 105.588 104.153  1.00  0.00    -0.000 C 
BRANCH   4   5
ATOM      5  C   UNL     1     108.265 106.950 104.131  1.00  0.00    -0.003 C 
ATOM      6  C   UNL     1     108.510 107.418 102.699  1.00  0.00     0.004 C 
ENDBRANCH   4   5
ENDBRANCH   3   4
ENDBRANCH   2   3
ENDBRANCH   1   2
BRANCH   1   7
ATOM      7  C   UNL     1     103.932 105.283 103.374  1.00  0.00     0.000 C 
BRANCH   7   8
ATOM      8  C   UNL     1     104.143 106.510 102.469  1.00  0.00     0.008 C 
BRANCH   8   9
ATOM      9  C   UNL     1     104.713 107.716 103.225  1.00  0.00     0.072 C 
BRANCH   9  10
ATOM     10  C   UNL     1     104.996 108.840 102.276  1.00  0.00     0.224 C 
ATOM     11  O   UNL     1     104.186 109.740 102.122  1.00  0.00    -0.303 OA
ENDBRANCH   9  10
ENDBRANCH   8   9
ENDBRANCH   7   8
ENDBRANCH   1   7
TORSDOF 8
ENDMDL
MODEL 5
REMARK VINA RESULT:    -3.315      2.016      3.851
REMARK INTER + INTRA:          -5.716
REMARK INTER:                  -4.804
REMARK INTRA:                  -0.912
REMARK UNBOUND:                -0.850
REMARK SMILES CCCCCCCCCC=O
REMARK SMILES IDX 6 1 5 2 4 3 3 4 2 5 1 6 7 7 8 8 9 9 10 10 11 11
REMARK H PARENT
REMARK Flexibility Score: inf
ROOT
ATOM      1  C   UNL     1     105.243 104.638 105.439  1.00  0.00     0.000 C 
ENDROOT
BRANCH   1   2
ATOM      2  C   UNL     1     104.160 105.472 104.729  1.00  0.00     0.000 C 
BRANCH   2   3
ATOM      3  C   UNL     1     104.030 105.132 103.234  1.00  0.00    -0.000 C 
BRANCH   3   4
ATOM      4  C   UNL     1     104.099 106.379 102.338  1.00  0.00    -0.000 C 
BRANCH   4   5
ATOM      5  C   UNL     1     104.520 107.639 103.109  1.00  0.00    -0.003 C 
ATOM      6  C   UNL     1     104.935 108.755 102.154  1.00  0.00     0.004 C 
ENDBRANCH   4   5
ENDBRANCH   3   4
ENDBRANCH   2   3
ENDBRANCH   1   2
BRANCH   1   7
ATOM      7  C   UNL     1     106.554 104.454 104.649  1.00  0.00     0.000 C 
BRANCH   7   8
ATOM      8  C   UNL     1     107.465 105.694 104.597  1.00  0.00     0.008 C 
BRANCH   8   9
ATOM      9  C   UNL     1     107.848 106.092 103.167  1.00  0.00     0.072 C 
BRANCH   9  10
ATOM     10  C   UNL     1     108.499 107.441 103.158  1.00  0.00     0.224 C 
ATOM     11  O   UNL     1     109.324 107.725 102.304  1.00  0.00    -0.303 OA
ENDBRANCH   9  10
ENDBRANCH   8   9
ENDBRANCH   7   8
ENDBRANCH   1   7
TORSDOF 8
ENDMDL
MODEL 6
REMARK VINA RESULT:    -3.290      2.076      3.336
REMARK INTER + INTRA:          -5.679
REMARK INTER:                  -4.778
REMARK INTRA:                  -0.901
REMARK UNBOUND:                -0.850
REMARK SMILES CCCCCCCCCC=O
REMARK SMILES IDX 6 1 5 2 4 3 3 4 2 5 1 6 7 7 8 8 9 9 10 10 11 11
REMARK H PARENT
REMARK Flexibility Score: inf
ROOT
ATOM      1  C   UNL     1     107.879 105.094 102.907  1.00  0.00     0.000 C 
ENDROOT
BRANCH   1   2
ATOM      2  C   UNL     1     107.677 106.241 101.898  1.00  0.00     0.000 C 
BRANCH   2   3
ATOM      3  C   UNL     1     107.183 107.538 102.562  1.00  0.00    -0.000 C 
BRANCH   3   4
ATOM      4  C   UNL     1     105.893 108.074 101.920  1.00  0.00    -0.000 C 
BRANCH   4   5
ATOM      5  C   UNL     1     104.760 108.266 102.939  1.00  0.00    -0.003 C 
ATOM      6  C   UNL     1     105.283 108.154 104.368  1.00  0.00     0.004 C 
ENDBRANCH   4   5
ENDBRANCH   3   4
ENDBRANCH   2   3
ENDBRANCH   1   2
BRANCH   1   7
ATOM      7  C   UNL     1     106.970 103.866 102.697  1.00  0.00     0.000 C 
BRANCH   7   8
ATOM      8  C   UNL     1     105.504 104.189 102.357  1.00  0.00     0.008 C 
BRANCH   8   9
ATOM      9  C   UNL     1     104.674 104.560 103.592  1.00  0.00     0.072 C 
BRANCH   9  10
ATOM     10  C   UNL     1     103.254 104.833 103.203  1.00  0.00     0.224 C 
ATOM     11  O   UNL     1     102.587 103.975 102.647  1.00  0.00    -0.303 OA
ENDBRANCH   9  10
ENDBRANCH   8   9
ENDBRANCH   7   8
ENDBRANCH   1   7
TORSDOF 8
ENDMDL
MODEL 7
REMARK VINA RESULT:    -3.288      1.890      3.687
REMARK INTER + INTRA:          -5.676
REMARK INTER:                  -4.676
REMARK INTRA:                  -1.000
REMARK UNBOUND:                -0.850
REMARK SMILES CCCCCCCCCC=O
REMARK SMILES IDX 6 1 5 2 4 3 3 4 2 5 1 6 7 7 8 8 9 9 10 10 11 11
REMARK H PARENT
REMARK Flexibility Score: inf
ROOT
ATOM      1  C   UNL     1     105.038 108.213 104.481  1.00  0.00     0.000 C 
ENDROOT
BRANCH   1   2
ATOM      2  C   UNL     1     105.053 106.868 105.231  1.00  0.00     0.000 C 
BRANCH   2   3
ATOM      3  C   UNL     1     104.075 105.841 104.632  1.00  0.00    -0.000 C 
BRANCH   3   4
ATOM      4  C   UNL     1     104.796 104.641 103.997  1.00  0.00    -0.000 C 
BRANCH   4   5
ATOM      5  C   UNL     1     106.177 104.384 104.620  1.00  0.00    -0.003 C 
ATOM      6  C   UNL     1     107.148 103.820 103.587  1.00  0.00     0.004 C 
ENDBRANCH   4   5
ENDBRANCH   3   4
ENDBRANCH   2   3
ENDBRANCH   1   2
BRANCH   1   7
ATOM      7  C   UNL     1     104.676 108.129 102.985  1.00  0.00     0.000 C 
BRANCH   7   8
ATOM      8  C   UNL     1     105.851 108.346 102.014  1.00  0.00     0.008 C 
BRANCH   8   9
ATOM      9  C   UNL     1     106.815 107.155 101.972  1.00  0.00     0.072 C 
BRANCH   9  10
ATOM     10  C   UNL     1     108.119 107.518 102.614  1.00  0.00     0.224 C 
ATOM     11  O   UNL     1     108.399 107.101 103.727  1.00  0.00    -0.303 OA
ENDBRANCH   9  10
ENDBRANCH   8   9
ENDBRANCH   7   8
ENDBRANCH   1   7
TORSDOF 8
ENDMDL
MODEL 8
REMARK VINA RESULT:    -3.278      2.417      4.704
REMARK INTER + INTRA:          -5.661
REMARK INTER:                  -4.687
REMARK INTRA:                  -0.975
REMARK UNBOUND:                -0.850
REMARK SMILES CCCCCCCCCC=O
REMARK SMILES IDX 6 1 5 2 4 3 3 4 2 5 1 6 7 7 8 8 9 9 10 10 11 11
REMARK H PARENT
REMARK Flexibility Score: inf
ROOT
ATOM      1  C   UNL     1     107.718 105.997 102.931  1.00  0.00     0.000 C 
ENDROOT
BRANCH   1   2
ATOM      2  C   UNL     1     106.896 105.227 101.881  1.00  0.00     0.000 C 
BRANCH   2   3
ATOM      3  C   UNL     1     106.080 104.073 102.490  1.00  0.00    -0.000 C 
BRANCH   3   4
ATOM      4  C   UNL     1     105.490 104.430 103.864  1.00  0.00    -0.000 C 
BRANCH   4   5
ATOM      5  C   UNL     1     104.035 104.915 103.775  1.00  0.00    -0.003 C 
ATOM      6  C   UNL     1     103.386 104.466 102.469  1.00  0.00     0.004 C 
ENDBRANCH   4   5
ENDBRANCH   3   4
ENDBRANCH   2   3
ENDBRANCH   1   2
BRANCH   1   7
ATOM      7  C   UNL     1     107.316 107.472 103.129  1.00  0.00     0.000 C 
BRANCH   7   8
ATOM      8  C   UNL     1     106.003 107.890 102.443  1.00  0.00     0.008 C 
BRANCH   8   9
ATOM      9  C   UNL     1     104.963 108.434 103.429  1.00  0.00     0.072 C 
BRANCH   9  10
ATOM     10  C   UNL     1     105.433 108.246 104.839  1.00  0.00     0.224 C 
ATOM     11  O   UNL     1     104.677 107.806 105.691  1.00  0.00    -0.303 OA
ENDBRANCH   9  10
ENDBRANCH   8   9
ENDBRANCH   7   8
ENDBRANCH   1   7
TORSDOF 8
ENDMDL
MODEL 9
REMARK VINA RESULT:    -3.254      2.114      3.675
REMARK INTER + INTRA:          -5.626
REMARK INTER:                  -4.627
REMARK INTRA:                  -1.000
REMARK UNBOUND:                -0.850
REMARK SMILES CCCCCCCCCC=O
REMARK SMILES IDX 6 1 5 2 4 3 3 4 2 5 1 6 7 7 8 8 9 9 10 10 11 11
REMARK H PARENT
REMARK Flexibility Score: inf
ROOT
ATOM      1  C   UNL     1     106.849 107.299 102.114  1.00  0.00     0.000 C 
ENDROOT
BRANCH   1   2
ATOM      2  C   UNL     1     107.684 106.290 102.924  1.00  0.00     0.000 C 
BRANCH   2   3
ATOM      3  C   UNL     1     107.563 104.851 102.391  1.00  0.00    -0.000 C 
BRANCH   3   4
ATOM      4  C   UNL     1     107.014 103.876 103.445  1.00  0.00    -0.000 C 
BRANCH   4   5
ATOM      5  C   UNL     1     107.120 104.429 104.875  1.00  0.00    -0.003 C 
ATOM      6  C   UNL     1     105.774 104.361 105.591  1.00  0.00     0.004 C 
ENDBRANCH   4   5
ENDBRANCH   3   4
ENDBRANCH   2   3
ENDBRANCH   1   2
BRANCH   1   7
ATOM      7  C   UNL     1     105.673 107.941 102.877  1.00  0.00     0.000 C 
BRANCH   7   8
ATOM      8  C   UNL     1     104.582 106.961 103.342  1.00  0.00     0.008 C 
BRANCH   8   9
ATOM      9  C   UNL     1     103.988 106.141 102.191  1.00  0.00     0.072 C 
BRANCH   9  10
ATOM     10  C   UNL     1     103.438 104.845 102.703  1.00  0.00     0.224 C 
ATOM     11  O   UNL     1     102.458 104.337 102.181  1.00  0.00    -0.303 OA
ENDBRANCH   9  10
ENDBRANCH   8   9
ENDBRANCH   7   8
ENDBRANCH   1   7
TORSDOF 8
ENDMDL
