MODEL 1
REMARK VINA RESULT:    -4.086      0.000      0.000
REMARK INTER + INTRA:          -4.205
REMARK INTER:                  -4.205
REMARK INTRA:                   0.000
REMARK UNBOUND:                 0.000
REMARK SMILES Cc1ccccc1O
REMARK SMILES IDX 1 1 2 2 3 3 4 4 5 5 6 6 7 7 8 8
REMARK H PARENT 8 9
REMARK Flexibility Score: inf
ROOT
ATOM      1  C   UNL     1     -25.397 -50.570  55.974  1.00  0.00     0.048 C 
ATOM      2  C   UNL     1     -26.041 -51.870  55.584  1.00  0.00    -0.009 A 
ATOM      3  C   UNL     1     -26.282 -52.860  56.552  1.00  0.00     0.007 A 
ATOM      4  C   UNL     1     -26.880 -54.071  56.190  1.00  0.00     0.001 A 
ATOM      5  C   UNL     1     -27.245 -54.303  54.862  1.00  0.00     0.004 A 
ATOM      6  C   UNL     1     -27.010 -53.324  53.892  1.00  0.00     0.046 A 
ATOM      7  C   UNL     1     -26.410 -52.108  54.246  1.00  0.00     0.118 A 
ENDROOT
BRANCH   7   8
ATOM      8  O   UNL     1     -26.178 -51.133  53.274  1.00  0.00    -0.508 OA
ATOM      9  H   UNL     1     -25.249 -50.771  53.097  1.00  0.00     0.293 HD
ENDBRANCH   7   8
TORSDOF 1
ENDMDL
MODEL 2
REMARK VINA RESULT:    -3.930      1.249      2.125
REMARK INTER + INTRA:          -4.045
REMARK INTER:                  -4.045
REMARK INTRA:                   0.000
REMARK UNBOUND:                 0.000
REMARK SMILES Cc1ccccc1O
REMARK SMILES IDX 1 1 2 2 3 3 4 4 5 5 6 6 7 7 8 8
REMARK H PARENT 8 9
REMARK Flexibility Score: inf
ROOT
ATOM      1  C   UNL     1     -26.231 -52.741  56.237  1.00  0.00     0.048 C 
ATOM      2  C   UNL     1     -26.894 -52.961  54.907  1.00  0.00    -0.009 A 
ATOM      3  C   UNL     1     -27.968 -53.860  54.791  1.00  0.00     0.007 A 
ATOM      4  C   UNL     1     -28.585 -54.066  53.553  1.00  0.00     0.001 A 
ATOM      5  C   UNL     1     -28.138 -53.378  52.424  1.00  0.00     0.004 A 
ATOM      6  C   UNL     1     -27.071 -52.481  52.529  1.00  0.00     0.046 A 
ATOM      7  C   UNL     1     -26.446 -52.269  53.766  1.00  0.00     0.118 A 
ENDROOT
BRANCH   7   8
ATOM      8  O   UNL     1     -25.381 -51.372  53.866  1.00  0.00    -0.508 OA
ATOM      9  H   UNL     1     -24.587 -51.557  54.467  1.00  0.00     0.293 HD
ENDBRANCH   7   8
TORSDOF 1
ENDMDL
MODEL 3
REMARK VINA RESULT:    -3.911      1.091      2.396
REMARK INTER + INTRA:          -4.026
REMARK INTER:                  -4.026
REMARK INTRA:                   0.000
REMARK UNBOUND:                 0.000
REMARK SMILES Cc1ccccc1O
REMARK SMILES IDX 1 1 2 2 3 3 4 4 5 5 6 6 7 7 8 8
REMARK H PARENT 8 9
REMARK Flexibility Score: inf
ROOT
ATOM      1  C   UNL     1     -27.089 -52.429  52.495  1.00  0.00     0.048 C 
ATOM      2  C   UNL     1     -27.113 -52.881  53.927  1.00  0.00    -0.009 A 
ATOM      3  C   UNL     1     -27.927 -53.959  54.316  1.00  0.00     0.007 A 
ATOM      4  C   UNL     1     -27.951 -54.380  55.649  1.00  0.00     0.001 A 
ATOM      5  C   UNL     1     -27.163 -53.732  56.603  1.00  0.00     0.004 A 
ATOM      6  C   UNL     1     -26.351 -52.659  56.226  1.00  0.00     0.046 A 
ATOM      7  C   UNL     1     -26.321 -52.230  54.892  1.00  0.00     0.118 A 
ENDROOT
BRANCH   7   8
ATOM      8  O   UNL     1     -25.507 -51.158  54.520  1.00  0.00    -0.508 OA
ATOM      9  H   UNL     1     -25.866 -50.384  53.974  1.00  0.00     0.293 HD
ENDBRANCH   7   8
TORSDOF 1
ENDMDL
MODEL 4
REMARK VINA RESULT:    -3.782      2.508      4.145
REMARK INTER + INTRA:          -3.893
REMARK INTER:                  -3.893
REMARK INTRA:                   0.000
REMARK UNBOUND:                 0.000
REMARK SMILES Cc1ccccc1O
REMARK SMILES IDX 1 1 2 2 3 3 4 4 5 5 6 6 7 7 8 8
REMARK H PARENT 8 9
REMARK Flexibility Score: inf
ROOT
ATOM      1  C   UNL     1     -26.661 -54.258  53.365  1.00  0.00     0.048 C 
ATOM      2  C   UNL     1     -27.318 -53.170  52.565  1.00  0.00    -0.009 A 
ATOM      3  C   UNL     1     -28.311 -53.485  51.621  1.00  0.00     0.007 A 
ATOM      4  C   UNL     1     -28.923 -52.474  50.875  1.00  0.00     0.001 A 
ATOM      5  C   UNL     1     -28.551 -51.141  51.065  1.00  0.00     0.004 A 
ATOM      6  C   UNL     1     -27.564 -50.817  52.000  1.00  0.00     0.046 A 
ATOM      7  C   UNL     1     -26.945 -51.826  52.752  1.00  0.00     0.118 A 
ENDROOT
BRANCH   7   8
ATOM      8  O   UNL     1     -25.961 -51.497  53.686  1.00  0.00    -0.508 OA
ATOM      9  H   UNL     1     -26.095 -51.659  54.677  1.00  0.00     0.293 HD
ENDBRANCH   7   8
TORSDOF 1
ENDMDL
MODEL 5
REMARK VINA RESULT:    -3.652      5.060      5.905
REMARK INTER + INTRA:          -3.759
REMARK INTER:                  -3.759
REMARK INTRA:                   0.000
REMARK UNBOUND:                 0.000
REMARK SMILES Cc1ccccc1O
REMARK SMILES IDX 1 1 2 2 3 3 4 4 5 5 6 6 7 7 8 8
REMARK H PARENT 8 9
REMARK Flexibility Score: inf
ROOT
ATOM      1  C   UNL     1     -31.541 -49.810  51.278  1.00  0.00     0.048 C 
ATOM      2  C   UNL     1     -30.412 -50.797  51.204  1.00  0.00    -0.009 A 
ATOM      3  C   UNL     1     -29.100 -50.357  50.957  1.00  0.00     0.007 A 
ATOM      4  C   UNL     1     -28.049 -51.275  50.887  1.00  0.00     0.001 A 
ATOM      5  C   UNL     1     -28.295 -52.638  51.064  1.00  0.00     0.004 A 
ATOM      6  C   UNL     1     -29.596 -53.087  51.309  1.00  0.00     0.046 A 
ATOM      7  C   UNL     1     -30.657 -52.172  51.381  1.00  0.00     0.118 A 
ENDROOT
BRANCH   7   8
ATOM      8  O   UNL     1     -31.954 -52.625  51.627  1.00  0.00    -0.508 OA
ATOM      9  H   UNL     1     -32.616 -52.773  50.875  1.00  0.00     0.293 HD
ENDBRANCH   7   8
TORSDOF 1
ENDMDL
MODEL 6
REMARK VINA RESULT:    -3.568      2.450      3.667
REMARK INTER + INTRA:          -3.672
REMARK INTER:                  -3.672
REMARK INTRA:                   0.000
REMARK UNBOUND:                 0.000
REMARK SMILES Cc1ccccc1O
REMARK SMILES IDX 1 1 2 2 3 3 4 4 5 5 6 6 7 7 8 8
REMARK H PARENT 8 9
REMARK Flexibility Score: inf
ROOT
ATOM      1  C   UNL     1     -28.106 -50.563  51.385  1.00  0.00     0.048 C 
ATOM      2  C   UNL     1     -27.828 -51.962  51.856  1.00  0.00    -0.009 A 
ATOM      3  C   UNL     1     -28.490 -53.053  51.267  1.00  0.00     0.007 A 
ATOM      4  C   UNL     1     -28.232 -54.355  51.706  1.00  0.00     0.001 A 
ATOM      5  C   UNL     1     -27.312 -54.580  52.732  1.00  0.00     0.004 A 
ATOM      6  C   UNL     1     -26.649 -53.502  53.324  1.00  0.00     0.046 A 
ATOM      7  C   UNL     1     -26.902 -52.192  52.891  1.00  0.00     0.118 A 
ENDROOT
BRANCH   7   8
ATOM      8  O   UNL     1     -26.236 -51.119  53.485  1.00  0.00    -0.508 OA
ATOM      9  H   UNL     1     -26.256 -50.971  54.487  1.00  0.00     0.293 HD
ENDBRANCH   7   8
TORSDOF 1
ENDMDL
MODEL 7
REMARK VINA RESULT:    -3.554     15.670     16.841
REMARK INTER + INTRA:          -3.658
REMARK INTER:                  -3.658
REMARK INTRA:                   0.000
REMARK UNBOUND:                 0.000
REMARK SMILES Cc1ccccc1O
REMARK SMILES IDX 1 1 2 2 3 3 4 4 5 5 6 6 7 7 8 8
REMARK H PARENT 8 9
REMARK Flexibility Score: inf
ROOT
ATOM      1  C   UNL     1     -25.393 -67.662  57.255  1.00  0.00     0.048 C 
ATOM      2  C   UNL     1     -24.030 -68.169  57.631  1.00  0.00    -0.009 A 
ATOM      3  C   UNL     1     -22.998 -68.201  56.677  1.00  0.00     0.007 A 
ATOM      4  C   UNL     1     -21.729 -68.674  57.026  1.00  0.00     0.001 A 
ATOM      5  C   UNL     1     -21.479 -69.116  58.326  1.00  0.00     0.004 A 
ATOM      6  C   UNL     1     -22.499 -69.089  59.282  1.00  0.00     0.046 A 
ATOM      7  C   UNL     1     -23.774 -68.617  58.941  1.00  0.00     0.118 A 
ENDROOT
BRANCH   7   8
ATOM      8  O   UNL     1     -24.789 -68.590  59.899  1.00  0.00    -0.508 OA
ATOM      9  H   UNL     1     -25.478 -67.847  59.922  1.00  0.00     0.293 HD
ENDBRANCH   7   8
TORSDOF 1
ENDMDL
MODEL 8
REMARK VINA RESULT:    -3.528      4.478      5.643
REMARK INTER + INTRA:          -3.631
REMARK INTER:                  -3.631
REMARK INTRA:                   0.000
REMARK UNBOUND:                 0.000
REMARK SMILES Cc1ccccc1O
REMARK SMILES IDX 1 1 2 2 3 3 4 4 5 5 6 6 7 7 8 8
REMARK H PARENT 8 9
REMARK Flexibility Score: inf
ROOT
ATOM      1  C   UNL     1     -29.952 -54.141  52.591  1.00  0.00     0.048 C 
ATOM      2  C   UNL     1     -29.614 -52.805  51.993  1.00  0.00    -0.009 A 
ATOM      3  C   UNL     1     -28.278 -52.375  51.928  1.00  0.00     0.007 A 
ATOM      4  C   UNL     1     -27.963 -51.131  51.373  1.00  0.00     0.001 A 
ATOM      5  C   UNL     1     -28.976 -50.307  50.878  1.00  0.00     0.004 A 
ATOM      6  C   UNL     1     -30.308 -50.726  50.938  1.00  0.00     0.046 A 
ATOM      7  C   UNL     1     -30.633 -51.971  51.494  1.00  0.00     0.118 A 
ENDROOT
BRANCH   7   8
ATOM      8  O   UNL     1     -31.966 -52.385  51.551  1.00  0.00    -0.508 OA
ATOM      9  H   UNL     1     -32.493 -52.357  52.416  1.00  0.00     0.293 HD
ENDBRANCH   7   8
TORSDOF 1
ENDMDL
MODEL 9
REMARK VINA RESULT:    -2.127      2.410      3.586
REMARK INTER + INTRA:          -2.189
REMARK INTER:                  -2.189
REMARK INTRA:                   0.000
REMARK UNBOUND:                 0.000
REMARK SMILES Cc1ccccc1O
REMARK SMILES IDX 1 1 2 2 3 3 4 4 5 5 6 6 7 7 8 8
REMARK H PARENT 8 9
REMARK Flexibility Score: inf
ROOT
ATOM      1  C   UNL     1     -25.878 -51.506  54.312  1.00  0.00     0.048 C 
ATOM      2  C   UNL     1     -26.649 -51.983  53.115  1.00  0.00    -0.009 A 
ATOM      3  C   UNL     1     -27.399 -51.076  52.347  1.00  0.00     0.007 A 
ATOM      4  C   UNL     1     -28.118 -51.519  51.233  1.00  0.00     0.001 A 
ATOM      5  C   UNL     1     -28.094 -52.868  50.875  1.00  0.00     0.004 A 
ATOM      6  C   UNL     1     -27.351 -53.779  51.632  1.00  0.00     0.046 A 
ATOM      7  C   UNL     1     -26.627 -53.343  52.751  1.00  0.00     0.118 A 
ENDROOT
BRANCH   7   8
ATOM      8  O   UNL     1     -25.886 -54.256  53.503  1.00  0.00    -0.508 OA
ATOM      9  H   UNL     1     -25.308 -53.957  54.280  1.00  0.00     0.293 HD
ENDBRANCH   7   8
TORSDOF 1
ENDMDL
