MODEL 1
REMARK VINA RESULT:    -4.278      0.000      0.000
REMARK INTER + INTRA:          -9.976
REMARK INTER:                  -7.780
REMARK INTRA:                  -2.196
REMARK UNBOUND:                -2.196
REMARK SMILES CCCCCCCCCCCCCC[C@@H](C)C(=O)[O-]
REMARK SMILES IDX 9 1 10 2 11 3 12 4 13 5 14 6 15 7 16 8 17 9 18 10 19 11 8 12
REMARK SMILES IDX 7 13 6 14 5 15 4 16 3 17 2 18 1 19
REMARK H PARENT
REMARK Flexibility Score: inf
ROOT
ATOM      1  C   UNL     1      -2.326  -2.420  -2.561  1.00  0.00     0.000 C 
ENDROOT
BRANCH   1   2
ATOM      2  C   UNL     1      -2.837  -3.177  -3.802  1.00  0.00     0.000 C 
BRANCH   2   3
ATOM      3  C   UNL     1      -4.280  -3.712  -3.694  1.00  0.00     0.000 C 
BRANCH   3   4
ATOM      4  C   UNL     1      -5.186  -3.400  -4.898  1.00  0.00     0.000 C 
BRANCH   4   5
ATOM      5  C   UNL     1      -4.413  -2.833  -6.098  1.00  0.00     0.001 C 
BRANCH   5   6
ATOM      6  C   UNL     1      -4.910  -1.419  -6.451  1.00  0.00     0.009 C 
BRANCH   6   7
ATOM      7  C   UNL     1      -4.215  -0.285  -5.664  1.00  0.00     0.032 C 
ATOM      8  C   UNL     1      -2.737  -0.115  -6.046  1.00  0.00     0.014 C 
BRANCH   7   9
ATOM      9  C   UNL     1      -4.975   1.011  -5.766  1.00  0.00     0.044 C 
ATOM     10  O   UNL     1      -6.055   1.080  -6.412  1.00  0.00    -0.550 OA
ATOM     11  O   UNL     1      -4.511   2.135  -5.094  1.00  0.00    -0.550 OA
ENDBRANCH   7   9
ENDBRANCH   6   7
ENDBRANCH   5   6
ENDBRANCH   4   5
ENDBRANCH   3   4
ENDBRANCH   2   3
ENDBRANCH   1   2
BRANCH   1  12
ATOM     12  C   UNL     1      -3.247  -1.288  -2.068  1.00  0.00     0.000 C 
BRANCH  12  13
ATOM     13  C   UNL     1      -3.602  -1.386  -0.568  1.00  0.00    -0.000 C 
BRANCH  13  14
ATOM     14  C   UNL     1      -3.280  -2.766   0.025  1.00  0.00    -0.000 C 
BRANCH  14  15
ATOM     15  C   UNL     1      -4.556  -3.481   0.480  1.00  0.00    -0.000 C 
BRANCH  15  16
ATOM     16  C   UNL     1      -5.808  -2.764  -0.046  1.00  0.00    -0.000 C 
BRANCH  16  17
ATOM     17  C   UNL     1      -6.733  -3.710  -0.842  1.00  0.00    -0.000 C 
BRANCH  17  18
ATOM     18  C   UNL     1      -6.219  -5.157  -0.913  1.00  0.00    -0.003 C 
ATOM     19  C   UNL     1      -7.129  -6.152  -0.194  1.00  0.00     0.004 C 
ENDBRANCH  17  18
ENDBRANCH  16  17
ENDBRANCH  15  16
ENDBRANCH  14  15
ENDBRANCH  13  14
ENDBRANCH  12  13
ENDBRANCH   1  12
TORSDOF 14
ENDMDL
MODEL 2
REMARK VINA RESULT:    -4.072      1.204      1.956
REMARK INTER + INTRA:          -9.600
REMARK INTER:                  -7.595
REMARK INTRA:                  -2.005
REMARK UNBOUND:                -2.196
REMARK SMILES CCCCCCCCCCCCCC[C@@H](C)C(=O)[O-]
REMARK SMILES IDX 9 1 10 2 11 3 12 4 13 5 14 6 15 7 16 8 17 9 18 10 19 11 8 12
REMARK SMILES IDX 7 13 6 14 5 15 4 16 3 17 2 18 1 19
REMARK H PARENT
REMARK Flexibility Score: inf
ROOT
ATOM      1  C   UNL     1      -2.858  -3.774  -3.774  1.00  0.00     0.000 C 
ENDROOT
BRANCH   1   2
ATOM      2  C   UNL     1      -4.377  -4.032  -3.790  1.00  0.00     0.000 C 
BRANCH   2   3
ATOM      3  C   UNL     1      -5.134  -3.403  -4.979  1.00  0.00     0.000 C 
BRANCH   3   4
ATOM      4  C   UNL     1      -4.252  -2.982  -6.168  1.00  0.00     0.000 C 
BRANCH   4   5
ATOM      5  C   UNL     1      -4.386  -1.492  -6.515  1.00  0.00     0.001 C 
BRANCH   5   6
ATOM      6  C   UNL     1      -4.158  -0.618  -5.268  1.00  0.00     0.009 C 
BRANCH   6   7
ATOM      7  C   UNL     1      -2.889   0.262  -5.330  1.00  0.00     0.032 C 
ATOM      8  C   UNL     1      -1.596  -0.564  -5.400  1.00  0.00     0.014 C 
BRANCH   7   9
ATOM      9  C   UNL     1      -2.968   1.279  -6.439  1.00  0.00     0.044 C 
ATOM     10  O   UNL     1      -2.061   1.359  -7.310  1.00  0.00    -0.550 OA
ATOM     11  O   UNL     1      -4.081   2.104  -6.536  1.00  0.00    -0.550 OA
ENDBRANCH   7   9
ENDBRANCH   6   7
ENDBRANCH   5   6
ENDBRANCH   4   5
ENDBRANCH   3   4
ENDBRANCH   2   3
ENDBRANCH   1   2
BRANCH   1  12
ATOM     12  C   UNL     1      -2.288  -3.352  -2.406  1.00  0.00     0.000 C 
BRANCH  12  13
ATOM     13  C   UNL     1      -2.550  -1.873  -2.054  1.00  0.00    -0.000 C 
BRANCH  13  14
ATOM     14  C   UNL     1      -3.696  -1.702  -1.044  1.00  0.00    -0.000 C 
BRANCH  14  15
ATOM     15  C   UNL     1      -3.636  -2.779   0.044  1.00  0.00    -0.000 C 
BRANCH  15  16
ATOM     16  C   UNL     1      -4.923  -3.618   0.061  1.00  0.00    -0.000 C 
BRANCH  16  17
ATOM     17  C   UNL     1      -6.187  -2.746   0.207  1.00  0.00    -0.000 C 
BRANCH  17  18
ATOM     18  C   UNL     1      -7.391  -3.267  -0.595  1.00  0.00    -0.003 C 
ATOM     19  C   UNL     1      -8.446  -3.944   0.278  1.00  0.00     0.004 C 
ENDBRANCH  17  18
ENDBRANCH  16  17
ENDBRANCH  15  16
ENDBRANCH  14  15
ENDBRANCH  13  14
ENDBRANCH  12  13
ENDBRANCH   1  12
TORSDOF 14
ENDMDL
MODEL 3
REMARK VINA RESULT:    -4.065      2.127      3.917
REMARK INTER + INTRA:          -9.587
REMARK INTER:                  -8.374
REMARK INTRA:                  -1.213
REMARK UNBOUND:                -2.196
REMARK SMILES CCCCCCCCCCCCCC[C@@H](C)C(=O)[O-]
REMARK SMILES IDX 9 1 10 2 11 3 12 4 13 5 14 6 15 7 16 8 17 9 18 10 19 11 8 12
REMARK SMILES IDX 7 13 6 14 5 15 4 16 3 17 2 18 1 19
REMARK H PARENT
REMARK Flexibility Score: inf
ROOT
ATOM      1  C   UNL     1      -6.358  -2.982   0.148  1.00  0.00     0.000 C 
ENDROOT
BRANCH   1   2
ATOM      2  C   UNL     1      -5.344  -3.109  -1.005  1.00  0.00     0.000 C 
BRANCH   2   3
ATOM      3  C   UNL     1      -5.635  -4.243  -2.010  1.00  0.00     0.000 C 
BRANCH   3   4
ATOM      4  C   UNL     1      -4.755  -4.241  -3.272  1.00  0.00     0.000 C 
BRANCH   4   5
ATOM      5  C   UNL     1      -5.167  -3.165  -4.288  1.00  0.00     0.001 C 
BRANCH   5   6
ATOM      6  C   UNL     1      -4.319  -3.267  -5.568  1.00  0.00     0.009 C 
BRANCH   6   7
ATOM      7  C   UNL     1      -4.318  -1.988  -6.436  1.00  0.00     0.032 C 
ATOM      8  C   UNL     1      -5.631  -1.197  -6.330  1.00  0.00     0.014 C 
BRANCH   7   9
ATOM      9  C   UNL     1      -3.117  -1.124  -6.156  1.00  0.00     0.044 C 
ATOM     10  O   UNL     1      -2.916  -0.064  -6.806  1.00  0.00    -0.550 OA
ATOM     11  O   UNL     1      -2.245  -1.471  -5.131  1.00  0.00    -0.550 OA
ENDBRANCH   7   9
ENDBRANCH   6   7
ENDBRANCH   5   6
ENDBRANCH   4   5
ENDBRANCH   3   4
ENDBRANCH   2   3
ENDBRANCH   1   2
BRANCH   1  12
ATOM     12  C   UNL     1      -7.816  -3.301  -0.233  1.00  0.00     0.000 C 
BRANCH  12  13
ATOM     13  C   UNL     1      -8.368  -4.578   0.438  1.00  0.00    -0.000 C 
BRANCH  13  14
ATOM     14  C   UNL     1      -7.496  -5.051   1.611  1.00  0.00    -0.000 C 
BRANCH  14  15
ATOM     15  C   UNL     1      -6.854  -6.409   1.307  1.00  0.00    -0.000 C 
BRANCH  15  16
ATOM     16  C   UNL     1      -7.345  -6.963  -0.039  1.00  0.00    -0.000 C 
BRANCH  16  17
ATOM     17  C   UNL     1      -7.407  -8.505  -0.049  1.00  0.00    -0.000 C 
BRANCH  17  18
ATOM     18  C   UNL     1      -6.698  -9.158   1.150  1.00  0.00    -0.003 C 
ATOM     19  C   UNL     1      -5.586 -10.120   0.737  1.00  0.00     0.004 C 
ENDBRANCH  17  18
ENDBRANCH  16  17
ENDBRANCH  15  16
ENDBRANCH  14  15
ENDBRANCH  13  14
ENDBRANCH  12  13
ENDBRANCH   1  12
TORSDOF 14
ENDMDL
MODEL 4
REMARK VINA RESULT:    -4.057      5.391     10.217
REMARK INTER + INTRA:          -9.573
REMARK INTER:                  -8.128
REMARK INTRA:                  -1.445
REMARK UNBOUND:                -2.196
REMARK SMILES CCCCCCCCCCCCCC[C@@H](C)C(=O)[O-]
REMARK SMILES IDX 9 1 10 2 11 3 12 4 13 5 14 6 15 7 16 8 17 9 18 10 19 11 8 12
REMARK SMILES IDX 7 13 6 14 5 15 4 16 3 17 2 18 1 19
REMARK H PARENT
REMARK Flexibility Score: inf
ROOT
ATOM      1  C   UNL     1      -1.722   3.347  -8.613  1.00  0.00     0.000 C 
ENDROOT
BRANCH   1   2
ATOM      2  C   UNL     1      -1.585   3.346  -7.079  1.00  0.00     0.000 C 
BRANCH   2   3
ATOM      3  C   UNL     1      -2.855   3.765  -6.309  1.00  0.00     0.000 C 
BRANCH   3   4
ATOM      4  C   UNL     1      -4.081   2.861  -6.527  1.00  0.00     0.000 C 
BRANCH   4   5
ATOM      5  C   UNL     1      -4.526   2.137  -5.247  1.00  0.00     0.001 C 
BRANCH   5   6
ATOM      6  C   UNL     1      -3.750   0.821  -5.065  1.00  0.00     0.009 C 
BRANCH   6   7
ATOM      7  C   UNL     1      -3.513   0.034  -6.375  1.00  0.00     0.032 C 
ATOM      8  C   UNL     1      -2.037  -0.333  -6.589  1.00  0.00     0.014 C 
BRANCH   7   9
ATOM      9  C   UNL     1      -4.413  -1.170  -6.473  1.00  0.00     0.044 C 
ATOM     10  O   UNL     1      -3.933  -2.334  -6.524  1.00  0.00    -0.550 OA
ATOM     11  O   UNL     1      -5.791  -1.002  -6.452  1.00  0.00    -0.550 OA
ENDBRANCH   7   9
ENDBRANCH   6   7
ENDBRANCH   5   6
ENDBRANCH   4   5
ENDBRANCH   3   4
ENDBRANCH   2   3
ENDBRANCH   1   2
BRANCH   1  12
ATOM     12  C   UNL     1      -0.811   2.343  -9.345  1.00  0.00     0.000 C 
BRANCH  12  13
ATOM     13  C   UNL     1      -0.376   2.810 -10.751  1.00  0.00    -0.000 C 
BRANCH  13  14
ATOM     14  C   UNL     1      -1.413   3.728 -11.415  1.00  0.00    -0.000 C 
BRANCH  14  15
ATOM     15  C   UNL     1      -2.275   2.952 -12.416  1.00  0.00    -0.000 C 
BRANCH  15  16
ATOM     16  C   UNL     1      -3.743   3.398 -12.342  1.00  0.00    -0.000 C 
BRANCH  16  17
ATOM     17  C   UNL     1      -3.967   4.781 -12.989  1.00  0.00    -0.000 C 
BRANCH  17  18
ATOM     18  C   UNL     1      -4.064   4.734 -14.523  1.00  0.00    -0.003 C 
ATOM     19  C   UNL     1      -2.904   5.445 -15.219  1.00  0.00     0.004 C 
ENDBRANCH  17  18
ENDBRANCH  16  17
ENDBRANCH  15  16
ENDBRANCH  14  15
ENDBRANCH  13  14
ENDBRANCH  12  13
ENDBRANCH   1  12
TORSDOF 14
ENDMDL
MODEL 5
REMARK VINA RESULT:    -4.055      1.532      2.830
REMARK INTER + INTRA:          -9.569
REMARK INTER:                  -8.397
REMARK INTRA:                  -1.172
REMARK UNBOUND:                -2.196
REMARK SMILES CCCCCCCCCCCCCC[C@@H](C)C(=O)[O-]
REMARK SMILES IDX 9 1 10 2 11 3 12 4 13 5 14 6 15 7 16 8 17 9 18 10 19 11 8 12
REMARK SMILES IDX 7 13 6 14 5 15 4 16 3 17 2 18 1 19
REMARK H PARENT
REMARK Flexibility Score: inf
ROOT
ATOM      1  C   UNL     1      -5.706  -3.897  -1.768  1.00  0.00     0.000 C 
ENDROOT
BRANCH   1   2
ATOM      2  C   UNL     1      -4.629  -3.686  -2.849  1.00  0.00     0.000 C 
BRANCH   2   3
ATOM      3  C   UNL     1      -5.149  -3.694  -4.301  1.00  0.00     0.000 C 
BRANCH   3   4
ATOM      4  C   UNL     1      -4.059  -3.657  -5.387  1.00  0.00     0.000 C 
BRANCH   4   5
ATOM      5  C   UNL     1      -4.222  -2.480  -6.360  1.00  0.00     0.001 C 
BRANCH   5   6
ATOM      6  C   UNL     1      -3.257  -1.336  -6.001  1.00  0.00     0.009 C 
BRANCH   6   7
ATOM      7  C   UNL     1      -3.833  -0.305  -5.004  1.00  0.00     0.032 C 
ATOM      8  C   UNL     1      -3.017  -0.213  -3.705  1.00  0.00     0.014 C 
BRANCH   7   9
ATOM      9  C   UNL     1      -4.024   1.045  -5.644  1.00  0.00     0.044 C 
ATOM     10  O   UNL     1      -4.930   1.827  -5.250  1.00  0.00    -0.550 OA
ATOM     11  O   UNL     1      -3.157   1.458  -6.648  1.00  0.00    -0.550 OA
ENDBRANCH   7   9
ENDBRANCH   6   7
ENDBRANCH   5   6
ENDBRANCH   4   5
ENDBRANCH   3   4
ENDBRANCH   2   3
ENDBRANCH   1   2
BRANCH   1  12
ATOM     12  C   UNL     1      -5.594  -2.960  -0.550  1.00  0.00     0.000 C 
BRANCH  12  13
ATOM     13  C   UNL     1      -6.823  -3.003   0.382  1.00  0.00    -0.000 C 
BRANCH  13  14
ATOM     14  C   UNL     1      -8.020  -3.726  -0.255  1.00  0.00    -0.000 C 
BRANCH  14  15
ATOM     15  C   UNL     1      -8.800  -4.529   0.793  1.00  0.00    -0.000 C 
BRANCH  15  16
ATOM     16  C   UNL     1      -7.929  -5.643   1.393  1.00  0.00    -0.000 C 
BRANCH  16  17
ATOM     17  C   UNL     1      -7.367  -6.591   0.314  1.00  0.00    -0.000 C 
BRANCH  17  18
ATOM     18  C   UNL     1      -6.977  -7.977   0.855  1.00  0.00    -0.003 C 
ATOM     19  C   UNL     1      -7.497  -9.125  -0.009  1.00  0.00     0.004 C 
ENDBRANCH  17  18
ENDBRANCH  16  17
ENDBRANCH  15  16
ENDBRANCH  14  15
ENDBRANCH  13  14
ENDBRANCH  12  13
ENDBRANCH   1  12
TORSDOF 14
ENDMDL
MODEL 6
REMARK VINA RESULT:    -3.987      3.273      6.823
REMARK INTER + INTRA:          -9.446
REMARK INTER:                  -7.352
REMARK INTRA:                  -2.094
REMARK UNBOUND:                -2.196
REMARK SMILES CCCCCCCCCCCCCC[C@@H](C)C(=O)[O-]
REMARK SMILES IDX 9 1 10 2 11 3 12 4 13 5 14 6 15 7 16 8 17 9 18 10 19 11 8 12
REMARK SMILES IDX 7 13 6 14 5 15 4 16 3 17 2 18 1 19
REMARK H PARENT
REMARK Flexibility Score: inf
ROOT
ATOM      1  C   UNL     1      -2.695  -3.762  -3.868  1.00  0.00     0.000 C 
ENDROOT
BRANCH   1   2
ATOM      2  C   UNL     1      -2.617  -3.252  -2.416  1.00  0.00     0.000 C 
BRANCH   2   3
ATOM      3  C   UNL     1      -3.315  -1.900  -2.159  1.00  0.00     0.000 C 
BRANCH   3   4
ATOM      4  C   UNL     1      -3.798  -1.676  -0.715  1.00  0.00     0.000 C 
BRANCH   4   5
ATOM      5  C   UNL     1      -4.480  -2.914  -0.113  1.00  0.00     0.001 C 
BRANCH   5   6
ATOM      6  C   UNL     1      -5.998  -2.695   0.012  1.00  0.00     0.009 C 
BRANCH   6   7
ATOM      7  C   UNL     1      -6.857  -3.861  -0.529  1.00  0.00     0.032 C 
ATOM      8  C   UNL     1      -6.028  -4.905  -1.292  1.00  0.00     0.014 C 
BRANCH   7   9
ATOM      9  C   UNL     1      -7.693  -4.489   0.556  1.00  0.00     0.044 C 
ATOM     10  O   UNL     1      -7.343  -4.420   1.764  1.00  0.00    -0.550 OA
ATOM     11  O   UNL     1      -8.893  -5.106   0.228  1.00  0.00    -0.550 OA
ENDBRANCH   7   9
ENDBRANCH   6   7
ENDBRANCH   5   6
ENDBRANCH   4   5
ENDBRANCH   3   4
ENDBRANCH   2   3
ENDBRANCH   1   2
BRANCH   1  12
ATOM     12  C   UNL     1      -4.023  -4.445  -4.244  1.00  0.00     0.000 C 
BRANCH  12  13
ATOM     13  C   UNL     1      -4.964  -3.552  -5.081  1.00  0.00    -0.000 C 
BRANCH  13  14
ATOM     14  C   UNL     1      -4.223  -2.799  -6.197  1.00  0.00    -0.000 C 
BRANCH  14  15
ATOM     15  C   UNL     1      -4.848  -1.421  -6.440  1.00  0.00    -0.000 C 
BRANCH  15  16
ATOM     16  C   UNL     1      -3.764  -0.347  -6.616  1.00  0.00    -0.000 C 
BRANCH  16  17
ATOM     17  C   UNL     1      -2.369  -0.849  -6.187  1.00  0.00    -0.000 C 
BRANCH  17  18
ATOM     18  C   UNL     1      -1.771  -0.070  -5.004  1.00  0.00    -0.003 C 
ATOM     19  C   UNL     1      -2.776   0.863  -4.331  1.00  0.00     0.004 C 
ENDBRANCH  17  18
ENDBRANCH  16  17
ENDBRANCH  15  16
ENDBRANCH  14  15
ENDBRANCH  13  14
ENDBRANCH  12  13
ENDBRANCH   1  12
TORSDOF 14
ENDMDL
MODEL 7
REMARK VINA RESULT:    -3.983      1.327      1.994
REMARK INTER + INTRA:          -9.438
REMARK INTER:                  -7.434
REMARK INTRA:                  -2.005
REMARK UNBOUND:                -2.196
REMARK SMILES CCCCCCCCCCCCCC[C@@H](C)C(=O)[O-]
REMARK SMILES IDX 9 1 10 2 11 3 12 4 13 5 14 6 15 7 16 8 17 9 18 10 19 11 8 12
REMARK SMILES IDX 7 13 6 14 5 15 4 16 3 17 2 18 1 19
REMARK H PARENT
REMARK Flexibility Score: inf
ROOT
ATOM      1  C   UNL     1      -3.302  -1.962  -2.335  1.00  0.00     0.000 C 
ENDROOT
BRANCH   1   2
ATOM      2  C   UNL     1      -2.351  -2.929  -3.065  1.00  0.00     0.000 C 
BRANCH   2   3
ATOM      3  C   UNL     1      -3.040  -3.947  -3.997  1.00  0.00     0.000 C 
BRANCH   3   4
ATOM      4  C   UNL     1      -4.579  -3.908  -3.985  1.00  0.00     0.000 C 
BRANCH   4   5
ATOM      5  C   UNL     1      -5.177  -3.464  -5.328  1.00  0.00     0.001 C 
BRANCH   5   6
ATOM      6  C   UNL     1      -4.097  -2.834  -6.227  1.00  0.00     0.009 C 
BRANCH   6   7
ATOM      7  C   UNL     1      -4.321  -1.336  -6.538  1.00  0.00     0.032 C 
ATOM      8  C   UNL     1      -5.785  -0.906  -6.367  1.00  0.00     0.014 C 
BRANCH   7   9
ATOM      9  C   UNL     1      -3.381  -0.458  -5.755  1.00  0.00     0.044 C 
ATOM     10  O   UNL     1      -3.820   0.461  -5.013  1.00  0.00    -0.550 OA
ATOM     11  O   UNL     1      -2.013  -0.696  -5.807  1.00  0.00    -0.550 OA
ENDBRANCH   7   9
ENDBRANCH   6   7
ENDBRANCH   5   6
ENDBRANCH   4   5
ENDBRANCH   3   4
ENDBRANCH   2   3
ENDBRANCH   1   2
BRANCH   1  12
ATOM     12  C   UNL     1      -3.205  -1.995  -0.799  1.00  0.00     0.000 C 
BRANCH  12  13
ATOM     13  C   UNL     1      -2.828  -3.380  -0.230  1.00  0.00    -0.000 C 
BRANCH  13  14
ATOM     14  C   UNL     1      -3.435  -3.633   1.158  1.00  0.00    -0.000 C 
BRANCH  14  15
ATOM     15  C   UNL     1      -4.843  -4.228   1.044  1.00  0.00    -0.000 C 
BRANCH  15  16
ATOM     16  C   UNL     1      -5.075  -4.832  -0.349  1.00  0.00    -0.000 C 
BRANCH  16  17
ATOM     17  C   UNL     1      -6.292  -4.206  -1.062  1.00  0.00    -0.000 C 
BRANCH  17  18
ATOM     18  C   UNL     1      -7.116  -3.268  -0.164  1.00  0.00    -0.003 C 
ATOM     19  C   UNL     1      -8.464  -3.861   0.244  1.00  0.00     0.004 C 
ENDBRANCH  17  18
ENDBRANCH  16  17
ENDBRANCH  15  16
ENDBRANCH  14  15
ENDBRANCH  13  14
ENDBRANCH  12  13
ENDBRANCH   1  12
TORSDOF 14
ENDMDL
MODEL 8
REMARK VINA RESULT:    -3.941      1.480      2.672
REMARK INTER + INTRA:          -9.362
REMARK INTER:                  -7.865
REMARK INTRA:                  -1.497
REMARK UNBOUND:                -2.196
REMARK SMILES CCCCCCCCCCCCCC[C@@H](C)C(=O)[O-]
REMARK SMILES IDX 9 1 10 2 11 3 12 4 13 5 14 6 15 7 16 8 17 9 18 10 19 11 8 12
REMARK SMILES IDX 7 13 6 14 5 15 4 16 3 17 2 18 1 19
REMARK H PARENT
REMARK Flexibility Score: inf
ROOT
ATOM      1  C   UNL     1      -5.423  -3.362  -4.524  1.00  0.00     0.000 C 
ENDROOT
BRANCH   1   2
ATOM      2  C   UNL     1      -4.293  -3.332  -5.572  1.00  0.00     0.000 C 
BRANCH   2   3
ATOM      3  C   UNL     1      -4.283  -2.089  -6.486  1.00  0.00     0.000 C 
BRANCH   3   4
ATOM      4  C   UNL     1      -3.092  -1.136  -6.284  1.00  0.00     0.000 C 
BRANCH   4   5
ATOM      5  C   UNL     1      -3.048  -0.523  -4.876  1.00  0.00     0.001 C 
BRANCH   5   6
ATOM      6  C   UNL     1      -3.876   0.773  -4.818  1.00  0.00     0.009 C 
BRANCH   6   7
ATOM      7  C   UNL     1      -4.355   1.285  -6.195  1.00  0.00     0.032 C 
ATOM      8  C   UNL     1      -5.886   1.316  -6.318  1.00  0.00     0.014 C 
BRANCH   7   9
ATOM      9  C   UNL     1      -3.737   2.614  -6.543  1.00  0.00     0.044 C 
ATOM     10  O   UNL     1      -4.316   3.413  -7.327  1.00  0.00    -0.550 OA
ATOM     11  O   UNL     1      -2.538   2.990  -5.951  1.00  0.00    -0.550 OA
ENDBRANCH   7   9
ENDBRANCH   6   7
ENDBRANCH   5   6
ENDBRANCH   4   5
ENDBRANCH   3   4
ENDBRANCH   2   3
ENDBRANCH   1   2
BRANCH   1  12
ATOM     12  C   UNL     1      -5.109  -4.182  -3.258  1.00  0.00     0.000 C 
BRANCH  12  13
ATOM     13  C   UNL     1      -3.821  -3.735  -2.533  1.00  0.00    -0.000 C 
BRANCH  13  14
ATOM     14  C   UNL     1      -3.960  -2.350  -1.883  1.00  0.00    -0.000 C 
BRANCH  14  15
ATOM     15  C   UNL     1      -4.106  -2.467  -0.362  1.00  0.00    -0.000 C 
BRANCH  15  16
ATOM     16  C   UNL     1      -5.581  -2.609   0.041  1.00  0.00    -0.000 C 
BRANCH  16  17
ATOM     17  C   UNL     1      -5.836  -3.872   0.890  1.00  0.00    -0.000 C 
BRANCH  17  18
ATOM     18  C   UNL     1      -7.112  -4.634   0.493  1.00  0.00    -0.003 C 
ATOM     19  C   UNL     1      -8.169  -3.738  -0.151  1.00  0.00     0.004 C 
ENDBRANCH  17  18
ENDBRANCH  16  17
ENDBRANCH  15  16
ENDBRANCH  14  15
ENDBRANCH  13  14
ENDBRANCH  12  13
ENDBRANCH   1  12
TORSDOF 14
ENDMDL
MODEL 9
REMARK VINA RESULT:    -3.938      3.287      6.372
REMARK INTER + INTRA:          -9.356
REMARK INTER:                  -7.460
REMARK INTRA:                  -1.896
REMARK UNBOUND:                -2.196
REMARK SMILES CCCCCCCCCCCCCC[C@@H](C)C(=O)[O-]
REMARK SMILES IDX 9 1 10 2 11 3 12 4 13 5 14 6 15 7 16 8 17 9 18 10 19 11 8 12
REMARK SMILES IDX 7 13 6 14 5 15 4 16 3 17 2 18 1 19
REMARK H PARENT
REMARK Flexibility Score: inf
ROOT
ATOM      1  C   UNL     1      -2.240  -1.025  -3.293  1.00  0.00     0.000 C 
ENDROOT
BRANCH   1   2
ATOM      2  C   UNL     1      -3.247  -0.757  -2.159  1.00  0.00     0.000 C 
BRANCH   2   3
ATOM      3  C   UNL     1      -2.758  -1.140  -0.746  1.00  0.00     0.000 C 
BRANCH   3   4
ATOM      4  C   UNL     1      -3.285  -2.484  -0.213  1.00  0.00     0.000 C 
BRANCH   4   5
ATOM      5  C   UNL     1      -4.752  -2.743  -0.585  1.00  0.00     0.001 C 
BRANCH   5   6
ATOM      6  C   UNL     1      -5.242  -4.074   0.012  1.00  0.00     0.009 C 
BRANCH   6   7
ATOM      7  C   UNL     1      -6.705  -4.049   0.511  1.00  0.00     0.032 C 
ATOM      8  C   UNL     1      -7.454  -2.775   0.091  1.00  0.00     0.014 C 
BRANCH   7   9
ATOM      9  C   UNL     1      -7.451  -5.296   0.115  1.00  0.00     0.044 C 
ATOM     10  O   UNL     1      -8.672  -5.437   0.393  1.00  0.00    -0.550 OA
ATOM     11  O   UNL     1      -6.800  -6.284  -0.612  1.00  0.00    -0.550 OA
ENDBRANCH   7   9
ENDBRANCH   6   7
ENDBRANCH   5   6
ENDBRANCH   4   5
ENDBRANCH   3   4
ENDBRANCH   2   3
ENDBRANCH   1   2
BRANCH   1  12
ATOM     12  C   UNL     1      -2.231   0.032  -4.414  1.00  0.00     0.000 C 
BRANCH  12  13
ATOM     13  C   UNL     1      -3.603   0.698  -4.650  1.00  0.00    -0.000 C 
BRANCH  13  14
ATOM     14  C   UNL     1      -4.437  -0.032  -5.714  1.00  0.00    -0.000 C 
BRANCH  14  15
ATOM     15  C   UNL     1      -3.576  -1.025  -6.503  1.00  0.00    -0.000 C 
BRANCH  15  16
ATOM     16  C   UNL     1      -4.076  -2.464  -6.310  1.00  0.00    -0.000 C 
BRANCH  16  17
ATOM     17  C   UNL     1      -5.293  -2.538  -5.363  1.00  0.00    -0.000 C 
BRANCH  17  18
ATOM     18  C   UNL     1      -5.114  -3.538  -4.208  1.00  0.00    -0.003 C 
ATOM     19  C   UNL     1      -3.769  -4.260  -4.243  1.00  0.00     0.004 C 
ENDBRANCH  17  18
ENDBRANCH  16  17
ENDBRANCH  15  16
ENDBRANCH  14  15
ENDBRANCH  13  14
ENDBRANCH  12  13
ENDBRANCH   1  12
TORSDOF 14
ENDMDL
