MODEL 1
REMARK VINA RESULT:     3.910      0.000      0.000
REMARK INTER + INTRA:           4.314
REMARK INTER:                   4.595
REMARK INTRA:                  -0.281
REMARK UNBOUND:                -0.281
REMARK SMILES O=c1cc(-c2ccc(O)c(O)c2)oc2cc(O)cc(O)c12
REMARK SMILES IDX 4 1 3 2 2 3 1 4 21 5 19 6 18 7 16 8 15 9 14 10 13 11 5 12
REMARK SMILES IDX 6 13 7 14 8 15 12 16 10 17 9 18 11 20 20 22 17 24
REMARK H PARENT 9 19 11 21 20 23 17 25
REMARK Flexibility Score: inf
ROOT
ATOM      1  C   UNL     1      -7.712  36.214   0.277  1.00  0.00     0.138 A 
ATOM      2  C   UNL     1      -7.244  37.307   1.025  1.00  0.00     0.100 A 
ATOM      3  C   UNL     1      -6.154  37.138   1.880  1.00  0.00     0.197 A 
ATOM      4  O   UNL     1      -5.742  38.124   2.548  1.00  0.00    -0.289 OA
ATOM      5  C   UNL     1      -5.541  35.874   1.983  1.00  0.00     0.107 A 
ATOM      6  C   UNL     1      -4.432  35.618   2.824  1.00  0.00     0.134 A 
ATOM      7  C   UNL     1      -3.882  34.327   2.875  1.00  0.00     0.093 A 
ATOM      8  C   UNL     1      -4.420  33.292   2.102  1.00  0.00     0.123 A 
ATOM      9  C   UNL     1      -5.515  33.541   1.271  1.00  0.00     0.094 A 
ATOM     10  C   UNL     1      -6.076  34.819   1.206  1.00  0.00     0.146 A 
ATOM     11  O   UNL     1      -7.117  35.030   0.406  1.00  0.00    -0.456 OA
ENDROOT
BRANCH   1  12
ATOM     12  C   UNL     1      -8.868  36.335  -0.647  1.00  0.00     0.021 A 
ATOM     13  C   UNL     1      -8.863  37.239  -1.723  1.00  0.00     0.016 A 
ATOM     14  C   UNL     1      -9.961  37.323  -2.582  1.00  0.00     0.051 A 
ATOM     15  C   UNL     1     -11.081  36.507  -2.393  1.00  0.00     0.157 A 
ATOM     16  C   UNL     1      -9.988  35.505  -0.466  1.00  0.00     0.062 A 
ATOM     17  C   UNL     1     -11.094  35.584  -1.322  1.00  0.00     0.158 A 
BRANCH  15  18
ATOM     18  O   UNL     1     -12.145  36.643  -3.286  1.00  0.00    -0.504 OA
ATOM     19  H   UNL     1     -13.007  36.121  -3.221  1.00  0.00     0.293 HD
ENDBRANCH  15  18
BRANCH  17  20
ATOM     20  O   UNL     1     -12.173  34.733  -1.073  1.00  0.00    -0.504 OA
ATOM     21  H   UNL     1     -12.189  34.044  -0.335  1.00  0.00     0.293 HD
ENDBRANCH  17  20
ENDBRANCH   1  12
BRANCH   6  22
ATOM     22  O   UNL     1      -3.875  36.630   3.606  1.00  0.00    -0.507 OA
ATOM     23  H   UNL     1      -4.443  37.204   4.219  1.00  0.00     0.293 HD
ENDBRANCH   6  22
BRANCH   8  24
ATOM     24  O   UNL     1      -3.875  32.011   2.152  1.00  0.00    -0.508 OA
ATOM     25  H   UNL     1      -4.396  31.200   1.836  1.00  0.00     0.293 HD
ENDBRANCH   8  24
TORSDOF 5
ENDMDL
MODEL 2
REMARK VINA RESULT:     4.435     11.998     15.111
REMARK INTER + INTRA:           4.932
REMARK INTER:                   5.196
REMARK INTRA:                  -0.264
REMARK UNBOUND:                -0.281
REMARK SMILES O=c1cc(-c2ccc(O)c(O)c2)oc2cc(O)cc(O)c12
REMARK SMILES IDX 4 1 3 2 2 3 1 4 21 5 19 6 18 7 16 8 15 9 14 10 13 11 5 12
REMARK SMILES IDX 6 13 7 14 8 15 12 16 10 17 9 18 11 20 20 22 17 24
REMARK H PARENT 9 19 11 21 20 23 17 25
REMARK Flexibility Score: inf
ROOT
ATOM      1  C   UNL     1     -18.370  33.834  -9.485  1.00  0.00     0.138 A 
ATOM      2  C   UNL     1     -18.304  33.437 -10.831  1.00  0.00     0.100 A 
ATOM      3  C   UNL     1     -17.085  33.503 -11.509  1.00  0.00     0.197 A 
ATOM      4  O   UNL     1     -17.037  33.146 -12.716  1.00  0.00    -0.289 OA
ATOM      5  C   UNL     1     -15.940  33.971 -10.835  1.00  0.00     0.107 A 
ATOM      6  C   UNL     1     -14.668  34.069 -11.446  1.00  0.00     0.134 A 
ATOM      7  C   UNL     1     -13.577  34.551 -10.707  1.00  0.00     0.093 A 
ATOM      8  C   UNL     1     -13.736  34.936  -9.371  1.00  0.00     0.123 A 
ATOM      9  C   UNL     1     -14.989  34.842  -8.764  1.00  0.00     0.094 A 
ATOM     10  C   UNL     1     -16.088  34.363  -9.483  1.00  0.00     0.146 A 
ATOM     11  O   UNL     1     -17.271  34.281  -8.882  1.00  0.00    -0.456 OA
ENDROOT
BRANCH   1  12
ATOM     12  C   UNL     1     -19.639  33.786  -8.716  1.00  0.00     0.021 A 
ATOM     13  C   UNL     1     -20.000  32.661  -7.955  1.00  0.00     0.016 A 
ATOM     14  C   UNL     1     -21.195  32.648  -7.233  1.00  0.00     0.051 A 
ATOM     15  C   UNL     1     -22.050  33.755  -7.247  1.00  0.00     0.157 A 
ATOM     16  C   UNL     1     -20.492  34.903  -8.718  1.00  0.00     0.062 A 
ATOM     17  C   UNL     1     -21.693  34.898  -7.998  1.00  0.00     0.158 A 
BRANCH  15  18
ATOM     18  O   UNL     1     -23.230  33.677  -6.505  1.00  0.00    -0.504 OA
ATOM     19  H   UNL     1     -24.134  33.969  -6.849  1.00  0.00     0.293 HD
ENDBRANCH  15  18
BRANCH  17  20
ATOM     20  O   UNL     1     -22.491  36.042  -8.055  1.00  0.00    -0.504 OA
ATOM     21  H   UNL     1     -23.501  36.026  -8.062  1.00  0.00     0.293 HD
ENDBRANCH  17  20
ENDBRANCH   1  12
BRANCH   6  22
ATOM     22  O   UNL     1     -14.480  33.692 -12.777  1.00  0.00    -0.507 OA
ATOM     23  H   UNL     1     -15.242  33.335 -13.342  1.00  0.00     0.293 HD
ENDBRANCH   6  22
BRANCH   8  24
ATOM     24  O   UNL     1     -12.653  35.415  -8.637  1.00  0.00    -0.508 OA
ATOM     25  H   UNL     1     -11.750  34.954  -8.662  1.00  0.00     0.293 HD
ENDBRANCH   8  24
TORSDOF 5
ENDMDL
MODEL 3
REMARK VINA RESULT:     5.503      3.949      5.327
REMARK INTER + INTRA:           6.187
REMARK INTER:                   6.479
REMARK INTRA:                  -0.292
REMARK UNBOUND:                -0.281
REMARK SMILES O=c1cc(-c2ccc(O)c(O)c2)oc2cc(O)cc(O)c12
REMARK SMILES IDX 4 1 3 2 2 3 1 4 21 5 19 6 18 7 16 8 15 9 14 10 13 11 5 12
REMARK SMILES IDX 6 13 7 14 8 15 12 16 10 17 9 18 11 20 20 22 17 24
REMARK H PARENT 9 19 11 21 20 23 17 25
REMARK Flexibility Score: inf
ROOT
ATOM      1  C   UNL     1      -6.468  33.617   1.174  1.00  0.00     0.138 A 
ATOM      2  C   UNL     1      -5.545  34.179   0.276  1.00  0.00     0.100 A 
ATOM      3  C   UNL     1      -5.044  35.459   0.517  1.00  0.00     0.197 A 
ATOM      4  O   UNL     1      -4.217  35.955  -0.294  1.00  0.00    -0.289 OA
ATOM      5  C   UNL     1      -5.474  36.171   1.654  1.00  0.00     0.107 A 
ATOM      6  C   UNL     1      -5.016  37.471   1.973  1.00  0.00     0.134 A 
ATOM      7  C   UNL     1      -5.498  38.116   3.122  1.00  0.00     0.093 A 
ATOM      8  C   UNL     1      -6.428  37.484   3.956  1.00  0.00     0.123 A 
ATOM      9  C   UNL     1      -6.883  36.201   3.646  1.00  0.00     0.094 A 
ATOM     10  C   UNL     1      -6.414  35.542   2.506  1.00  0.00     0.146 A 
ATOM     11  O   UNL     1      -6.861  34.320   2.233  1.00  0.00    -0.456 OA
ENDROOT
BRANCH   1  12
ATOM     12  C   UNL     1      -7.034  32.260   0.967  1.00  0.00     0.021 A 
ATOM     13  C   UNL     1      -7.504  31.838  -0.289  1.00  0.00     0.016 A 
ATOM     14  C   UNL     1      -8.022  30.552  -0.457  1.00  0.00     0.051 A 
ATOM     15  C   UNL     1      -8.078  29.659   0.618  1.00  0.00     0.157 A 
ATOM     16  C   UNL     1      -7.078  31.356   2.042  1.00  0.00     0.062 A 
ATOM     17  C   UNL     1      -7.597  30.065   1.884  1.00  0.00     0.158 A 
BRANCH  15  18
ATOM     18  O   UNL     1      -8.609  28.389   0.384  1.00  0.00    -0.504 OA
ATOM     19  H   UNL     1      -8.100  27.637  -0.057  1.00  0.00     0.293 HD
ENDBRANCH  15  18
BRANCH  17  20
ATOM     20  O   UNL     1      -7.614  29.229   3.002  1.00  0.00    -0.504 OA
ATOM     21  H   UNL     1      -7.641  29.560   3.955  1.00  0.00     0.293 HD
ENDBRANCH  17  20
ENDBRANCH   1  12
BRANCH   6  22
ATOM     22  O   UNL     1      -4.090  38.125   1.159  1.00  0.00    -0.507 OA
ATOM     23  H   UNL     1      -4.359  38.894   0.556  1.00  0.00     0.293 HD
ENDBRANCH   6  22
BRANCH   8  24
ATOM     24  O   UNL     1      -6.907  38.124   5.097  1.00  0.00    -0.508 OA
ATOM     25  H   UNL     1      -7.579  37.677   5.713  1.00  0.00     0.293 HD
ENDBRANCH   8  24
TORSDOF 5
ENDMDL
MODEL 4
REMARK VINA RESULT:     6.247     13.465     15.916
REMARK INTER + INTRA:           7.062
REMARK INTER:                   7.332
REMARK INTRA:                  -0.270
REMARK UNBOUND:                -0.281
REMARK SMILES O=c1cc(-c2ccc(O)c(O)c2)oc2cc(O)cc(O)c12
REMARK SMILES IDX 4 1 3 2 2 3 1 4 21 5 19 6 18 7 16 8 15 9 14 10 13 11 5 12
REMARK SMILES IDX 6 13 7 14 8 15 12 16 10 17 9 18 11 20 20 22 17 24
REMARK H PARENT 9 19 11 21 20 23 17 25
REMARK Flexibility Score: inf
ROOT
ATOM      1  C   UNL     1     -18.982  33.930  -9.090  1.00  0.00     0.138 A 
ATOM      2  C   UNL     1     -17.805  34.085  -8.339  1.00  0.00     0.100 A 
ATOM      3  C   UNL     1     -16.568  34.058  -8.986  1.00  0.00     0.197 A 
ATOM      4  O   UNL     1     -15.518  34.198  -8.304  1.00  0.00    -0.289 OA
ATOM      5  C   UNL     1     -16.518  33.872 -10.382  1.00  0.00     0.107 A 
ATOM      6  C   UNL     1     -15.308  33.834 -11.114  1.00  0.00     0.134 A 
ATOM      7  C   UNL     1     -15.343  33.638 -12.504  1.00  0.00     0.093 A 
ATOM      8  C   UNL     1     -16.563  33.480 -13.171  1.00  0.00     0.123 A 
ATOM      9  C   UNL     1     -17.759  33.518 -12.452  1.00  0.00     0.094 A 
ATOM     10  C   UNL     1     -17.746  33.713 -11.068  1.00  0.00     0.146 A 
ATOM     11  O   UNL     1     -18.898  33.746 -10.406  1.00  0.00    -0.456 OA
ENDROOT
BRANCH   1  12
ATOM     12  C   UNL     1     -20.324  33.949  -8.456  1.00  0.00     0.021 A 
ATOM     13  C   UNL     1     -20.800  32.864  -7.699  1.00  0.00     0.016 A 
ATOM     14  C   UNL     1     -22.062  32.914  -7.105  1.00  0.00     0.051 A 
ATOM     15  C   UNL     1     -22.873  34.045  -7.244  1.00  0.00     0.157 A 
ATOM     16  C   UNL     1     -21.134  35.091  -8.583  1.00  0.00     0.062 A 
ATOM     17  C   UNL     1     -22.402  35.149  -7.991  1.00  0.00     0.158 A 
BRANCH  15  18
ATOM     18  O   UNL     1     -24.125  34.030  -6.626  1.00  0.00    -0.504 OA
ATOM     19  H   UNL     1     -24.932  34.527  -6.974  1.00  0.00     0.293 HD
ENDBRANCH  15  18
BRANCH  17  20
ATOM     20  O   UNL     1     -23.151  36.314  -8.169  1.00  0.00    -0.504 OA
ATOM     21  H   UNL     1     -23.518  36.871  -7.411  1.00  0.00     0.293 HD
ENDBRANCH  17  20
ENDBRANCH   1  12
BRANCH   6  22
ATOM     22  O   UNL     1     -14.077  33.987 -10.476  1.00  0.00    -0.507 OA
ATOM     23  H   UNL     1     -14.008  34.345  -9.530  1.00  0.00     0.293 HD
ENDBRANCH   6  22
BRANCH   8  24
ATOM     24  O   UNL     1     -16.598  33.286 -14.550  1.00  0.00    -0.508 OA
ATOM     25  H   UNL     1     -16.088  33.891 -15.184  1.00  0.00     0.293 HD
ENDBRANCH   8  24
TORSDOF 5
ENDMDL
