MODEL 1
REMARK VINA RESULT:    -3.390      0.000      0.000
REMARK INTER + INTRA:          -4.250
REMARK INTER:                  -3.985
REMARK INTRA:                  -0.266
REMARK UNBOUND:                -0.266
REMARK SMILES O=c1c(O)c(-c2ccc(O)cc2)oc2cc(O)cc(O)c12
REMARK SMILES IDX 5 1 3 2 2 3 1 4 21 5 19 6 18 7 16 8 15 9 14 10 13 11 6 12
REMARK SMILES IDX 7 13 8 14 9 15 12 16 11 17 10 18 4 20 20 22 17 24
REMARK H PARENT 10 19 4 21 20 23 17 25
REMARK Flexibility Score: inf
ROOT
ATOM      1  C   UNL     1    -127.474  39.727  16.266  1.00  0.00     0.180 A 
ATOM      2  C   UNL     1    -127.328  38.491  16.921  1.00  0.00     0.208 A 
ATOM      3  C   UNL     1    -126.037  37.984  17.138  1.00  0.00     0.238 A 
ATOM      4  O   UNL     1    -125.915  36.852  17.676  1.00  0.00    -0.285 OA
ATOM      5  C   UNL     1    -124.908  38.726  16.714  1.00  0.00     0.111 A 
ATOM      6  C   UNL     1    -123.553  38.327  16.920  1.00  0.00     0.134 A 
ATOM      7  C   UNL     1    -122.518  39.074  16.343  1.00  0.00     0.093 A 
ATOM      8  C   UNL     1    -122.785  40.239  15.625  1.00  0.00     0.123 A 
ATOM      9  C   UNL     1    -124.103  40.671  15.469  1.00  0.00     0.094 A 
ATOM     10  C   UNL     1    -125.158  39.927  16.001  1.00  0.00     0.146 A 
ATOM     11  O   UNL     1    -126.399  40.366  15.822  1.00  0.00    -0.452 OA
ENDROOT
BRANCH   1  12
ATOM     12  C   UNL     1    -128.800  40.337  16.022  1.00  0.00     0.021 A 
ATOM     13  C   UNL     1    -129.497  41.009  17.044  1.00  0.00     0.016 A 
ATOM     14  C   UNL     1    -130.738  41.600  16.783  1.00  0.00     0.047 A 
ATOM     15  C   UNL     1    -131.291  41.539  15.497  1.00  0.00     0.115 A 
ATOM     16  C   UNL     1    -129.353  40.299  14.731  1.00  0.00     0.016 A 
ATOM     17  C   UNL     1    -130.594  40.890  14.473  1.00  0.00     0.047 A 
BRANCH  15  18
ATOM     18  O   UNL     1    -132.527  42.122  15.227  1.00  0.00    -0.508 OA
ATOM     19  H   UNL     1    -133.358  41.863  15.744  1.00  0.00     0.293 HD
ENDBRANCH  15  18
ENDBRANCH   1  12
BRANCH   2  20
ATOM     20  O   UNL     1    -128.457  37.765  17.310  1.00  0.00    -0.502 OA
ATOM     21  H   UNL     1    -129.350  38.206  17.497  1.00  0.00     0.293 HD
ENDBRANCH   2  20
BRANCH   6  22
ATOM     22  O   UNL     1    -123.172  37.230  17.698  1.00  0.00    -0.507 OA
ATOM     23  H   UNL     1    -122.955  37.272  18.682  1.00  0.00     0.293 HD
ENDBRANCH   6  22
BRANCH   8  24
ATOM     24  O   UNL     1    -121.730  40.966  15.078  1.00  0.00    -0.508 OA
ATOM     25  H   UNL     1    -121.688  41.176  14.088  1.00  0.00     0.293 HD
ENDBRANCH   8  24
TORSDOF 5
ENDMDL
MODEL 2
REMARK VINA RESULT:    -3.390     10.694     13.370
REMARK INTER + INTRA:          -4.250
REMARK INTER:                  -3.963
REMARK INTRA:                  -0.287
REMARK UNBOUND:                -0.266
REMARK SMILES O=c1c(O)c(-c2ccc(O)cc2)oc2cc(O)cc(O)c12
REMARK SMILES IDX 5 1 3 2 2 3 1 4 21 5 19 6 18 7 16 8 15 9 14 10 13 11 6 12
REMARK SMILES IDX 7 13 8 14 9 15 12 16 11 17 10 18 4 20 20 22 17 24
REMARK H PARENT 10 19 4 21 20 23 17 25
REMARK Flexibility Score: inf
ROOT
ATOM      1  C   UNL     1    -123.154  40.452   4.908  1.00  0.00     0.180 A 
ATOM      2  C   UNL     1    -123.082  41.152   6.125  1.00  0.00     0.208 A 
ATOM      3  C   UNL     1    -124.271  41.444   6.813  1.00  0.00     0.238 A 
ATOM      4  O   UNL     1    -124.204  42.118   7.874  1.00  0.00    -0.285 OA
ATOM      5  C   UNL     1    -125.514  41.020   6.285  1.00  0.00     0.111 A 
ATOM      6  C   UNL     1    -126.776  41.226   6.918  1.00  0.00     0.134 A 
ATOM      7  C   UNL     1    -127.952  40.880   6.243  1.00  0.00     0.093 A 
ATOM      8  C   UNL     1    -127.910  40.275   4.987  1.00  0.00     0.123 A 
ATOM      9  C   UNL     1    -126.679  40.014   4.384  1.00  0.00     0.094 A 
ATOM     10  C   UNL     1    -125.490  40.382   5.017  1.00  0.00     0.146 A 
ATOM     11  O   UNL     1    -124.339  40.126   4.406  1.00  0.00    -0.452 OA
ENDROOT
BRANCH   1  12
ATOM     12  C   UNL     1    -121.945  40.086   4.137  1.00  0.00     0.021 A 
ATOM     13  C   UNL     1    -121.337  38.824   4.281  1.00  0.00     0.016 A 
ATOM     14  C   UNL     1    -120.210  38.492   3.524  1.00  0.00     0.047 A 
ATOM     15  C   UNL     1    -119.683  39.408   2.605  1.00  0.00     0.115 A 
ATOM     16  C   UNL     1    -121.422  40.990   3.198  1.00  0.00     0.016 A 
ATOM     17  C   UNL     1    -120.293  40.656   2.443  1.00  0.00     0.047 A 
BRANCH  15  18
ATOM     18  O   UNL     1    -118.559  39.088   1.847  1.00  0.00    -0.508 OA
ATOM     19  H   UNL     1    -118.396  39.506   0.939  1.00  0.00     0.293 HD
ENDBRANCH  15  18
ENDBRANCH   1  12
BRANCH   2  20
ATOM     20  O   UNL     1    -121.847  41.582   6.617  1.00  0.00    -0.502 OA
ATOM     21  H   UNL     1    -120.967  41.208   6.280  1.00  0.00     0.293 HD
ENDBRANCH   2  20
BRANCH   6  22
ATOM     22  O   UNL     1    -126.927  41.738   8.210  1.00  0.00    -0.507 OA
ATOM     23  H   UNL     1    -127.757  42.197   8.553  1.00  0.00     0.293 HD
ENDBRANCH   6  22
BRANCH   8  24
ATOM     24  O   UNL     1    -129.100  39.929   4.350  1.00  0.00    -0.508 OA
ATOM     25  H   UNL     1    -129.357  38.961   4.194  1.00  0.00     0.293 HD
ENDBRANCH   8  24
TORSDOF 5
ENDMDL
MODEL 3
REMARK VINA RESULT:    -3.363      1.900      6.797
REMARK INTER + INTRA:          -4.219
REMARK INTER:                  -3.963
REMARK INTRA:                  -0.256
REMARK UNBOUND:                -0.266
REMARK SMILES O=c1c(O)c(-c2ccc(O)cc2)oc2cc(O)cc(O)c12
REMARK SMILES IDX 5 1 3 2 2 3 1 4 21 5 19 6 18 7 16 8 15 9 14 10 13 11 6 12
REMARK SMILES IDX 7 13 8 14 9 15 12 16 11 17 10 18 4 20 20 22 17 24
REMARK H PARENT 10 19 4 21 20 23 17 25
REMARK Flexibility Score: inf
ROOT
ATOM      1  C   UNL     1    -126.566  39.053  16.114  1.00  0.00     0.180 A 
ATOM      2  C   UNL     1    -126.508  39.195  14.716  1.00  0.00     0.208 A 
ATOM      3  C   UNL     1    -127.487  39.967  14.070  1.00  0.00     0.238 A 
ATOM      4  O   UNL     1    -127.462  40.045  12.813  1.00  0.00    -0.285 OA
ATOM      5  C   UNL     1    -128.499  40.601  14.829  1.00  0.00     0.111 A 
ATOM      6  C   UNL     1    -129.516  41.441  14.282  1.00  0.00     0.134 A 
ATOM      7  C   UNL     1    -130.543  41.909  15.110  1.00  0.00     0.093 A 
ATOM      8  C   UNL     1    -130.555  41.625  16.475  1.00  0.00     0.123 A 
ATOM      9  C   UNL     1    -129.532  40.855  17.031  1.00  0.00     0.094 A 
ATOM     10  C   UNL     1    -128.515  40.343  16.224  1.00  0.00     0.146 A 
ATOM     11  O   UNL     1    -127.566  39.606  16.791  1.00  0.00    -0.452 OA
ENDROOT
BRANCH   1  12
ATOM     12  C   UNL     1    -125.558  38.275  16.869  1.00  0.00     0.021 A 
ATOM     13  C   UNL     1    -124.275  38.794  17.127  1.00  0.00     0.016 A 
ATOM     14  C   UNL     1    -123.347  38.051  17.865  1.00  0.00     0.047 A 
ATOM     15  C   UNL     1    -123.693  36.788  18.364  1.00  0.00     0.115 A 
ATOM     16  C   UNL     1    -125.902  37.018  17.391  1.00  0.00     0.016 A 
ATOM     17  C   UNL     1    -124.973  36.276  18.127  1.00  0.00     0.047 A 
BRANCH  15  18
ATOM     18  O   UNL     1    -122.776  36.039  19.097  1.00  0.00    -0.508 OA
ATOM     19  H   UNL     1    -122.714  36.118  20.105  1.00  0.00     0.293 HD
ENDBRANCH  15  18
ENDBRANCH   1  12
BRANCH   2  20
ATOM     20  O   UNL     1    -125.514  38.541  13.984  1.00  0.00    -0.502 OA
ATOM     21  H   UNL     1    -125.187  37.611  14.220  1.00  0.00     0.293 HD
ENDBRANCH   2  20
BRANCH   6  22
ATOM     22  O   UNL     1    -129.548  41.861  12.950  1.00  0.00    -0.507 OA
ATOM     23  H   UNL     1    -128.783  41.768  12.299  1.00  0.00     0.293 HD
ENDBRANCH   6  22
BRANCH   8  24
ATOM     24  O   UNL     1    -131.584  42.121  17.272  1.00  0.00    -0.508 OA
ATOM     25  H   UNL     1    -132.557  41.995  17.021  1.00  0.00     0.293 HD
ENDBRANCH   8  24
TORSDOF 5
ENDMDL
MODEL 4
REMARK VINA RESULT:    -3.318      1.500      3.337
REMARK INTER + INTRA:          -4.166
REMARK INTER:                  -3.870
REMARK INTRA:                  -0.296
REMARK UNBOUND:                -0.266
REMARK SMILES O=c1c(O)c(-c2ccc(O)cc2)oc2cc(O)cc(O)c12
REMARK SMILES IDX 5 1 3 2 2 3 1 4 21 5 19 6 18 7 16 8 15 9 14 10 13 11 6 12
REMARK SMILES IDX 7 13 8 14 9 15 12 16 11 17 10 18 4 20 20 22 17 24
REMARK H PARENT 10 19 4 21 20 23 17 25
REMARK Flexibility Score: inf
ROOT
ATOM      1  C   UNL     1    -127.161  39.282  16.548  1.00  0.00     0.180 A 
ATOM      2  C   UNL     1    -126.014  39.894  16.014  1.00  0.00     0.208 A 
ATOM      3  C   UNL     1    -124.756  39.323  16.269  1.00  0.00     0.238 A 
ATOM      4  O   UNL     1    -123.729  39.906  15.834  1.00  0.00    -0.285 OA
ATOM      5  C   UNL     1    -124.663  38.139  17.039  1.00  0.00     0.111 A 
ATOM      6  C   UNL     1    -123.445  37.452  17.325  1.00  0.00     0.134 A 
ATOM      7  C   UNL     1    -123.456  36.364  18.206  1.00  0.00     0.093 A 
ATOM      8  C   UNL     1    -124.648  35.897  18.758  1.00  0.00     0.123 A 
ATOM      9  C   UNL     1    -125.853  36.524  18.439  1.00  0.00     0.094 A 
ATOM     10  C   UNL     1    -125.869  37.635  17.593  1.00  0.00     0.146 A 
ATOM     11  O   UNL     1    -127.035  38.210  17.321  1.00  0.00    -0.452 OA
ENDROOT
BRANCH   1  12
ATOM     12  C   UNL     1    -128.522  39.810  16.304  1.00  0.00     0.021 A 
ATOM     13  C   UNL     1    -129.250  39.455  15.153  1.00  0.00     0.016 A 
ATOM     14  C   UNL     1    -130.545  39.947  14.956  1.00  0.00     0.047 A 
ATOM     15  C   UNL     1    -131.132  40.787  15.910  1.00  0.00     0.115 A 
ATOM     16  C   UNL     1    -129.127  40.636  17.265  1.00  0.00     0.016 A 
ATOM     17  C   UNL     1    -130.421  41.128  17.064  1.00  0.00     0.047 A 
BRANCH  15  18
ATOM     18  O   UNL     1    -132.419  41.285  15.722  1.00  0.00    -0.508 OA
ATOM     19  H   UNL     1    -132.581  42.250  15.460  1.00  0.00     0.293 HD
ENDBRANCH  15  18
ENDBRANCH   1  12
BRANCH   2  20
ATOM     20  O   UNL     1    -126.126  41.075  15.276  1.00  0.00    -0.502 OA
ATOM     21  H   UNL     1    -125.790  41.966  15.621  1.00  0.00     0.293 HD
ENDBRANCH   2  20
BRANCH   6  22
ATOM     22  O   UNL     1    -122.212  37.779  16.753  1.00  0.00    -0.507 OA
ATOM     23  H   UNL     1    -122.087  38.120  15.812  1.00  0.00     0.293 HD
ENDBRANCH   6  22
BRANCH   8  24
ATOM     24  O   UNL     1    -124.624  34.801  19.619  1.00  0.00    -0.508 OA
ATOM     25  H   UNL     1    -124.790  33.860  19.284  1.00  0.00     0.293 HD
ENDBRANCH   8  24
TORSDOF 5
ENDMDL
MODEL 5
REMARK VINA RESULT:    -3.304     11.487     13.962
REMARK INTER + INTRA:          -4.149
REMARK INTER:                  -3.868
REMARK INTRA:                  -0.281
REMARK UNBOUND:                -0.266
REMARK SMILES O=c1c(O)c(-c2ccc(O)cc2)oc2cc(O)cc(O)c12
REMARK SMILES IDX 5 1 3 2 2 3 1 4 21 5 19 6 18 7 16 8 15 9 14 10 13 11 6 12
REMARK SMILES IDX 7 13 8 14 9 15 12 16 11 17 10 18 4 20 20 22 17 24
REMARK H PARENT 10 19 4 21 20 23 17 25
REMARK Flexibility Score: inf
ROOT
ATOM      1  C   UNL     1    -123.018  39.887   4.132  1.00  0.00     0.180 A 
ATOM      2  C   UNL     1    -123.260  38.600   3.621  1.00  0.00     0.208 A 
ATOM      3  C   UNL     1    -124.579  38.121   3.582  1.00  0.00     0.238 A 
ATOM      4  O   UNL     1    -124.783  36.947   3.174  1.00  0.00    -0.285 OA
ATOM      5  C   UNL     1    -125.640  38.939   4.038  1.00  0.00     0.111 A 
ATOM      6  C   UNL     1    -127.019  38.571   4.006  1.00  0.00     0.134 A 
ATOM      7  C   UNL     1    -127.971  39.405   4.604  1.00  0.00     0.093 A 
ATOM      8  C   UNL     1    -127.604  40.624   5.173  1.00  0.00     0.123 A 
ATOM      9  C   UNL     1    -126.266  41.022   5.157  1.00  0.00     0.094 A 
ATOM     10  C   UNL     1    -125.289  40.194   4.601  1.00  0.00     0.146 A 
ATOM     11  O   UNL     1    -124.026  40.604   4.614  1.00  0.00    -0.452 OA
ENDROOT
BRANCH   1  12
ATOM     12  C   UNL     1    -121.659  40.472   4.184  1.00  0.00     0.021 A 
ATOM     13  C   UNL     1    -120.859  40.368   5.338  1.00  0.00     0.016 A 
ATOM     14  C   UNL     1    -119.568  40.906   5.354  1.00  0.00     0.047 A 
ATOM     15  C   UNL     1    -119.056  41.542   4.216  1.00  0.00     0.115 A 
ATOM     16  C   UNL     1    -121.129  41.093   3.041  1.00  0.00     0.016 A 
ATOM     17  C   UNL     1    -119.838  41.631   3.061  1.00  0.00     0.047 A 
BRANCH  15  18
ATOM     18  O   UNL     1    -117.772  42.084   4.223  1.00  0.00    -0.508 OA
ATOM     19  H   UNL     1    -117.021  41.673   3.681  1.00  0.00     0.293 HD
ENDBRANCH  15  18
ENDBRANCH   1  12
BRANCH   2  20
ATOM     20  O   UNL     1    -122.195  37.801   3.197  1.00  0.00    -0.502 OA
ATOM     21  H   UNL     1    -121.851  37.814   2.244  1.00  0.00     0.293 HD
ENDBRANCH   2  20
BRANCH   6  22
ATOM     22  O   UNL     1    -127.505  37.418   3.382  1.00  0.00    -0.507 OA
ATOM     23  H   UNL     1    -128.465  37.274   3.108  1.00  0.00     0.293 HD
ENDBRANCH   6  22
BRANCH   8  24
ATOM     24  O   UNL     1    -128.579  41.437   5.746  1.00  0.00    -0.508 OA
ATOM     25  H   UNL     1    -128.844  41.343   6.719  1.00  0.00     0.293 HD
ENDBRANCH   8  24
TORSDOF 5
ENDMDL
MODEL 6
REMARK VINA RESULT:    -3.275      1.847      6.061
REMARK INTER + INTRA:          -4.115
REMARK INTER:                  -3.827
REMARK INTRA:                  -0.289
REMARK UNBOUND:                -0.266
REMARK SMILES O=c1c(O)c(-c2ccc(O)cc2)oc2cc(O)cc(O)c12
REMARK SMILES IDX 5 1 3 2 2 3 1 4 21 5 19 6 18 7 16 8 15 9 14 10 13 11 6 12
REMARK SMILES IDX 7 13 8 14 9 15 12 16 11 17 10 18 4 20 20 22 17 24
REMARK H PARENT 10 19 4 21 20 23 17 25
REMARK Flexibility Score: inf
ROOT
ATOM      1  C   UNL     1    -126.744  39.804  15.963  1.00  0.00     0.180 A 
ATOM      2  C   UNL     1    -126.655  38.639  16.746  1.00  0.00     0.208 A 
ATOM      3  C   UNL     1    -127.739  38.284  17.564  1.00  0.00     0.238 A 
ATOM      4  O   UNL     1    -127.632  37.271  18.303  1.00  0.00    -0.285 OA
ATOM      5  C   UNL     1    -128.905  39.088  17.576  1.00  0.00     0.111 A 
ATOM      6  C   UNL     1    -130.079  38.801  18.336  1.00  0.00     0.134 A 
ATOM      7  C   UNL     1    -131.122  39.734  18.375  1.00  0.00     0.093 A 
ATOM      8  C   UNL     1    -131.063  40.911  17.630  1.00  0.00     0.123 A 
ATOM      9  C   UNL     1    -129.945  41.174  16.836  1.00  0.00     0.094 A 
ATOM     10  C   UNL     1    -128.873  40.280  16.807  1.00  0.00     0.146 A 
ATOM     11  O   UNL     1    -127.824  40.572  16.047  1.00  0.00    -0.452 OA
ENDROOT
BRANCH   1  12
ATOM     12  C   UNL     1    -125.653  40.230  15.058  1.00  0.00     0.021 A 
ATOM     13  C   UNL     1    -124.619  41.075  15.503  1.00  0.00     0.016 A 
ATOM     14  C   UNL     1    -123.586  41.444  14.636  1.00  0.00     0.047 A 
ATOM     15  C   UNL     1    -123.563  40.964  13.321  1.00  0.00     0.115 A 
ATOM     16  C   UNL     1    -125.611  39.736  13.744  1.00  0.00     0.016 A 
ATOM     17  C   UNL     1    -124.577  40.108  12.879  1.00  0.00     0.047 A 
BRANCH  15  18
ATOM     18  O   UNL     1    -122.540  41.327  12.449  1.00  0.00    -0.508 OA
ATOM     19  H   UNL     1    -122.608  42.154  11.868  1.00  0.00     0.293 HD
ENDBRANCH  15  18
ENDBRANCH   1  12
BRANCH   2  20
ATOM     20  O   UNL     1    -125.486  37.873  16.735  1.00  0.00    -0.502 OA
ATOM     21  H   UNL     1    -124.568  38.279  16.872  1.00  0.00     0.293 HD
ENDBRANCH   2  20
BRANCH   6  22
ATOM     22  O   UNL     1    -130.279  37.612  19.044  1.00  0.00    -0.507 OA
ATOM     23  H   UNL     1    -130.743  37.546  19.936  1.00  0.00     0.293 HD
ENDBRANCH   6  22
BRANCH   8  24
ATOM     24  O   UNL     1    -132.126  41.810  17.679  1.00  0.00    -0.508 OA
ATOM     25  H   UNL     1    -132.941  41.637  18.255  1.00  0.00     0.293 HD
ENDBRANCH   8  24
TORSDOF 5
ENDMDL
MODEL 7
REMARK VINA RESULT:    -3.275     12.118     14.260
REMARK INTER + INTRA:          -4.115
REMARK INTER:                  -3.822
REMARK INTRA:                  -0.293
REMARK UNBOUND:                -0.266
REMARK SMILES O=c1c(O)c(-c2ccc(O)cc2)oc2cc(O)cc(O)c12
REMARK SMILES IDX 5 1 3 2 2 3 1 4 21 5 19 6 18 7 16 8 15 9 14 10 13 11 6 12
REMARK SMILES IDX 7 13 8 14 9 15 12 16 11 17 10 18 4 20 20 22 17 24
REMARK H PARENT 10 19 4 21 20 23 17 25
REMARK Flexibility Score: inf
ROOT
ATOM      1  C   UNL     1    -123.294  39.498   4.009  1.00  0.00     0.180 A 
ATOM      2  C   UNL     1    -124.499  40.009   4.520  1.00  0.00     0.208 A 
ATOM      3  C   UNL     1    -125.685  39.286   4.319  1.00  0.00     0.238 A 
ATOM      4  O   UNL     1    -126.769  39.776   4.731  1.00  0.00    -0.285 OA
ATOM      5  C   UNL     1    -125.649  38.052   3.625  1.00  0.00     0.111 A 
ATOM      6  C   UNL     1    -126.784  37.216   3.400  1.00  0.00     0.134 A 
ATOM      7  C   UNL     1    -126.656  36.082   2.588  1.00  0.00     0.093 A 
ATOM      8  C   UNL     1    -125.423  35.719   2.049  1.00  0.00     0.123 A 
ATOM      9  C   UNL     1    -124.294  36.496   2.312  1.00  0.00     0.094 A 
ATOM     10  C   UNL     1    -124.398  37.653   3.087  1.00  0.00     0.146 A 
ATOM     11  O   UNL     1    -123.303  38.371   3.306  1.00  0.00    -0.452 OA
ENDROOT
BRANCH   1  12
ATOM     12  C   UNL     1    -121.999  40.190   4.202  1.00  0.00     0.021 A 
ATOM     13  C   UNL     1    -121.242  40.016   5.376  1.00  0.00     0.016 A 
ATOM     14  C   UNL     1    -120.010  40.661   5.524  1.00  0.00     0.047 A 
ATOM     15  C   UNL     1    -119.513  41.476   4.499  1.00  0.00     0.115 A 
ATOM     16  C   UNL     1    -121.484  40.992   3.171  1.00  0.00     0.016 A 
ATOM     17  C   UNL     1    -120.252  41.637   3.323  1.00  0.00     0.047 A 
BRANCH  15  18
ATOM     18  O   UNL     1    -118.289  42.125   4.638  1.00  0.00    -0.508 OA
ATOM     19  H   UNL     1    -117.925  42.381   5.548  1.00  0.00     0.293 HD
ENDBRANCH  15  18
ENDBRANCH   1  12
BRANCH   2  20
ATOM     20  O   UNL     1    -124.516  41.240   5.182  1.00  0.00    -0.502 OA
ATOM     21  H   UNL     1    -124.042  42.059   4.820  1.00  0.00     0.293 HD
ENDBRANCH   2  20
BRANCH   6  22
ATOM     22  O   UNL     1    -128.042  37.438   3.967  1.00  0.00    -0.507 OA
ATOM     23  H   UNL     1    -128.332  38.300   4.402  1.00  0.00     0.293 HD
ENDBRANCH   6  22
BRANCH   8  24
ATOM     24  O   UNL     1    -125.328  34.575   1.258  1.00  0.00    -0.508 OA
ATOM     25  H   UNL     1    -126.125  33.970   1.103  1.00  0.00     0.293 HD
ENDBRANCH   8  24
TORSDOF 5
ENDMDL
MODEL 8
REMARK VINA RESULT:    -3.250     11.442     13.061
REMARK INTER + INTRA:          -4.086
REMARK INTER:                  -3.795
REMARK INTRA:                  -0.291
REMARK UNBOUND:                -0.266
REMARK SMILES O=c1c(O)c(-c2ccc(O)cc2)oc2cc(O)cc(O)c12
REMARK SMILES IDX 5 1 3 2 2 3 1 4 21 5 19 6 18 7 16 8 15 9 14 10 13 11 6 12
REMARK SMILES IDX 7 13 8 14 9 15 12 16 11 17 10 18 4 20 20 22 17 24
REMARK H PARENT 10 19 4 21 20 23 17 25
REMARK Flexibility Score: inf
ROOT
ATOM      1  C   UNL     1    -123.003  40.392   4.806  1.00  0.00     0.180 A 
ATOM      2  C   UNL     1    -122.112  41.181   5.556  1.00  0.00     0.208 A 
ATOM      3  C   UNL     1    -120.843  41.463   5.027  1.00  0.00     0.238 A 
ATOM      4  O   UNL     1    -120.030  42.123   5.726  1.00  0.00    -0.285 OA
ATOM      5  C   UNL     1    -120.486  40.969   3.749  1.00  0.00     0.111 A 
ATOM      6  C   UNL     1    -119.242  41.228   3.098  1.00  0.00     0.134 A 
ATOM      7  C   UNL     1    -118.945  40.580   1.893  1.00  0.00     0.093 A 
ATOM      8  C   UNL     1    -119.871  39.736   1.282  1.00  0.00     0.123 A 
ATOM      9  C   UNL     1    -121.114  39.522   1.879  1.00  0.00     0.094 A 
ATOM     10  C   UNL     1    -121.424  40.126   3.100  1.00  0.00     0.146 A 
ATOM     11  O   UNL     1    -122.614  39.889   3.641  1.00  0.00    -0.452 OA
ENDROOT
BRANCH   1  12
ATOM     12  C   UNL     1    -124.366  40.072   5.286  1.00  0.00     0.021 A 
ATOM     13  C   UNL     1    -125.437  40.967   5.101  1.00  0.00     0.016 A 
ATOM     14  C   UNL     1    -126.722  40.631   5.541  1.00  0.00     0.047 A 
ATOM     15  C   UNL     1    -126.956  39.395   6.157  1.00  0.00     0.115 A 
ATOM     16  C   UNL     1    -124.614  38.827   5.885  1.00  0.00     0.016 A 
ATOM     17  C   UNL     1    -125.900  38.494   6.325  1.00  0.00     0.047 A 
BRANCH  15  18
ATOM     18  O   UNL     1    -128.231  39.053   6.600  1.00  0.00    -0.508 OA
ATOM     19  H   UNL     1    -128.922  39.759   6.822  1.00  0.00     0.293 HD
ENDBRANCH  15  18
ENDBRANCH   1  12
BRANCH   2  20
ATOM     20  O   UNL     1    -122.476  41.639   6.825  1.00  0.00    -0.502 OA
ATOM     21  H   UNL     1    -122.536  41.025   7.628  1.00  0.00     0.293 HD
ENDBRANCH   2  20
BRANCH   6  22
ATOM     22  O   UNL     1    -118.283  42.125   3.577  1.00  0.00    -0.507 OA
ATOM     23  H   UNL     1    -117.344  41.873   3.845  1.00  0.00     0.293 HD
ENDBRANCH   6  22
BRANCH   8  24
ATOM     24  O   UNL     1    -119.549  39.120   0.075  1.00  0.00    -0.508 OA
ATOM     25  H   UNL     1    -118.597  38.852  -0.146  1.00  0.00     0.293 HD
ENDBRANCH   8  24
TORSDOF 5
ENDMDL
MODEL 9
REMARK VINA RESULT:    -3.154     11.700     12.935
REMARK INTER + INTRA:          -3.973
REMARK INTER:                  -3.705
REMARK INTRA:                  -0.269
REMARK UNBOUND:                -0.266
REMARK SMILES O=c1c(O)c(-c2ccc(O)cc2)oc2cc(O)cc(O)c12
REMARK SMILES IDX 5 1 3 2 2 3 1 4 21 5 19 6 18 7 16 8 15 9 14 10 13 11 6 12
REMARK SMILES IDX 7 13 8 14 9 15 12 16 11 17 10 18 4 20 20 22 17 24
REMARK H PARENT 10 19 4 21 20 23 17 25
REMARK Flexibility Score: inf
ROOT
ATOM      1  C   UNL     1    -123.796  39.773   4.379  1.00  0.00     0.180 A 
ATOM      2  C   UNL     1    -123.793  38.569   3.654  1.00  0.00     0.208 A 
ATOM      3  C   UNL     1    -122.686  38.265   2.845  1.00  0.00     0.238 A 
ATOM      4  O   UNL     1    -122.713  37.212   2.156  1.00  0.00    -0.285 OA
ATOM      5  C   UNL     1    -121.589  39.159   2.786  1.00  0.00     0.111 A 
ATOM      6  C   UNL     1    -120.399  38.932   2.032  1.00  0.00     0.134 A 
ATOM      7  C   UNL     1    -119.435  39.943   1.942  1.00  0.00     0.093 A 
ATOM      8  C   UNL     1    -119.587  41.146   2.630  1.00  0.00     0.123 A 
ATOM      9  C   UNL     1    -120.720  41.355   3.418  1.00  0.00     0.094 A 
ATOM     10  C   UNL     1    -121.715  40.379   3.498  1.00  0.00     0.146 A 
ATOM     11  O   UNL     1    -122.782  40.621   4.251  1.00  0.00    -0.452 OA
ENDROOT
BRANCH   1  12
ATOM     12  C   UNL     1    -124.915  40.153   5.271  1.00  0.00     0.021 A 
ATOM     13  C   UNL     1    -126.088  40.745   4.765  1.00  0.00     0.016 A 
ATOM     14  C   UNL     1    -127.142  41.071   5.624  1.00  0.00     0.047 A 
ATOM     15  C   UNL     1    -127.044  40.800   6.995  1.00  0.00     0.115 A 
ATOM     16  C   UNL     1    -124.834  39.865   6.643  1.00  0.00     0.016 A 
ATOM     17  C   UNL     1    -125.890  40.194   7.500  1.00  0.00     0.047 A 
BRANCH  15  18
ATOM     18  O   UNL     1    -128.087  41.123   7.860  1.00  0.00    -0.508 OA
ATOM     19  H   UNL     1    -128.972  40.632   7.828  1.00  0.00     0.293 HD
ENDBRANCH  15  18
ENDBRANCH   1  12
BRANCH   2  20
ATOM     20  O   UNL     1    -124.895  37.712   3.709  1.00  0.00    -0.502 OA
ATOM     21  H   UNL     1    -125.773  37.924   3.249  1.00  0.00     0.293 HD
ENDBRANCH   2  20
BRANCH   6  22
ATOM     22  O   UNL     1    -120.105  37.730   1.380  1.00  0.00    -0.507 OA
ATOM     23  H   UNL     1    -119.201  37.283   1.380  1.00  0.00     0.293 HD
ENDBRANCH   6  22
BRANCH   8  24
ATOM     24  O   UNL     1    -118.601  42.125   2.530  1.00  0.00    -0.508 OA
ATOM     25  H   UNL     1    -118.414  42.602   1.657  1.00  0.00     0.293 HD
ENDBRANCH   8  24
TORSDOF 5
ENDMDL
