MODEL 1
REMARK VINA RESULT:    -5.377      0.000      0.000
REMARK INTER + INTRA:          -5.692
REMARK INTER:                  -5.692
REMARK INTRA:                   0.000
REMARK UNBOUND:                 0.000
REMARK SMILES O=c1ccc2cc(O)c(O)cc2o1
REMARK SMILES IDX 4 1 3 2 2 3 1 4 13 5 12 6 11 7 9 8 7 9 6 10 5 11 8 12 10 14
REMARK H PARENT 8 13 10 15
REMARK Flexibility Score: inf
ROOT
ATOM      1  C   UNL     1      10.352  -7.788  -9.362  1.00  0.00     0.019 A 
ATOM      2  C   UNL     1       9.611  -8.557 -10.258  1.00  0.00     0.094 A 
ATOM      3  C   UNL     1       8.218  -8.584 -10.138  1.00  0.00     0.336 A 
ATOM      4  O   UNL     1       7.531  -9.273 -10.937  1.00  0.00    -0.246 OA
ATOM      5  O   UNL     1       7.611  -7.884  -9.182  1.00  0.00    -0.423 OA
ATOM      6  C   UNL     1       8.280  -7.137  -8.307  1.00  0.00     0.142 A 
ATOM      7  C   UNL     1       7.588  -6.423  -7.324  1.00  0.00     0.098 A 
ATOM      8  C   UNL     1       8.284  -5.634  -6.400  1.00  0.00     0.161 A 
ATOM      9  C   UNL     1       9.688  -5.559  -6.459  1.00  0.00     0.158 A 
ATOM     10  C   UNL     1      10.387  -6.274  -7.443  1.00  0.00     0.062 A 
ATOM     11  C   UNL     1       9.688  -7.062  -8.367  1.00  0.00     0.022 A 
ENDROOT
BRANCH   9  12
ATOM     12  O   UNL     1      10.383  -4.775  -5.540  1.00  0.00    -0.504 OA
ATOM     13  H   UNL     1      11.255  -5.086  -5.128  1.00  0.00     0.293 HD
ENDBRANCH   9  12
BRANCH   8  14
ATOM     14  O   UNL     1       7.566  -4.935  -5.432  1.00  0.00    -0.504 OA
ATOM     15  H   UNL     1       8.012  -4.534  -4.616  1.00  0.00     0.293 HD
ENDBRANCH   8  14
TORSDOF 2
ENDMDL
MODEL 2
REMARK VINA RESULT:    -5.362      1.711      2.198
REMARK INTER + INTRA:          -5.676
REMARK INTER:                  -5.676
REMARK INTRA:                   0.000
REMARK UNBOUND:                 0.000
REMARK SMILES O=c1ccc2cc(O)c(O)cc2o1
REMARK SMILES IDX 4 1 3 2 2 3 1 4 13 5 12 6 11 7 9 8 7 9 6 10 5 11 8 12 10 14
REMARK H PARENT 8 13 10 15
REMARK Flexibility Score: inf
ROOT
ATOM      1  C   UNL     1       7.976  -8.960  -8.108  1.00  0.00     0.019 A 
ATOM      2  C   UNL     1       8.019  -8.739  -9.484  1.00  0.00     0.094 A 
ATOM      3  C   UNL     1       8.048  -7.424  -9.959  1.00  0.00     0.336 A 
ATOM      4  O   UNL     1       8.086  -7.204 -11.198  1.00  0.00    -0.246 OA
ATOM      5  O   UNL     1       8.036  -6.400  -9.108  1.00  0.00    -0.423 OA
ATOM      6  C   UNL     1       7.996  -6.566  -7.789  1.00  0.00     0.142 A 
ATOM      7  C   UNL     1       7.985  -5.452  -6.944  1.00  0.00     0.098 A 
ATOM      8  C   UNL     1       7.943  -5.619  -5.554  1.00  0.00     0.161 A 
ATOM      9  C   UNL     1       7.912  -6.913  -5.003  1.00  0.00     0.158 A 
ATOM     10  C   UNL     1       7.922  -8.033  -5.846  1.00  0.00     0.062 A 
ATOM     11  C   UNL     1       7.964  -7.865  -7.237  1.00  0.00     0.022 A 
ENDROOT
BRANCH   9  12
ATOM     12  O   UNL     1       7.870  -7.080  -3.619  1.00  0.00    -0.504 OA
ATOM     13  H   UNL     1       8.272  -6.396  -2.989  1.00  0.00     0.293 HD
ENDBRANCH   9  12
BRANCH   8  14
ATOM     14  O   UNL     1       7.933  -4.488  -4.738  1.00  0.00    -0.504 OA
ATOM     15  H   UNL     1       8.786  -4.015  -4.465  1.00  0.00     0.293 HD
ENDBRANCH   8  14
TORSDOF 2
ENDMDL
MODEL 3
REMARK VINA RESULT:    -5.347      1.196      2.283
REMARK INTER + INTRA:          -5.660
REMARK INTER:                  -5.660
REMARK INTRA:                   0.000
REMARK UNBOUND:                 0.000
REMARK SMILES O=c1ccc2cc(O)c(O)cc2o1
REMARK SMILES IDX 4 1 3 2 2 3 1 4 13 5 12 6 11 7 9 8 7 9 6 10 5 11 8 12 10 14
REMARK H PARENT 8 13 10 15
REMARK Flexibility Score: inf
ROOT
ATOM      1  C   UNL     1       7.666  -7.882  -9.308  1.00  0.00     0.019 A 
ATOM      2  C   UNL     1       8.410  -8.512 -10.305  1.00  0.00     0.094 A 
ATOM      3  C   UNL     1       9.797  -8.337 -10.329  1.00  0.00     0.336 A 
ATOM      4  O   UNL     1      10.486  -8.897 -11.221  1.00  0.00    -0.246 OA
ATOM      5  O   UNL     1      10.396  -7.580  -9.413  1.00  0.00    -0.423 OA
ATOM      6  C   UNL     1       9.724  -6.961  -8.445  1.00  0.00     0.142 A 
ATOM      7  C   UNL     1      10.408  -6.178  -7.510  1.00  0.00     0.098 A 
ATOM      8  C   UNL     1       9.708  -5.523  -6.488  1.00  0.00     0.161 A 
ATOM      9  C   UNL     1       8.310  -5.653  -6.400  1.00  0.00     0.158 A 
ATOM     10  C   UNL     1       7.620  -6.437  -7.336  1.00  0.00     0.062 A 
ATOM     11  C   UNL     1       8.321  -7.092  -8.358  1.00  0.00     0.022 A 
ENDROOT
BRANCH   9  12
ATOM     12  O   UNL     1       7.612  -5.003  -5.384  1.00  0.00    -0.504 OA
ATOM     13  H   UNL     1       7.554  -5.387  -4.448  1.00  0.00     0.293 HD
ENDBRANCH   9  12
BRANCH   8  14
ATOM     14  O   UNL     1      10.418  -4.750  -5.571  1.00  0.00    -0.504 OA
ATOM     15  H   UNL     1      11.416  -4.595  -5.657  1.00  0.00     0.293 HD
ENDBRANCH   8  14
TORSDOF 2
ENDMDL
MODEL 4
REMARK VINA RESULT:    -5.274      1.655      2.045
REMARK INTER + INTRA:          -5.582
REMARK INTER:                  -5.582
REMARK INTRA:                   0.000
REMARK UNBOUND:                 0.000
REMARK SMILES O=c1ccc2cc(O)c(O)cc2o1
REMARK SMILES IDX 4 1 3 2 2 3 1 4 13 5 12 6 11 7 9 8 7 9 6 10 5 11 8 12 10 14
REMARK H PARENT 8 13 10 15
REMARK Flexibility Score: inf
ROOT
ATOM      1  C   UNL     1       8.040  -6.453  -9.185  1.00  0.00     0.019 A 
ATOM      2  C   UNL     1       8.043  -7.606  -9.969  1.00  0.00     0.094 A 
ATOM      3  C   UNL     1       7.997  -8.854  -9.340  1.00  0.00     0.336 A 
ATOM      4  O   UNL     1       7.999  -9.906 -10.031  1.00  0.00    -0.246 OA
ATOM      5  O   UNL     1       7.950  -8.937  -8.013  1.00  0.00    -0.423 OA
ATOM      6  C   UNL     1       7.945  -7.863  -7.227  1.00  0.00     0.142 A 
ATOM      7  C   UNL     1       7.895  -8.012  -5.838  1.00  0.00     0.098 A 
ATOM      8  C   UNL     1       7.889  -6.887  -5.005  1.00  0.00     0.161 A 
ATOM      9  C   UNL     1       7.934  -5.598  -5.566  1.00  0.00     0.158 A 
ATOM     10  C   UNL     1       7.985  -5.442  -6.960  1.00  0.00     0.062 A 
ATOM     11  C   UNL     1       7.991  -6.570  -7.792  1.00  0.00     0.022 A 
ENDROOT
BRANCH   9  12
ATOM     12  O   UNL     1       7.929  -4.476  -4.739  1.00  0.00    -0.504 OA
ATOM     13  H   UNL     1       7.155  -4.279  -4.115  1.00  0.00     0.293 HD
ENDBRANCH   9  12
BRANCH   8  14
ATOM     14  O   UNL     1       7.839  -7.069  -3.624  1.00  0.00    -0.504 OA
ATOM     15  H   UNL     1       8.673  -7.059  -3.049  1.00  0.00     0.293 HD
ENDBRANCH   8  14
TORSDOF 2
ENDMDL
MODEL 5
REMARK VINA RESULT:    -5.166      1.170      1.250
REMARK INTER + INTRA:          -5.468
REMARK INTER:                  -5.468
REMARK INTRA:                   0.000
REMARK UNBOUND:                 0.000
REMARK SMILES O=c1ccc2cc(O)c(O)cc2o1
REMARK SMILES IDX 4 1 3 2 2 3 1 4 13 5 12 6 11 7 9 8 7 9 6 10 5 11 8 12 10 14
REMARK H PARENT 8 13 10 15
REMARK Flexibility Score: inf
ROOT
ATOM      1  C   UNL     1      10.487  -9.101  -9.264  1.00  0.00     0.019 A 
ATOM      2  C   UNL     1       9.827  -9.861 -10.229  1.00  0.00     0.094 A 
ATOM      3  C   UNL     1       8.564  -9.451 -10.668  1.00  0.00     0.336 A 
ATOM      4  O   UNL     1       7.952 -10.125 -11.538  1.00  0.00    -0.246 OA
ATOM      5  O   UNL     1       8.003  -8.351 -10.172  1.00  0.00    -0.423 OA
ATOM      6  C   UNL     1       8.597  -7.597  -9.251  1.00  0.00     0.142 A 
ATOM      7  C   UNL     1       7.959  -6.451  -8.766  1.00  0.00     0.098 A 
ATOM      8  C   UNL     1       8.578  -5.652  -7.797  1.00  0.00     0.161 A 
ATOM      9  C   UNL     1       9.850  -6.002  -7.307  1.00  0.00     0.158 A 
ATOM     10  C   UNL     1      10.494  -7.151  -7.790  1.00  0.00     0.062 A 
ATOM     11  C   UNL     1       9.873  -7.949  -8.760  1.00  0.00     0.022 A 
ENDROOT
BRANCH   9  12
ATOM     12  O   UNL     1      10.468  -5.208  -6.342  1.00  0.00    -0.504 OA
ATOM     13  H   UNL     1      11.264  -5.541  -5.811  1.00  0.00     0.293 HD
ENDBRANCH   9  12
BRANCH   8  14
ATOM     14  O   UNL     1       7.916  -4.517  -7.334  1.00  0.00    -0.504 OA
ATOM     15  H   UNL     1       8.202  -4.033  -6.492  1.00  0.00     0.293 HD
ENDBRANCH   8  14
TORSDOF 2
ENDMDL
MODEL 6
REMARK VINA RESULT:    -5.060     17.222     18.217
REMARK INTER + INTRA:          -5.356
REMARK INTER:                  -5.356
REMARK INTRA:                   0.000
REMARK UNBOUND:                 0.000
REMARK SMILES O=c1ccc2cc(O)c(O)cc2o1
REMARK SMILES IDX 4 1 3 2 2 3 1 4 13 5 12 6 11 7 9 8 7 9 6 10 5 11 8 12 10 14
REMARK H PARENT 8 13 10 15
REMARK Flexibility Score: inf
ROOT
ATOM      1  C   UNL     1      20.397  -1.088 -21.601  1.00  0.00     0.019 A 
ATOM      2  C   UNL     1      21.171  -0.386 -22.524  1.00  0.00     0.094 A 
ATOM      3  C   UNL     1      21.871   0.747 -22.099  1.00  0.00     0.336 A 
ATOM      4  O   UNL     1      22.575   1.395 -22.917  1.00  0.00    -0.246 OA
ATOM      5  O   UNL     1      21.797   1.148 -20.832  1.00  0.00    -0.423 OA
ATOM      6  C   UNL     1      21.070   0.508 -19.920  1.00  0.00     0.142 A 
ATOM      7  C   UNL     1      21.031   0.976 -18.603  1.00  0.00     0.098 A 
ATOM      8  C   UNL     1      20.269   0.307 -17.636  1.00  0.00     0.161 A 
ATOM      9  C   UNL     1      19.538  -0.841 -17.990  1.00  0.00     0.158 A 
ATOM     10  C   UNL     1      19.574  -1.315 -19.311  1.00  0.00     0.062 A 
ATOM     11  C   UNL     1      20.337  -0.645 -20.276  1.00  0.00     0.022 A 
ENDROOT
BRANCH   9  12
ATOM     12  O   UNL     1      18.778  -1.508 -17.030  1.00  0.00    -0.504 OA
ATOM     13  H   UNL     1      18.082  -2.197 -17.289  1.00  0.00     0.293 HD
ENDBRANCH   9  12
BRANCH   8  14
ATOM     14  O   UNL     1      20.250   0.799 -16.332  1.00  0.00    -0.504 OA
ATOM     15  H   UNL     1      21.043   1.284 -15.929  1.00  0.00     0.293 HD
ENDBRANCH   8  14
TORSDOF 2
ENDMDL
MODEL 7
REMARK VINA RESULT:    -5.057      1.495      1.980
REMARK INTER + INTRA:          -5.353
REMARK INTER:                  -5.353
REMARK INTRA:                   0.000
REMARK UNBOUND:                 0.000
REMARK SMILES O=c1ccc2cc(O)c(O)cc2o1
REMARK SMILES IDX 4 1 3 2 2 3 1 4 13 5 12 6 11 7 9 8 7 9 6 10 5 11 8 12 10 14
REMARK H PARENT 8 13 10 15
REMARK Flexibility Score: inf
ROOT
ATOM      1  C   UNL     1      10.363  -8.072  -7.745  1.00  0.00     0.019 A 
ATOM      2  C   UNL     1      10.718  -8.727  -8.925  1.00  0.00     0.094 A 
ATOM      3  C   UNL     1      10.002  -8.453 -10.094  1.00  0.00     0.336 A 
ATOM      4  O   UNL     1      10.307  -9.034 -11.168  1.00  0.00    -0.246 OA
ATOM      5  O   UNL     1       8.997  -7.580 -10.080  1.00  0.00    -0.423 OA
ATOM      6  C   UNL     1       8.626  -6.934  -8.978  1.00  0.00     0.142 A 
ATOM      7  C   UNL     1       7.563  -6.027  -9.023  1.00  0.00     0.098 A 
ATOM      8  C   UNL     1       7.166  -5.343  -7.867  1.00  0.00     0.161 A 
ATOM      9  C   UNL     1       7.840  -5.567  -6.653  1.00  0.00     0.158 A 
ATOM     10  C   UNL     1       8.907  -6.475  -6.602  1.00  0.00     0.062 A 
ATOM     11  C   UNL     1       9.303  -7.160  -7.759  1.00  0.00     0.022 A 
ENDROOT
BRANCH   9  12
ATOM     12  O   UNL     1       7.447  -4.887  -5.501  1.00  0.00    -0.504 OA
ATOM     13  H   UNL     1       7.736  -5.192  -4.579  1.00  0.00     0.293 HD
ENDBRANCH   9  12
BRANCH   8  14
ATOM     14  O   UNL     1       6.102  -4.446  -7.945  1.00  0.00    -0.504 OA
ATOM     15  H   UNL     1       5.834  -3.860  -7.164  1.00  0.00     0.293 HD
ENDBRANCH   8  14
TORSDOF 2
ENDMDL
MODEL 8
REMARK VINA RESULT:    -5.020      2.130      5.092
REMARK INTER + INTRA:          -5.314
REMARK INTER:                  -5.314
REMARK INTRA:                   0.000
REMARK UNBOUND:                 0.000
REMARK SMILES O=c1ccc2cc(O)c(O)cc2o1
REMARK SMILES IDX 4 1 3 2 2 3 1 4 13 5 12 6 11 7 9 8 7 9 6 10 5 11 8 12 10 14
REMARK H PARENT 8 13 10 15
REMARK Flexibility Score: inf
ROOT
ATOM      1  C   UNL     1       8.397  -8.403  -8.316  1.00  0.00     0.019 A 
ATOM      2  C   UNL     1       9.032  -7.662  -7.320  1.00  0.00     0.094 A 
ATOM      3  C   UNL     1       9.481  -6.371  -7.617  1.00  0.00     0.336 A 
ATOM      4  O   UNL     1      10.057  -5.687  -6.731  1.00  0.00    -0.246 OA
ATOM      5  O   UNL     1       9.304  -5.860  -8.833  1.00  0.00    -0.423 OA
ATOM      6  C   UNL     1       8.704  -6.532  -9.812  1.00  0.00     0.142 A 
ATOM      7  C   UNL     1       8.546  -5.943 -11.070  1.00  0.00     0.098 A 
ATOM      8  C   UNL     1       7.915  -6.644 -12.106  1.00  0.00     0.161 A 
ATOM      9  C   UNL     1       7.437  -7.948 -11.881  1.00  0.00     0.158 A 
ATOM     10  C   UNL     1       7.593  -8.543 -10.620  1.00  0.00     0.062 A 
ATOM     11  C   UNL     1       8.225  -7.841  -9.585  1.00  0.00     0.022 A 
ENDROOT
BRANCH   9  12
ATOM     12  O   UNL     1       6.809  -8.647 -12.910  1.00  0.00    -0.504 OA
ATOM     13  H   UNL     1       7.215  -8.707 -13.837  1.00  0.00     0.293 HD
ENDBRANCH   9  12
BRANCH   8  14
ATOM     14  O   UNL     1       7.774  -6.029 -13.349  1.00  0.00    -0.504 OA
ATOM     15  H   UNL     1       7.475  -5.066 -13.441  1.00  0.00     0.293 HD
ENDBRANCH   8  14
TORSDOF 2
ENDMDL
MODEL 9
REMARK VINA RESULT:    -4.916      2.557      4.523
REMARK INTER + INTRA:          -5.203
REMARK INTER:                  -5.203
REMARK INTRA:                   0.000
REMARK UNBOUND:                 0.000
REMARK SMILES O=c1ccc2cc(O)c(O)cc2o1
REMARK SMILES IDX 4 1 3 2 2 3 1 4 13 5 12 6 11 7 9 8 7 9 6 10 5 11 8 12 10 14
REMARK H PARENT 8 13 10 15
REMARK Flexibility Score: inf
ROOT
ATOM      1  C   UNL     1       7.996  -5.588  -7.616  1.00  0.00     0.019 A 
ATOM      2  C   UNL     1       8.138  -6.670  -6.747  1.00  0.00     0.094 A 
ATOM      3  C   UNL     1       8.301  -7.952  -7.281  1.00  0.00     0.336 A 
ATOM      4  O   UNL     1       8.430  -8.941  -6.512  1.00  0.00    -0.246 OA
ATOM      5  O   UNL     1       8.319  -8.135  -8.599  1.00  0.00    -0.423 OA
ATOM      6  C   UNL     1       8.187  -7.132  -9.463  1.00  0.00     0.142 A 
ATOM      7  C   UNL     1       8.214  -7.385 -10.838  1.00  0.00     0.098 A 
ATOM      8  C   UNL     1       8.076  -6.334 -11.754  1.00  0.00     0.161 A 
ATOM      9  C   UNL     1       7.909  -5.017 -11.290  1.00  0.00     0.158 A 
ATOM     10  C   UNL     1       7.881  -4.758  -9.912  1.00  0.00     0.062 A 
ATOM     11  C   UNL     1       8.019  -5.810  -8.996  1.00  0.00     0.022 A 
ENDROOT
BRANCH   9  12
ATOM     12  O   UNL     1       7.771  -3.970 -12.200  1.00  0.00    -0.504 OA
ATOM     13  H   UNL     1       7.520  -4.136 -13.168  1.00  0.00     0.293 HD
ENDBRANCH   9  12
BRANCH   8  14
ATOM     14  O   UNL     1       8.107  -6.620 -13.118  1.00  0.00    -0.504 OA
ATOM     15  H   UNL     1       8.973  -6.806 -13.608  1.00  0.00     0.293 HD
ENDBRANCH   8  14
TORSDOF 2
ENDMDL
