MODEL 1
REMARK VINA RESULT:    -2.018      0.000      0.000
REMARK INTER + INTRA:          -2.018
REMARK INTER:                  -2.018
REMARK INTRA:                   0.000
REMARK UNBOUND:                 0.000
REMARK SMILES CC(=O)[O-]
REMARK SMILES IDX 1 1 2 2 3 3 4 4
REMARK H PARENT
REMARK Flexibility Score: inf
ROOT
ATOM      1  C   UNL     1      -5.362  16.565  -6.689  1.00  0.00     0.063 C 
ATOM      2  C   UNL     1      -6.356  17.182  -7.613  1.00  0.00     0.038 C 
ATOM      3  O   UNL     1      -6.449  18.435  -7.695  1.00  0.00    -0.550 OA
ATOM      4  O   UNL     1      -7.144  16.379  -8.426  1.00  0.00    -0.550 OA
ENDROOT
TORSDOF 0
ENDMDL
MODEL 2
REMARK VINA RESULT:    -2.008      0.099      1.620
REMARK INTER + INTRA:          -2.008
REMARK INTER:                  -2.008
REMARK INTRA:                   0.000
REMARK UNBOUND:                 0.000
REMARK SMILES CC(=O)[O-]
REMARK SMILES IDX 1 1 2 2 3 3 4 4
REMARK H PARENT
REMARK Flexibility Score: inf
ROOT
ATOM      1  C   UNL     1      -5.382  16.534  -6.755  1.00  0.00     0.063 C 
ATOM      2  C   UNL     1      -6.363  17.125  -7.709  1.00  0.00     0.038 C 
ATOM      3  O   UNL     1      -7.080  16.375  -8.423  1.00  0.00    -0.550 OA
ATOM      4  O   UNL     1      -6.528  18.502  -7.775  1.00  0.00    -0.550 OA
ENDROOT
TORSDOF 0
ENDMDL
MODEL 3
REMARK VINA RESULT:    -1.995      5.927      6.536
REMARK INTER + INTRA:          -1.995
REMARK INTER:                  -1.995
REMARK INTRA:                   0.000
REMARK UNBOUND:                 0.000
REMARK SMILES CC(=O)[O-]
REMARK SMILES IDX 1 1 2 2 3 3 4 4
REMARK H PARENT
REMARK Flexibility Score: inf
ROOT
ATOM      1  C   UNL     1     -10.287  16.677 -10.993  1.00  0.00     0.063 C 
ATOM      2  C   UNL     1     -11.264  17.616 -11.614  1.00  0.00     0.038 C 
ATOM      3  O   UNL     1     -12.127  17.185 -12.423  1.00  0.00    -0.550 OA
ATOM      4  O   UNL     1     -11.262  18.958 -11.260  1.00  0.00    -0.550 OA
ENDROOT
TORSDOF 0
ENDMDL
MODEL 4
REMARK VINA RESULT:    -1.986      5.881      6.297
REMARK INTER + INTRA:          -1.986
REMARK INTER:                  -1.986
REMARK INTRA:                   0.000
REMARK UNBOUND:                 0.000
REMARK SMILES CC(=O)[O-]
REMARK SMILES IDX 1 1 2 2 3 3 4 4
REMARK H PARENT
REMARK Flexibility Score: inf
ROOT
ATOM      1  C   UNL     1     -10.259  16.650 -10.977  1.00  0.00     0.063 C 
ATOM      2  C   UNL     1     -11.221  17.639 -11.541  1.00  0.00     0.038 C 
ATOM      3  O   UNL     1     -11.147  18.852 -11.210  1.00  0.00    -0.550 OA
ATOM      4  O   UNL     1     -12.166  17.237 -12.474  1.00  0.00    -0.550 OA
ENDROOT
TORSDOF 0
ENDMDL
MODEL 5
REMARK VINA RESULT:    -1.970      5.790      6.322
REMARK INTER + INTRA:          -1.970
REMARK INTER:                  -1.970
REMARK INTRA:                   0.000
REMARK UNBOUND:                 0.000
REMARK SMILES CC(=O)[O-]
REMARK SMILES IDX 1 1 2 2 3 3 4 4
REMARK H PARENT
REMARK Flexibility Score: inf
ROOT
ATOM      1  C   UNL     1     -10.806  18.891 -11.164  1.00  0.00     0.063 C 
ATOM      2  C   UNL     1     -11.080  17.444 -11.393  1.00  0.00     0.038 C 
ATOM      3  O   UNL     1     -11.913  17.090 -12.267  1.00  0.00    -0.550 OA
ATOM      4  O   UNL     1     -10.377  16.481 -10.682  1.00  0.00    -0.550 OA
ENDROOT
TORSDOF 0
ENDMDL
MODEL 6
REMARK VINA RESULT:    -1.861     21.026     21.519
REMARK INTER + INTRA:          -1.861
REMARK INTER:                  -1.861
REMARK INTRA:                   0.000
REMARK UNBOUND:                 0.000
REMARK SMILES CC(=O)[O-]
REMARK SMILES IDX 1 1 2 2 3 3 4 4
REMARK H PARENT
REMARK Flexibility Score: inf
ROOT
ATOM      1  C   UNL     1     -19.572   1.623  -5.982  1.00  0.00     0.063 C 
ATOM      2  C   UNL     1     -20.915   1.494  -5.348  1.00  0.00     0.038 C 
ATOM      3  O   UNL     1     -21.126   1.989  -4.210  1.00  0.00    -0.550 OA
ATOM      4  O   UNL     1     -21.952   0.875  -6.033  1.00  0.00    -0.550 OA
ENDROOT
TORSDOF 0
ENDMDL
MODEL 7
REMARK VINA RESULT:    -1.836     20.768     21.276
REMARK INTER + INTRA:          -1.836
REMARK INTER:                  -1.836
REMARK INTRA:                   0.000
REMARK UNBOUND:                 0.000
REMARK SMILES CC(=O)[O-]
REMARK SMILES IDX 1 1 2 2 3 3 4 4
REMARK H PARENT
REMARK Flexibility Score: inf
ROOT
ATOM      1  C   UNL     1     -20.994   1.625  -4.445  1.00  0.00     0.063 C 
ATOM      2  C   UNL     1     -20.407   1.393  -5.796  1.00  0.00     0.038 C 
ATOM      3  O   UNL     1     -19.185   1.621  -6.001  1.00  0.00    -0.550 OA
ATOM      4  O   UNL     1     -21.191   0.875  -6.817  1.00  0.00    -0.550 OA
ENDROOT
TORSDOF 0
ENDMDL
MODEL 8
REMARK VINA RESULT:    -1.827      1.856      2.120
REMARK INTER + INTRA:          -1.827
REMARK INTER:                  -1.827
REMARK INTRA:                   0.000
REMARK UNBOUND:                 0.000
REMARK SMILES CC(=O)[O-]
REMARK SMILES IDX 1 1 2 2 3 3 4 4
REMARK H PARENT
REMARK Flexibility Score: inf
ROOT
ATOM      1  C   UNL     1      -6.529  16.681  -7.668  1.00  0.00     0.063 C 
ATOM      2  C   UNL     1      -6.522  16.605  -9.157  1.00  0.00     0.038 C 
ATOM      3  O   UNL     1      -5.500  16.192  -9.764  1.00  0.00    -0.550 OA
ATOM      4  O   UNL     1      -7.662  16.938  -9.877  1.00  0.00    -0.550 OA
ENDROOT
TORSDOF 0
ENDMDL
MODEL 9
REMARK VINA RESULT:    -1.816      1.422      1.784
REMARK INTER + INTRA:          -1.816
REMARK INTER:                  -1.816
REMARK INTRA:                   0.000
REMARK UNBOUND:                 0.000
REMARK SMILES CC(=O)[O-]
REMARK SMILES IDX 1 1 2 2 3 3 4 4
REMARK H PARENT
REMARK Flexibility Score: inf
ROOT
ATOM      1  C   UNL     1      -6.907  16.537  -8.757  1.00  0.00     0.063 C 
ATOM      2  C   UNL     1      -6.083  17.115  -7.658  1.00  0.00     0.038 C 
ATOM      3  O   UNL     1      -6.081  18.358  -7.456  1.00  0.00    -0.550 OA
ATOM      4  O   UNL     1      -5.358  16.281  -6.818  1.00  0.00    -0.550 OA
ENDROOT
TORSDOF 0
ENDMDL
