MODEL 1
REMARK VINA RESULT:    -3.293      0.000      0.000
REMARK INTER + INTRA:          -5.138
REMARK INTER:                  -5.025
REMARK INTRA:                  -0.113
REMARK UNBOUND:                -0.113
REMARK SMILES CC1=CCC[C@@H](C)C(=O)C[C@@H](C(C)C)C(=O)C1
REMARK SMILES IDX 8 1 9 2 6 3 7 4 5 5 4 6 3 7 2 8 1 9 10 11 11 12 15 13 16 14
REMARK SMILES IDX 17 15 12 17 13 18 14 19
REMARK H PARENT
REMARK Flexibility Score: 70.00
ROOT
ATOM      1  C   UNL     1      -0.757  -9.443 -39.432  1.00  0.00     0.136 C 
ATOM      2  O   UNL     1      -1.416 -10.304 -38.865  1.00  0.00    -0.299 OA
ENDROOT
BRANCH   1   3
ATOM      3  C   UNL     1      -1.113  -7.985 -39.205  1.00  0.00     0.053 C 
ATOM      4  C   UNL     1      -0.638  -7.517 -37.824  1.00  0.00     0.016 C 
BRANCH   3   5
ATOM      5  C   UNL     1      -2.622  -7.734 -39.386  1.00  0.00     0.015 C 
BRANCH   5   6
ATOM      6  C   UNL     1      -3.062  -7.899 -40.852  1.00  0.00     0.028 C 
BRANCH   6   7
ATOM      7  C   UNL     1      -3.942  -9.110 -41.013  1.00  0.00    -0.028 C 
ATOM      8  C   UNL     1      -3.683 -10.141 -41.851  1.00  0.00    -0.070 CG0
ATOM      9  C   UNL     1      -4.634 -11.312 -41.848  1.00  0.00     0.039 C 
ATOM     10  G   UNL     1      -2.491 -10.160 -42.796  1.00  0.00     0.000 G0
ENDBRANCH   6   7
ENDBRANCH   5   6
ENDBRANCH   3   5
ENDBRANCH   1   3
BRANCH   1  11
ATOM     11  C   UNL     1       0.361  -9.875 -40.353  1.00  0.00     0.087 C 
BRANCH  11  12
ATOM     12  C   UNL     1      -0.051  -9.811 -41.850  1.00  0.00     0.066 C 
BRANCH  12  13
ATOM     13  C   UNL     1      -1.245 -10.712 -42.134  1.00  0.00     0.140 C 
ATOM     14  O   UNL     1      -1.173 -11.910 -41.897  1.00  0.00    -0.299 OA
BRANCH  13  15
ATOM     15  C   UNL     1      -2.496 -10.168 -42.781  1.00  0.00     0.106 CG0
ATOM     16  G   UNL     1      -3.677 -10.148 -41.822  1.00  0.00     0.000 G0
ENDBRANCH  13  15
ENDBRANCH  12  13
BRANCH  12  17
ATOM     17  C   UNL     1       1.121 -10.129 -42.833  1.00  0.00    -0.006 C 
ATOM     18  C   UNL     1       1.403  -8.949 -43.777  1.00  0.00     0.008 C 
ATOM     19  C   UNL     1       2.423 -10.565 -42.136  1.00  0.00     0.008 C 
ENDBRANCH  12  17
ENDBRANCH  11  12
ENDBRANCH   1  11
TORSDOF 1
ENDMDL
MODEL 2
REMARK VINA RESULT:    -3.265      2.201      3.703
REMARK INTER + INTRA:          -5.096
REMARK INTER:                  -4.957
REMARK INTRA:                  -0.139
REMARK UNBOUND:                -0.113
REMARK SMILES CC1=CCC[C@@H](C)C(=O)C[C@@H](C(C)C)C(=O)C1
REMARK SMILES IDX 8 1 9 2 6 3 7 4 5 5 4 6 3 7 2 8 1 9 10 11 11 12 15 13 16 14
REMARK SMILES IDX 17 15 12 17 13 18 14 19
REMARK H PARENT
REMARK Flexibility Score: 70.00
ROOT
ATOM      1  C   UNL     1      -2.986  -9.373 -41.732  1.00  0.00     0.136 C 
ATOM      2  O   UNL     1      -3.645  -9.271 -40.707  1.00  0.00    -0.299 OA
ENDROOT
BRANCH   1   3
ATOM      3  C   UNL     1      -3.639  -9.978 -42.961  1.00  0.00     0.053 C 
ATOM      4  C   UNL     1      -4.627  -8.990 -43.595  1.00  0.00     0.016 C 
BRANCH   3   5
ATOM      5  C   UNL     1      -4.326 -11.318 -42.638  1.00  0.00     0.015 C 
BRANCH   5   6
ATOM      6  C   UNL     1      -3.310 -12.407 -42.248  1.00  0.00     0.028 C 
BRANCH   6   7
ATOM      7  C   UNL     1      -3.412 -12.732 -40.781  1.00  0.00    -0.028 C 
ATOM      8  C   UNL     1      -2.377 -12.678 -39.910  1.00  0.00    -0.070 CG0
ATOM      9  C   UNL     1      -2.659 -12.973 -38.457  1.00  0.00     0.039 C 
ATOM     10  G   UNL     1      -0.954 -12.350 -40.334  1.00  0.00     0.000 G0
ENDBRANCH   6   7
ENDBRANCH   5   6
ENDBRANCH   3   5
ENDBRANCH   1   3
BRANCH   1  11
ATOM     11  C   UNL     1      -1.544  -8.916 -41.715  1.00  0.00     0.087 C 
BRANCH  11  12
ATOM     12  C   UNL     1      -0.550 -10.109 -41.653  1.00  0.00     0.066 C 
BRANCH  12  13
ATOM     13  C   UNL     1      -0.675 -10.864 -40.337  1.00  0.00     0.140 C 
ATOM     14  O   UNL     1      -0.497 -10.277 -39.279  1.00  0.00    -0.299 OA
BRANCH  13  15
ATOM     15  C   UNL     1      -0.937 -12.351 -40.313  1.00  0.00     0.106 CG0
ATOM     16  G   UNL     1      -2.372 -12.676 -39.928  1.00  0.00     0.000 G0
ENDBRANCH  13  15
ENDBRANCH  12  13
BRANCH  12  17
ATOM     17  C   UNL     1       0.935  -9.696 -41.908  1.00  0.00    -0.006 C 
ATOM     18  C   UNL     1       1.873 -10.913 -41.878  1.00  0.00     0.008 C 
ATOM     19  C   UNL     1       1.150  -8.900 -43.210  1.00  0.00     0.008 C 
ENDBRANCH  12  17
ENDBRANCH  11  12
ENDBRANCH   1  11
TORSDOF 1
ENDMDL
MODEL 3
REMARK VINA RESULT:    -3.058      3.882      5.636
REMARK INTER + INTRA:          -4.780
REMARK INTER:                  -4.524
REMARK INTRA:                  -0.257
REMARK UNBOUND:                -0.113
REMARK SMILES CC1=CCC[C@@H](C)C(=O)C[C@@H](C(C)C)C(=O)C1
REMARK SMILES IDX 8 1 9 2 6 3 7 4 5 5 4 6 3 7 2 8 1 9 10 11 11 12 15 13 16 14
REMARK SMILES IDX 17 15 12 17 13 18 14 19
REMARK H PARENT
REMARK Flexibility Score: 70.00
ROOT
ATOM      1  C   UNL     1      -0.692  -9.752 -39.164  1.00  0.00     0.136 C 
ATOM      2  O   UNL     1      -0.089  -9.247 -40.100  1.00  0.00    -0.299 OA
ENDROOT
BRANCH   1   3
ATOM      3  C   UNL     1      -1.143  -8.859 -38.022  1.00  0.00     0.053 C 
ATOM      4  C   UNL     1      -1.149  -7.387 -38.451  1.00  0.00     0.016 C 
BRANCH   3   5
ATOM      5  C   UNL     1      -0.278  -9.066 -36.764  1.00  0.00     0.015 C 
BRANCH   5   6
ATOM      6  C   UNL     1      -1.120  -9.502 -35.551  1.00  0.00     0.028 C 
BRANCH   6   7
ATOM      7  C   UNL     1      -0.522 -10.720 -34.895  1.00  0.00    -0.028 C 
ATOM      8  C   UNL     1      -0.979 -11.983 -35.062  1.00  0.00    -0.070 CG0
ATOM      9  C   UNL     1      -0.228 -13.102 -34.384  1.00  0.00     0.039 C 
ATOM     10  G   UNL     1      -2.214 -12.315 -35.885  1.00  0.00     0.000 G0
ENDBRANCH   6   7
ENDBRANCH   5   6
ENDBRANCH   3   5
ENDBRANCH   1   3
BRANCH   1  11
ATOM     11  C   UNL     1      -0.934 -11.245 -39.177  1.00  0.00     0.087 C 
BRANCH  11  12
ATOM     12  C   UNL     1      -2.233 -11.636 -38.420  1.00  0.00     0.066 C 
BRANCH  12  13
ATOM     13  C   UNL     1      -1.947 -12.646 -37.317  1.00  0.00     0.140 C 
ATOM     14  O   UNL     1      -1.540 -13.762 -37.604  1.00  0.00    -0.299 OA
BRANCH  13  15
ATOM     15  C   UNL     1      -2.234 -12.321 -35.870  1.00  0.00     0.106 CG0
ATOM     16  G   UNL     1      -0.969 -11.987 -35.094  1.00  0.00     0.000 G0
ENDBRANCH  13  15
ENDBRANCH  12  13
BRANCH  12  17
ATOM     17  C   UNL     1      -3.367 -12.159 -39.359  1.00  0.00    -0.006 C 
ATOM     18  C   UNL     1      -4.353 -11.040 -39.733  1.00  0.00     0.008 C 
ATOM     19  C   UNL     1      -2.855 -12.853 -40.636  1.00  0.00     0.008 C 
ENDBRANCH  12  17
ENDBRANCH  11  12
ENDBRANCH   1  11
TORSDOF 1
ENDMDL
MODEL 4
REMARK VINA RESULT:    -2.956      4.778      6.815
REMARK INTER + INTRA:          -4.623
REMARK INTER:                  -4.458
REMARK INTRA:                  -0.165
REMARK UNBOUND:                -0.113
REMARK SMILES CC1=CCC[C@@H](C)C(=O)C[C@@H](C(C)C)C(=O)C1
REMARK SMILES IDX 8 1 9 2 6 3 7 4 5 5 4 6 3 7 2 8 1 9 10 11 11 12 15 13 16 14
REMARK SMILES IDX 17 15 12 17 13 18 14 19
REMARK H PARENT
REMARK Flexibility Score: 70.00
ROOT
ATOM      1  C   UNL     1      -3.950  -7.737 -46.115  1.00  0.00     0.136 C 
ATOM      2  O   UNL     1      -2.957  -7.024 -46.135  1.00  0.00    -0.299 OA
ENDROOT
BRANCH   1   3
ATOM      3  C   UNL     1      -4.262  -8.588 -47.333  1.00  0.00     0.053 C 
ATOM      4  C   UNL     1      -3.387  -8.176 -48.523  1.00  0.00     0.016 C 
BRANCH   3   5
ATOM      5  C   UNL     1      -5.757  -8.529 -47.698  1.00  0.00     0.015 C 
BRANCH   5   6
ATOM      6  C   UNL     1      -6.456  -9.884 -47.484  1.00  0.00     0.028 C 
BRANCH   6   7
ATOM      7  C   UNL     1      -7.751  -9.706 -46.735  1.00  0.00    -0.028 C 
ATOM      8  C   UNL     1      -7.919  -9.976 -45.420  1.00  0.00    -0.070 CG0
ATOM      9  C   UNL     1      -9.265  -9.683 -44.804  1.00  0.00     0.039 C 
ATOM     10  G   UNL     1      -6.823 -10.572 -44.550  1.00  0.00     0.000 G0
ENDBRANCH   6   7
ENDBRANCH   5   6
ENDBRANCH   3   5
ENDBRANCH   1   3
BRANCH   1  11
ATOM     11  C   UNL     1      -4.833  -7.715 -44.887  1.00  0.00     0.087 C 
BRANCH  11  12
ATOM     12  C   UNL     1      -4.738  -9.034 -44.070  1.00  0.00     0.066 C 
BRANCH  12  13
ATOM     13  C   UNL     1      -6.120  -9.550 -43.691  1.00  0.00     0.140 C 
ATOM     14  O   UNL     1      -6.647  -9.172 -42.655  1.00  0.00    -0.299 OA
BRANCH  13  15
ATOM     15  C   UNL     1      -6.822 -10.587 -44.534  1.00  0.00     0.106 CG0
ATOM     16  G   UNL     1      -7.917  -9.979 -45.398  1.00  0.00     0.000 G0
ENDBRANCH  13  15
ENDBRANCH  12  13
BRANCH  12  17
ATOM     17  C   UNL     1      -3.831  -8.917 -42.804  1.00  0.00    -0.006 C 
ATOM     18  C   UNL     1      -2.376  -9.307 -43.113  1.00  0.00     0.008 C 
ATOM     19  C   UNL     1      -3.870  -7.533 -42.129  1.00  0.00     0.008 C 
ENDBRANCH  12  17
ENDBRANCH  11  12
ENDBRANCH   1  11
TORSDOF 1
ENDMDL
MODEL 5
REMARK VINA RESULT:    -2.950     14.460     16.115
REMARK INTER + INTRA:          -4.615
REMARK INTER:                  -4.191
REMARK INTRA:                  -0.424
REMARK UNBOUND:                -0.113
REMARK SMILES CC1=CCC[C@@H](C)C(=O)C[C@@H](C(C)C)C(=O)C1
REMARK SMILES IDX 8 1 9 2 6 3 7 4 5 5 4 6 3 7 2 8 1 9 10 11 11 12 15 13 16 14
REMARK SMILES IDX 17 15 12 17 13 18 14 19
REMARK H PARENT
REMARK Flexibility Score: 70.00
ROOT
ATOM      1  C   UNL     1       0.183 -22.904 -44.425  1.00  0.00     0.136 C 
ATOM      2  O   UNL     1      -0.037 -21.755 -44.782  1.00  0.00    -0.299 OA
ENDROOT
BRANCH   1   3
ATOM      3  C   UNL     1       0.047 -23.249 -42.954  1.00  0.00     0.053 C 
ATOM      4  C   UNL     1      -1.223 -22.623 -42.362  1.00  0.00     0.016 C 
BRANCH   3   5
ATOM      5  C   UNL     1       1.295 -22.830 -42.155  1.00  0.00     0.015 C 
BRANCH   5   6
ATOM      6  C   UNL     1       2.153 -24.043 -41.749  1.00  0.00     0.028 C 
BRANCH   6   7
ATOM      7  C   UNL     1       3.295 -24.235 -42.713  1.00  0.00    -0.028 C 
ATOM      8  C   UNL     1       3.373 -25.235 -43.621  1.00  0.00    -0.070 CG0
ATOM      9  C   UNL     1       4.555 -25.251 -44.558  1.00  0.00     0.039 C 
ATOM     10  G   UNL     1       2.334 -26.341 -43.724  1.00  0.00     0.000 G0
ENDBRANCH   6   7
ENDBRANCH   5   6
ENDBRANCH   3   5
ENDBRANCH   1   3
BRANCH   1  11
ATOM     11  C   UNL     1       0.605 -23.918 -45.465  1.00  0.00     0.087 C 
BRANCH  11  12
ATOM     12  C   UNL     1       0.262 -25.373 -45.042  1.00  0.00     0.066 C 
BRANCH  12  13
ATOM     13  C   UNL     1       1.510 -26.244 -44.996  1.00  0.00     0.140 C 
ATOM     14  O   UNL     1       1.817 -26.919 -45.967  1.00  0.00    -0.299 OA
BRANCH  13  15
ATOM     15  C   UNL     1       2.338 -26.353 -43.737  1.00  0.00     0.106 CG0
ATOM     16  G   UNL     1       3.358 -25.231 -43.621  1.00  0.00     0.000 G0
ENDBRANCH  13  15
ENDBRANCH  12  13
BRANCH  12  17
ATOM     17  C   UNL     1      -0.836 -26.038 -45.933  1.00  0.00    -0.006 C 
ATOM     18  C   UNL     1      -2.149 -26.237 -45.157  1.00  0.00     0.008 C 
ATOM     19  C   UNL     1      -1.114 -25.288 -47.249  1.00  0.00     0.008 C 
ENDBRANCH  12  17
ENDBRANCH  11  12
ENDBRANCH   1  11
TORSDOF 1
ENDMDL
MODEL 6
REMARK VINA RESULT:    -2.917      2.365      4.640
REMARK INTER + INTRA:          -4.564
REMARK INTER:                  -4.147
REMARK INTRA:                  -0.418
REMARK UNBOUND:                -0.113
REMARK SMILES CC1=CCC[C@@H](C)C(=O)C[C@@H](C(C)C)C(=O)C1
REMARK SMILES IDX 8 1 9 2 6 3 7 4 5 5 4 6 3 7 2 8 1 9 10 11 11 12 15 13 16 14
REMARK SMILES IDX 17 15 12 17 13 18 14 19
REMARK H PARENT
REMARK Flexibility Score: 70.00
ROOT
ATOM      1  C   UNL     1      -3.900 -11.618 -42.374  1.00  0.00     0.136 C 
ATOM      2  O   UNL     1      -4.692 -12.138 -43.148  1.00  0.00    -0.299 OA
ENDROOT
BRANCH   1   3
ATOM      3  C   UNL     1      -4.239 -10.260 -41.786  1.00  0.00     0.053 C 
ATOM      4  C   UNL     1      -5.755 -10.107 -41.608  1.00  0.00     0.016 C 
BRANCH   3   5
ATOM      5  C   UNL     1      -3.663  -9.114 -42.638  1.00  0.00     0.015 C 
BRANCH   5   6
ATOM      6  C   UNL     1      -2.517  -8.380 -41.918  1.00  0.00     0.028 C 
BRANCH   6   7
ATOM      7  C   UNL     1      -1.184  -8.758 -42.509  1.00  0.00    -0.028 C 
ATOM      8  C   UNL     1      -0.276  -9.560 -41.906  1.00  0.00    -0.070 CG0
ATOM      9  C   UNL     1       0.986  -9.893 -42.661  1.00  0.00     0.039 C 
ATOM     10  G   UNL     1      -0.468 -10.119 -40.505  1.00  0.00     0.000 G0
ENDBRANCH   6   7
ENDBRANCH   5   6
ENDBRANCH   3   5
ENDBRANCH   1   3
BRANCH   1  11
ATOM     11  C   UNL     1      -2.610 -12.343 -42.062  1.00  0.00     0.087 C 
BRANCH  11  12
ATOM     12  C   UNL     1      -2.172 -12.154 -40.583  1.00  0.00     0.066 C 
BRANCH  12  13
ATOM     13  C   UNL     1      -0.748 -11.623 -40.492  1.00  0.00     0.140 C 
ATOM     14  O   UNL     1       0.184 -12.401 -40.348  1.00  0.00    -0.299 OA
BRANCH  13  15
ATOM     15  C   UNL     1      -0.468 -10.139 -40.495  1.00  0.00     0.106 CG0
ATOM     16  G   UNL     1      -0.282  -9.592 -41.903  1.00  0.00     0.000 G0
ENDBRANCH  13  15
ENDBRANCH  12  13
BRANCH  12  17
ATOM     17  C   UNL     1      -2.331 -13.444 -39.716  1.00  0.00    -0.006 C 
ATOM     18  C   UNL     1      -3.528 -13.337 -38.757  1.00  0.00     0.008 C 
ATOM     19  C   UNL     1      -2.433 -14.743 -40.538  1.00  0.00     0.008 C 
ENDBRANCH  12  17
ENDBRANCH  11  12
ENDBRANCH   1  11
TORSDOF 1
ENDMDL
MODEL 7
REMARK VINA RESULT:    -2.875      2.042      4.163
REMARK INTER + INTRA:          -4.501
REMARK INTER:                  -4.485
REMARK INTRA:                  -0.016
REMARK UNBOUND:                -0.113
REMARK SMILES CC1=CCC[C@@H](C)C(=O)C[C@@H](C(C)C)C(=O)C1
REMARK SMILES IDX 8 1 9 2 6 3 7 4 5 5 4 6 3 7 2 8 1 9 10 11 11 12 15 13 16 14
REMARK SMILES IDX 17 15 12 17 13 18 14 19
REMARK H PARENT
REMARK Flexibility Score: 70.00
ROOT
ATOM      1  C   UNL     1      -1.216 -10.186 -42.166  1.00  0.00     0.136 C 
ATOM      2  O   UNL     1      -1.224 -11.353 -42.532  1.00  0.00    -0.299 OA
ENDROOT
BRANCH   1   3
ATOM      3  C   UNL     1      -0.260  -9.775 -41.061  1.00  0.00     0.053 C 
ATOM      4  C   UNL     1       1.185  -9.744 -41.574  1.00  0.00     0.016 C 
BRANCH   3   5
ATOM      5  C   UNL     1      -0.391 -10.689 -39.828  1.00  0.00     0.015 C 
BRANCH   5   6
ATOM      6  C   UNL     1      -1.651 -10.368 -39.004  1.00  0.00     0.028 C 
BRANCH   6   7
ATOM      7  C   UNL     1      -2.590 -11.547 -38.981  1.00  0.00    -0.028 C 
ATOM      8  C   UNL     1      -3.854 -11.530 -39.462  1.00  0.00    -0.070 CG0
ATOM      9  C   UNL     1      -4.644 -12.814 -39.422  1.00  0.00     0.039 C 
ATOM     10  G   UNL     1      -4.510 -10.277 -40.022  1.00  0.00     0.000 G0
ENDBRANCH   6   7
ENDBRANCH   5   6
ENDBRANCH   3   5
ENDBRANCH   1   3
BRANCH   1  11
ATOM     11  C   UNL     1      -2.180  -9.217 -42.814  1.00  0.00     0.087 C 
BRANCH  11  12
ATOM     12  C   UNL     1      -3.329  -8.800 -41.854  1.00  0.00     0.066 C 
BRANCH  12  13
ATOM     13  C   UNL     1      -4.184  -9.998 -41.463  1.00  0.00     0.140 C 
ATOM     14  O   UNL     1      -4.649 -10.722 -42.331  1.00  0.00    -0.299 OA
BRANCH  13  15
ATOM     15  C   UNL     1      -4.538 -10.265 -40.020  1.00  0.00     0.106 CG0
ATOM     16  G   UNL     1      -3.864 -11.520 -39.486  1.00  0.00     0.000 G0
ENDBRANCH  13  15
ENDBRANCH  12  13
BRANCH  12  17
ATOM     17  C   UNL     1      -4.223  -7.650 -42.417  1.00  0.00    -0.006 C 
ATOM     18  C   UNL     1      -4.524  -7.847 -43.912  1.00  0.00     0.008 C 
ATOM     19  C   UNL     1      -5.538  -7.440 -41.641  1.00  0.00     0.008 C 
ENDBRANCH  12  17
ENDBRANCH  11  12
ENDBRANCH   1  11
TORSDOF 1
ENDMDL
MODEL 8
REMARK VINA RESULT:    -2.784      2.678      4.607
REMARK INTER + INTRA:          -4.361
REMARK INTER:                  -4.069
REMARK INTRA:                  -0.292
REMARK UNBOUND:                -0.113
REMARK SMILES CC1=CCC[C@@H](C)C(=O)C[C@@H](C(C)C)C(=O)C1
REMARK SMILES IDX 8 1 9 2 6 3 7 4 5 5 4 6 3 7 2 8 1 9 10 11 11 12 15 13 16 14
REMARK SMILES IDX 17 15 12 17 13 18 14 19
REMARK H PARENT
REMARK Flexibility Score: 70.00
ROOT
ATOM      1  C   UNL     1      -4.703 -10.144 -40.886  1.00  0.00     0.136 C 
ATOM      2  O   UNL     1      -5.790  -9.593 -40.789  1.00  0.00    -0.299 OA
ENDROOT
BRANCH   1   3
ATOM      3  C   UNL     1      -4.656 -11.588 -41.354  1.00  0.00     0.053 C 
ATOM      4  C   UNL     1      -5.177 -11.711 -42.791  1.00  0.00     0.016 C 
BRANCH   3   5
ATOM      5  C   UNL     1      -5.429 -12.518 -40.402  1.00  0.00     0.015 C 
BRANCH   5   6
ATOM      6  C   UNL     1      -4.661 -12.770 -39.091  1.00  0.00     0.028 C 
BRANCH   6   7
ATOM      7  C   UNL     1      -3.319 -13.394 -39.370  1.00  0.00    -0.028 C 
ATOM      8  C   UNL     1      -2.132 -12.859 -38.999  1.00  0.00    -0.070 CG0
ATOM      9  C   UNL     1      -0.878 -13.642 -39.300  1.00  0.00     0.039 C 
ATOM     10  G   UNL     1      -2.012 -11.507 -38.313  1.00  0.00     0.000 G0
ENDBRANCH   6   7
ENDBRANCH   5   6
ENDBRANCH   3   5
ENDBRANCH   1   3
BRANCH   1  11
ATOM     11  C   UNL     1      -3.461  -9.369 -40.507  1.00  0.00     0.087 C 
BRANCH  11  12
ATOM     12  C   UNL     1      -2.174 -10.236 -40.601  1.00  0.00     0.066 C 
BRANCH  12  13
ATOM     13  C   UNL     1      -1.529 -10.416 -39.234  1.00  0.00     0.140 C 
ATOM     14  O   UNL     1      -0.582  -9.714 -38.911  1.00  0.00    -0.299 OA
BRANCH  13  15
ATOM     15  C   UNL     1      -1.985 -11.506 -38.294  1.00  0.00     0.106 CG0
ATOM     16  G   UNL     1      -2.129 -12.848 -38.997  1.00  0.00     0.000 G0
ENDBRANCH  13  15
ENDBRANCH  12  13
BRANCH  12  17
ATOM     17  C   UNL     1      -1.132  -9.694 -41.631  1.00  0.00    -0.006 C 
ATOM     18  C   UNL     1      -0.379 -10.839 -42.328  1.00  0.00     0.008 C 
ATOM     19  C   UNL     1      -1.729  -8.742 -42.685  1.00  0.00     0.008 C 
ENDBRANCH  12  17
ENDBRANCH  11  12
ENDBRANCH   1  11
TORSDOF 1
ENDMDL
MODEL 9
REMARK VINA RESULT:    -2.717      3.074      4.036
REMARK INTER + INTRA:          -4.258
REMARK INTER:                  -4.424
REMARK INTRA:                   0.165
REMARK UNBOUND:                -0.113
REMARK SMILES CC1=CCC[C@@H](C)C(=O)C[C@@H](C(C)C)C(=O)C1
REMARK SMILES IDX 8 1 9 2 6 3 7 4 5 5 4 6 3 7 2 8 1 9 10 11 11 12 15 13 16 14
REMARK SMILES IDX 17 15 12 17 13 18 14 19
REMARK H PARENT
REMARK Flexibility Score: 70.00
ROOT
ATOM      1  C   UNL     1      -0.998  -8.668 -38.583  1.00  0.00     0.136 C 
ATOM      2  O   UNL     1      -1.374  -7.625 -39.100  1.00  0.00    -0.299 OA
ENDROOT
BRANCH   1   3
ATOM      3  C   UNL     1      -1.123  -8.821 -37.078  1.00  0.00     0.053 C 
ATOM      4  C   UNL     1      -0.504  -7.618 -36.355  1.00  0.00     0.016 C 
BRANCH   3   5
ATOM      5  C   UNL     1      -0.499 -10.142 -36.589  1.00  0.00     0.015 C 
BRANCH   5   6
ATOM      6  C   UNL     1      -1.549 -11.078 -35.963  1.00  0.00     0.028 C 
BRANCH   6   7
ATOM      7  C   UNL     1      -1.252 -12.516 -36.300  1.00  0.00    -0.028 C 
ATOM      8  C   UNL     1      -1.589 -13.116 -37.465  1.00  0.00    -0.070 CG0
ATOM      9  C   UNL     1      -1.162 -14.547 -37.673  1.00  0.00     0.039 C 
ATOM     10  G   UNL     1      -2.385 -12.416 -38.557  1.00  0.00     0.000 G0
ENDBRANCH   6   7
ENDBRANCH   5   6
ENDBRANCH   3   5
ENDBRANCH   1   3
BRANCH   1  11
ATOM     11  C   UNL     1      -0.403  -9.742 -39.466  1.00  0.00     0.087 C 
BRANCH  11  12
ATOM     12  C   UNL     1      -1.493 -10.562 -40.211  1.00  0.00     0.066 C 
BRANCH  12  13
ATOM     13  C   UNL     1      -1.522 -12.006 -39.730  1.00  0.00     0.140 C 
ATOM     14  O   UNL     1      -0.882 -12.859 -40.328  1.00  0.00    -0.299 OA
BRANCH  13  15
ATOM     15  C   UNL     1      -2.395 -12.424 -38.571  1.00  0.00     0.106 CG0
ATOM     16  G   UNL     1      -1.598 -13.104 -37.468  1.00  0.00     0.000 G0
ENDBRANCH  13  15
ENDBRANCH  12  13
BRANCH  12  17
ATOM     17  C   UNL     1      -1.360 -10.505 -41.766  1.00  0.00    -0.006 C 
ATOM     18  C   UNL     1      -2.400  -9.558 -42.388  1.00  0.00     0.008 C 
ATOM     19  C   UNL     1       0.050 -10.132 -42.262  1.00  0.00     0.008 C 
ENDBRANCH  12  17
ENDBRANCH  11  12
ENDBRANCH   1  11
TORSDOF 1
ENDMDL
