MODEL 1
REMARK VINA RESULT:     6.348      0.000      0.000
REMARK INTER + INTRA:          10.359
REMARK INTER:                   9.316
REMARK INTRA:                   1.043
REMARK UNBOUND:                 1.043
REMARK SMILES C=C1CC=CC(C)(C)CC=C(C)CCC1
REMARK SMILES IDX 2 1 1 2 15 3 14 4 13 5 11 6 12 7 10 8 3 10 4 11 5 12 6 13
REMARK SMILES IDX 7 14 8 15 9 16
REMARK H PARENT
REMARK Flexibility Score: 60.00
ROOT
ATOM      1  C   UNL     1       4.717   5.269  12.918  1.00  0.00    -0.074 C 
ATOM      2  C   UNL     1       4.407   4.876  11.671  1.00  0.00     0.008 C 
ENDROOT
BRANCH   1   3
ATOM      3  C   UNL     1       3.677   5.958  13.781  1.00  0.00     0.031 C 
BRANCH   3   4
ATOM      4  C   UNL     1       3.368   7.399  13.326  1.00  0.00     0.009 C 
BRANCH   4   5
ATOM      5  C   UNL     1       4.550   8.377  13.494  1.00  0.00     0.030 C 
BRANCH   5   6
ATOM      6  C   UNL     1       5.175   8.820  12.174  1.00  0.00    -0.077 C 
ATOM      7  C   UNL     1       4.410   8.589  10.891  1.00  0.00     0.039 C 
ATOM      8  C   UNL     1       6.446   9.281  12.054  1.00  0.00    -0.027 CG0
ATOM      9  G   UNL     1       7.471   9.445  13.160  1.00  0.00     0.000 G0
ENDBRANCH   5   6
ENDBRANCH   4   5
ENDBRANCH   3   4
ENDBRANCH   1   3
BRANCH   1  10
ATOM     10  C   UNL     1       6.062   4.910  13.507  1.00  0.00     0.057 C 
BRANCH  10  11
ATOM     11  C   UNL     1       6.778   6.150  13.955  1.00  0.00    -0.026 C 
ATOM     12  C   UNL     1       7.440   6.933  13.087  1.00  0.00    -0.024 C 
BRANCH  12  13
ATOM     13  C   UNL     1       8.258   8.138  13.526  1.00  0.00    -0.014 C 
ATOM     14  C   UNL     1       9.650   8.105  12.855  1.00  0.00     0.016 C 
ATOM     15  C   UNL     1       8.471   8.070  15.056  1.00  0.00     0.016 C 
BRANCH  13  16
ATOM     16  C   UNL     1       7.533   9.460  13.141  1.00  0.00     0.038 CG0
ATOM     17  G   UNL     1       6.467   9.269  12.080  1.00  0.00     0.000 G0
ENDBRANCH  13  16
ENDBRANCH  12  13
ENDBRANCH  10  11
ENDBRANCH   1  10
TORSDOF 0
ENDMDL
MODEL 2
REMARK VINA RESULT:     6.397      1.414      3.080
REMARK INTER + INTRA:          10.432
REMARK INTER:                   7.380
REMARK INTRA:                   3.051
REMARK UNBOUND:                 1.043
REMARK SMILES C=C1CC=CC(C)(C)CC=C(C)CCC1
REMARK SMILES IDX 2 1 1 2 15 3 14 4 13 5 11 6 12 7 10 8 3 10 4 11 5 12 6 13
REMARK SMILES IDX 7 14 8 15 9 16
REMARK H PARENT
REMARK Flexibility Score: 60.00
ROOT
ATOM      1  C   UNL     1       4.253   7.089  12.565  1.00  0.00    -0.074 C 
ATOM      2  C   UNL     1       3.247   7.240  13.444  1.00  0.00     0.008 C 
ENDROOT
BRANCH   1   3
ATOM      3  C   UNL     1       4.843   5.714  12.312  1.00  0.00     0.031 C 
BRANCH   3   4
ATOM      4  C   UNL     1       5.492   5.092  13.566  1.00  0.00     0.009 C 
BRANCH   4   5
ATOM      5  C   UNL     1       6.924   5.594  13.845  1.00  0.00     0.030 C 
BRANCH   5   6
ATOM      6  C   UNL     1       7.740   5.862  12.583  1.00  0.00    -0.077 C 
ATOM      7  C   UNL     1       7.661   4.875  11.441  1.00  0.00     0.039 C 
ATOM      8  C   UNL     1       8.654   6.858  12.469  1.00  0.00    -0.027 CG0
ATOM      9  G   UNL     1       9.043   7.873  13.526  1.00  0.00     0.000 G0
ENDBRANCH   5   6
ENDBRANCH   4   5
ENDBRANCH   3   4
ENDBRANCH   1   3
BRANCH   1  10
ATOM     10  C   UNL     1       4.710   8.266  11.735  1.00  0.00     0.057 C 
BRANCH  10  11
ATOM     11  C   UNL     1       6.086   8.691  12.152  1.00  0.00    -0.026 C 
ATOM     12  C   UNL     1       6.581   8.386  13.364  1.00  0.00    -0.024 C 
BRANCH  12  13
ATOM     13  C   UNL     1       7.931   8.888  13.851  1.00  0.00    -0.014 C 
ATOM     14  C   UNL     1       7.896   9.102  15.381  1.00  0.00     0.016 C 
ATOM     15  C   UNL     1       8.227  10.255  13.190  1.00  0.00     0.016 C 
BRANCH  13  16
ATOM     16  C   UNL     1       9.052   7.867  13.502  1.00  0.00     0.038 CG0
ATOM     17  G   UNL     1       8.641   6.870  12.435  1.00  0.00     0.000 G0
ENDBRANCH  13  16
ENDBRANCH  12  13
ENDBRANCH  10  11
ENDBRANCH   1  10
TORSDOF 0
ENDMDL
MODEL 3
REMARK VINA RESULT:     6.678      1.695      4.762
REMARK INTER + INTRA:          10.844
REMARK INTER:                   4.479
REMARK INTRA:                   6.365
REMARK UNBOUND:                 1.043
REMARK SMILES C=C1CC=CC(C)(C)CC=C(C)CCC1
REMARK SMILES IDX 2 1 1 2 15 3 14 4 13 5 11 6 12 7 10 8 3 10 4 11 5 12 6 13
REMARK SMILES IDX 7 14 8 15 9 16
REMARK H PARENT
REMARK Flexibility Score: 60.00
ROOT
ATOM      1  C   UNL     1       8.880   8.346  13.643  1.00  0.00    -0.074 C 
ATOM      2  C   UNL     1       9.942   8.323  14.467  1.00  0.00     0.008 C 
ENDROOT
BRANCH   1   3
ATOM      3  C   UNL     1       8.992   7.776  12.241  1.00  0.00     0.031 C 
BRANCH   3   4
ATOM      4  C   UNL     1       7.700   7.081  11.763  1.00  0.00     0.009 C 
BRANCH   4   5
ATOM      5  C   UNL     1       7.518   5.651  12.312  1.00  0.00     0.030 C 
BRANCH   5   6
ATOM      6  C   UNL     1       6.534   5.558  13.475  1.00  0.00    -0.077 C 
ATOM      7  C   UNL     1       6.974   4.875  14.750  1.00  0.00     0.039 C 
ATOM      8  C   UNL     1       5.229   5.923  13.395  1.00  0.00    -0.027 CG0
ATOM      9  G   UNL     1       4.503   6.473  12.183  1.00  0.00     0.000 G0
ENDBRANCH   5   6
ENDBRANCH   4   5
ENDBRANCH   3   4
ENDBRANCH   1   3
BRANCH   1  10
ATOM     10  C   UNL     1       7.541   8.821  14.155  1.00  0.00     0.057 C 
BRANCH  10  11
ATOM     11  C   UNL     1       6.431   8.089  13.461  1.00  0.00    -0.026 C 
ATOM     12  C   UNL     1       5.358   8.734  12.973  1.00  0.00    -0.024 C 
BRANCH  12  13
ATOM     13  C   UNL     1       4.173   8.009  12.355  1.00  0.00    -0.014 C 
ATOM     14  C   UNL     1       3.845   8.616  10.972  1.00  0.00     0.016 C 
ATOM     15  C   UNL     1       2.935   8.206  13.262  1.00  0.00     0.016 C 
BRANCH  13  16
ATOM     16  C   UNL     1       4.484   6.493  12.190  1.00  0.00     0.038 CG0
ATOM     17  G   UNL     1       5.258   5.913  13.357  1.00  0.00     0.000 G0
ENDBRANCH  13  16
ENDBRANCH  12  13
ENDBRANCH  10  11
ENDBRANCH   1  10
TORSDOF 0
ENDMDL
MODEL 4
REMARK VINA RESULT:     7.943      1.511      3.729
REMARK INTER + INTRA:          12.701
REMARK INTER:                   6.226
REMARK INTRA:                   6.474
REMARK UNBOUND:                 1.043
REMARK SMILES C=C1CC=CC(C)(C)CC=C(C)CCC1
REMARK SMILES IDX 2 1 1 2 15 3 14 4 13 5 11 6 12 7 10 8 3 10 4 11 5 12 6 13
REMARK SMILES IDX 7 14 8 15 9 16
REMARK H PARENT
REMARK Flexibility Score: 60.00
ROOT
ATOM      1  C   UNL     1       7.755   5.533  13.079  1.00  0.00    -0.074 C 
ATOM      2  C   UNL     1       8.181   4.880  11.984  1.00  0.00     0.008 C 
ENDROOT
BRANCH   1   3
ATOM      3  C   UNL     1       8.405   6.842  13.486  1.00  0.00     0.031 C 
BRANCH   3   4
ATOM      4  C   UNL     1       7.426   7.823  14.162  1.00  0.00     0.009 C 
BRANCH   4   5
ATOM      5  C   UNL     1       6.754   8.811  13.186  1.00  0.00     0.030 C 
BRANCH   5   6
ATOM      6  C   UNL     1       6.400   8.197  11.835  1.00  0.00    -0.077 C 
ATOM      7  C   UNL     1       7.516   7.852  10.875  1.00  0.00     0.039 C 
ATOM      8  C   UNL     1       5.132   8.068  11.369  1.00  0.00    -0.027 CG0
ATOM      9  G   UNL     1       3.852   8.493  12.062  1.00  0.00     0.000 G0
ENDBRANCH   5   6
ENDBRANCH   4   5
ENDBRANCH   3   4
ENDBRANCH   1   3
BRANCH   1  10
ATOM     10  C   UNL     1       6.545   5.031  13.831  1.00  0.00     0.057 C 
BRANCH  10  11
ATOM     11  C   UNL     1       5.307   5.721  13.342  1.00  0.00    -0.026 C 
ATOM     12  C   UNL     1       4.959   6.941  13.785  1.00  0.00    -0.024 C 
BRANCH  12  13
ATOM     13  C   UNL     1       3.659   7.622  13.383  1.00  0.00    -0.014 C 
ATOM     14  C   UNL     1       3.185   8.563  14.513  1.00  0.00     0.016 C 
ATOM     15  C   UNL     1       2.570   6.543  13.179  1.00  0.00     0.016 C 
BRANCH  13  16
ATOM     16  C   UNL     1       3.855   8.445  12.077  1.00  0.00     0.038 CG0
ATOM     17  G   UNL     1       5.133   8.098  11.338  1.00  0.00     0.000 G0
ENDBRANCH  13  16
ENDBRANCH  12  13
ENDBRANCH  10  11
ENDBRANCH   1  10
TORSDOF 0
ENDMDL
MODEL 5
REMARK VINA RESULT:     8.365      1.674      2.987
REMARK INTER + INTRA:          13.321
REMARK INTER:                   9.509
REMARK INTRA:                   3.812
REMARK UNBOUND:                 1.043
REMARK SMILES C=C1CC=CC(C)(C)CC=C(C)CCC1
REMARK SMILES IDX 2 1 1 2 15 3 14 4 13 5 11 6 12 7 10 8 3 10 4 11 5 12 6 13
REMARK SMILES IDX 7 14 8 15 9 16
REMARK H PARENT
REMARK Flexibility Score: 60.00
ROOT
ATOM      1  C   UNL     1       3.830   8.116  13.998  1.00  0.00    -0.074 C 
ATOM      2  C   UNL     1       2.621   7.997  14.575  1.00  0.00     0.008 C 
ENDROOT
BRANCH   1   3
ATOM      3  C   UNL     1       3.939   8.423  12.517  1.00  0.00     0.031 C 
BRANCH   3   4
ATOM      4  C   UNL     1       4.476   7.238  11.689  1.00  0.00     0.009 C 
BRANCH   4   5
ATOM      5  C   UNL     1       6.013   7.208  11.560  1.00  0.00     0.030 C 
BRANCH   5   6
ATOM      6  C   UNL     1       6.671   6.049  12.305  1.00  0.00    -0.077 C 
ATOM      7  C   UNL     1       5.816   4.881  12.737  1.00  0.00     0.039 C 
ATOM      8  C   UNL     1       7.957   6.060  12.739  1.00  0.00    -0.027 CG0
ATOM      9  G   UNL     1       8.969   7.178  12.583  1.00  0.00     0.000 G0
ENDBRANCH   5   6
ENDBRANCH   4   5
ENDBRANCH   3   4
ENDBRANCH   1   3
BRANCH   1  10
ATOM     10  C   UNL     1       5.077   8.069  14.849  1.00  0.00     0.057 C 
BRANCH  10  11
ATOM     11  C   UNL     1       6.297   8.217  13.989  1.00  0.00    -0.026 C 
ATOM     12  C   UNL     1       7.535   8.079  14.493  1.00  0.00    -0.024 C 
BRANCH  12  13
ATOM     13  C   UNL     1       8.790   8.321  13.669  1.00  0.00    -0.014 C 
ATOM     14  C   UNL     1      10.027   8.374  14.593  1.00  0.00     0.016 C 
ATOM     15  C   UNL     1       8.670   9.691  12.963  1.00  0.00     0.016 C 
BRANCH  13  16
ATOM     16  C   UNL     1       8.982   7.188  12.619  1.00  0.00     0.038 CG0
ATOM     17  G   UNL     1       7.946   6.087  12.733  1.00  0.00     0.000 G0
ENDBRANCH  13  16
ENDBRANCH  12  13
ENDBRANCH  10  11
ENDBRANCH   1  10
TORSDOF 0
ENDMDL
MODEL 6
REMARK VINA RESULT:     8.550      1.902      3.609
REMARK INTER + INTRA:          13.593
REMARK INTER:                  11.352
REMARK INTRA:                   2.241
REMARK UNBOUND:                 1.043
REMARK SMILES C=C1CC=CC(C)(C)CC=C(C)CCC1
REMARK SMILES IDX 2 1 1 2 15 3 14 4 13 5 11 6 12 7 10 8 3 10 4 11 5 12 6 13
REMARK SMILES IDX 7 14 8 15 9 16
REMARK H PARENT
REMARK Flexibility Score: 60.00
ROOT
ATOM      1  C   UNL     1       4.510   9.180  12.276  1.00  0.00    -0.074 C 
ATOM      2  C   UNL     1       4.822  10.199  13.094  1.00  0.00     0.008 C 
ENDROOT
BRANCH   1   3
ATOM      3  C   UNL     1       3.325   8.286  12.591  1.00  0.00     0.031 C 
BRANCH   3   4
ATOM      4  C   UNL     1       3.482   7.515  13.918  1.00  0.00     0.009 C 
BRANCH   4   5
ATOM      5  C   UNL     1       4.782   6.691  14.015  1.00  0.00     0.030 C 
BRANCH   5   6
ATOM      6  C   UNL     1       4.841   5.517  13.041  1.00  0.00    -0.077 C 
ATOM      7  C   UNL     1       3.547   4.883  12.583  1.00  0.00     0.039 C 
ATOM      8  C   UNL     1       5.990   4.902  12.663  1.00  0.00    -0.027 CG0
ATOM      9  G   UNL     1       7.400   5.235  13.112  1.00  0.00     0.000 G0
ENDBRANCH   5   6
ENDBRANCH   4   5
ENDBRANCH   3   4
ENDBRANCH   1   3
BRANCH   1  10
ATOM     10  C   UNL     1       5.259   9.001  10.976  1.00  0.00     0.057 C 
BRANCH  10  11
ATOM     11  C   UNL     1       6.278   7.908  11.111  1.00  0.00    -0.026 C 
ATOM     12  C   UNL     1       6.838   7.610  12.296  1.00  0.00    -0.024 C 
BRANCH  12  13
ATOM     13  C   UNL     1       7.944   6.577  12.446  1.00  0.00    -0.014 C 
ATOM     14  C   UNL     1       9.078   7.141  13.331  1.00  0.00     0.016 C 
ATOM     15  C   UNL     1       8.540   6.275  11.051  1.00  0.00     0.016 C 
BRANCH  13  16
ATOM     16  C   UNL     1       7.391   5.273  13.089  1.00  0.00     0.038 CG0
ATOM     17  G   UNL     1       5.982   4.936  12.640  1.00  0.00     0.000 G0
ENDBRANCH  13  16
ENDBRANCH  12  13
ENDBRANCH  10  11
ENDBRANCH   1  10
TORSDOF 0
ENDMDL
MODEL 7
REMARK VINA RESULT:     8.721      1.383      2.390
REMARK INTER + INTRA:          13.843
REMARK INTER:                  10.945
REMARK INTRA:                   2.898
REMARK UNBOUND:                 1.043
REMARK SMILES C=C1CC=CC(C)(C)CC=C(C)CCC1
REMARK SMILES IDX 2 1 1 2 15 3 14 4 13 5 11 6 12 7 10 8 3 10 4 11 5 12 6 13
REMARK SMILES IDX 7 14 8 15 9 16
REMARK H PARENT
REMARK Flexibility Score: 60.00
ROOT
ATOM      1  C   UNL     1       3.665   7.817  14.392  1.00  0.00    -0.074 C 
ATOM      2  C   UNL     1       2.849   8.874  14.541  1.00  0.00     0.008 C 
ENDROOT
BRANCH   1   3
ATOM      3  C   UNL     1       3.310   6.711  13.417  1.00  0.00     0.031 C 
BRANCH   3   4
ATOM      4  C   UNL     1       4.531   6.160  12.652  1.00  0.00     0.009 C 
BRANCH   4   5
ATOM      5  C   UNL     1       4.680   6.719  11.222  1.00  0.00     0.030 C 
BRANCH   5   6
ATOM      6  C   UNL     1       5.232   8.141  11.171  1.00  0.00    -0.077 C 
ATOM      7  C   UNL     1       4.281   9.282  10.888  1.00  0.00     0.039 C 
ATOM      8  C   UNL     1       6.553   8.444  11.220  1.00  0.00    -0.027 CG0
ATOM      9  G   UNL     1       7.714   7.474  11.328  1.00  0.00     0.000 G0
ENDBRANCH   5   6
ENDBRANCH   4   5
ENDBRANCH   3   4
ENDBRANCH   1   3
BRANCH   1  10
ATOM     10  C   UNL     1       4.998   7.791  15.102  1.00  0.00     0.057 C 
BRANCH  10  11
ATOM     11  C   UNL     1       6.034   7.135  14.237  1.00  0.00    -0.026 C 
ATOM     12  C   UNL     1       7.095   7.815  13.772  1.00  0.00    -0.024 C 
BRANCH  12  13
ATOM     13  C   UNL     1       8.106   7.205  12.813  1.00  0.00    -0.014 C 
ATOM     14  C   UNL     1       8.189   5.678  13.034  1.00  0.00     0.016 C 
ATOM     15  C   UNL     1       9.502   7.801  13.111  1.00  0.00     0.016 C 
BRANCH  13  16
ATOM     16  C   UNL     1       7.702   7.490  11.338  1.00  0.00     0.038 CG0
ATOM     17  G   UNL     1       6.535   8.451  11.213  1.00  0.00     0.000 G0
ENDBRANCH  13  16
ENDBRANCH  12  13
ENDBRANCH  10  11
ENDBRANCH   1  10
TORSDOF 0
ENDMDL
