MODEL 1
REMARK VINA RESULT:    -5.219      0.000      0.000
REMARK INTER + INTRA:         -13.323
REMARK INTER:                 -11.931
REMARK INTRA:                  -1.392
REMARK UNBOUND:                -1.392
REMARK SMILES CCCCCCCCCCCCCCCCCCCCCCCC(=O)[O-]
REMARK SMILES IDX 13 1 14 2 15 3 16 4 17 5 18 6 19 7 20 8 21 9 22 10 23 11
REMARK SMILES IDX 24 12 25 13 26 14 12 15 11 16 10 17 9 18 8 19 7 20 6 21 5 22
REMARK SMILES IDX 4 23 3 24 2 25 1 26
REMARK H PARENT
REMARK Flexibility Score: inf
ROOT
ATOM      1  C   UNL     1      -1.168 -37.952 -21.937  1.00  0.00     0.000 C 
ENDROOT
BRANCH   1   2
ATOM      2  C   UNL     1      -0.721 -39.376 -21.565  1.00  0.00     0.000 C 
BRANCH   2   3
ATOM      3  C   UNL     1      -1.571 -40.000 -20.443  1.00  0.00     0.000 C 
BRANCH   3   4
ATOM      4  C   UNL     1      -1.010 -41.306 -19.849  1.00  0.00     0.000 C 
BRANCH   4   5
ATOM      5  C   UNL     1      -1.490 -41.571 -18.410  1.00  0.00     0.000 C 
BRANCH   5   6
ATOM      6  C   UNL     1      -0.332 -41.531 -17.391  1.00  0.00     0.000 C 
BRANCH   6   7
ATOM      7  C   UNL     1      -0.798 -41.562 -15.924  1.00  0.00     0.000 C 
BRANCH   7   8
ATOM      8  C   UNL     1      -0.500 -42.900 -15.236  1.00  0.00     0.000 C 
BRANCH   8   9
ATOM      9  C   UNL     1      -1.485 -43.991 -15.680  1.00  0.00     0.000 C 
BRANCH   9  10
ATOM     10  C   UNL     1      -0.793 -45.322 -16.029  1.00  0.00     0.006 C 
BRANCH  10  11
ATOM     11  C   UNL     1      -0.331 -45.425 -17.495  1.00  0.00     0.053 C 
BRANCH  11  12
ATOM     12  C   UNL     1       1.090 -44.987 -17.686  1.00  0.00     0.041 C 
ATOM     13  O   UNL     1       1.943 -45.174 -16.778  1.00  0.00    -0.550 OA
ATOM     14  O   UNL     1       1.468 -44.347 -18.862  1.00  0.00    -0.550 OA
ENDBRANCH  11  12
ENDBRANCH  10  11
ENDBRANCH   9  10
ENDBRANCH   8   9
ENDBRANCH   7   8
ENDBRANCH   6   7
ENDBRANCH   5   6
ENDBRANCH   4   5
ENDBRANCH   3   4
ENDBRANCH   2   3
ENDBRANCH   1   2
BRANCH   1  15
ATOM     15  C   UNL     1       0.008 -36.967 -22.022  1.00  0.00     0.000 C 
BRANCH  15  16
ATOM     16  C   UNL     1       1.315 -37.648 -22.459  1.00  0.00     0.000 C 
BRANCH  16  17
ATOM     17  C   UNL     1       1.857 -37.020 -23.750  1.00  0.00     0.000 C 
BRANCH  17  18
ATOM     18  C   UNL     1       2.862 -35.886 -23.484  1.00  0.00    -0.000 C 
BRANCH  18  19
ATOM     19  C   UNL     1       4.027 -36.330 -22.584  1.00  0.00    -0.000 C 
BRANCH  19  20
ATOM     20  C   UNL     1       5.361 -36.410 -23.342  1.00  0.00    -0.000 C 
BRANCH  20  21
ATOM     21  C   UNL     1       6.569 -36.035 -22.468  1.00  0.00    -0.000 C 
BRANCH  21  22
ATOM     22  C   UNL     1       6.120 -35.353 -21.171  1.00  0.00    -0.000 C 
BRANCH  22  23
ATOM     23  C   UNL     1       6.391 -33.840 -21.218  1.00  0.00    -0.000 C 
BRANCH  23  24
ATOM     24  C   UNL     1       7.033 -33.306 -19.925  1.00  0.00    -0.000 C 
BRANCH  24  25
ATOM     25  C   UNL     1       6.364 -32.046 -19.346  1.00  0.00    -0.003 C 
ATOM     26  C   UNL     1       6.957 -31.620 -18.004  1.00  0.00     0.004 C 
ENDBRANCH  24  25
ENDBRANCH  23  24
ENDBRANCH  22  23
ENDBRANCH  21  22
ENDBRANCH  20  21
ENDBRANCH  19  20
ENDBRANCH  18  19
ENDBRANCH  17  18
ENDBRANCH  16  17
ENDBRANCH  15  16
ENDBRANCH   1  15
TORSDOF 22
ENDMDL
MODEL 2
REMARK VINA RESULT:    -5.055     12.479     15.384
REMARK INTER + INTRA:         -12.949
REMARK INTER:                  -8.400
REMARK INTRA:                  -4.550
REMARK UNBOUND:                -1.392
REMARK SMILES CCCCCCCCCCCCCCCCCCCCCCCC(=O)[O-]
REMARK SMILES IDX 13 1 14 2 15 3 16 4 17 5 18 6 19 7 20 8 21 9 22 10 23 11
REMARK SMILES IDX 24 12 25 13 26 14 12 15 11 16 10 17 9 18 8 19 7 20 6 21 5 22
REMARK SMILES IDX 4 23 3 24 2 25 1 26
REMARK H PARENT
REMARK Flexibility Score: inf
ROOT
ATOM      1  C   UNL     1      -4.973 -32.621 -31.554  1.00  0.00     0.000 C 
ENDROOT
BRANCH   1   2
ATOM      2  C   UNL     1      -4.264 -31.277 -31.309  1.00  0.00     0.000 C 
BRANCH   2   3
ATOM      3  C   UNL     1      -2.732 -31.411 -31.231  1.00  0.00     0.000 C 
BRANCH   3   4
ATOM      4  C   UNL     1      -2.052 -30.517 -30.177  1.00  0.00     0.000 C 
BRANCH   4   5
ATOM      5  C   UNL     1      -2.922 -29.322 -29.746  1.00  0.00     0.000 C 
BRANCH   5   6
ATOM      6  C   UNL     1      -2.911 -29.112 -28.217  1.00  0.00     0.000 C 
BRANCH   6   7
ATOM      7  C   UNL     1      -3.195 -30.395 -27.415  1.00  0.00     0.000 C 
BRANCH   7   8
ATOM      8  C   UNL     1      -4.694 -30.694 -27.286  1.00  0.00     0.000 C 
BRANCH   8   9
ATOM      9  C   UNL     1      -5.029 -32.106 -27.785  1.00  0.00     0.000 C 
BRANCH   9  10
ATOM     10  C   UNL     1      -3.996 -33.161 -27.343  1.00  0.00     0.006 C 
BRANCH  10  11
ATOM     11  C   UNL     1      -3.683 -34.221 -28.417  1.00  0.00     0.053 C 
BRANCH  11  12
ATOM     12  C   UNL     1      -2.263 -34.160 -28.894  1.00  0.00     0.041 C 
ATOM     13  O   UNL     1      -1.901 -34.818 -29.906  1.00  0.00    -0.550 OA
ATOM     14  O   UNL     1      -1.330 -33.394 -28.203  1.00  0.00    -0.550 OA
ENDBRANCH  11  12
ENDBRANCH  10  11
ENDBRANCH   9  10
ENDBRANCH   8   9
ENDBRANCH   7   8
ENDBRANCH   6   7
ENDBRANCH   5   6
ENDBRANCH   4   5
ENDBRANCH   3   4
ENDBRANCH   2   3
ENDBRANCH   1   2
BRANCH   1  15
ATOM     15  C   UNL     1      -5.781 -32.632 -32.861  1.00  0.00     0.000 C 
BRANCH  15  16
ATOM     16  C   UNL     1      -4.894 -32.838 -34.100  1.00  0.00     0.000 C 
BRANCH  16  17
ATOM     17  C   UNL     1      -3.931 -34.016 -33.896  1.00  0.00     0.000 C 
BRANCH  17  18
ATOM     18  C   UNL     1      -2.511 -33.717 -34.405  1.00  0.00    -0.000 C 
BRANCH  18  19
ATOM     19  C   UNL     1      -2.308 -32.231 -34.747  1.00  0.00    -0.000 C 
BRANCH  19  20
ATOM     20  C   UNL     1      -0.845 -31.895 -35.076  1.00  0.00    -0.000 C 
BRANCH  20  21
ATOM     21  C   UNL     1      -0.145 -31.107 -33.957  1.00  0.00    -0.000 C 
BRANCH  21  22
ATOM     22  C   UNL     1      -0.156 -29.603 -34.255  1.00  0.00    -0.000 C 
BRANCH  22  23
ATOM     23  C   UNL     1      -0.399 -28.787 -32.974  1.00  0.00    -0.000 C 
BRANCH  23  24
ATOM     24  C   UNL     1      -1.745 -28.040 -32.986  1.00  0.00    -0.000 C 
BRANCH  24  25
ATOM     25  C   UNL     1      -2.791 -28.610 -33.960  1.00  0.00    -0.003 C 
ATOM     26  C   UNL     1      -4.196 -28.064 -33.713  1.00  0.00     0.004 C 
ENDBRANCH  24  25
ENDBRANCH  23  24
ENDBRANCH  22  23
ENDBRANCH  21  22
ENDBRANCH  20  21
ENDBRANCH  19  20
ENDBRANCH  18  19
ENDBRANCH  17  18
ENDBRANCH  16  17
ENDBRANCH  15  16
ENDBRANCH   1  15
TORSDOF 22
ENDMDL
MODEL 3
REMARK VINA RESULT:    -5.024     12.193     16.431
REMARK INTER + INTRA:         -12.879
REMARK INTER:                  -8.064
REMARK INTRA:                  -4.815
REMARK UNBOUND:                -1.392
REMARK SMILES CCCCCCCCCCCCCCCCCCCCCCCC(=O)[O-]
REMARK SMILES IDX 13 1 14 2 15 3 16 4 17 5 18 6 19 7 20 8 21 9 22 10 23 11
REMARK SMILES IDX 24 12 25 13 26 14 12 15 11 16 10 17 9 18 8 19 7 20 6 21 5 22
REMARK SMILES IDX 4 23 3 24 2 25 1 26
REMARK H PARENT
REMARK Flexibility Score: inf
ROOT
ATOM      1  C   UNL     1      -1.798 -30.664 -30.941  1.00  0.00     0.000 C 
ENDROOT
BRANCH   1   2
ATOM      2  C   UNL     1      -2.009 -29.168 -31.233  1.00  0.00     0.000 C 
BRANCH   2   3
ATOM      3  C   UNL     1      -0.755 -28.485 -31.809  1.00  0.00     0.000 C 
BRANCH   3   4
ATOM      4  C   UNL     1      -0.508 -28.733 -33.309  1.00  0.00     0.000 C 
BRANCH   4   5
ATOM      5  C   UNL     1      -1.801 -28.719 -34.145  1.00  0.00     0.000 C 
BRANCH   5   6
ATOM      6  C   UNL     1      -1.933 -29.969 -35.040  1.00  0.00     0.000 C 
BRANCH   6   7
ATOM      7  C   UNL     1      -0.741 -30.937 -34.930  1.00  0.00     0.000 C 
BRANCH   7   8
ATOM      8  C   UNL     1      -1.138 -32.302 -34.352  1.00  0.00     0.000 C 
BRANCH   8   9
ATOM      9  C   UNL     1      -0.035 -32.871 -33.449  1.00  0.00     0.000 C 
BRANCH   9  10
ATOM     10  C   UNL     1       1.171 -31.924 -33.303  1.00  0.00     0.006 C 
BRANCH  10  11
ATOM     11  C   UNL     1       1.602 -31.678 -31.844  1.00  0.00     0.053 C 
BRANCH  11  12
ATOM     12  C   UNL     1       2.956 -32.244 -31.537  1.00  0.00     0.041 C 
ATOM     13  O   UNL     1       3.355 -32.332 -30.345  1.00  0.00    -0.550 OA
ATOM     14  O   UNL     1       3.789 -32.654 -32.572  1.00  0.00    -0.550 OA
ENDBRANCH  11  12
ENDBRANCH  10  11
ENDBRANCH   9  10
ENDBRANCH   8   9
ENDBRANCH   7   8
ENDBRANCH   6   7
ENDBRANCH   5   6
ENDBRANCH   4   5
ENDBRANCH   3   4
ENDBRANCH   2   3
ENDBRANCH   1   2
BRANCH   1  15
ATOM     15  C   UNL     1      -3.028 -31.514 -31.292  1.00  0.00     0.000 C 
BRANCH  15  16
ATOM     16  C   UNL     1      -4.088 -30.720 -32.074  1.00  0.00     0.000 C 
BRANCH  16  17
ATOM     17  C   UNL     1      -5.447 -30.768 -31.360  1.00  0.00     0.000 C 
BRANCH  17  18
ATOM     18  C   UNL     1      -5.547 -31.924 -30.350  1.00  0.00    -0.000 C 
BRANCH  18  19
ATOM     19  C   UNL     1      -5.958 -31.446 -28.947  1.00  0.00    -0.000 C 
BRANCH  19  20
ATOM     20  C   UNL     1      -5.379 -30.065 -28.599  1.00  0.00    -0.000 C 
BRANCH  20  21
ATOM     21  C   UNL     1      -4.602 -30.059 -27.273  1.00  0.00    -0.000 C 
BRANCH  21  22
ATOM     22  C   UNL     1      -3.107 -30.299 -27.510  1.00  0.00    -0.000 C 
BRANCH  22  23
ATOM     23  C   UNL     1      -2.652 -31.624 -26.879  1.00  0.00    -0.000 C 
BRANCH  23  24
ATOM     24  C   UNL     1      -2.196 -32.660 -27.922  1.00  0.00    -0.000 C 
BRANCH  24  25
ATOM     25  C   UNL     1      -3.142 -33.861 -28.094  1.00  0.00    -0.003 C 
ATOM     26  C   UNL     1      -4.223 -33.929 -27.016  1.00  0.00     0.004 C 
ENDBRANCH  24  25
ENDBRANCH  23  24
ENDBRANCH  22  23
ENDBRANCH  21  22
ENDBRANCH  20  21
ENDBRANCH  19  20
ENDBRANCH  18  19
ENDBRANCH  17  18
ENDBRANCH  16  17
ENDBRANCH  15  16
ENDBRANCH   1  15
TORSDOF 22
ENDMDL
MODEL 4
REMARK VINA RESULT:    -4.945     12.652     15.739
REMARK INTER + INTRA:         -12.696
REMARK INTER:                  -7.812
REMARK INTRA:                  -4.884
REMARK UNBOUND:                -1.392
REMARK SMILES CCCCCCCCCCCCCCCCCCCCCCCC(=O)[O-]
REMARK SMILES IDX 13 1 14 2 15 3 16 4 17 5 18 6 19 7 20 8 21 9 22 10 23 11
REMARK SMILES IDX 24 12 25 13 26 14 12 15 11 16 10 17 9 18 8 19 7 20 6 21 5 22
REMARK SMILES IDX 4 23 3 24 2 25 1 26
REMARK H PARENT
REMARK Flexibility Score: inf
ROOT
ATOM      1  C   UNL     1      -2.389 -32.968 -28.063  1.00  0.00     0.000 C 
ENDROOT
BRANCH   1   2
ATOM      2  C   UNL     1      -1.839 -32.636 -29.461  1.00  0.00     0.000 C 
BRANCH   2   3
ATOM      3  C   UNL     1      -2.947 -32.435 -30.511  1.00  0.00     0.000 C 
BRANCH   3   4
ATOM      4  C   UNL     1      -4.285 -33.127 -30.188  1.00  0.00     0.000 C 
BRANCH   4   5
ATOM      5  C   UNL     1      -5.512 -32.296 -30.603  1.00  0.00     0.000 C 
BRANCH   5   6
ATOM      6  C   UNL     1      -6.231 -32.888 -31.834  1.00  0.00     0.000 C 
BRANCH   6   7
ATOM      7  C   UNL     1      -5.964 -32.114 -33.137  1.00  0.00     0.000 C 
BRANCH   7   8
ATOM      8  C   UNL     1      -5.173 -32.937 -34.163  1.00  0.00     0.000 C 
BRANCH   8   9
ATOM      9  C   UNL     1      -3.705 -32.493 -34.227  1.00  0.00     0.000 C 
BRANCH   9  10
ATOM     10  C   UNL     1      -2.716 -33.636 -33.930  1.00  0.00     0.006 C 
BRANCH  10  11
ATOM     11  C   UNL     1      -3.392 -34.973 -33.569  1.00  0.00     0.053 C 
BRANCH  11  12
ATOM     12  C   UNL     1      -2.718 -35.674 -32.428  1.00  0.00     0.041 C 
ATOM     13  O   UNL     1      -3.390 -36.363 -31.616  1.00  0.00    -0.550 OA
ATOM     14  O   UNL     1      -1.345 -35.544 -32.247  1.00  0.00    -0.550 OA
ENDBRANCH  11  12
ENDBRANCH  10  11
ENDBRANCH   9  10
ENDBRANCH   8   9
ENDBRANCH   7   8
ENDBRANCH   6   7
ENDBRANCH   5   6
ENDBRANCH   4   5
ENDBRANCH   3   4
ENDBRANCH   2   3
ENDBRANCH   1   2
BRANCH   1  15
ATOM     15  C   UNL     1      -2.443 -31.738 -27.143  1.00  0.00     0.000 C 
BRANCH  15  16
ATOM     16  C   UNL     1      -3.878 -31.243 -26.904  1.00  0.00     0.000 C 
BRANCH  16  17
ATOM     17  C   UNL     1      -4.160 -29.968 -27.712  1.00  0.00     0.000 C 
BRANCH  17  18
ATOM     18  C   UNL     1      -2.878 -29.300 -28.234  1.00  0.00    -0.000 C 
BRANCH  18  19
ATOM     19  C   UNL     1      -3.036 -28.758 -29.665  1.00  0.00    -0.000 C 
BRANCH  19  20
ATOM     20  C   UNL     1      -4.481 -28.858 -30.178  1.00  0.00    -0.000 C 
BRANCH  20  21
ATOM     21  C   UNL     1      -4.599 -28.606 -31.690  1.00  0.00    -0.000 C 
BRANCH  21  22
ATOM     22  C   UNL     1      -3.488 -29.331 -32.457  1.00  0.00    -0.000 C 
BRANCH  22  23
ATOM     23  C   UNL     1      -2.702 -28.356 -33.348  1.00  0.00    -0.000 C 
BRANCH  23  24
ATOM     24  C   UNL     1      -1.265 -28.828 -33.631  1.00  0.00    -0.000 C 
BRANCH  24  25
ATOM     25  C   UNL     1      -0.352 -28.896 -32.394  1.00  0.00    -0.003 C 
ATOM     26  C   UNL     1      -0.079 -30.326 -31.931  1.00  0.00     0.004 C 
ENDBRANCH  24  25
ENDBRANCH  23  24
ENDBRANCH  22  23
ENDBRANCH  21  22
ENDBRANCH  20  21
ENDBRANCH  19  20
ENDBRANCH  18  19
ENDBRANCH  17  18
ENDBRANCH  16  17
ENDBRANCH  15  16
ENDBRANCH   1  15
TORSDOF 22
ENDMDL
MODEL 5
REMARK VINA RESULT:    -4.930     12.566     15.121
REMARK INTER + INTRA:         -12.664
REMARK INTER:                  -8.276
REMARK INTRA:                  -4.388
REMARK UNBOUND:                -1.392
REMARK SMILES CCCCCCCCCCCCCCCCCCCCCCCC(=O)[O-]
REMARK SMILES IDX 13 1 14 2 15 3 16 4 17 5 18 6 19 7 20 8 21 9 22 10 23 11
REMARK SMILES IDX 24 12 25 13 26 14 12 15 11 16 10 17 9 18 8 19 7 20 6 21 5 22
REMARK SMILES IDX 4 23 3 24 2 25 1 26
REMARK H PARENT
REMARK Flexibility Score: inf
ROOT
ATOM      1  C   UNL     1      -3.584 -29.795 -30.496  1.00  0.00     0.000 C 
ENDROOT
BRANCH   1   2
ATOM      2  C   UNL     1      -2.531 -30.196 -29.448  1.00  0.00     0.000 C 
BRANCH   2   3
ATOM      3  C   UNL     1      -2.947 -29.836 -28.010  1.00  0.00     0.000 C 
BRANCH   3   4
ATOM      4  C   UNL     1      -2.755 -30.961 -26.975  1.00  0.00     0.000 C 
BRANCH   4   5
ATOM      5  C   UNL     1      -2.610 -32.354 -27.615  1.00  0.00     0.000 C 
BRANCH   5   6
ATOM      6  C   UNL     1      -3.825 -33.260 -27.323  1.00  0.00     0.000 C 
BRANCH   6   7
ATOM      7  C   UNL     1      -4.428 -33.908 -28.582  1.00  0.00     0.000 C 
BRANCH   7   8
ATOM      8  C   UNL     1      -3.554 -33.710 -29.827  1.00  0.00     0.000 C 
BRANCH   8   9
ATOM      9  C   UNL     1      -4.388 -33.242 -31.028  1.00  0.00     0.000 C 
BRANCH   9  10
ATOM     10  C   UNL     1      -4.259 -34.172 -32.250  1.00  0.00     0.006 C 
BRANCH  10  11
ATOM     11  C   UNL     1      -3.232 -35.307 -32.069  1.00  0.00     0.053 C 
BRANCH  11  12
ATOM     12  C   UNL     1      -2.995 -36.080 -33.331  1.00  0.00     0.041 C 
ATOM     13  O   UNL     1      -2.657 -37.293 -33.283  1.00  0.00    -0.550 OA
ATOM     14  O   UNL     1      -3.122 -35.451 -34.565  1.00  0.00    -0.550 OA
ENDBRANCH  11  12
ENDBRANCH  10  11
ENDBRANCH   9  10
ENDBRANCH   8   9
ENDBRANCH   7   8
ENDBRANCH   6   7
ENDBRANCH   5   6
ENDBRANCH   4   5
ENDBRANCH   3   4
ENDBRANCH   2   3
ENDBRANCH   1   2
BRANCH   1  15
ATOM     15  C   UNL     1      -2.989 -28.958 -31.639  1.00  0.00     0.000 C 
BRANCH  15  16
ATOM     16  C   UNL     1      -1.501 -28.637 -31.423  1.00  0.00     0.000 C 
BRANCH  16  17
ATOM     17  C   UNL     1      -0.783 -28.430 -32.763  1.00  0.00     0.000 C 
BRANCH  17  18
ATOM     18  C   UNL     1      -1.655 -28.818 -33.970  1.00  0.00    -0.000 C 
BRANCH  18  19
ATOM     19  C   UNL     1      -1.134 -30.070 -34.695  1.00  0.00    -0.000 C 
BRANCH  19  20
ATOM     20  C   UNL     1      -1.993 -31.314 -34.418  1.00  0.00    -0.000 C 
BRANCH  20  21
ATOM     21  C   UNL     1      -1.210 -32.440 -33.724  1.00  0.00    -0.000 C 
BRANCH  21  22
ATOM     22  C   UNL     1      -1.123 -32.200 -32.213  1.00  0.00    -0.000 C 
BRANCH  22  23
ATOM     23  C   UNL     1       0.302 -32.451 -31.694  1.00  0.00    -0.000 C 
BRANCH  23  24
ATOM     24  C   UNL     1       1.312 -31.397 -32.181  1.00  0.00    -0.000 C 
BRANCH  24  25
ATOM     25  C   UNL     1       2.429 -31.944 -33.088  1.00  0.00    -0.003 C 
ATOM     26  C   UNL     1       2.312 -31.464 -34.534  1.00  0.00     0.004 C 
ENDBRANCH  24  25
ENDBRANCH  23  24
ENDBRANCH  22  23
ENDBRANCH  21  22
ENDBRANCH  20  21
ENDBRANCH  19  20
ENDBRANCH  18  19
ENDBRANCH  17  18
ENDBRANCH  16  17
ENDBRANCH  15  16
ENDBRANCH   1  15
TORSDOF 22
ENDMDL
MODEL 6
REMARK VINA RESULT:    -4.910     12.710     17.179
REMARK INTER + INTRA:         -12.617
REMARK INTER:                  -7.864
REMARK INTRA:                  -4.754
REMARK UNBOUND:                -1.392
REMARK SMILES CCCCCCCCCCCCCCCCCCCCCCCC(=O)[O-]
REMARK SMILES IDX 13 1 14 2 15 3 16 4 17 5 18 6 19 7 20 8 21 9 22 10 23 11
REMARK SMILES IDX 24 12 25 13 26 14 12 15 11 16 10 17 9 18 8 19 7 20 6 21 5 22
REMARK SMILES IDX 4 23 3 24 2 25 1 26
REMARK H PARENT
REMARK Flexibility Score: inf
ROOT
ATOM      1  C   UNL     1      -2.493 -30.651 -28.878  1.00  0.00     0.000 C 
ENDROOT
BRANCH   1   2
ATOM      2  C   UNL     1      -2.620 -29.694 -30.077  1.00  0.00     0.000 C 
BRANCH   2   3
ATOM      3  C   UNL     1      -3.020 -28.265 -29.666  1.00  0.00     0.000 C 
BRANCH   3   4
ATOM      4  C   UNL     1      -3.431 -27.343 -30.830  1.00  0.00     0.000 C 
BRANCH   4   5
ATOM      5  C   UNL     1      -2.356 -27.238 -31.927  1.00  0.00     0.000 C 
BRANCH   5   6
ATOM      6  C   UNL     1      -2.941 -27.447 -33.340  1.00  0.00     0.000 C 
BRANCH   6   7
ATOM      7  C   UNL     1      -3.554 -28.842 -33.555  1.00  0.00     0.000 C 
BRANCH   7   8
ATOM      8  C   UNL     1      -2.492 -29.940 -33.704  1.00  0.00     0.000 C 
BRANCH   8   9
ATOM      9  C   UNL     1      -1.371 -29.509 -34.660  1.00  0.00     0.000 C 
BRANCH   9  10
ATOM     10  C   UNL     1       0.033 -29.635 -34.039  1.00  0.00     0.006 C 
BRANCH  10  11
ATOM     11  C   UNL     1       0.027 -29.839 -32.512  1.00  0.00     0.053 C 
BRANCH  11  12
ATOM     12  C   UNL     1       0.783 -31.063 -32.088  1.00  0.00     0.041 C 
ATOM     13  O   UNL     1       0.422 -31.716 -31.073  1.00  0.00    -0.550 OA
ATOM     14  O   UNL     1       1.906 -31.468 -32.802  1.00  0.00    -0.550 OA
ENDBRANCH  11  12
ENDBRANCH  10  11
ENDBRANCH   9  10
ENDBRANCH   8   9
ENDBRANCH   7   8
ENDBRANCH   6   7
ENDBRANCH   5   6
ENDBRANCH   4   5
ENDBRANCH   3   4
ENDBRANCH   2   3
ENDBRANCH   1   2
BRANCH   1  15
ATOM     15  C   UNL     1      -3.019 -30.034 -27.573  1.00  0.00     0.000 C 
BRANCH  15  16
ATOM     16  C   UNL     1      -4.326 -30.689 -27.097  1.00  0.00     0.000 C 
BRANCH  16  17
ATOM     17  C   UNL     1      -5.529 -29.774 -27.368  1.00  0.00     0.000 C 
BRANCH  17  18
ATOM     18  C   UNL     1      -6.447 -30.315 -28.477  1.00  0.00    -0.000 C 
BRANCH  18  19
ATOM     19  C   UNL     1      -6.535 -29.366 -29.684  1.00  0.00    -0.000 C 
BRANCH  19  20
ATOM     20  C   UNL     1      -6.111 -30.040 -30.998  1.00  0.00    -0.000 C 
BRANCH  20  21
ATOM     21  C   UNL     1      -6.095 -31.575 -30.905  1.00  0.00    -0.000 C 
BRANCH  21  22
ATOM     22  C   UNL     1      -4.876 -32.157 -31.628  1.00  0.00    -0.000 C 
BRANCH  22  23
ATOM     23  C   UNL     1      -4.226 -33.279 -30.802  1.00  0.00    -0.000 C 
BRANCH  23  24
ATOM     24  C   UNL     1      -5.025 -33.630 -29.535  1.00  0.00    -0.000 C 
BRANCH  24  25
ATOM     25  C   UNL     1      -4.169 -34.069 -28.333  1.00  0.00    -0.003 C 
ATOM     26  C   UNL     1      -3.138 -35.137 -28.695  1.00  0.00     0.004 C 
ENDBRANCH  24  25
ENDBRANCH  23  24
ENDBRANCH  22  23
ENDBRANCH  21  22
ENDBRANCH  20  21
ENDBRANCH  19  20
ENDBRANCH  18  19
ENDBRANCH  17  18
ENDBRANCH  16  17
ENDBRANCH  15  16
ENDBRANCH   1  15
TORSDOF 22
ENDMDL
MODEL 7
REMARK VINA RESULT:    -4.909     11.941     14.742
REMARK INTER + INTRA:         -12.614
REMARK INTER:                  -8.223
REMARK INTRA:                  -4.391
REMARK UNBOUND:                -1.392
REMARK SMILES CCCCCCCCCCCCCCCCCCCCCCCC(=O)[O-]
REMARK SMILES IDX 13 1 14 2 15 3 16 4 17 5 18 6 19 7 20 8 21 9 22 10 23 11
REMARK SMILES IDX 24 12 25 13 26 14 12 15 11 16 10 17 9 18 8 19 7 20 6 21 5 22
REMARK SMILES IDX 4 23 3 24 2 25 1 26
REMARK H PARENT
REMARK Flexibility Score: inf
ROOT
ATOM      1  C   UNL     1      -2.769 -29.447 -29.468  1.00  0.00     0.000 C 
ENDROOT
BRANCH   1   2
ATOM      2  C   UNL     1      -2.989 -29.388 -27.946  1.00  0.00     0.000 C 
BRANCH   2   3
ATOM      3  C   UNL     1      -3.635 -30.667 -27.382  1.00  0.00     0.000 C 
BRANCH   3   4
ATOM      4  C   UNL     1      -2.644 -31.783 -26.998  1.00  0.00     0.000 C 
BRANCH   4   5
ATOM      5  C   UNL     1      -2.634 -32.953 -27.998  1.00  0.00     0.000 C 
BRANCH   5   6
ATOM      6  C   UNL     1      -1.515 -32.813 -29.051  1.00  0.00     0.000 C 
BRANCH   6   7
ATOM      7  C   UNL     1      -1.938 -33.252 -30.464  1.00  0.00     0.000 C 
BRANCH   7   8
ATOM      8  C   UNL     1      -3.182 -34.150 -30.458  1.00  0.00     0.000 C 
BRANCH   8   9
ATOM      9  C   UNL     1      -3.100 -35.230 -31.546  1.00  0.00     0.000 C 
BRANCH   9  10
ATOM     10  C   UNL     1      -3.199 -36.660 -30.983  1.00  0.00     0.006 C 
BRANCH  10  11
ATOM     11  C   UNL     1      -2.429 -36.871 -29.666  1.00  0.00     0.053 C 
BRANCH  11  12
ATOM     12  C   UNL     1      -0.953 -37.036 -29.878  1.00  0.00     0.041 C 
ATOM     13  O   UNL     1      -0.507 -38.030 -30.510  1.00  0.00    -0.550 OA
ATOM     14  O   UNL     1      -0.068 -36.100 -29.353  1.00  0.00    -0.550 OA
ENDBRANCH  11  12
ENDBRANCH  10  11
ENDBRANCH   9  10
ENDBRANCH   8   9
ENDBRANCH   7   8
ENDBRANCH   6   7
ENDBRANCH   5   6
ENDBRANCH   4   5
ENDBRANCH   3   4
ENDBRANCH   2   3
ENDBRANCH   1   2
BRANCH   1  15
ATOM     15  C   UNL     1      -4.008 -29.950 -30.225  1.00  0.00     0.000 C 
BRANCH  15  16
ATOM     16  C   UNL     1      -3.722 -30.219 -31.711  1.00  0.00     0.000 C 
BRANCH  16  17
ATOM     17  C   UNL     1      -4.245 -29.073 -32.588  1.00  0.00     0.000 C 
BRANCH  17  18
ATOM     18  C   UNL     1      -3.134 -28.397 -33.409  1.00  0.00    -0.000 C 
BRANCH  18  19
ATOM     19  C   UNL     1      -2.442 -27.259 -32.640  1.00  0.00    -0.000 C 
BRANCH  19  20
ATOM     20  C   UNL     1      -1.092 -27.684 -32.043  1.00  0.00    -0.000 C 
BRANCH  20  21
ATOM     21  C   UNL     1      -0.359 -28.728 -32.902  1.00  0.00    -0.000 C 
BRANCH  21  22
ATOM     22  C   UNL     1      -0.109 -30.015 -32.110  1.00  0.00    -0.000 C 
BRANCH  22  23
ATOM     23  C   UNL     1      -0.149 -31.247 -33.028  1.00  0.00    -0.000 C 
BRANCH  23  24
ATOM     24  C   UNL     1      -0.526 -30.901 -34.480  1.00  0.00    -0.000 C 
BRANCH  24  25
ATOM     25  C   UNL     1      -1.896 -31.435 -34.935  1.00  0.00    -0.003 C 
ATOM     26  C   UNL     1      -2.335 -32.681 -34.167  1.00  0.00     0.004 C 
ENDBRANCH  24  25
ENDBRANCH  23  24
ENDBRANCH  22  23
ENDBRANCH  21  22
ENDBRANCH  20  21
ENDBRANCH  19  20
ENDBRANCH  18  19
ENDBRANCH  17  18
ENDBRANCH  16  17
ENDBRANCH  15  16
ENDBRANCH   1  15
TORSDOF 22
ENDMDL
MODEL 8
REMARK VINA RESULT:    -4.897     12.438     16.492
REMARK INTER + INTRA:         -12.587
REMARK INTER:                  -7.728
REMARK INTRA:                  -4.859
REMARK UNBOUND:                -1.392
REMARK SMILES CCCCCCCCCCCCCCCCCCCCCCCC(=O)[O-]
REMARK SMILES IDX 13 1 14 2 15 3 16 4 17 5 18 6 19 7 20 8 21 9 22 10 23 11
REMARK SMILES IDX 24 12 25 13 26 14 12 15 11 16 10 17 9 18 8 19 7 20 6 21 5 22
REMARK SMILES IDX 4 23 3 24 2 25 1 26
REMARK H PARENT
REMARK Flexibility Score: inf
ROOT
ATOM      1  C   UNL     1      -0.974 -30.431 -31.389  1.00  0.00     0.000 C 
ENDROOT
BRANCH   1   2
ATOM      2  C   UNL     1      -0.748 -28.975 -31.830  1.00  0.00     0.000 C 
BRANCH   2   3
ATOM      3  C   UNL     1      -0.309 -28.855 -33.301  1.00  0.00     0.000 C 
BRANCH   3   4
ATOM      4  C   UNL     1      -1.356 -29.314 -34.334  1.00  0.00     0.000 C 
BRANCH   4   5
ATOM      5  C   UNL     1      -2.694 -28.563 -34.214  1.00  0.00     0.000 C 
BRANCH   5   6
ATOM      6  C   UNL     1      -3.908 -29.507 -34.342  1.00  0.00     0.000 C 
BRANCH   6   7
ATOM      7  C   UNL     1      -4.634 -29.764 -33.009  1.00  0.00     0.000 C 
BRANCH   7   8
ATOM      8  C   UNL     1      -4.791 -31.258 -32.699  1.00  0.00     0.000 C 
BRANCH   8   9
ATOM      9  C   UNL     1      -4.797 -32.100 -33.982  1.00  0.00     0.000 C 
BRANCH   9  10
ATOM     10  C   UNL     1      -3.817 -33.288 -33.929  1.00  0.00     0.006 C 
BRANCH  10  11
ATOM     11  C   UNL     1      -2.333 -32.877 -33.947  1.00  0.00     0.053 C 
BRANCH  11  12
ATOM     12  C   UNL     1      -1.426 -33.959 -33.441  1.00  0.00     0.041 C 
ATOM     13  O   UNL     1      -1.758 -35.170 -33.547  1.00  0.00    -0.550 OA
ATOM     14  O   UNL     1      -0.223 -33.627 -32.828  1.00  0.00    -0.550 OA
ENDBRANCH  11  12
ENDBRANCH  10  11
ENDBRANCH   9  10
ENDBRANCH   8   9
ENDBRANCH   7   8
ENDBRANCH   6   7
ENDBRANCH   5   6
ENDBRANCH   4   5
ENDBRANCH   3   4
ENDBRANCH   2   3
ENDBRANCH   1   2
BRANCH   1  15
ATOM     15  C   UNL     1      -2.104 -30.566 -30.355  1.00  0.00     0.000 C 
BRANCH  15  16
ATOM     16  C   UNL     1      -2.636 -29.203 -29.884  1.00  0.00     0.000 C 
BRANCH  16  17
ATOM     17  C   UNL     1      -3.101 -29.270 -28.423  1.00  0.00     0.000 C 
BRANCH  17  18
ATOM     18  C   UNL     1      -2.695 -30.581 -27.730  1.00  0.00    -0.000 C 
BRANCH  18  19
ATOM     19  C   UNL     1      -3.872 -31.255 -27.006  1.00  0.00    -0.000 C 
BRANCH  19  20
ATOM     20  C   UNL     1      -5.210 -31.050 -27.734  1.00  0.00    -0.000 C 
BRANCH  20  21
ATOM     21  C   UNL     1      -5.333 -31.899 -29.010  1.00  0.00    -0.000 C 
BRANCH  21  22
ATOM     22  C   UNL     1      -4.772 -33.308 -28.789  1.00  0.00    -0.000 C 
BRANCH  22  23
ATOM     23  C   UNL     1      -4.242 -33.905 -30.103  1.00  0.00    -0.000 C 
BRANCH  23  24
ATOM     24  C   UNL     1      -2.752 -34.286 -30.030  1.00  0.00    -0.000 C 
BRANCH  24  25
ATOM     25  C   UNL     1      -2.147 -34.255 -28.615  1.00  0.00    -0.003 C 
ATOM     26  C   UNL     1      -0.779 -33.576 -28.567  1.00  0.00     0.004 C 
ENDBRANCH  24  25
ENDBRANCH  23  24
ENDBRANCH  22  23
ENDBRANCH  21  22
ENDBRANCH  20  21
ENDBRANCH  19  20
ENDBRANCH  18  19
ENDBRANCH  17  18
ENDBRANCH  16  17
ENDBRANCH  15  16
ENDBRANCH   1  15
TORSDOF 22
ENDMDL
MODEL 9
REMARK VINA RESULT:    -4.847     13.467     16.880
REMARK INTER + INTRA:         -12.474
REMARK INTER:                  -7.574
REMARK INTRA:                  -4.900
REMARK UNBOUND:                -1.392
REMARK SMILES CCCCCCCCCCCCCCCCCCCCCCCC(=O)[O-]
REMARK SMILES IDX 13 1 14 2 15 3 16 4 17 5 18 6 19 7 20 8 21 9 22 10 23 11
REMARK SMILES IDX 24 12 25 13 26 14 12 15 11 16 10 17 9 18 8 19 7 20 6 21 5 22
REMARK SMILES IDX 4 23 3 24 2 25 1 26
REMARK H PARENT
REMARK Flexibility Score: inf
ROOT
ATOM      1  C   UNL     1      -6.485 -32.671 -29.176  1.00  0.00     0.000 C 
ENDROOT
BRANCH   1   2
ATOM      2  C   UNL     1      -6.287 -31.925 -30.507  1.00  0.00     0.000 C 
BRANCH   2   3
ATOM      3  C   UNL     1      -6.084 -32.873 -31.703  1.00  0.00     0.000 C 
BRANCH   3   4
ATOM      4  C   UNL     1      -6.180 -32.204 -33.088  1.00  0.00     0.000 C 
BRANCH   4   5
ATOM      5  C   UNL     1      -4.838 -32.181 -33.842  1.00  0.00     0.000 C 
BRANCH   5   6
ATOM      6  C   UNL     1      -4.050 -33.498 -33.674  1.00  0.00     0.000 C 
BRANCH   6   7
ATOM      7  C   UNL     1      -2.544 -33.357 -33.954  1.00  0.00     0.000 C 
BRANCH   7   8
ATOM      8  C   UNL     1      -2.180 -31.996 -34.562  1.00  0.00     0.000 C 
BRANCH   8   9
ATOM      9  C   UNL     1      -0.743 -31.589 -34.206  1.00  0.00     0.000 C 
BRANCH   9  10
ATOM     10  C   UNL     1      -0.486 -30.079 -34.369  1.00  0.00     0.006 C 
BRANCH  10  11
ATOM     11  C   UNL     1      -1.762 -29.218 -34.326  1.00  0.00     0.053 C 
BRANCH  11  12
ATOM     12  C   UNL     1      -1.694 -28.131 -33.294  1.00  0.00     0.041 C 
ATOM     13  O   UNL     1      -2.610 -27.271 -33.213  1.00  0.00    -0.550 OA
ATOM     14  O   UNL     1      -0.602 -28.056 -32.437  1.00  0.00    -0.550 OA
ENDBRANCH  11  12
ENDBRANCH  10  11
ENDBRANCH   9  10
ENDBRANCH   8   9
ENDBRANCH   7   8
ENDBRANCH   6   7
ENDBRANCH   5   6
ENDBRANCH   4   5
ENDBRANCH   3   4
ENDBRANCH   2   3
ENDBRANCH   1   2
BRANCH   1  15
ATOM     15  C   UNL     1      -6.368 -31.745 -27.956  1.00  0.00     0.000 C 
BRANCH  15  16
ATOM     16  C   UNL     1      -6.428 -30.257 -28.339  1.00  0.00     0.000 C 
BRANCH  16  17
ATOM     17  C   UNL     1      -5.229 -29.492 -27.761  1.00  0.00     0.000 C 
BRANCH  17  18
ATOM     18  C   UNL     1      -3.924 -30.305 -27.814  1.00  0.00    -0.000 C 
BRANCH  18  19
ATOM     19  C   UNL     1      -2.868 -29.665 -28.731  1.00  0.00    -0.000 C 
BRANCH  19  20
ATOM     20  C   UNL     1      -3.317 -29.608 -30.199  1.00  0.00    -0.000 C 
BRANCH  20  21
ATOM     21  C   UNL     1      -2.798 -30.793 -31.030  1.00  0.00    -0.000 C 
BRANCH  21  22
ATOM     22  C   UNL     1      -1.366 -31.163 -30.627  1.00  0.00    -0.000 C 
BRANCH  22  23
ATOM     23  C   UNL     1      -1.209 -32.684 -30.474  1.00  0.00    -0.000 C 
BRANCH  23  24
ATOM     24  C   UNL     1      -1.528 -33.180 -29.052  1.00  0.00    -0.000 C 
BRANCH  24  25
ATOM     25  C   UNL     1      -2.941 -33.763 -28.874  1.00  0.00    -0.003 C 
ATOM     26  C   UNL     1      -3.368 -34.656 -30.038  1.00  0.00     0.004 C 
ENDBRANCH  24  25
ENDBRANCH  23  24
ENDBRANCH  22  23
ENDBRANCH  21  22
ENDBRANCH  20  21
ENDBRANCH  19  20
ENDBRANCH  18  19
ENDBRANCH  17  18
ENDBRANCH  16  17
ENDBRANCH  15  16
ENDBRANCH   1  15
TORSDOF 22
ENDMDL
