MODEL 1
REMARK VINA RESULT:    -3.532      0.000      0.000
REMARK INTER + INTRA:          -5.382
REMARK INTER:                  -5.391
REMARK INTRA:                   0.008
REMARK UNBOUND:                 0.008
REMARK SMILES CC1=CCC[C@@H](C)C(=O)C[C@H](C(C)C)C(=O)C1
REMARK SMILES IDX 8 1 9 2 6 3 7 4 5 5 4 6 3 7 2 8 1 9 10 11 11 12 15 13 16 14
REMARK SMILES IDX 17 15 12 17 13 18 14 19
REMARK H PARENT
REMARK Flexibility Score: 70.00
ROOT
ATOM      1  C   UNL     1      17.237  11.388  51.162  1.00  0.00     0.136 C 
ATOM      2  O   UNL     1      16.639  10.607  51.888  1.00  0.00    -0.299 OA
ENDROOT
BRANCH   1   3
ATOM      3  C   UNL     1      18.479  12.091  51.676  1.00  0.00     0.053 C 
ATOM      4  C   UNL     1      18.753  11.617  53.108  1.00  0.00     0.016 C 
BRANCH   3   5
ATOM      5  C   UNL     1      18.350  13.633  51.640  1.00  0.00     0.015 C 
BRANCH   5   6
ATOM      6  C   UNL     1      18.767  14.272  50.305  1.00  0.00     0.028 C 
BRANCH   6   7
ATOM      7  C   UNL     1      17.860  15.407  49.893  1.00  0.00    -0.028 C 
ATOM      8  C   UNL     1      16.846  15.330  49.000  1.00  0.00    -0.070 CG0
ATOM      9  C   UNL     1      16.154  16.614  48.613  1.00  0.00     0.039 C 
ATOM     10  G   UNL     1      16.444  14.041  48.303  1.00  0.00     0.000 G0
ENDBRANCH   6   7
ENDBRANCH   5   6
ENDBRANCH   3   5
ENDBRANCH   1   3
BRANCH   1  11
ATOM     11  C   UNL     1      16.810  11.524  49.719  1.00  0.00     0.087 C 
BRANCH  11  12
ATOM     12  C   UNL     1      15.330  11.975  49.564  1.00  0.00     0.066 C 
BRANCH  12  13
ATOM     13  C   UNL     1      15.236  13.356  48.909  1.00  0.00     0.140 C 
ATOM     14  O   UNL     1      14.170  13.955  48.881  1.00  0.00    -0.299 OA
BRANCH  13  15
ATOM     15  C   UNL     1      16.438  14.019  48.285  1.00  0.00     0.106 CG0
ATOM     16  G   UNL     1      16.824  15.304  48.998  1.00  0.00     0.000 G0
ENDBRANCH  13  15
ENDBRANCH  12  13
BRANCH  12  17
ATOM     17  C   UNL     1      14.450  10.910  48.827  1.00  0.00    -0.006 C 
ATOM     18  C   UNL     1      13.282  10.424  49.700  1.00  0.00     0.008 C 
ATOM     19  C   UNL     1      15.259   9.709  48.302  1.00  0.00     0.008 C 
ENDBRANCH  12  17
ENDBRANCH  11  12
ENDBRANCH   1  11
TORSDOF 1
ENDMDL
MODEL 2
REMARK VINA RESULT:    -3.497     12.518     15.334
REMARK INTER + INTRA:          -5.329
REMARK INTER:                  -5.023
REMARK INTRA:                  -0.306
REMARK UNBOUND:                 0.008
REMARK SMILES CC1=CCC[C@@H](C)C(=O)C[C@H](C(C)C)C(=O)C1
REMARK SMILES IDX 8 1 9 2 6 3 7 4 5 5 4 6 3 7 2 8 1 9 10 11 11 12 15 13 16 14
REMARK SMILES IDX 17 15 12 17 13 18 14 19
REMARK H PARENT
REMARK Flexibility Score: 70.00
ROOT
ATOM      1  C   UNL     1      17.202  21.351  36.765  1.00  0.00     0.136 C 
ATOM      2  O   UNL     1      18.402  21.142  36.659  1.00  0.00    -0.299 OA
ENDROOT
BRANCH   1   3
ATOM      3  C   UNL     1      16.600  22.602  36.155  1.00  0.00     0.053 C 
ATOM      4  C   UNL     1      17.329  22.907  34.841  1.00  0.00     0.016 C 
BRANCH   3   5
ATOM      5  C   UNL     1      16.677  23.824  37.103  1.00  0.00     0.015 C 
BRANCH   5   6
ATOM      6  C   UNL     1      15.347  24.176  37.788  1.00  0.00     0.028 C 
BRANCH   6   7
ATOM      7  C   UNL     1      14.145  23.677  37.022  1.00  0.00    -0.028 C 
ATOM      8  C   UNL     1      13.296  22.701  37.422  1.00  0.00    -0.070 CG0
ATOM      9  C   UNL     1      12.243  22.244  36.442  1.00  0.00     0.039 C 
ATOM     10  G   UNL     1      13.418  21.985  38.756  1.00  0.00     0.000 G0
ENDBRANCH   6   7
ENDBRANCH   5   6
ENDBRANCH   3   5
ENDBRANCH   1   3
BRANCH   1  11
ATOM     11  C   UNL     1      16.321  20.283  37.372  1.00  0.00     0.087 C 
BRANCH  11  12
ATOM     12  C   UNL     1      15.718  20.702  38.743  1.00  0.00     0.066 C 
BRANCH  12  13
ATOM     13  C   UNL     1      14.188  20.706  38.698  1.00  0.00     0.140 C 
ATOM     14  O   UNL     1      13.570  19.654  38.609  1.00  0.00    -0.299 OA
BRANCH  13  15
ATOM     15  C   UNL     1      13.398  21.989  38.762  1.00  0.00     0.106 CG0
ATOM     16  G   UNL     1      13.311  22.682  37.413  1.00  0.00     0.000 G0
ENDBRANCH  13  15
ENDBRANCH  12  13
BRANCH  12  17
ATOM     17  C   UNL     1      16.273  19.846  39.931  1.00  0.00    -0.006 C 
ATOM     18  C   UNL     1      17.245  20.646  40.814  1.00  0.00     0.008 C 
ATOM     19  C   UNL     1      16.927  18.527  39.479  1.00  0.00     0.008 C 
ENDBRANCH  12  17
ENDBRANCH  11  12
ENDBRANCH   1  11
TORSDOF 1
ENDMDL
MODEL 3
REMARK VINA RESULT:    -3.418      2.477      4.552
REMARK INTER + INTRA:          -5.208
REMARK INTER:                  -5.020
REMARK INTRA:                  -0.188
REMARK UNBOUND:                 0.008
REMARK SMILES CC1=CCC[C@@H](C)C(=O)C[C@H](C(C)C)C(=O)C1
REMARK SMILES IDX 8 1 9 2 6 3 7 4 5 5 4 6 3 7 2 8 1 9 10 11 11 12 15 13 16 14
REMARK SMILES IDX 17 15 12 17 13 18 14 19
REMARK H PARENT
REMARK Flexibility Score: 70.00
ROOT
ATOM      1  C   UNL     1      16.843  12.026  50.094  1.00  0.00     0.136 C 
ATOM      2  O   UNL     1      18.042  12.185  50.271  1.00  0.00    -0.299 OA
ENDROOT
BRANCH   1   3
ATOM      3  C   UNL     1      16.159  10.789  50.642  1.00  0.00     0.053 C 
ATOM      4  C   UNL     1      16.753  10.470  52.019  1.00  0.00     0.016 C 
BRANCH   3   5
ATOM      5  C   UNL     1      16.298   9.565  49.704  1.00  0.00     0.015 C 
BRANCH   5   6
ATOM      6  C   UNL     1      15.040   9.256  48.877  1.00  0.00     0.028 C 
BRANCH   6   7
ATOM      7  C   UNL     1      13.763   9.481  49.651  1.00  0.00    -0.028 C 
ATOM      8  C   UNL     1      12.833  10.429  49.392  1.00  0.00    -0.070 CG0
ATOM      9  C   UNL     1      11.699  10.586  50.376  1.00  0.00     0.039 C 
ATOM     10  G   UNL     1      12.931  11.398  48.226  1.00  0.00     0.000 G0
ENDBRANCH   6   7
ENDBRANCH   5   6
ENDBRANCH   3   5
ENDBRANCH   1   3
BRANCH   1  11
ATOM     11  C   UNL     1      16.041  13.139  49.460  1.00  0.00     0.087 C 
BRANCH  11  12
ATOM     12  C   UNL     1      15.235  12.673  48.213  1.00  0.00     0.066 C 
BRANCH  12  13
ATOM     13  C   UNL     1      13.734  12.625  48.508  1.00  0.00     0.140 C 
ATOM     14  O   UNL     1      13.170  13.592  49.000  1.00  0.00    -0.299 OA
BRANCH  13  15
ATOM     15  C   UNL     1      12.907  11.400  48.207  1.00  0.00     0.106 CG0
ATOM     16  G   UNL     1      12.851  10.438  49.382  1.00  0.00     0.000 G0
ENDBRANCH  13  15
ENDBRANCH  12  13
BRANCH  12  17
ATOM     17  C   UNL     1      15.560  13.518  46.936  1.00  0.00    -0.006 C 
ATOM     18  C   UNL     1      15.805  12.631  45.705  1.00  0.00     0.008 C 
ATOM     19  C   UNL     1      16.737  14.492  47.133  1.00  0.00     0.008 C 
ENDBRANCH  12  17
ENDBRANCH  11  12
ENDBRANCH   1  11
TORSDOF 1
ENDMDL
MODEL 4
REMARK VINA RESULT:    -3.287      2.767      6.233
REMARK INTER + INTRA:          -5.009
REMARK INTER:                  -4.816
REMARK INTRA:                  -0.193
REMARK UNBOUND:                 0.008
REMARK SMILES CC1=CCC[C@@H](C)C(=O)C[C@H](C(C)C)C(=O)C1
REMARK SMILES IDX 8 1 9 2 6 3 7 4 5 5 4 6 3 7 2 8 1 9 10 11 11 12 15 13 16 14
REMARK SMILES IDX 17 15 12 17 13 18 14 19
REMARK H PARENT
REMARK Flexibility Score: 70.00
ROOT
ATOM      1  C   UNL     1      13.577  13.215  48.402  1.00  0.00     0.136 C 
ATOM      2  O   UNL     1      13.706  14.044  49.292  1.00  0.00    -0.299 OA
ENDROOT
BRANCH   1   3
ATOM      3  C   UNL     1      12.340  13.240  47.525  1.00  0.00     0.053 C 
ATOM      4  C   UNL     1      12.097  14.681  47.063  1.00  0.00     0.016 C 
BRANCH   3   5
ATOM      5  C   UNL     1      11.085  12.692  48.247  1.00  0.00     0.015 C 
BRANCH   5   6
ATOM      6  C   UNL     1      10.859  11.183  48.065  1.00  0.00     0.028 C 
BRANCH   6   7
ATOM      7  C   UNL     1      11.164  10.392  49.315  1.00  0.00    -0.028 C 
ATOM      8  C   UNL     1      12.279   9.657  49.539  1.00  0.00    -0.070 CG0
ATOM      9  C   UNL     1      12.326   8.819  50.792  1.00  0.00     0.039 C 
ATOM     10  G   UNL     1      13.428   9.562  48.549  1.00  0.00     0.000 G0
ENDBRANCH   6   7
ENDBRANCH   5   6
ENDBRANCH   3   5
ENDBRANCH   1   3
BRANCH   1  11
ATOM     11  C   UNL     1      14.723  12.276  48.102  1.00  0.00     0.087 C 
BRANCH  11  12
ATOM     12  C   UNL     1      15.160  11.437  49.336  1.00  0.00     0.066 C 
BRANCH  12  13
ATOM     13  C   UNL     1      14.768   9.966  49.174  1.00  0.00     0.140 C 
ATOM     14  O   UNL     1      15.528   9.080  49.541  1.00  0.00    -0.299 OA
BRANCH  13  15
ATOM     15  C   UNL     1      13.449   9.560  48.566  1.00  0.00     0.106 CG0
ATOM     16  G   UNL     1      12.303   9.649  49.559  1.00  0.00     0.000 G0
ENDBRANCH  13  15
ENDBRANCH  12  13
BRANCH  12  17
ATOM     17  C   UNL     1      16.678  11.611  49.675  1.00  0.00    -0.006 C 
ATOM     18  C   UNL     1      16.923  11.712  51.190  1.00  0.00     0.008 C 
ATOM     19  C   UNL     1      17.332  12.801  48.949  1.00  0.00     0.008 C 
ENDBRANCH  12  17
ENDBRANCH  11  12
ENDBRANCH   1  11
TORSDOF 1
ENDMDL
MODEL 5
REMARK VINA RESULT:    -3.114     13.070     15.357
REMARK INTER + INTRA:          -4.743
REMARK INTER:                  -4.624
REMARK INTRA:                  -0.119
REMARK UNBOUND:                 0.008
REMARK SMILES CC1=CCC[C@@H](C)C(=O)C[C@H](C(C)C)C(=O)C1
REMARK SMILES IDX 8 1 9 2 6 3 7 4 5 5 4 6 3 7 2 8 1 9 10 11 11 12 15 13 16 14
REMARK SMILES IDX 17 15 12 17 13 18 14 19
REMARK H PARENT
REMARK Flexibility Score: 70.00
ROOT
ATOM      1  C   UNL     1      13.487  10.406  34.475  1.00  0.00     0.136 C 
ATOM      2  O   UNL     1      12.798  10.494  33.469  1.00  0.00    -0.299 OA
ENDROOT
BRANCH   1   3
ATOM      3  C   UNL     1      14.957  10.055  34.352  1.00  0.00     0.053 C 
ATOM      4  C   UNL     1      15.567  10.887  33.218  1.00  0.00     0.016 C 
BRANCH   3   5
ATOM      5  C   UNL     1      15.190   8.547  34.090  1.00  0.00     0.015 C 
BRANCH   5   6
ATOM      6  C   UNL     1      14.310   7.615  34.938  1.00  0.00     0.028 C 
BRANCH   6   7
ATOM      7  C   UNL     1      14.653   7.667  36.409  1.00  0.00    -0.028 C 
ATOM      8  C   UNL     1      13.768   7.765  37.428  1.00  0.00    -0.070 CG0
ATOM      9  C   UNL     1      14.321   7.955  38.820  1.00  0.00     0.039 C 
ATOM     10  G   UNL     1      12.263   7.795  37.227  1.00  0.00     0.000 G0
ENDBRANCH   6   7
ENDBRANCH   5   6
ENDBRANCH   3   5
ENDBRANCH   1   3
BRANCH   1  11
ATOM     11  C   UNL     1      12.892  10.795  35.809  1.00  0.00     0.087 C 
BRANCH  11  12
ATOM     12  C   UNL     1      11.547  10.072  36.107  1.00  0.00     0.066 C 
BRANCH  12  13
ATOM     13  C   UNL     1      11.666   9.165  37.335  1.00  0.00     0.140 C 
ATOM     14  O   UNL     1      11.273   9.549  38.427  1.00  0.00    -0.299 OA
BRANCH  13  15
ATOM     15  C   UNL     1      12.262   7.783  37.243  1.00  0.00     0.106 CG0
ATOM     16  G   UNL     1      13.769   7.789  37.440  1.00  0.00     0.000 G0
ENDBRANCH  13  15
ENDBRANCH  12  13
BRANCH  12  17
ATOM     17  C   UNL     1      10.343  11.065  36.219  1.00  0.00    -0.006 C 
ATOM     18  C   UNL     1       9.517  11.117  34.924  1.00  0.00     0.008 C 
ATOM     19  C   UNL     1      10.760  12.485  36.643  1.00  0.00     0.008 C 
ENDBRANCH  12  17
ENDBRANCH  11  12
ENDBRANCH   1  11
TORSDOF 1
ENDMDL
MODEL 6
REMARK VINA RESULT:    -3.058     12.868     14.986
REMARK INTER + INTRA:          -4.659
REMARK INTER:                  -4.475
REMARK INTRA:                  -0.184
REMARK UNBOUND:                 0.008
REMARK SMILES CC1=CCC[C@@H](C)C(=O)C[C@H](C(C)C)C(=O)C1
REMARK SMILES IDX 8 1 9 2 6 3 7 4 5 5 4 6 3 7 2 8 1 9 10 11 11 12 15 13 16 14
REMARK SMILES IDX 17 15 12 17 13 18 14 19
REMARK H PARENT
REMARK Flexibility Score: 70.00
ROOT
ATOM      1  C   UNL     1      14.620  23.656  38.860  1.00  0.00     0.136 C 
ATOM      2  O   UNL     1      13.761  24.526  38.811  1.00  0.00    -0.299 OA
ENDROOT
BRANCH   1   3
ATOM      3  C   UNL     1      15.945  23.867  38.152  1.00  0.00     0.053 C 
ATOM      4  C   UNL     1      16.470  25.264  38.503  1.00  0.00     0.016 C 
BRANCH   3   5
ATOM      5  C   UNL     1      15.833  23.710  36.616  1.00  0.00     0.015 C 
BRANCH   5   6
ATOM      6  C   UNL     1      15.898  22.255  36.124  1.00  0.00     0.028 C 
BRANCH   6   7
ATOM      7  C   UNL     1      17.152  21.542  36.574  1.00  0.00    -0.028 C 
ATOM      8  C   UNL     1      17.200  20.403  37.303  1.00  0.00    -0.070 CG0
ATOM      9  C   UNL     1      18.553  19.933  37.779  1.00  0.00     0.039 C 
ATOM     10  G   UNL     1      15.962  19.642  37.744  1.00  0.00     0.000 G0
ENDBRANCH   6   7
ENDBRANCH   5   6
ENDBRANCH   3   5
ENDBRANCH   1   3
BRANCH   1  11
ATOM     11  C   UNL     1      14.398  22.454  39.748  1.00  0.00     0.087 C 
BRANCH  11  12
ATOM     12  C   UNL     1      14.128  21.148  38.946  1.00  0.00     0.066 C 
BRANCH  12  13
ATOM     13  C   UNL     1      15.328  20.200  39.009  1.00  0.00     0.140 C 
ATOM     14  O   UNL     1      15.813  19.887  40.087  1.00  0.00    -0.299 OA
BRANCH  13  15
ATOM     15  C   UNL     1      15.949  19.625  37.760  1.00  0.00     0.106 CG0
ATOM     16  G   UNL     1      17.175  20.404  37.313  1.00  0.00     0.000 G0
ENDBRANCH  13  15
ENDBRANCH  12  13
BRANCH  12  17
ATOM     17  C   UNL     1      12.796  20.445  39.372  1.00  0.00    -0.006 C 
ATOM     18  C   UNL     1      11.601  20.913  38.525  1.00  0.00     0.008 C 
ATOM     19  C   UNL     1      12.479  20.597  40.871  1.00  0.00     0.008 C 
ENDBRANCH  12  17
ENDBRANCH  11  12
ENDBRANCH   1  11
TORSDOF 1
ENDMDL
MODEL 7
REMARK VINA RESULT:    -3.027     13.073     15.669
REMARK INTER + INTRA:          -4.611
REMARK INTER:                  -4.375
REMARK INTRA:                  -0.236
REMARK UNBOUND:                 0.008
REMARK SMILES CC1=CCC[C@@H](C)C(=O)C[C@H](C(C)C)C(=O)C1
REMARK SMILES IDX 8 1 9 2 6 3 7 4 5 5 4 6 3 7 2 8 1 9 10 11 11 12 15 13 16 14
REMARK SMILES IDX 17 15 12 17 13 18 14 19
REMARK H PARENT
REMARK Flexibility Score: 70.00
ROOT
ATOM      1  C   UNL     1      11.497  23.930  37.790  1.00  0.00     0.136 C 
ATOM      2  O   UNL     1      10.498  24.636  37.790  1.00  0.00    -0.299 OA
ENDROOT
BRANCH   1   3
ATOM      3  C   UNL     1      12.548  24.115  36.712  1.00  0.00     0.053 C 
ATOM      4  C   UNL     1      12.323  23.059  35.623  1.00  0.00     0.016 C 
BRANCH   3   5
ATOM      5  C   UNL     1      13.991  24.014  37.263  1.00  0.00     0.015 C 
BRANCH   5   6
ATOM      6  C   UNL     1      14.784  22.805  36.742  1.00  0.00     0.028 C 
BRANCH   6   7
ATOM      7  C   UNL     1      15.537  22.085  37.836  1.00  0.00    -0.028 C 
ATOM      8  C   UNL     1      15.124  20.974  38.488  1.00  0.00    -0.070 CG0
ATOM      9  C   UNL     1      15.954  20.496  39.654  1.00  0.00     0.039 C 
ATOM     10  G   UNL     1      13.825  20.254  38.168  1.00  0.00     0.000 G0
ENDBRANCH   6   7
ENDBRANCH   5   6
ENDBRANCH   3   5
ENDBRANCH   1   3
BRANCH   1  11
ATOM     11  C   UNL     1      11.731  22.988  38.949  1.00  0.00     0.087 C 
BRANCH  11  12
ATOM     12  C   UNL     1      11.529  21.494  38.567  1.00  0.00     0.066 C 
BRANCH  12  13
ATOM     13  C   UNL     1      12.688  20.631  39.073  1.00  0.00     0.140 C 
ATOM     14  O   UNL     1      12.710  20.245  40.233  1.00  0.00    -0.299 OA
BRANCH  13  15
ATOM     15  C   UNL     1      13.829  20.230  38.172  1.00  0.00     0.106 CG0
ATOM     16  G   UNL     1      15.107  20.988  38.485  1.00  0.00     0.000 G0
ENDBRANCH  13  15
ENDBRANCH  12  13
BRANCH  12  17
ATOM     17  C   UNL     1      10.137  20.940  39.020  1.00  0.00    -0.006 C 
ATOM     18  C   UNL     1       9.145  20.848  37.850  1.00  0.00     0.008 C 
ATOM     19  C   UNL     1       9.515  21.732  40.185  1.00  0.00     0.008 C 
ENDBRANCH  12  17
ENDBRANCH  11  12
ENDBRANCH   1  11
TORSDOF 1
ENDMDL
MODEL 8
REMARK VINA RESULT:    -3.026     13.301     15.515
REMARK INTER + INTRA:          -4.610
REMARK INTER:                  -4.522
REMARK INTRA:                  -0.089
REMARK UNBOUND:                 0.008
REMARK SMILES CC1=CCC[C@@H](C)C(=O)C[C@H](C(C)C)C(=O)C1
REMARK SMILES IDX 8 1 9 2 6 3 7 4 5 5 4 6 3 7 2 8 1 9 10 11 11 12 15 13 16 14
REMARK SMILES IDX 17 15 12 17 13 18 14 19
REMARK H PARENT
REMARK Flexibility Score: 70.00
ROOT
ATOM      1  C   UNL     1      10.753  11.350  35.158  1.00  0.00     0.136 C 
ATOM      2  O   UNL     1       9.755  10.660  35.006  1.00  0.00    -0.299 OA
ENDROOT
BRANCH   1   3
ATOM      3  C   UNL     1      11.300  12.150  33.991  1.00  0.00     0.053 C 
ATOM      4  C   UNL     1      10.137  12.880  33.310  1.00  0.00     0.016 C 
BRANCH   3   5
ATOM      5  C   UNL     1      12.051  11.268  32.964  1.00  0.00     0.015 C 
BRANCH   5   6
ATOM      6  C   UNL     1      13.548  11.085  33.262  1.00  0.00     0.028 C 
BRANCH   6   7
ATOM      7  C   UNL     1      13.883   9.689  33.731  1.00  0.00    -0.028 C 
ATOM      8  C   UNL     1      14.107   9.312  35.011  1.00  0.00    -0.070 CG0
ATOM      9  C   UNL     1      14.576   7.898  35.254  1.00  0.00     0.039 C 
ATOM     10  G   UNL     1      14.006  10.264  36.191  1.00  0.00     0.000 G0
ENDBRANCH   6   7
ENDBRANCH   5   6
ENDBRANCH   3   5
ENDBRANCH   1   3
BRANCH   1  11
ATOM     11  C   UNL     1      11.334  11.505  36.545  1.00  0.00     0.087 C 
BRANCH  11  12
ATOM     12  C   UNL     1      11.582  10.144  37.255  1.00  0.00     0.066 C 
BRANCH  12  13
ATOM     13  C   UNL     1      13.071   9.791  37.273  1.00  0.00     0.140 C 
ATOM     14  O   UNL     1      13.534   9.108  38.176  1.00  0.00    -0.299 OA
BRANCH  13  15
ATOM     15  C   UNL     1      14.010  10.265  36.192  1.00  0.00     0.106 CG0
ATOM     16  G   UNL     1      14.082   9.298  35.023  1.00  0.00     0.000 G0
ENDBRANCH  13  15
ENDBRANCH  12  13
BRANCH  12  17
ATOM     17  C   UNL     1      10.943  10.085  38.683  1.00  0.00    -0.006 C 
ATOM     18  C   UNL     1       9.410   9.983  38.624  1.00  0.00     0.008 C 
ATOM     19  C   UNL     1      11.365  11.256  39.589  1.00  0.00     0.008 C 
ENDBRANCH  12  17
ENDBRANCH  11  12
ENDBRANCH   1  11
TORSDOF 1
ENDMDL
MODEL 9
REMARK VINA RESULT:    -2.984     12.793     15.190
REMARK INTER + INTRA:          -4.546
REMARK INTER:                  -4.474
REMARK INTRA:                  -0.073
REMARK UNBOUND:                 0.008
REMARK SMILES CC1=CCC[C@@H](C)C(=O)C[C@H](C(C)C)C(=O)C1
REMARK SMILES IDX 8 1 9 2 6 3 7 4 5 5 4 6 3 7 2 8 1 9 10 11 11 12 15 13 16 14
REMARK SMILES IDX 17 15 12 17 13 18 14 19
REMARK H PARENT
REMARK Flexibility Score: 70.00
ROOT
ATOM      1  C   UNL     1      16.045  22.200  36.567  1.00  0.00     0.136 C 
ATOM      2  O   UNL     1      16.374  22.282  35.391  1.00  0.00    -0.299 OA
ENDROOT
BRANCH   1   3
ATOM      3  C   UNL     1      16.745  21.209  37.476  1.00  0.00     0.053 C 
ATOM      4  C   UNL     1      18.240  21.204  37.136  1.00  0.00     0.016 C 
BRANCH   3   5
ATOM      5  C   UNL     1      16.167  19.777  37.356  1.00  0.00     0.015 C 
BRANCH   5   6
ATOM      6  C   UNL     1      15.695  19.173  38.688  1.00  0.00     0.028 C 
BRANCH   6   7
ATOM      7  C   UNL     1      15.997  20.062  39.872  1.00  0.00    -0.028 C 
ATOM      8  C   UNL     1      15.161  20.982  40.409  1.00  0.00    -0.070 CG0
ATOM      9  C   UNL     1      15.708  21.874  41.496  1.00  0.00     0.039 C 
ATOM     10  G   UNL     1      13.748  21.220  39.906  1.00  0.00     0.000 G0
ENDBRANCH   6   7
ENDBRANCH   5   6
ENDBRANCH   3   5
ENDBRANCH   1   3
BRANCH   1  11
ATOM     11  C   UNL     1      15.049  23.192  37.122  1.00  0.00     0.087 C 
BRANCH  11  12
ATOM     12  C   UNL     1      13.722  22.525  37.585  1.00  0.00     0.066 C 
BRANCH  12  13
ATOM     13  C   UNL     1      13.613  22.508  39.112  1.00  0.00     0.140 C 
ATOM     14  O   UNL     1      13.427  23.547  39.730  1.00  0.00    -0.299 OA
BRANCH  13  15
ATOM     15  C   UNL     1      13.731  21.227  39.899  1.00  0.00     0.106 CG0
ATOM     16  G   UNL     1      15.145  20.983  40.399  1.00  0.00     0.000 G0
ENDBRANCH  13  15
ENDBRANCH  12  13
BRANCH  12  17
ATOM     17  C   UNL     1      12.461  23.161  36.909  1.00  0.00    -0.006 C 
ATOM     18  C   UNL     1      11.828  22.221  35.871  1.00  0.00     0.008 C 
ATOM     19  C   UNL     1      12.735  24.541  36.282  1.00  0.00     0.008 C 
ENDBRANCH  12  17
ENDBRANCH  11  12
ENDBRANCH   1  11
TORSDOF 1
ENDMDL
