MODEL 1
REMARK VINA RESULT:    -4.425      0.000      0.000
REMARK INTER + INTRA:          -4.907
REMARK INTER:                  -4.813
REMARK INTRA:                  -0.095
REMARK UNBOUND:                -0.095
REMARK SMILES C=C(C)[C@@H]1CC=C(C)[C@H](O)C1
REMARK SMILES IDX 8 1 7 2 6 3 5 4 4 5 11 6 9 7 10 8 2 10 1 11 3 12
REMARK H PARENT 10 9
REMARK Flexibility Score: inf
ROOT
ATOM      1  C   UNL     1     140.027 141.652 142.140  1.00  0.00     0.042 C 
ATOM      2  C   UNL     1     139.638 141.863 143.580  1.00  0.00    -0.049 C 
ATOM      3  C   UNL     1     140.491 141.451 144.544  1.00  0.00    -0.025 C 
ATOM      4  C   UNL     1     140.210 141.611 146.016  1.00  0.00     0.035 C 
ATOM      5  C   UNL     1     138.705 141.725 146.302  1.00  0.00     0.021 C 
ATOM      6  C   UNL     1     138.086 142.786 145.383  1.00  0.00     0.044 C 
ATOM      7  C   UNL     1     138.243 142.380 143.905  1.00  0.00     0.140 C 
ENDROOT
BRANCH   7   8
ATOM      8  O   UNL     1     137.952 143.485 143.089  1.00  0.00    -0.389 OA
ATOM      9  H   UNL     1     138.041 144.294 143.657  1.00  0.00     0.211 HD
ENDBRANCH   7   8
BRANCH   5  10
ATOM     10  C   UNL     1     138.441 142.031 147.770  1.00  0.00    -0.077 C 
ATOM     11  C   UNL     1     139.203 141.469 148.723  1.00  0.00     0.008 C 
ATOM     12  C   UNL     1     137.337 142.970 148.192  1.00  0.00     0.039 C 
ENDBRANCH   5  10
TORSDOF 2
ENDMDL
MODEL 2
REMARK VINA RESULT:    -4.370      2.125      2.651
REMARK INTER + INTRA:          -4.848
REMARK INTER:                  -4.754
REMARK INTRA:                  -0.095
REMARK UNBOUND:                -0.095
REMARK SMILES C=C(C)[C@@H]1CC=C(C)[C@H](O)C1
REMARK SMILES IDX 8 1 7 2 6 3 5 4 4 5 11 6 9 7 10 8 2 10 1 11 3 12
REMARK H PARENT 10 9
REMARK Flexibility Score: inf
ROOT
ATOM      1  C   UNL     1     138.456 139.929 142.681  1.00  0.00     0.042 C 
ATOM      2  C   UNL     1     138.446 140.709 143.970  1.00  0.00    -0.049 C 
ATOM      3  C   UNL     1     138.107 142.016 143.928  1.00  0.00    -0.025 C 
ATOM      4  C   UNL     1     138.061 142.894 145.153  1.00  0.00     0.035 C 
ATOM      5  C   UNL     1     138.957 142.356 146.278  1.00  0.00     0.021 C 
ATOM      6  C   UNL     1     138.654 140.869 146.508  1.00  0.00     0.044 C 
ATOM      7  C   UNL     1     138.967 140.051 145.241  1.00  0.00     0.140 C 
ENDROOT
BRANCH   7   8
ATOM      8  O   UNL     1     138.406 138.770 145.368  1.00  0.00    -0.389 OA
ATOM      9  H   UNL     1     137.587 138.757 144.806  1.00  0.00     0.211 HD
ENDBRANCH   7   8
BRANCH   5  10
ATOM     10  C   UNL     1     138.791 143.166 147.556  1.00  0.00    -0.077 C 
ATOM     11  C   UNL     1     137.674 143.040 148.293  1.00  0.00     0.008 C 
ATOM     12  C   UNL     1     139.864 144.114 148.033  1.00  0.00     0.039 C 
ENDBRANCH   5  10
TORSDOF 2
ENDMDL
MODEL 3
REMARK VINA RESULT:    -4.325      2.360      4.134
REMARK INTER + INTRA:          -4.799
REMARK INTER:                  -4.704
REMARK INTRA:                  -0.095
REMARK UNBOUND:                -0.095
REMARK SMILES C=C(C)[C@@H]1CC=C(C)[C@H](O)C1
REMARK SMILES IDX 8 1 7 2 6 3 5 4 4 5 11 6 9 7 10 8 2 10 1 11 3 12
REMARK H PARENT 10 9
REMARK Flexibility Score: inf
ROOT
ATOM      1  C   UNL     1     140.011 144.863 148.394  1.00  0.00     0.042 C 
ATOM      2  C   UNL     1     139.723 143.562 147.691  1.00  0.00    -0.049 C 
ATOM      3  C   UNL     1     138.631 142.859 148.062  1.00  0.00    -0.025 C 
ATOM      4  C   UNL     1     138.242 141.547 147.429  1.00  0.00     0.035 C 
ATOM      5  C   UNL     1     139.448 140.839 146.792  1.00  0.00     0.021 C 
ATOM      6  C   UNL     1     140.201 141.823 145.886  1.00  0.00     0.044 C 
ATOM      7  C   UNL     1     140.745 143.007 146.708  1.00  0.00     0.140 C 
ENDROOT
BRANCH   7   8
ATOM      8  O   UNL     1     141.155 144.026 145.834  1.00  0.00    -0.389 OA
ATOM      9  H   UNL     1     141.192 143.629 144.925  1.00  0.00     0.211 HD
ENDBRANCH   7   8
BRANCH   5  10
ATOM     10  C   UNL     1     139.021 139.591 146.031  1.00  0.00    -0.077 C 
ATOM     11  C   UNL     1     138.831 139.644 144.703  1.00  0.00     0.008 C 
ATOM     12  C   UNL     1     138.811 138.273 146.736  1.00  0.00     0.039 C 
ENDBRANCH   5  10
TORSDOF 2
ENDMDL
MODEL 4
REMARK VINA RESULT:    -4.281      2.965      4.452
REMARK INTER + INTRA:          -4.751
REMARK INTER:                  -4.654
REMARK INTRA:                  -0.097
REMARK UNBOUND:                -0.095
REMARK SMILES C=C(C)[C@@H]1CC=C(C)[C@H](O)C1
REMARK SMILES IDX 8 1 7 2 6 3 5 4 4 5 11 6 9 7 10 8 2 10 1 11 3 12
REMARK H PARENT 10 9
REMARK Flexibility Score: inf
ROOT
ATOM      1  C   UNL     1     140.000 144.292 148.186  1.00  0.00     0.042 C 
ATOM      2  C   UNL     1     139.828 142.981 147.466  1.00  0.00    -0.049 C 
ATOM      3  C   UNL     1     139.570 143.004 146.139  1.00  0.00    -0.025 C 
ATOM      4  C   UNL     1     139.381 141.757 145.315  1.00  0.00     0.035 C 
ATOM      5  C   UNL     1     138.939 140.563 146.175  1.00  0.00     0.021 C 
ATOM      6  C   UNL     1     139.872 140.430 147.387  1.00  0.00     0.044 C 
ATOM      7  C   UNL     1     139.791 141.689 148.271  1.00  0.00     0.140 C 
ENDROOT
BRANCH   7   8
ATOM      8  O   UNL     1     140.856 141.679 149.187  1.00  0.00    -0.389 OA
ATOM      9  H   UNL     1     140.803 142.528 149.700  1.00  0.00     0.211 HD
ENDBRANCH   7   8
BRANCH   5  10
ATOM     10  C   UNL     1     138.893 139.278 145.359  1.00  0.00    -0.077 C 
ATOM     11  C   UNL     1     139.185 138.102 145.940  1.00  0.00     0.008 C 
ATOM     12  C   UNL     1     138.514 139.285 143.899  1.00  0.00     0.039 C 
ENDBRANCH   5  10
TORSDOF 2
ENDMDL
MODEL 5
REMARK VINA RESULT:    -4.253      2.831      3.403
REMARK INTER + INTRA:          -4.720
REMARK INTER:                  -4.625
REMARK INTRA:                  -0.095
REMARK UNBOUND:                -0.095
REMARK SMILES C=C(C)[C@@H]1CC=C(C)[C@H](O)C1
REMARK SMILES IDX 8 1 7 2 6 3 5 4 4 5 11 6 9 7 10 8 2 10 1 11 3 12
REMARK H PARENT 10 9
REMARK Flexibility Score: inf
ROOT
ATOM      1  C   UNL     1     139.493 138.139 144.397  1.00  0.00     0.042 C 
ATOM      2  C   UNL     1     139.227 139.332 145.277  1.00  0.00    -0.049 C 
ATOM      3  C   UNL     1     138.844 140.489 144.693  1.00  0.00    -0.025 C 
ATOM      4  C   UNL     1     138.549 141.746 145.470  1.00  0.00     0.035 C 
ATOM      5  C   UNL     1     139.262 141.758 146.831  1.00  0.00     0.021 C 
ATOM      6  C   UNL     1     138.990 140.437 147.564  1.00  0.00     0.044 C 
ATOM      7  C   UNL     1     139.550 139.247 146.762  1.00  0.00     0.140 C 
ENDROOT
BRANCH   7   8
ATOM      8  O   UNL     1     139.032 138.052 147.286  1.00  0.00    -0.389 OA
ATOM      9  H   UNL     1     138.321 137.750 146.664  1.00  0.00     0.211 HD
ENDBRANCH   7   8
BRANCH   5  10
ATOM     10  C   UNL     1     138.843 142.960 147.667  1.00  0.00    -0.077 C 
ATOM     11  C   UNL     1     137.596 143.036 148.158  1.00  0.00     0.008 C 
ATOM     12  C   UNL     1     139.807 144.080 147.973  1.00  0.00     0.039 C 
ENDBRANCH   5  10
TORSDOF 2
ENDMDL
MODEL 6
REMARK VINA RESULT:    -4.203      1.054      1.299
REMARK INTER + INTRA:          -4.666
REMARK INTER:                  -4.573
REMARK INTRA:                  -0.093
REMARK UNBOUND:                -0.095
REMARK SMILES C=C(C)[C@@H]1CC=C(C)[C@H](O)C1
REMARK SMILES IDX 8 1 7 2 6 3 5 4 4 5 11 6 9 7 10 8 2 10 1 11 3 12
REMARK H PARENT 10 9
REMARK Flexibility Score: inf
ROOT
ATOM      1  C   UNL     1     140.314 140.460 142.538  1.00  0.00     0.042 C 
ATOM      2  C   UNL     1     139.914 141.235 143.766  1.00  0.00    -0.049 C 
ATOM      3  C   UNL     1     140.800 141.333 144.782  1.00  0.00    -0.025 C 
ATOM      4  C   UNL     1     140.511 142.083 146.057  1.00  0.00     0.035 C 
ATOM      5  C   UNL     1     139.003 142.201 146.322  1.00  0.00     0.021 C 
ATOM      6  C   UNL     1     138.300 142.726 145.063  1.00  0.00     0.044 C 
ATOM      7  C   UNL     1     138.484 141.742 143.892  1.00  0.00     0.140 C 
ENDROOT
BRANCH   7   8
ATOM      8  O   UNL     1     138.105 142.372 142.695  1.00  0.00    -0.389 OA
ATOM      9  H   UNL     1     138.941 142.639 142.233  1.00  0.00     0.211 HD
ENDBRANCH   7   8
BRANCH   5  10
ATOM     10  C   UNL     1     138.719 143.083 147.531  1.00  0.00    -0.077 C 
ATOM     11  C   UNL     1     137.549 142.977 148.181  1.00  0.00     0.008 C 
ATOM     12  C   UNL     1     139.734 144.081 148.034  1.00  0.00     0.039 C 
ENDBRANCH   5  10
TORSDOF 2
ENDMDL
MODEL 7
REMARK VINA RESULT:    -4.140      2.489      3.262
REMARK INTER + INTRA:          -4.598
REMARK INTER:                  -4.507
REMARK INTRA:                  -0.091
REMARK UNBOUND:                -0.095
REMARK SMILES C=C(C)[C@@H]1CC=C(C)[C@H](O)C1
REMARK SMILES IDX 8 1 7 2 6 3 5 4 4 5 11 6 9 7 10 8 2 10 1 11 3 12
REMARK H PARENT 10 9
REMARK Flexibility Score: inf
ROOT
ATOM      1  C   UNL     1     140.719 138.024 145.223  1.00  0.00     0.042 C 
ATOM      2  C   UNL     1     140.306 139.295 145.916  1.00  0.00    -0.049 C 
ATOM      3  C   UNL     1     139.401 139.218 146.917  1.00  0.00    -0.025 C 
ATOM      4  C   UNL     1     138.914 140.422 147.682  1.00  0.00     0.035 C 
ATOM      5  C   UNL     1     139.073 141.717 146.873  1.00  0.00     0.021 C 
ATOM      6  C   UNL     1     140.503 141.807 146.322  1.00  0.00     0.044 C 
ATOM      7  C   UNL     1     140.790 140.632 145.369  1.00  0.00     0.140 C 
ENDROOT
BRANCH   7   8
ATOM      8  O   UNL     1     142.171 140.563 145.122  1.00  0.00    -0.389 OA
ATOM      9  H   UNL     1     142.284 140.484 144.139  1.00  0.00     0.211 HD
ENDBRANCH   7   8
BRANCH   5  10
ATOM     10  C   UNL     1     138.715 142.940 147.706  1.00  0.00    -0.077 C 
ATOM     11  C   UNL     1     137.489 143.054 148.243  1.00  0.00     0.008 C 
ATOM     12  C   UNL     1     139.716 144.041 147.960  1.00  0.00     0.039 C 
ENDBRANCH   5  10
TORSDOF 2
ENDMDL
MODEL 8
REMARK VINA RESULT:    -4.079      1.913      4.434
REMARK INTER + INTRA:          -4.531
REMARK INTER:                  -4.439
REMARK INTRA:                  -0.092
REMARK UNBOUND:                -0.095
REMARK SMILES C=C(C)[C@@H]1CC=C(C)[C@H](O)C1
REMARK SMILES IDX 8 1 7 2 6 3 5 4 4 5 11 6 9 7 10 8 2 10 1 11 3 12
REMARK H PARENT 10 9
REMARK Flexibility Score: inf
ROOT
ATOM      1  C   UNL     1     139.373 141.500 148.752  1.00  0.00     0.042 C 
ATOM      2  C   UNL     1     138.950 141.946 147.377  1.00  0.00    -0.049 C 
ATOM      3  C   UNL     1     137.768 142.587 147.243  1.00  0.00    -0.025 C 
ATOM      4  C   UNL     1     137.243 143.080 145.919  1.00  0.00     0.035 C 
ATOM      5  C   UNL     1     137.848 142.305 144.739  1.00  0.00     0.021 C 
ATOM      6  C   UNL     1     139.376 142.264 144.881  1.00  0.00     0.044 C 
ATOM      7  C   UNL     1     139.780 141.526 146.171  1.00  0.00     0.140 C 
ENDROOT
BRANCH   7   8
ATOM      8  O   UNL     1     141.139 141.763 146.433  1.00  0.00    -0.389 OA
ATOM      9  H   UNL     1     141.561 140.877 146.586  1.00  0.00     0.211 HD
ENDBRANCH   7   8
BRANCH   5  10
ATOM     10  C   UNL     1     137.425 142.905 143.405  1.00  0.00    -0.077 C 
ATOM     11  C   UNL     1     137.370 142.133 142.307  1.00  0.00     0.008 C 
ATOM     12  C   UNL     1     137.050 144.361 143.280  1.00  0.00     0.039 C 
ENDBRANCH   5  10
TORSDOF 2
ENDMDL
MODEL 9
REMARK VINA RESULT:    -4.023      1.492      4.188
REMARK INTER + INTRA:          -4.470
REMARK INTER:                  -4.374
REMARK INTRA:                  -0.097
REMARK UNBOUND:                -0.095
REMARK SMILES C=C(C)[C@@H]1CC=C(C)[C@H](O)C1
REMARK SMILES IDX 8 1 7 2 6 3 5 4 4 5 11 6 9 7 10 8 2 10 1 11 3 12
REMARK H PARENT 10 9
REMARK Flexibility Score: inf
ROOT
ATOM      1  C   UNL     1     137.416 142.987 148.355  1.00  0.00     0.042 C 
ATOM      2  C   UNL     1     138.286 142.249 147.372  1.00  0.00    -0.049 C 
ATOM      3  C   UNL     1     139.097 141.273 147.837  1.00  0.00    -0.025 C 
ATOM      4  C   UNL     1     140.010 140.467 146.948  1.00  0.00     0.035 C 
ATOM      5  C   UNL     1     140.352 141.215 145.651  1.00  0.00     0.021 C 
ATOM      6  C   UNL     1     139.061 141.727 144.998  1.00  0.00     0.044 C 
ATOM      7  C   UNL     1     138.343 142.724 145.927  1.00  0.00     0.140 C 
ENDROOT
BRANCH   7   8
ATOM      8  O   UNL     1     137.039 142.941 145.454  1.00  0.00    -0.389 OA
ATOM      9  H   UNL     1     137.121 143.233 144.508  1.00  0.00     0.211 HD
ENDBRANCH   7   8
BRANCH   5  10
ATOM     10  C   UNL     1     141.152 140.336 144.698  1.00  0.00    -0.077 C 
ATOM     11  C   UNL     1     140.674 140.062 143.474  1.00  0.00     0.008 C 
ATOM     12  C   UNL     1     142.491 139.763 145.093  1.00  0.00     0.039 C 
ENDBRANCH   5  10
TORSDOF 2
ENDMDL
