MODEL 1
REMARK VINA RESULT:    -7.282      0.000      0.000
REMARK INTER + INTRA:          -8.655
REMARK INTER:                  -8.559
REMARK INTRA:                  -0.096
REMARK UNBOUND:                -0.096
REMARK SMILES O=c1c(O)c(-c2ccc(O)cc2)oc2cc(O)cc(O)c12
REMARK SMILES IDX 5 1 3 2 2 3 1 4 21 5 19 6 18 7 16 8 15 9 14 10 13 11 6 12
REMARK SMILES IDX 7 13 8 14 9 15 12 16 11 17 10 18 4 20 20 22 17 24
REMARK H PARENT 10 19 4 21 20 23 17 25
REMARK Flexibility Score: inf
ROOT
ATOM      1  C   UNL     1       7.054  -0.941  35.698  1.00  0.00     0.180 A 
ATOM      2  C   UNL     1       5.978  -0.271  36.312  1.00  0.00     0.208 A 
ATOM      3  C   UNL     1       4.875  -1.020  36.752  1.00  0.00     0.238 A 
ATOM      4  O   UNL     1       3.902  -0.430  37.294  1.00  0.00    -0.285 OA
ATOM      5  C   UNL     1       4.875  -2.421  36.591  1.00  0.00     0.111 A 
ATOM      6  C   UNL     1       3.805  -3.248  37.010  1.00  0.00     0.134 A 
ATOM      7  C   UNL     1       3.884  -4.636  36.822  1.00  0.00     0.093 A 
ATOM      8  C   UNL     1       5.008  -5.212  36.225  1.00  0.00     0.123 A 
ATOM      9  C   UNL     1       6.068  -4.399  35.809  1.00  0.00     0.094 A 
ATOM     10  C   UNL     1       6.008  -3.014  35.986  1.00  0.00     0.146 A 
ATOM     11  O   UNL     1       7.025  -2.265  35.576  1.00  0.00    -0.452 OA
ENDROOT
BRANCH   1  12
ATOM     12  C   UNL     1       8.243  -0.219  35.190  1.00  0.00     0.021 A 
ATOM     13  C   UNL     1       9.068   0.473  36.092  1.00  0.00     0.016 A 
ATOM     14  C   UNL     1      10.209   1.143  35.638  1.00  0.00     0.047 A 
ATOM     15  C   UNL     1      10.546   1.116  34.279  1.00  0.00     0.115 A 
ATOM     16  C   UNL     1       8.600  -0.259  33.830  1.00  0.00     0.016 A 
ATOM     17  C   UNL     1       9.742   0.412  33.379  1.00  0.00     0.047 A 
BRANCH  15  18
ATOM     18  O   UNL     1      11.680   1.780  33.816  1.00  0.00    -0.508 OA
ATOM     19  H   UNL     1      11.775   2.053  32.845  1.00  0.00     0.293 HD
ENDBRANCH  15  18
ENDBRANCH   1  12
BRANCH   2  20
ATOM     20  O   UNL     1       6.025   1.112  36.505  1.00  0.00    -0.502 OA
ATOM     21  H   UNL     1       5.236   1.714  36.306  1.00  0.00     0.293 HD
ENDBRANCH   2  20
BRANCH   6  22
ATOM     22  O   UNL     1       2.669  -2.704  37.611  1.00  0.00    -0.507 OA
ATOM     23  H   UNL     1       2.141  -3.212  38.311  1.00  0.00     0.293 HD
ENDBRANCH   6  22
BRANCH   8  24
ATOM     24  O   UNL     1       5.062  -6.592  36.051  1.00  0.00    -0.508 OA
ATOM     25  H   UNL     1       5.295  -7.214  36.816  1.00  0.00     0.293 HD
ENDBRANCH   8  24
TORSDOF 5
ENDMDL
MODEL 2
REMARK VINA RESULT:    -7.010      4.297      6.385
REMARK INTER + INTRA:          -8.335
REMARK INTER:                  -8.236
REMARK INTRA:                  -0.100
REMARK UNBOUND:                -0.096
REMARK SMILES O=c1c(O)c(-c2ccc(O)cc2)oc2cc(O)cc(O)c12
REMARK SMILES IDX 5 1 3 2 2 3 1 4 21 5 19 6 18 7 16 8 15 9 14 10 13 11 6 12
REMARK SMILES IDX 7 13 8 14 9 15 12 16 11 17 10 18 4 20 20 22 17 24
REMARK H PARENT 10 19 4 21 20 23 17 25
REMARK Flexibility Score: inf
ROOT
ATOM      1  C   UNL     1       3.392  -4.124  37.352  1.00  0.00     0.180 A 
ATOM      2  C   UNL     1       2.680  -5.201  37.915  1.00  0.00     0.208 A 
ATOM      3  C   UNL     1       2.086  -5.037  39.177  1.00  0.00     0.238 A 
ATOM      4  O   UNL     1       1.456  -5.997  39.696  1.00  0.00    -0.285 OA
ATOM      5  C   UNL     1       2.194  -3.798  39.842  1.00  0.00     0.111 A 
ATOM      6  C   UNL     1       1.622  -3.548  41.112  1.00  0.00     0.134 A 
ATOM      7  C   UNL     1       1.766  -2.285  41.705  1.00  0.00     0.093 A 
ATOM      8  C   UNL     1       2.469  -1.268  41.053  1.00  0.00     0.123 A 
ATOM      9  C   UNL     1       3.037  -1.509  39.798  1.00  0.00     0.094 A 
ATOM     10  C   UNL     1       2.906  -2.762  39.192  1.00  0.00     0.146 A 
ATOM     11  O   UNL     1       3.460  -2.966  38.002  1.00  0.00    -0.452 OA
ENDROOT
BRANCH   1  12
ATOM     12  C   UNL     1       4.062  -4.226  36.036  1.00  0.00     0.021 A 
ATOM     13  C   UNL     1       5.461  -4.116  35.963  1.00  0.00     0.016 A 
ATOM     14  C   UNL     1       6.117  -4.232  34.734  1.00  0.00     0.047 A 
ATOM     15  C   UNL     1       5.384  -4.475  33.566  1.00  0.00     0.115 A 
ATOM     16  C   UNL     1       3.335  -4.490  34.861  1.00  0.00     0.016 A 
ATOM     17  C   UNL     1       3.995  -4.607  33.633  1.00  0.00     0.047 A 
BRANCH  15  18
ATOM     18  O   UNL     1       6.028  -4.592  32.335  1.00  0.00    -0.508 OA
ATOM     19  H   UNL     1       6.177  -5.494  31.899  1.00  0.00     0.293 HD
ENDBRANCH  15  18
ENDBRANCH   1  12
BRANCH   2  20
ATOM     20  O   UNL     1       2.546  -6.403  37.215  1.00  0.00    -0.502 OA
ATOM     21  H   UNL     1       2.600  -6.451  36.205  1.00  0.00     0.293 HD
ENDBRANCH   2  20
BRANCH   6  22
ATOM     22  O   UNL     1       0.912  -4.542  41.789  1.00  0.00    -0.507 OA
ATOM     23  H   UNL     1       0.396  -4.345  42.638  1.00  0.00     0.293 HD
ENDBRANCH   6  22
BRANCH   8  24
ATOM     24  O   UNL     1       2.597  -0.023  41.663  1.00  0.00    -0.508 OA
ATOM     25  H   UNL     1       3.304   0.641  41.369  1.00  0.00     0.293 HD
ENDBRANCH   8  24
TORSDOF 5
ENDMDL
MODEL 3
REMARK VINA RESULT:    -6.803      4.011      7.649
REMARK INTER + INTRA:          -8.092
REMARK INTER:                  -8.051
REMARK INTRA:                  -0.042
REMARK UNBOUND:                -0.096
REMARK SMILES O=c1c(O)c(-c2ccc(O)cc2)oc2cc(O)cc(O)c12
REMARK SMILES IDX 5 1 3 2 2 3 1 4 21 5 19 6 18 7 16 8 15 9 14 10 13 11 6 12
REMARK SMILES IDX 7 13 8 14 9 15 12 16 11 17 10 18 4 20 20 22 17 24
REMARK H PARENT 10 19 4 21 20 23 17 25
REMARK Flexibility Score: inf
ROOT
ATOM      1  C   UNL     1       3.605  -4.881  38.162  1.00  0.00     0.180 A 
ATOM      2  C   UNL     1       3.756  -6.280  38.095  1.00  0.00     0.208 A 
ATOM      3  C   UNL     1       4.538  -6.829  37.065  1.00  0.00     0.238 A 
ATOM      4  O   UNL     1       4.672  -8.079  36.988  1.00  0.00    -0.285 OA
ATOM      5  C   UNL     1       5.169  -5.974  36.138  1.00  0.00     0.111 A 
ATOM      6  C   UNL     1       5.976  -6.446  35.075  1.00  0.00     0.134 A 
ATOM      7  C   UNL     1       6.577  -5.530  34.198  1.00  0.00     0.093 A 
ATOM      8  C   UNL     1       6.389  -4.156  34.364  1.00  0.00     0.123 A 
ATOM      9  C   UNL     1       5.593  -3.684  35.412  1.00  0.00     0.094 A 
ATOM     10  C   UNL     1       4.983  -4.580  36.295  1.00  0.00     0.146 A 
ATOM     11  O   UNL     1       4.228  -4.106  37.279  1.00  0.00    -0.452 OA
ENDROOT
BRANCH   1  12
ATOM     12  C   UNL     1       2.782  -4.228  39.206  1.00  0.00     0.021 A 
ATOM     13  C   UNL     1       3.331  -3.183  39.966  1.00  0.00     0.016 A 
ATOM     14  C   UNL     1       2.565  -2.537  40.942  1.00  0.00     0.047 A 
ATOM     15  C   UNL     1       1.235  -2.919  41.157  1.00  0.00     0.115 A 
ATOM     16  C   UNL     1       1.439  -4.592  39.414  1.00  0.00     0.016 A 
ATOM     17  C   UNL     1       0.674  -3.944  40.390  1.00  0.00     0.047 A 
BRANCH  15  18
ATOM     18  O   UNL     1       0.462  -2.283  42.126  1.00  0.00    -0.508 OA
ATOM     19  H   UNL     1       0.432  -1.274  42.202  1.00  0.00     0.293 HD
ENDBRANCH  15  18
ENDBRANCH   1  12
BRANCH   2  20
ATOM     20  O   UNL     1       3.161  -7.102  39.055  1.00  0.00    -0.502 OA
ATOM     21  H   UNL     1       2.467  -7.800  38.816  1.00  0.00     0.293 HD
ENDBRANCH   2  20
BRANCH   6  22
ATOM     22  O   UNL     1       6.185  -7.813  34.883  1.00  0.00    -0.507 OA
ATOM     23  H   UNL     1       7.041  -8.268  35.179  1.00  0.00     0.293 HD
ENDBRANCH   6  22
BRANCH   8  24
ATOM     24  O   UNL     1       6.998  -3.268  33.481  1.00  0.00    -0.508 OA
ATOM     25  H   UNL     1       6.499  -2.473  33.101  1.00  0.00     0.293 HD
ENDBRANCH   8  24
TORSDOF 5
ENDMDL
MODEL 4
REMARK VINA RESULT:    -6.772      2.694      4.885
REMARK INTER + INTRA:          -8.057
REMARK INTER:                  -7.963
REMARK INTRA:                  -0.094
REMARK UNBOUND:                -0.096
REMARK SMILES O=c1c(O)c(-c2ccc(O)cc2)oc2cc(O)cc(O)c12
REMARK SMILES IDX 5 1 3 2 2 3 1 4 21 5 19 6 18 7 16 8 15 9 14 10 13 11 6 12
REMARK SMILES IDX 7 13 8 14 9 15 12 16 11 17 10 18 4 20 20 22 17 24
REMARK H PARENT 10 19 4 21 20 23 17 25
REMARK Flexibility Score: inf
ROOT
ATOM      1  C   UNL     1       3.970  -3.027  37.144  1.00  0.00     0.180 A 
ATOM      2  C   UNL     1       3.530  -4.064  36.299  1.00  0.00     0.208 A 
ATOM      3  C   UNL     1       2.628  -5.014  36.804  1.00  0.00     0.238 A 
ATOM      4  O   UNL     1       2.235  -5.953  36.061  1.00  0.00    -0.285 OA
ATOM      5  C   UNL     1       2.169  -4.901  38.133  1.00  0.00     0.111 A 
ATOM      6  C   UNL     1       1.258  -5.813  38.718  1.00  0.00     0.134 A 
ATOM      7  C   UNL     1       0.841  -5.627  40.044  1.00  0.00     0.093 A 
ATOM      8  C   UNL     1       1.315  -4.549  40.795  1.00  0.00     0.123 A 
ATOM      9  C   UNL     1       2.215  -3.644  40.223  1.00  0.00     0.094 A 
ATOM     10  C   UNL     1       2.644  -3.813  38.904  1.00  0.00     0.146 A 
ATOM     11  O   UNL     1       3.504  -2.943  38.386  1.00  0.00    -0.452 OA
ENDROOT
BRANCH   1  12
ATOM     12  C   UNL     1       4.935  -1.999  36.690  1.00  0.00     0.021 A 
ATOM     13  C   UNL     1       4.593  -0.640  36.789  1.00  0.00     0.016 A 
ATOM     14  C   UNL     1       5.497   0.349  36.387  1.00  0.00     0.047 A 
ATOM     15  C   UNL     1       6.759  -0.010  35.896  1.00  0.00     0.115 A 
ATOM     16  C   UNL     1       6.212  -2.350  36.215  1.00  0.00     0.016 A 
ATOM     17  C   UNL     1       7.114  -1.359  35.814  1.00  0.00     0.047 A 
BRANCH  15  18
ATOM     18  O   UNL     1       7.667   0.967  35.492  1.00  0.00    -0.508 OA
ATOM     19  H   UNL     1       7.455   1.610  34.739  1.00  0.00     0.293 HD
ENDBRANCH  15  18
ENDBRANCH   1  12
BRANCH   2  20
ATOM     20  O   UNL     1       3.962  -4.126  34.972  1.00  0.00    -0.502 OA
ATOM     21  H   UNL     1       4.881  -3.813  34.685  1.00  0.00     0.293 HD
ENDBRANCH   2  20
BRANCH   6  22
ATOM     22  O   UNL     1       0.765  -6.900  37.993  1.00  0.00    -0.507 OA
ATOM     23  H   UNL     1       0.541  -7.782  38.441  1.00  0.00     0.293 HD
ENDBRANCH   6  22
BRANCH   8  24
ATOM     24  O   UNL     1       0.885  -4.386  42.110  1.00  0.00    -0.508 OA
ATOM     25  H   UNL     1       0.029  -3.890  42.329  1.00  0.00     0.293 HD
ENDBRANCH   8  24
TORSDOF 5
ENDMDL
MODEL 5
REMARK VINA RESULT:    -6.719      4.053      5.743
REMARK INTER + INTRA:          -7.993
REMARK INTER:                  -7.905
REMARK INTRA:                  -0.089
REMARK UNBOUND:                -0.096
REMARK SMILES O=c1c(O)c(-c2ccc(O)cc2)oc2cc(O)cc(O)c12
REMARK SMILES IDX 5 1 3 2 2 3 1 4 21 5 19 6 18 7 16 8 15 9 14 10 13 11 6 12
REMARK SMILES IDX 7 13 8 14 9 15 12 16 11 17 10 18 4 20 20 22 17 24
REMARK H PARENT 10 19 4 21 20 23 17 25
REMARK Flexibility Score: inf
ROOT
ATOM      1  C   UNL     1       3.369  -3.510  37.471  1.00  0.00     0.180 A 
ATOM      2  C   UNL     1       3.415  -2.235  38.068  1.00  0.00     0.208 A 
ATOM      3  C   UNL     1       2.662  -2.003  39.230  1.00  0.00     0.238 A 
ATOM      4  O   UNL     1       2.687  -0.863  39.767  1.00  0.00    -0.285 OA
ATOM      5  C   UNL     1       1.897  -3.049  39.785  1.00  0.00     0.111 A 
ATOM      6  C   UNL     1       1.114  -2.899  40.955  1.00  0.00     0.134 A 
ATOM      7  C   UNL     1       0.387  -3.992  41.451  1.00  0.00     0.093 A 
ATOM      8  C   UNL     1       0.427  -5.228  40.802  1.00  0.00     0.123 A 
ATOM      9  C   UNL     1       1.198  -5.382  39.645  1.00  0.00     0.094 A 
ATOM     10  C   UNL     1       1.928  -4.305  39.134  1.00  0.00     0.146 A 
ATOM     11  O   UNL     1       2.648  -4.476  38.031  1.00  0.00    -0.452 OA
ENDROOT
BRANCH   1  12
ATOM     12  C   UNL     1       4.119  -3.827  36.233  1.00  0.00     0.021 A 
ATOM     13  C   UNL     1       5.522  -3.762  36.241  1.00  0.00     0.016 A 
ATOM     14  C   UNL     1       6.252  -4.078  35.091  1.00  0.00     0.047 A 
ATOM     15  C   UNL     1       5.587  -4.477  33.924  1.00  0.00     0.115 A 
ATOM     16  C   UNL     1       3.460  -4.248  35.064  1.00  0.00     0.016 A 
ATOM     17  C   UNL     1       4.193  -4.564  33.915  1.00  0.00     0.047 A 
BRANCH  15  18
ATOM     18  O   UNL     1       6.304  -4.794  32.772  1.00  0.00    -0.508 OA
ATOM     19  H   UNL     1       6.300  -4.188  31.961  1.00  0.00     0.293 HD
ENDBRANCH  15  18
ENDBRANCH   1  12
BRANCH   2  20
ATOM     20  O   UNL     1       4.219  -1.230  37.526  1.00  0.00    -0.502 OA
ATOM     21  H   UNL     1       3.972  -0.734  36.678  1.00  0.00     0.293 HD
ENDBRANCH   2  20
BRANCH   6  22
ATOM     22  O   UNL     1       1.054  -1.677  41.628  1.00  0.00    -0.507 OA
ATOM     23  H   UNL     1       0.940  -0.801  41.133  1.00  0.00     0.293 HD
ENDBRANCH   6  22
BRANCH   8  24
ATOM     24  O   UNL     1      -0.304  -6.297  41.315  1.00  0.00    -0.508 OA
ATOM     25  H   UNL     1      -1.153  -6.150  41.848  1.00  0.00     0.293 HD
ENDBRANCH   8  24
TORSDOF 5
ENDMDL
MODEL 6
REMARK VINA RESULT:    -6.662      3.683      7.274
REMARK INTER + INTRA:          -7.926
REMARK INTER:                  -7.753
REMARK INTRA:                  -0.173
REMARK UNBOUND:                -0.096
REMARK SMILES O=c1c(O)c(-c2ccc(O)cc2)oc2cc(O)cc(O)c12
REMARK SMILES IDX 5 1 3 2 2 3 1 4 21 5 19 6 18 7 16 8 15 9 14 10 13 11 6 12
REMARK SMILES IDX 7 13 8 14 9 15 12 16 11 17 10 18 4 20 20 22 17 24
REMARK H PARENT 10 19 4 21 20 23 17 25
REMARK Flexibility Score: inf
ROOT
ATOM      1  C   UNL     1       3.212  -3.358  38.351  1.00  0.00     0.180 A 
ATOM      2  C   UNL     1       3.812  -2.245  37.729  1.00  0.00     0.208 A 
ATOM      3  C   UNL     1       4.801  -2.463  36.757  1.00  0.00     0.238 A 
ATOM      4  O   UNL     1       5.352  -1.476  36.201  1.00  0.00    -0.285 OA
ATOM      5  C   UNL     1       5.158  -3.783  36.410  1.00  0.00     0.111 A 
ATOM      6  C   UNL     1       6.142  -4.089  35.439  1.00  0.00     0.134 A 
ATOM      7  C   UNL     1       6.435  -5.428  35.143  1.00  0.00     0.093 A 
ATOM      8  C   UNL     1       5.765  -6.466  35.797  1.00  0.00     0.123 A 
ATOM      9  C   UNL     1       4.792  -6.169  36.757  1.00  0.00     0.094 A 
ATOM     10  C   UNL     1       4.487  -4.841  37.068  1.00  0.00     0.146 A 
ATOM     11  O   UNL     1       3.564  -4.587  37.988  1.00  0.00    -0.452 OA
ENDROOT
BRANCH   1  12
ATOM     12  C   UNL     1       2.176  -3.209  39.399  1.00  0.00     0.021 A 
ATOM     13  C   UNL     1       0.881  -3.701  39.164  1.00  0.00     0.016 A 
ATOM     14  C   UNL     1      -0.107  -3.592  40.148  1.00  0.00     0.047 A 
ATOM     15  C   UNL     1       0.192  -3.003  41.383  1.00  0.00     0.115 A 
ATOM     16  C   UNL     1       2.474  -2.637  40.649  1.00  0.00     0.016 A 
ATOM     17  C   UNL     1       1.483  -2.530  41.631  1.00  0.00     0.047 A 
BRANCH  15  18
ATOM     18  O   UNL     1      -0.785  -2.888  42.370  1.00  0.00    -0.508 OA
ATOM     19  H   UNL     1      -1.524  -3.574  42.466  1.00  0.00     0.293 HD
ENDBRANCH  15  18
ENDBRANCH   1  12
BRANCH   2  20
ATOM     20  O   UNL     1       3.405  -0.949  38.055  1.00  0.00    -0.502 OA
ATOM     21  H   UNL     1       2.544  -0.546  37.706  1.00  0.00     0.293 HD
ENDBRANCH   2  20
BRANCH   6  22
ATOM     22  O   UNL     1       6.828  -3.075  34.767  1.00  0.00    -0.507 OA
ATOM     23  H   UNL     1       6.427  -2.154  34.640  1.00  0.00     0.293 HD
ENDBRANCH   6  22
BRANCH   8  24
ATOM     24  O   UNL     1       6.074  -7.787  35.484  1.00  0.00    -0.508 OA
ATOM     25  H   UNL     1       5.684  -8.242  34.667  1.00  0.00     0.293 HD
ENDBRANCH   8  24
TORSDOF 5
ENDMDL
MODEL 7
REMARK VINA RESULT:    -6.566      4.497      7.219
REMARK INTER + INTRA:          -7.814
REMARK INTER:                  -7.640
REMARK INTRA:                  -0.173
REMARK UNBOUND:                -0.096
REMARK SMILES O=c1c(O)c(-c2ccc(O)cc2)oc2cc(O)cc(O)c12
REMARK SMILES IDX 5 1 3 2 2 3 1 4 21 5 19 6 18 7 16 8 15 9 14 10 13 11 6 12
REMARK SMILES IDX 7 13 8 14 9 15 12 16 11 17 10 18 4 20 20 22 17 24
REMARK H PARENT 10 19 4 21 20 23 17 25
REMARK Flexibility Score: inf
ROOT
ATOM      1  C   UNL     1       3.707  -4.538  38.000  1.00  0.00     0.180 A 
ATOM      2  C   UNL     1       4.341  -3.792  36.987  1.00  0.00     0.208 A 
ATOM      3  C   UNL     1       5.147  -4.463  36.054  1.00  0.00     0.238 A 
ATOM      4  O   UNL     1       5.728  -3.805  35.149  1.00  0.00    -0.285 OA
ATOM      5  C   UNL     1       5.288  -5.864  36.135  1.00  0.00     0.111 A 
ATOM      6  C   UNL     1       6.078  -6.616  35.232  1.00  0.00     0.134 A 
ATOM      7  C   UNL     1       6.160  -8.009  35.374  1.00  0.00     0.093 A 
ATOM      8  C   UNL     1       5.471  -8.664  36.398  1.00  0.00     0.123 A 
ATOM      9  C   UNL     1       4.690  -7.926  37.293  1.00  0.00     0.094 A 
ATOM     10  C   UNL     1       4.596  -6.537  37.169  1.00  0.00     0.146 A 
ATOM     11  O   UNL     1       3.852  -5.859  38.036  1.00  0.00    -0.452 OA
ENDROOT
BRANCH   1  12
ATOM     12  C   UNL     1       2.858  -3.900  39.032  1.00  0.00     0.021 A 
ATOM     13  C   UNL     1       1.494  -4.225  39.101  1.00  0.00     0.016 A 
ATOM     14  C   UNL     1       0.677  -3.652  40.082  1.00  0.00     0.047 A 
ATOM     15  C   UNL     1       1.220  -2.759  41.013  1.00  0.00     0.115 A 
ATOM     16  C   UNL     1       3.400  -3.017  39.984  1.00  0.00     0.016 A 
ATOM     17  C   UNL     1       2.581  -2.446  40.964  1.00  0.00     0.047 A 
BRANCH  15  18
ATOM     18  O   UNL     1       0.417  -2.181  41.995  1.00  0.00    -0.508 OA
ATOM     19  H   UNL     1      -0.418  -1.659  41.757  1.00  0.00     0.293 HD
ENDBRANCH  15  18
ENDBRANCH   1  12
BRANCH   2  20
ATOM     20  O   UNL     1       4.146  -2.411  36.899  1.00  0.00    -0.502 OA
ATOM     21  H   UNL     1       4.914  -1.752  36.921  1.00  0.00     0.293 HD
ENDBRANCH   2  20
BRANCH   6  22
ATOM     22  O   UNL     1       6.778  -5.993  34.197  1.00  0.00    -0.507 OA
ATOM     23  H   UNL     1       7.782  -6.088  34.100  1.00  0.00     0.293 HD
ENDBRANCH   6  22
BRANCH   8  24
ATOM     24  O   UNL     1       5.569 -10.048  36.516  1.00  0.00    -0.508 OA
ATOM     25  H   UNL     1       5.685 -10.642  35.703  1.00  0.00     0.293 HD
ENDBRANCH   8  24
TORSDOF 5
ENDMDL
MODEL 8
REMARK VINA RESULT:    -6.490      3.550      6.680
REMARK INTER + INTRA:          -7.725
REMARK INTER:                  -8.200
REMARK INTRA:                   0.475
REMARK UNBOUND:                -0.096
REMARK SMILES O=c1c(O)c(-c2ccc(O)cc2)oc2cc(O)cc(O)c12
REMARK SMILES IDX 5 1 3 2 2 3 1 4 21 5 19 6 18 7 16 8 15 9 14 10 13 11 6 12
REMARK SMILES IDX 7 13 8 14 9 15 12 16 11 17 10 18 4 20 20 22 17 24
REMARK H PARENT 10 19 4 21 20 23 17 25
REMARK Flexibility Score: inf
ROOT
ATOM      1  C   UNL     1       4.478  -4.907  37.153  1.00  0.00     0.180 A 
ATOM      2  C   UNL     1       3.436  -4.933  38.101  1.00  0.00     0.208 A 
ATOM      3  C   UNL     1       2.907  -3.716  38.561  1.00  0.00     0.238 A 
ATOM      4  O   UNL     1       1.982  -3.726  39.416  1.00  0.00    -0.285 OA
ATOM      5  C   UNL     1       3.411  -2.501  38.053  1.00  0.00     0.111 A 
ATOM      6  C   UNL     1       2.931  -1.233  38.461  1.00  0.00     0.134 A 
ATOM      7  C   UNL     1       3.478  -0.069  37.901  1.00  0.00     0.093 A 
ATOM      8  C   UNL     1       4.493  -0.147  36.945  1.00  0.00     0.123 A 
ATOM      9  C   UNL     1       4.972  -1.397  36.538  1.00  0.00     0.094 A 
ATOM     10  C   UNL     1       4.441  -2.568  37.085  1.00  0.00     0.146 A 
ATOM     11  O   UNL     1       4.917  -3.742  36.686  1.00  0.00    -0.452 OA
ENDROOT
BRANCH   1  12
ATOM     12  C   UNL     1       5.100  -6.147  36.635  1.00  0.00     0.021 A 
ATOM     13  C   UNL     1       6.055  -6.063  35.608  1.00  0.00     0.016 A 
ATOM     14  C   UNL     1       6.673  -7.218  35.119  1.00  0.00     0.047 A 
ATOM     15  C   UNL     1       6.354  -8.469  35.662  1.00  0.00     0.115 A 
ATOM     16  C   UNL     1       4.800  -7.405  37.189  1.00  0.00     0.016 A 
ATOM     17  C   UNL     1       5.420  -8.558  36.698  1.00  0.00     0.047 A 
BRANCH  15  18
ATOM     18  O   UNL     1       6.963  -9.627  35.182  1.00  0.00    -0.508 OA
ATOM     19  H   UNL     1       6.613 -10.109  34.363  1.00  0.00     0.293 HD
ENDBRANCH  15  18
ENDBRANCH   1  12
BRANCH   2  20
ATOM     20  O   UNL     1       2.920  -6.151  38.552  1.00  0.00    -0.502 OA
ATOM     21  H   UNL     1       2.063  -6.546  38.185  1.00  0.00     0.293 HD
ENDBRANCH   2  20
BRANCH   6  22
ATOM     22  O   UNL     1       1.916  -1.121  39.413  1.00  0.00    -0.507 OA
ATOM     23  H   UNL     1       1.532  -1.934  39.881  1.00  0.00     0.293 HD
ENDBRANCH   6  22
BRANCH   8  24
ATOM     24  O   UNL     1       5.019   1.024  36.405  1.00  0.00    -0.508 OA
ATOM     25  H   UNL     1       5.449   1.038  35.487  1.00  0.00     0.293 HD
ENDBRANCH   8  24
TORSDOF 5
ENDMDL
MODEL 9
REMARK VINA RESULT:    -6.453      5.347      7.355
REMARK INTER + INTRA:          -7.681
REMARK INTER:                  -7.673
REMARK INTRA:                  -0.008
REMARK UNBOUND:                -0.096
REMARK SMILES O=c1c(O)c(-c2ccc(O)cc2)oc2cc(O)cc(O)c12
REMARK SMILES IDX 5 1 3 2 2 3 1 4 21 5 19 6 18 7 16 8 15 9 14 10 13 11 6 12
REMARK SMILES IDX 7 13 8 14 9 15 12 16 11 17 10 18 4 20 20 22 17 24
REMARK H PARENT 10 19 4 21 20 23 17 25
REMARK Flexibility Score: inf
ROOT
ATOM      1  C   UNL     1       3.245  -5.326  38.368  1.00  0.00     0.180 A 
ATOM      2  C   UNL     1       2.043  -5.993  38.676  1.00  0.00     0.208 A 
ATOM      3  C   UNL     1       1.158  -5.407  39.596  1.00  0.00     0.238 A 
ATOM      4  O   UNL     1       0.085  -5.999  39.887  1.00  0.00    -0.285 OA
ATOM      5  C   UNL     1       1.479  -4.161  40.173  1.00  0.00     0.111 A 
ATOM      6  C   UNL     1       0.642  -3.501  41.105  1.00  0.00     0.134 A 
ATOM      7  C   UNL     1       1.027  -2.258  41.628  1.00  0.00     0.093 A 
ATOM      8  C   UNL     1       2.229  -1.662  41.239  1.00  0.00     0.123 A 
ATOM      9  C   UNL     1       3.061  -2.309  40.320  1.00  0.00     0.094 A 
ATOM     10  C   UNL     1       2.696  -3.550  39.788  1.00  0.00     0.146 A 
ATOM     11  O   UNL     1       3.506  -4.146  38.921  1.00  0.00    -0.452 OA
ENDROOT
BRANCH   1  12
ATOM     12  C   UNL     1       4.236  -5.890  37.423  1.00  0.00     0.021 A 
ATOM     13  C   UNL     1       4.757  -5.077  36.402  1.00  0.00     0.016 A 
ATOM     14  C   UNL     1       5.711  -5.581  35.513  1.00  0.00     0.047 A 
ATOM     15  C   UNL     1       6.166  -6.898  35.643  1.00  0.00     0.115 A 
ATOM     16  C   UNL     1       4.714  -7.206  37.559  1.00  0.00     0.016 A 
ATOM     17  C   UNL     1       5.669  -7.707  36.669  1.00  0.00     0.047 A 
BRANCH  15  18
ATOM     18  O   UNL     1       7.117  -7.411  34.762  1.00  0.00    -0.508 OA
ATOM     19  H   UNL     1       7.009  -7.328  33.758  1.00  0.00     0.293 HD
ENDBRANCH  15  18
ENDBRANCH   1  12
BRANCH   2  20
ATOM     20  O   UNL     1       1.725  -7.202  38.053  1.00  0.00    -0.502 OA
ATOM     21  H   UNL     1       2.430  -7.803  37.642  1.00  0.00     0.293 HD
ENDBRANCH   2  20
BRANCH   6  22
ATOM     22  O   UNL     1      -0.567  -4.068  41.513  1.00  0.00    -0.507 OA
ATOM     23  H   UNL     1      -0.712  -5.071  41.513  1.00  0.00     0.293 HD
ENDBRANCH   6  22
BRANCH   8  24
ATOM     24  O   UNL     1       2.588  -0.427  41.773  1.00  0.00    -0.508 OA
ATOM     25  H   UNL     1       2.775  -0.312  42.762  1.00  0.00     0.293 HD
ENDBRANCH   8  24
TORSDOF 5
ENDMDL
