MODEL 1
REMARK VINA RESULT:    -3.287      0.000      0.000
REMARK INTER + INTRA:          -4.386
REMARK INTER:                  -4.248
REMARK INTRA:                  -0.138
REMARK UNBOUND:                -0.138
REMARK SMILES CCCCCCC(=O)[O-]
REMARK SMILES IDX 5 1 6 2 7 3 8 4 9 5 4 6 3 7 2 8 1 9
REMARK H PARENT
REMARK Flexibility Score: inf
ROOT
ATOM      1  C   UNL     1      61.500  32.996  60.351  1.00  0.00     0.006 C 
ENDROOT
BRANCH   1   2
ATOM      2  C   UNL     1      61.948  31.540  60.169  1.00  0.00     0.053 C 
BRANCH   2   3
ATOM      3  C   UNL     1      61.475  30.702  61.314  1.00  0.00     0.041 C 
ATOM      4  O   UNL     1      60.393  30.977  61.896  1.00  0.00    -0.550 OA
ATOM      5  O   UNL     1      62.204  29.587  61.706  1.00  0.00    -0.550 OA
ENDBRANCH   2   3
ENDBRANCH   1   2
BRANCH   1   6
ATOM      6  C   UNL     1      62.683  33.960  60.533  1.00  0.00     0.000 C 
BRANCH   6   7
ATOM      7  C   UNL     1      62.231  35.400  60.835  1.00  0.00    -0.000 C 
BRANCH   7   8
ATOM      8  C   UNL     1      63.366  36.264  61.408  1.00  0.00    -0.003 C 
ATOM      9  C   UNL     1      64.640  35.463  61.677  1.00  0.00     0.004 C 
ENDBRANCH   7   8
ENDBRANCH   6   7
ENDBRANCH   1   6
TORSDOF 5
ENDMDL
MODEL 2
REMARK VINA RESULT:    -3.242     12.288     13.848
REMARK INTER + INTRA:          -4.327
REMARK INTER:                  -4.178
REMARK INTRA:                  -0.149
REMARK UNBOUND:                -0.138
REMARK SMILES CCCCCCC(=O)[O-]
REMARK SMILES IDX 5 1 6 2 7 3 8 4 9 5 4 6 3 7 2 8 1 9
REMARK H PARENT
REMARK Flexibility Score: inf
ROOT
ATOM      1  C   UNL     1      57.222  28.053  50.698  1.00  0.00     0.006 C 
ENDROOT
BRANCH   1   2
ATOM      2  C   UNL     1      58.228  29.153  50.334  1.00  0.00     0.053 C 
BRANCH   2   3
ATOM      3  C   UNL     1      59.583  28.563  50.101  1.00  0.00     0.041 C 
ATOM      4  O   UNL     1      60.616  29.204  50.427  1.00  0.00    -0.550 OA
ATOM      5  O   UNL     1      59.703  27.287  49.568  1.00  0.00    -0.550 OA
ENDBRANCH   2   3
ENDBRANCH   1   2
BRANCH   1   6
ATOM      6  C   UNL     1      55.820  28.610  50.996  1.00  0.00     0.000 C 
BRANCH   6   7
ATOM      7  C   UNL     1      54.702  27.768  50.355  1.00  0.00    -0.000 C 
BRANCH   7   8
ATOM      8  C   UNL     1      55.137  26.318  50.091  1.00  0.00    -0.003 C 
ATOM      9  C   UNL     1      53.992  25.443  49.581  1.00  0.00     0.004 C 
ENDBRANCH   7   8
ENDBRANCH   6   7
ENDBRANCH   1   6
TORSDOF 5
ENDMDL
MODEL 3
REMARK VINA RESULT:    -3.188     12.434     13.893
REMARK INTER + INTRA:          -4.257
REMARK INTER:                  -4.097
REMARK INTRA:                  -0.160
REMARK UNBOUND:                -0.138
REMARK SMILES CCCCCCC(=O)[O-]
REMARK SMILES IDX 5 1 6 2 7 3 8 4 9 5 4 6 3 7 2 8 1 9
REMARK H PARENT
REMARK Flexibility Score: inf
ROOT
ATOM      1  C   UNL     1      57.331  27.891  50.712  1.00  0.00     0.006 C 
ENDROOT
BRANCH   1   2
ATOM      2  C   UNL     1      58.497  28.798  50.298  1.00  0.00     0.053 C 
BRANCH   2   3
ATOM      3  C   UNL     1      59.722  27.982  50.028  1.00  0.00     0.041 C 
ATOM      4  O   UNL     1      59.616  26.782  49.664  1.00  0.00    -0.550 OA
ATOM      5  O   UNL     1      60.979  28.563  50.132  1.00  0.00    -0.550 OA
ENDBRANCH   2   3
ENDBRANCH   1   2
BRANCH   1   6
ATOM      6  C   UNL     1      55.993  28.645  50.786  1.00  0.00     0.000 C 
BRANCH   6   7
ATOM      7  C   UNL     1      54.782  27.725  50.549  1.00  0.00    -0.000 C 
BRANCH   7   8
ATOM      8  C   UNL     1      55.195  26.318  50.090  1.00  0.00    -0.003 C 
ATOM      9  C   UNL     1      54.032  25.531  49.486  1.00  0.00     0.004 C 
ENDBRANCH   7   8
ENDBRANCH   6   7
ENDBRANCH   1   6
TORSDOF 5
ENDMDL
MODEL 4
REMARK VINA RESULT:    -3.131      1.558      2.200
REMARK INTER + INTRA:          -4.184
REMARK INTER:                  -3.965
REMARK INTRA:                  -0.220
REMARK UNBOUND:                -0.138
REMARK SMILES CCCCCCC(=O)[O-]
REMARK SMILES IDX 5 1 6 2 7 3 8 4 9 5 4 6 3 7 2 8 1 9
REMARK H PARENT
REMARK Flexibility Score: inf
ROOT
ATOM      1  C   UNL     1      61.067  31.324  60.229  1.00  0.00     0.006 C 
ENDROOT
BRANCH   1   2
ATOM      2  C   UNL     1      61.216  30.577  61.560  1.00  0.00     0.053 C 
BRANCH   2   3
ATOM      3  C   UNL     1      62.296  29.546  61.462  1.00  0.00     0.041 C 
ATOM      4  O   UNL     1      63.504  29.898  61.408  1.00  0.00    -0.550 OA
ATOM      5  O   UNL     1      61.972  28.196  61.480  1.00  0.00    -0.550 OA
ENDBRANCH   2   3
ENDBRANCH   1   2
BRANCH   1   6
ATOM      6  C   UNL     1      61.230  32.845  60.384  1.00  0.00     0.000 C 
BRANCH   6   7
ATOM      7  C   UNL     1      62.696  33.265  60.586  1.00  0.00    -0.000 C 
BRANCH   7   8
ATOM      8  C   UNL     1      62.858  34.786  60.730  1.00  0.00    -0.003 C 
ATOM      9  C   UNL     1      61.538  35.538  60.555  1.00  0.00     0.004 C 
ENDBRANCH   7   8
ENDBRANCH   6   7
ENDBRANCH   1   6
TORSDOF 5
ENDMDL
MODEL 5
REMARK VINA RESULT:    -3.107     12.547     13.643
REMARK INTER + INTRA:          -4.153
REMARK INTER:                  -3.933
REMARK INTRA:                  -0.220
REMARK UNBOUND:                -0.138
REMARK SMILES CCCCCCC(=O)[O-]
REMARK SMILES IDX 5 1 6 2 7 3 8 4 9 5 4 6 3 7 2 8 1 9
REMARK H PARENT
REMARK Flexibility Score: inf
ROOT
ATOM      1  C   UNL     1      56.242  27.841  50.840  1.00  0.00     0.006 C 
ENDROOT
BRANCH   1   2
ATOM      2  C   UNL     1      55.962  26.434  50.297  1.00  0.00     0.053 C 
BRANCH   2   3
ATOM      3  C   UNL     1      54.526  26.306  49.896  1.00  0.00     0.041 C 
ATOM      4  O   UNL     1      54.046  25.177  49.613  1.00  0.00    -0.550 OA
ATOM      5  O   UNL     1      53.706  27.426  49.881  1.00  0.00    -0.550 OA
ENDBRANCH   2   3
ENDBRANCH   1   2
BRANCH   1   6
ATOM      6  C   UNL     1      57.675  27.993  51.376  1.00  0.00     0.000 C 
BRANCH   6   7
ATOM      7  C   UNL     1      58.346  29.295  50.907  1.00  0.00    -0.000 C 
BRANCH   7   8
ATOM      8  C   UNL     1      59.107  29.120  49.584  1.00  0.00    -0.003 C 
ATOM      9  C   UNL     1      59.944  27.841  49.549  1.00  0.00     0.004 C 
ENDBRANCH   7   8
ENDBRANCH   6   7
ENDBRANCH   1   6
TORSDOF 5
ENDMDL
MODEL 6
REMARK VINA RESULT:    -3.033     12.531     13.215
REMARK INTER + INTRA:          -4.057
REMARK INTER:                  -3.804
REMARK INTRA:                  -0.254
REMARK UNBOUND:                -0.138
REMARK SMILES CCCCCCC(=O)[O-]
REMARK SMILES IDX 5 1 6 2 7 3 8 4 9 5 4 6 3 7 2 8 1 9
REMARK H PARENT
REMARK Flexibility Score: inf
ROOT
ATOM      1  C   UNL     1      57.720  28.450  51.136  1.00  0.00     0.006 C 
ENDROOT
BRANCH   1   2
ATOM      2  C   UNL     1      56.246  28.850  50.986  1.00  0.00     0.053 C 
BRANCH   2   3
ATOM      3  C   UNL     1      55.441  27.693  50.485  1.00  0.00     0.041 C 
ATOM      4  O   UNL     1      54.249  27.863  50.118  1.00  0.00    -0.550 OA
ATOM      5  O   UNL     1      56.022  26.436  50.378  1.00  0.00    -0.550 OA
ENDBRANCH   2   3
ENDBRANCH   1   2
BRANCH   1   6
ATOM      6  C   UNL     1      58.622  29.115  50.083  1.00  0.00     0.000 C 
BRANCH   6   7
ATOM      7  C   UNL     1      59.804  28.220  49.668  1.00  0.00    -0.000 C 
BRANCH   7   8
ATOM      8  C   UNL     1      59.522  26.728  49.904  1.00  0.00    -0.003 C 
ATOM      9  C   UNL     1      60.758  25.962  50.374  1.00  0.00     0.004 C 
ENDBRANCH   7   8
ENDBRANCH   6   7
ENDBRANCH   1   6
TORSDOF 5
ENDMDL
MODEL 7
REMARK VINA RESULT:    -3.026     12.724     13.895
REMARK INTER + INTRA:          -4.048
REMARK INTER:                  -3.837
REMARK INTRA:                  -0.211
REMARK UNBOUND:                -0.138
REMARK SMILES CCCCCCC(=O)[O-]
REMARK SMILES IDX 5 1 6 2 7 3 8 4 9 5 4 6 3 7 2 8 1 9
REMARK H PARENT
REMARK Flexibility Score: inf
ROOT
ATOM      1  C   UNL     1      58.494  26.420  50.990  1.00  0.00     0.006 C 
ENDROOT
BRANCH   1   2
ATOM      2  C   UNL     1      59.527  26.545  49.862  1.00  0.00     0.053 C 
BRANCH   2   3
ATOM      3  C   UNL     1      60.069  27.938  49.804  1.00  0.00     0.041 C 
ATOM      4  O   UNL     1      61.287  28.154  50.038  1.00  0.00    -0.550 OA
ATOM      5  O   UNL     1      59.240  28.991  49.442  1.00  0.00    -0.550 OA
ENDBRANCH   2   3
ENDBRANCH   1   2
BRANCH   1   6
ATOM      6  C   UNL     1      57.060  26.260  50.461  1.00  0.00     0.000 C 
BRANCH   6   7
ATOM      7  C   UNL     1      56.220  27.538  50.635  1.00  0.00    -0.000 C 
BRANCH   7   8
ATOM      8  C   UNL     1      54.740  27.321  50.284  1.00  0.00    -0.003 C 
ATOM      9  C   UNL     1      54.461  25.918  49.746  1.00  0.00     0.004 C 
ENDBRANCH   7   8
ENDBRANCH   6   7
ENDBRANCH   1   6
TORSDOF 5
ENDMDL
MODEL 8
REMARK VINA RESULT:    -3.003      2.842      4.978
REMARK INTER + INTRA:          -4.019
REMARK INTER:                  -3.903
REMARK INTRA:                  -0.116
REMARK UNBOUND:                -0.138
REMARK SMILES CCCCCCC(=O)[O-]
REMARK SMILES IDX 5 1 6 2 7 3 8 4 9 5 4 6 3 7 2 8 1 9
REMARK H PARENT
REMARK Flexibility Score: inf
ROOT
ATOM      1  C   UNL     1      62.015  32.933  60.487  1.00  0.00     0.006 C 
ENDROOT
BRANCH   1   2
ATOM      2  C   UNL     1      61.372  34.293  60.185  1.00  0.00     0.053 C 
BRANCH   2   3
ATOM      3  C   UNL     1      62.121  35.389  60.874  1.00  0.00     0.041 C 
ATOM      4  O   UNL     1      63.317  35.215  61.226  1.00  0.00    -0.550 OA
ATOM      5  O   UNL     1      61.513  36.620  61.083  1.00  0.00    -0.550 OA
ENDBRANCH   2   3
ENDBRANCH   1   2
BRANCH   1   6
ATOM      6  C   UNL     1      61.020  31.768  60.363  1.00  0.00     0.000 C 
BRANCH   6   7
ATOM      7  C   UNL     1      61.063  30.822  61.576  1.00  0.00    -0.000 C 
BRANCH   7   8
ATOM      8  C   UNL     1      61.771  29.495  61.261  1.00  0.00    -0.003 C 
ATOM      9  C   UNL     1      63.294  29.621  61.277  1.00  0.00     0.004 C 
ENDBRANCH   7   8
ENDBRANCH   6   7
ENDBRANCH   1   6
TORSDOF 5
ENDMDL
MODEL 9
REMARK VINA RESULT:    -2.904     16.663     18.092
REMARK INTER + INTRA:          -3.891
REMARK INTER:                  -3.625
REMARK INTRA:                  -0.266
REMARK UNBOUND:                -0.138
REMARK SMILES CCCCCCC(=O)[O-]
REMARK SMILES IDX 5 1 6 2 7 3 8 4 9 5 4 6 3 7 2 8 1 9
REMARK H PARENT
REMARK Flexibility Score: inf
ROOT
ATOM      1  C   UNL     1      58.790  17.463  50.985  1.00  0.00     0.006 C 
ENDROOT
BRANCH   1   2
ATOM      2  C   UNL     1      57.387  17.648  50.392  1.00  0.00     0.053 C 
BRANCH   2   3
ATOM      3  C   UNL     1      56.647  18.721  51.126  1.00  0.00     0.041 C 
ATOM      4  O   UNL     1      57.226  19.389  52.023  1.00  0.00    -0.550 OA
ATOM      5  O   UNL     1      55.334  19.017  50.786  1.00  0.00    -0.550 OA
ENDBRANCH   2   3
ENDBRANCH   1   2
BRANCH   1   6
ATOM      6  C   UNL     1      59.904  17.809  49.984  1.00  0.00     0.000 C 
BRANCH   6   7
ATOM      7  C   UNL     1      60.758  19.005  50.441  1.00  0.00    -0.000 C 
BRANCH   7   8
ATOM      8  C   UNL     1      60.104  20.355  50.108  1.00  0.00    -0.003 C 
ATOM      9  C   UNL     1      61.093  21.360  49.517  1.00  0.00     0.004 C 
ENDBRANCH   7   8
ENDBRANCH   6   7
ENDBRANCH   1   6
TORSDOF 5
ENDMDL
