MODEL 1
REMARK VINA RESULT:    -4.550      0.000      0.000
REMARK INTER + INTRA:          -7.544
REMARK INTER:                  -6.943
REMARK INTRA:                  -0.601
REMARK UNBOUND:                -0.601
REMARK SMILES O=C([O-])CCCCCCCCC(=O)[O-]
REMARK SMILES IDX 7 1 6 2 5 3 4 4 2 5 1 6 3 7 8 8 9 9 10 10 11 11 12 12 13 13
REMARK SMILES IDX 14 14
REMARK H PARENT
REMARK Flexibility Score: inf
ROOT
ATOM      1  C   UNL     1      48.880  33.738  16.965  1.00  0.00     0.000 C 
ENDROOT
BRANCH   1   2
ATOM      2  C   UNL     1      47.919  33.852  15.772  1.00  0.00     0.000 C 
BRANCH   2   3
ATOM      3  C   UNL     1      48.508  33.265  14.479  1.00  0.00     0.006 C 
BRANCH   3   4
ATOM      4  C   UNL     1      48.744  34.330  13.400  1.00  0.00     0.053 C 
BRANCH   4   5
ATOM      5  C   UNL     1      49.166  33.687  12.117  1.00  0.00     0.041 C 
ATOM      6  O   UNL     1      50.347  33.819  11.700  1.00  0.00    -0.550 OA
ATOM      7  O   UNL     1      48.242  32.984  11.354  1.00  0.00    -0.550 OA
ENDBRANCH   4   5
ENDBRANCH   3   4
ENDBRANCH   2   3
ENDBRANCH   1   2
BRANCH   1   8
ATOM      8  C   UNL     1      49.085  32.269  17.365  1.00  0.00     0.000 C 
BRANCH   8   9
ATOM      9  C   UNL     1      47.893  31.693  18.146  1.00  0.00     0.000 C 
BRANCH   9  10
ATOM     10  C   UNL     1      47.678  30.194  17.879  1.00  0.00     0.006 C 
BRANCH  10  11
ATOM     11  C   UNL     1      47.716  29.861  16.381  1.00  0.00     0.053 C 
BRANCH  11  12
ATOM     12  C   UNL     1      48.415  28.563  16.117  1.00  0.00     0.041 C 
ATOM     13  O   UNL     1      48.976  27.941  17.058  1.00  0.00    -0.550 OA
ATOM     14  O   UNL     1      48.425  28.026  14.836  1.00  0.00    -0.550 OA
ENDBRANCH  11  12
ENDBRANCH  10  11
ENDBRANCH   9  10
ENDBRANCH   8   9
ENDBRANCH   1   8
TORSDOF 9
ENDMDL
MODEL 2
REMARK VINA RESULT:    -4.544      1.167      5.232
REMARK INTER + INTRA:          -7.536
REMARK INTER:                  -6.713
REMARK INTRA:                  -0.823
REMARK UNBOUND:                -0.601
REMARK SMILES O=C([O-])CCCCCCCCC(=O)[O-]
REMARK SMILES IDX 7 1 6 2 5 3 4 4 2 5 1 6 3 7 8 8 9 9 10 10 11 11 12 12 13 13
REMARK SMILES IDX 14 14
REMARK H PARENT
REMARK Flexibility Score: inf
ROOT
ATOM      1  C   UNL     1      49.364  32.338  17.517  1.00  0.00     0.000 C 
ENDROOT
BRANCH   1   2
ATOM      2  C   UNL     1      48.101  31.718  18.133  1.00  0.00     0.000 C 
BRANCH   2   3
ATOM      3  C   UNL     1      47.752  30.352  17.519  1.00  0.00     0.006 C 
BRANCH   3   4
ATOM      4  C   UNL     1      47.949  30.319  15.998  1.00  0.00     0.053 C 
BRANCH   4   5
ATOM      5  C   UNL     1      48.847  29.187  15.613  1.00  0.00     0.041 C 
ATOM      6  O   UNL     1      48.366  28.045  15.387  1.00  0.00    -0.550 OA
ATOM      7  O   UNL     1      50.222  29.378  15.552  1.00  0.00    -0.550 OA
ENDBRANCH   4   5
ENDBRANCH   3   4
ENDBRANCH   2   3
ENDBRANCH   1   2
BRANCH   1   8
ATOM      8  C   UNL     1      49.089  33.769  17.028  1.00  0.00     0.000 C 
BRANCH   8   9
ATOM      9  C   UNL     1      47.600  34.025  16.746  1.00  0.00     0.000 C 
BRANCH   9  10
ATOM     10  C   UNL     1      47.252  33.909  15.252  1.00  0.00     0.006 C 
BRANCH  10  11
ATOM     11  C   UNL     1      48.504  33.908  14.365  1.00  0.00     0.053 C 
BRANCH  11  12
ATOM     12  C   UNL     1      48.189  34.310  12.957  1.00  0.00     0.041 C 
ATOM     13  O   UNL     1      47.168  35.007  12.709  1.00  0.00    -0.550 OA
ATOM     14  O   UNL     1      49.036  33.941  11.921  1.00  0.00    -0.550 OA
ENDBRANCH  11  12
ENDBRANCH  10  11
ENDBRANCH   9  10
ENDBRANCH   8   9
ENDBRANCH   1   8
TORSDOF 9
ENDMDL
MODEL 3
REMARK VINA RESULT:    -4.543      3.943      5.227
REMARK INTER + INTRA:          -7.534
REMARK INTER:                  -7.155
REMARK INTRA:                  -0.379
REMARK UNBOUND:                -0.601
REMARK SMILES O=C([O-])CCCCCCCCC(=O)[O-]
REMARK SMILES IDX 7 1 6 2 5 3 4 4 2 5 1 6 3 7 8 8 9 9 10 10 11 11 12 12 13 13
REMARK SMILES IDX 14 14
REMARK H PARENT
REMARK Flexibility Score: inf
ROOT
ATOM      1  C   UNL     1      47.697  34.535  12.407  1.00  0.00     0.000 C 
ENDROOT
BRANCH   1   2
ATOM      2  C   UNL     1      46.685  35.611  12.830  1.00  0.00     0.000 C 
BRANCH   2   3
ATOM      3  C   UNL     1      45.268  35.330  12.307  1.00  0.00     0.006 C 
BRANCH   3   4
ATOM      4  C   UNL     1      44.186  36.078  13.098  1.00  0.00     0.053 C 
BRANCH   4   5
ATOM      5  C   UNL     1      43.125  36.589  12.175  1.00  0.00     0.041 C 
ATOM      6  O   UNL     1      42.011  36.004  12.106  1.00  0.00    -0.550 OA
ATOM      7  O   UNL     1      43.382  37.680  11.355  1.00  0.00    -0.550 OA
ENDBRANCH   4   5
ENDBRANCH   3   4
ENDBRANCH   2   3
ENDBRANCH   1   2
BRANCH   1   8
ATOM      8  C   UNL     1      48.796  34.370  13.467  1.00  0.00     0.000 C 
BRANCH   8   9
ATOM      9  C   UNL     1      48.497  33.238  14.463  1.00  0.00     0.000 C 
BRANCH   9  10
ATOM     10  C   UNL     1      47.817  33.743  15.747  1.00  0.00     0.006 C 
BRANCH  10  11
ATOM     11  C   UNL     1      48.816  33.927  16.897  1.00  0.00     0.053 C 
BRANCH  11  12
ATOM     12  C   UNL     1      49.058  32.646  17.634  1.00  0.00     0.041 C 
ATOM     13  O   UNL     1      48.095  32.016  18.147  1.00  0.00    -0.550 OA
ATOM     14  O   UNL     1      50.345  32.131  17.731  1.00  0.00    -0.550 OA
ENDBRANCH  11  12
ENDBRANCH  10  11
ENDBRANCH   9  10
ENDBRANCH   8   9
ENDBRANCH   1   8
TORSDOF 9
ENDMDL
MODEL 4
REMARK VINA RESULT:    -4.499      1.164      5.605
REMARK INTER + INTRA:          -7.467
REMARK INTER:                  -6.923
REMARK INTRA:                  -0.544
REMARK UNBOUND:                -0.601
REMARK SMILES O=C([O-])CCCCCCCCC(=O)[O-]
REMARK SMILES IDX 7 1 6 2 5 3 4 4 2 5 1 6 3 7 8 8 9 9 10 10 11 11 12 12 13 13
REMARK SMILES IDX 14 14
REMARK H PARENT
REMARK Flexibility Score: inf
ROOT
ATOM      1  C   UNL     1      48.256  34.032  17.025  1.00  0.00     0.000 C 
ENDROOT
BRANCH   1   2
ATOM      2  C   UNL     1      49.285  32.931  17.323  1.00  0.00     0.000 C 
BRANCH   2   3
ATOM      3  C   UNL     1      48.630  31.573  17.620  1.00  0.00     0.006 C 
BRANCH   3   4
ATOM      4  C   UNL     1      49.218  30.435  16.776  1.00  0.00     0.053 C 
BRANCH   4   5
ATOM      5  C   UNL     1      48.127  29.545  16.269  1.00  0.00     0.041 C 
ATOM      6  O   UNL     1      48.215  28.295  16.403  1.00  0.00    -0.550 OA
ATOM      7  O   UNL     1      47.036  30.090  15.604  1.00  0.00    -0.550 OA
ENDBRANCH   4   5
ENDBRANCH   3   4
ENDBRANCH   2   3
ENDBRANCH   1   2
BRANCH   1   8
ATOM      8  C   UNL     1      47.532  33.760  15.697  1.00  0.00     0.000 C 
BRANCH   8   9
ATOM      9  C   UNL     1      48.493  33.348  14.570  1.00  0.00     0.000 C 
BRANCH   9  10
ATOM     10  C   UNL     1      48.381  34.258  13.334  1.00  0.00     0.006 C 
BRANCH  10  11
ATOM     11  C   UNL     1      49.493  33.985  12.313  1.00  0.00     0.053 C 
BRANCH  11  12
ATOM     12  C   UNL     1      48.940  33.563  10.987  1.00  0.00     0.041 C 
ATOM     13  O   UNL     1      49.717  33.283  10.035  1.00  0.00    -0.550 OA
ATOM     14  O   UNL     1      47.567  33.451  10.809  1.00  0.00    -0.550 OA
ENDBRANCH  11  12
ENDBRANCH  10  11
ENDBRANCH   9  10
ENDBRANCH   8   9
ENDBRANCH   1   8
TORSDOF 9
ENDMDL
MODEL 5
REMARK VINA RESULT:    -4.488     12.705     14.281
REMARK INTER + INTRA:          -7.450
REMARK INTER:                  -6.456
REMARK INTRA:                  -0.994
REMARK UNBOUND:                -0.601
REMARK SMILES O=C([O-])CCCCCCCCC(=O)[O-]
REMARK SMILES IDX 7 1 6 2 5 3 4 4 2 5 1 6 3 7 8 8 9 9 10 10 11 11 12 12 13 13
REMARK SMILES IDX 14 14
REMARK H PARENT
REMARK Flexibility Score: inf
ROOT
ATOM      1  C   UNL     1      38.343  38.105  24.062  1.00  0.00     0.000 C 
ENDROOT
BRANCH   1   2
ATOM      2  C   UNL     1      38.849  36.781  23.469  1.00  0.00     0.000 C 
BRANCH   2   3
ATOM      3  C   UNL     1      40.243  36.394  23.988  1.00  0.00     0.006 C 
BRANCH   3   4
ATOM      4  C   UNL     1      41.362  36.757  23.004  1.00  0.00     0.053 C 
BRANCH   4   5
ATOM      5  C   UNL     1      42.328  37.706  23.640  1.00  0.00     0.041 C 
ATOM      6  O   UNL     1      43.453  37.913  23.112  1.00  0.00    -0.550 OA
ATOM      7  O   UNL     1      42.007  38.325  24.841  1.00  0.00    -0.550 OA
ENDBRANCH   4   5
ENDBRANCH   3   4
ENDBRANCH   2   3
ENDBRANCH   1   2
BRANCH   1   8
ATOM      8  C   UNL     1      38.001  39.109  22.950  1.00  0.00     0.000 C 
BRANCH   8   9
ATOM      9  C   UNL     1      38.747  38.820  21.638  1.00  0.00     0.000 C 
BRANCH   9  10
ATOM     10  C   UNL     1      39.910  39.797  21.391  1.00  0.00     0.006 C 
BRANCH  10  11
ATOM     11  C   UNL     1      39.882  40.986  22.361  1.00  0.00     0.053 C 
BRANCH  11  12
ATOM     12  C   UNL     1      41.242  41.284  22.915  1.00  0.00     0.041 C 
ATOM     13  O   UNL     1      42.275  40.923  22.291  1.00  0.00    -0.550 OA
ATOM     14  O   UNL     1      41.369  41.984  24.107  1.00  0.00    -0.550 OA
ENDBRANCH  11  12
ENDBRANCH  10  11
ENDBRANCH   9  10
ENDBRANCH   8   9
ENDBRANCH   1   8
TORSDOF 9
ENDMDL
MODEL 6
REMARK VINA RESULT:    -4.471     12.683     13.739
REMARK INTER + INTRA:          -7.424
REMARK INTER:                  -6.317
REMARK INTRA:                  -1.107
REMARK UNBOUND:                -0.601
REMARK SMILES O=C([O-])CCCCCCCCC(=O)[O-]
REMARK SMILES IDX 7 1 6 2 5 3 4 4 2 5 1 6 3 7 8 8 9 9 10 10 11 11 12 12 13 13
REMARK SMILES IDX 14 14
REMARK H PARENT
REMARK Flexibility Score: inf
ROOT
ATOM      1  C   UNL     1      38.093  38.760  24.769  1.00  0.00     0.000 C 
ENDROOT
BRANCH   1   2
ATOM      2  C   UNL     1      38.238  40.165  24.164  1.00  0.00     0.000 C 
BRANCH   2   3
ATOM      3  C   UNL     1      39.657  40.443  23.644  1.00  0.00     0.006 C 
BRANCH   3   4
ATOM      4  C   UNL     1      39.738  40.438  22.112  1.00  0.00     0.053 C 
BRANCH   4   5
ATOM      5  C   UNL     1      41.158  40.297  21.665  1.00  0.00     0.041 C 
ATOM      6  O   UNL     1      41.441  39.575  20.672  1.00  0.00    -0.550 OA
ATOM      7  O   UNL     1      42.176  40.922  22.373  1.00  0.00    -0.550 OA
ENDBRANCH   4   5
ENDBRANCH   3   4
ENDBRANCH   2   3
ENDBRANCH   1   2
BRANCH   1   8
ATOM      8  C   UNL     1      37.497  37.781  23.746  1.00  0.00     0.000 C 
BRANCH   8   9
ATOM      9  C   UNL     1      38.494  36.695  23.312  1.00  0.00     0.000 C 
BRANCH   9  10
ATOM     10  C   UNL     1      39.830  36.781  24.069  1.00  0.00     0.006 C 
BRANCH  10  11
ATOM     11  C   UNL     1      41.032  36.842  23.117  1.00  0.00     0.053 C 
BRANCH  11  12
ATOM     12  C   UNL     1      42.192  37.565  23.730  1.00  0.00     0.041 C 
ATOM     13  O   UNL     1      43.236  37.775  23.057  1.00  0.00    -0.550 OA
ATOM     14  O   UNL     1      42.110  38.031  25.036  1.00  0.00    -0.550 OA
ENDBRANCH  11  12
ENDBRANCH  10  11
ENDBRANCH   9  10
ENDBRANCH   8   9
ENDBRANCH   1   8
TORSDOF 9
ENDMDL
MODEL 7
REMARK VINA RESULT:    -4.325     13.261     14.521
REMARK INTER + INTRA:          -7.201
REMARK INTER:                  -6.100
REMARK INTRA:                  -1.101
REMARK UNBOUND:                -0.601
REMARK SMILES O=C([O-])CCCCCCCCC(=O)[O-]
REMARK SMILES IDX 7 1 6 2 5 3 4 4 2 5 1 6 3 7 8 8 9 9 10 10 11 11 12 12 13 13
REMARK SMILES IDX 14 14
REMARK H PARENT
REMARK Flexibility Score: inf
ROOT
ATOM      1  C   UNL     1      37.461  37.655  23.967  1.00  0.00     0.000 C 
ENDROOT
BRANCH   1   2
ATOM      2  C   UNL     1      37.271  39.044  23.340  1.00  0.00     0.000 C 
BRANCH   2   3
ATOM      3  C   UNL     1      37.757  40.179  24.257  1.00  0.00     0.006 C 
BRANCH   3   4
ATOM      4  C   UNL     1      38.849  39.723  25.234  1.00  0.00     0.053 C 
BRANCH   4   5
ATOM      5  C   UNL     1      40.149  40.387  24.908  1.00  0.00     0.041 C 
ATOM      6  O   UNL     1      40.185  41.340  24.085  1.00  0.00    -0.550 OA
ATOM      7  O   UNL     1      41.329  39.923  25.476  1.00  0.00    -0.550 OA
ENDBRANCH   4   5
ENDBRANCH   3   4
ENDBRANCH   2   3
ENDBRANCH   1   2
BRANCH   1   8
ATOM      8  C   UNL     1      38.380  36.783  23.098  1.00  0.00     0.000 C 
BRANCH   8   9
ATOM      9  C   UNL     1      39.535  36.158  23.896  1.00  0.00     0.000 C 
BRANCH   9  10
ATOM     10  C   UNL     1      40.871  36.889  23.676  1.00  0.00     0.006 C 
BRANCH  10  11
ATOM     11  C   UNL     1      40.849  37.769  22.419  1.00  0.00     0.053 C 
BRANCH  11  12
ATOM     12  C   UNL     1      42.113  38.559  22.271  1.00  0.00     0.041 C 
ATOM     13  O   UNL     1      42.074  39.743  21.841  1.00  0.00    -0.550 OA
ATOM     14  O   UNL     1      43.331  37.999  22.634  1.00  0.00    -0.550 OA
ENDBRANCH  11  12
ENDBRANCH  10  11
ENDBRANCH   9  10
ENDBRANCH   8   9
ENDBRANCH   1   8
TORSDOF 9
ENDMDL
MODEL 8
REMARK VINA RESULT:    -4.291     13.405     14.511
REMARK INTER + INTRA:          -7.149
REMARK INTER:                  -6.079
REMARK INTRA:                  -1.070
REMARK UNBOUND:                -0.601
REMARK SMILES O=C([O-])CCCCCCCCC(=O)[O-]
REMARK SMILES IDX 7 1 6 2 5 3 4 4 2 5 1 6 3 7 8 8 9 9 10 10 11 11 12 12 13 13
REMARK SMILES IDX 14 14
REMARK H PARENT
REMARK Flexibility Score: inf
ROOT
ATOM      1  C   UNL     1      40.784  36.950  24.018  1.00  0.00     0.000 C 
ENDROOT
BRANCH   1   2
ATOM      2  C   UNL     1      41.703  36.887  22.790  1.00  0.00     0.000 C 
BRANCH   2   3
ATOM      3  C   UNL     1      42.216  38.272  22.362  1.00  0.00     0.006 C 
BRANCH   3   4
ATOM      4  C   UNL     1      41.494  39.418  23.081  1.00  0.00     0.053 C 
BRANCH   4   5
ATOM      5  C   UNL     1      40.668  40.203  22.112  1.00  0.00     0.041 C 
ATOM      6  O   UNL     1      40.402  41.413  22.341  1.00  0.00    -0.550 OA
ATOM      7  O   UNL     1      40.149  39.587  20.980  1.00  0.00    -0.550 OA
ENDBRANCH   4   5
ENDBRANCH   3   4
ENDBRANCH   2   3
ENDBRANCH   1   2
BRANCH   1   8
ATOM      8  C   UNL     1      39.502  36.135  23.786  1.00  0.00     0.000 C 
BRANCH   8   9
ATOM      9  C   UNL     1      38.424  36.927  23.030  1.00  0.00     0.000 C 
BRANCH   9  10
ATOM     10  C   UNL     1      37.458  37.663  23.975  1.00  0.00     0.006 C 
BRANCH  10  11
ATOM     11  C   UNL     1      37.306  39.145  23.606  1.00  0.00     0.053 C 
BRANCH  11  12
ATOM     12  C   UNL     1      37.999  40.038  24.589  1.00  0.00     0.041 C 
ATOM     13  O   UNL     1      38.765  39.547  25.461  1.00  0.00    -0.550 OA
ATOM     14  O   UNL     1      37.821  41.414  24.526  1.00  0.00    -0.550 OA
ENDBRANCH  11  12
ENDBRANCH  10  11
ENDBRANCH   9  10
ENDBRANCH   8   9
ENDBRANCH   1   8
TORSDOF 9
ENDMDL
MODEL 9
REMARK VINA RESULT:    -4.265     13.023     14.117
REMARK INTER + INTRA:          -7.110
REMARK INTER:                  -6.085
REMARK INTRA:                  -1.025
REMARK UNBOUND:                -0.601
REMARK SMILES O=C([O-])CCCCCCCCC(=O)[O-]
REMARK SMILES IDX 7 1 6 2 5 3 4 4 2 5 1 6 3 7 8 8 9 9 10 10 11 11 12 12 13 13
REMARK SMILES IDX 14 14
REMARK H PARENT
REMARK Flexibility Score: inf
ROOT
ATOM      1  C   UNL     1      38.736  39.398  22.279  1.00  0.00     0.000 C 
ENDROOT
BRANCH   1   2
ATOM      2  C   UNL     1      39.943  40.101  21.639  1.00  0.00     0.000 C 
BRANCH   2   3
ATOM      3  C   UNL     1      40.861  40.764  22.678  1.00  0.00     0.006 C 
BRANCH   3   4
ATOM      4  C   UNL     1      40.250  40.777  24.085  1.00  0.00     0.053 C 
BRANCH   4   5
ATOM      5  C   UNL     1      41.161  41.477  25.043  1.00  0.00     0.041 C 
ATOM      6  O   UNL     1      41.438  40.951  26.154  1.00  0.00    -0.550 OA
ATOM      7  O   UNL     1      41.666  42.734  24.732  1.00  0.00    -0.550 OA
ENDBRANCH   4   5
ENDBRANCH   3   4
ENDBRANCH   2   3
ENDBRANCH   1   2
BRANCH   1   8
ATOM      8  C   UNL     1      38.893  37.871  22.212  1.00  0.00     0.000 C 
BRANCH   8   9
ATOM      9  C   UNL     1      38.861  37.209  23.599  1.00  0.00     0.000 C 
BRANCH   9  10
ATOM     10  C   UNL     1      40.195  36.536  23.965  1.00  0.00     0.006 C 
BRANCH  10  11
ATOM     11  C   UNL     1      41.309  36.878  22.966  1.00  0.00     0.053 C 
BRANCH  11  12
ATOM     12  C   UNL     1      42.437  37.614  23.621  1.00  0.00     0.041 C 
ATOM     13  O   UNL     1      42.369  37.926  24.840  1.00  0.00    -0.550 OA
ATOM     14  O   UNL     1      43.577  37.930  22.893  1.00  0.00    -0.550 OA
ENDBRANCH  11  12
ENDBRANCH  10  11
ENDBRANCH   9  10
ENDBRANCH   8   9
ENDBRANCH   1   8
TORSDOF 9
ENDMDL
