MODEL 1
REMARK VINA RESULT:    -3.415      0.000      0.000
REMARK INTER + INTRA:          -4.117
REMARK INTER:                  -4.014
REMARK INTRA:                  -0.103
REMARK UNBOUND:                -0.103
REMARK SMILES CCCCC(=O)[O-]
REMARK SMILES IDX 4 1 5 2 6 3 7 4 3 5 2 6 1 7
REMARK H PARENT
REMARK Flexibility Score: inf
ROOT
ATOM      1  C   UNL     1     139.186 137.475 130.255  1.00  0.00     0.053 C 
ENDROOT
BRANCH   1   2
ATOM      2  C   UNL     1     137.705 137.554 130.450  1.00  0.00     0.041 C 
ATOM      3  O   UNL     1     137.055 136.531 130.789  1.00  0.00    -0.550 OA
ATOM      4  O   UNL     1     137.049 138.770 130.305  1.00  0.00    -0.550 OA
ENDBRANCH   1   2
BRANCH   1   5
ATOM      5  C   UNL     1     139.760 136.262 130.999  1.00  0.00     0.006 C 
BRANCH   5   6
ATOM      6  C   UNL     1     140.325 135.198 130.047  1.00  0.00    -0.003 C 
ATOM      7  C   UNL     1     139.533 133.891 130.082  1.00  0.00     0.004 C 
ENDBRANCH   5   6
ENDBRANCH   1   5
TORSDOF 3
ENDMDL
MODEL 2
REMARK VINA RESULT:    -3.293      2.940      3.845
REMARK INTER + INTRA:          -3.973
REMARK INTER:                  -3.927
REMARK INTRA:                  -0.046
REMARK UNBOUND:                -0.103
REMARK SMILES CCCCC(=O)[O-]
REMARK SMILES IDX 4 1 5 2 6 3 7 4 3 5 2 6 1 7
REMARK H PARENT
REMARK Flexibility Score: inf
ROOT
ATOM      1  C   UNL     1     140.015 135.562 130.201  1.00  0.00     0.053 C 
ENDROOT
BRANCH   1   2
ATOM      2  C   UNL     1     140.466 134.521 131.176  1.00  0.00     0.041 C 
ATOM      3  O   UNL     1     141.199 134.838 132.148  1.00  0.00    -0.550 OA
ATOM      4  O   UNL     1     140.036 133.207 131.038  1.00  0.00    -0.550 OA
ENDBRANCH   1   2
BRANCH   1   5
ATOM      5  C   UNL     1     139.518 136.811 130.943  1.00  0.00     0.006 C 
BRANCH   5   6
ATOM      6  C   UNL     1     138.050 137.138 130.632  1.00  0.00    -0.003 C 
ATOM      7  C   UNL     1     137.165 135.892 130.579  1.00  0.00     0.004 C 
ENDBRANCH   5   6
ENDBRANCH   1   5
TORSDOF 3
ENDMDL
MODEL 3
REMARK VINA RESULT:    -3.278      1.450      2.369
REMARK INTER + INTRA:          -3.956
REMARK INTER:                  -3.908
REMARK INTRA:                  -0.047
REMARK UNBOUND:                -0.103
REMARK SMILES CCCCC(=O)[O-]
REMARK SMILES IDX 4 1 5 2 6 3 7 4 3 5 2 6 1 7
REMARK H PARENT
REMARK Flexibility Score: inf
ROOT
ATOM      1  C   UNL     1     140.177 135.472 130.508  1.00  0.00     0.053 C 
ENDROOT
BRANCH   1   2
ATOM      2  C   UNL     1     139.119 136.530 130.547  1.00  0.00     0.041 C 
ATOM      3  O   UNL     1     139.409 137.725 130.281  1.00  0.00    -0.550 OA
ATOM      4  O   UNL     1     137.803 136.186 130.830  1.00  0.00    -0.550 OA
ENDBRANCH   1   2
BRANCH   1   5
ATOM      5  C   UNL     1     139.655 134.219 129.791  1.00  0.00     0.006 C 
BRANCH   5   6
ATOM      6  C   UNL     1     139.628 132.984 130.703  1.00  0.00    -0.003 C 
ATOM      7  C   UNL     1     139.604 131.671 129.920  1.00  0.00     0.004 C 
ENDBRANCH   5   6
ENDBRANCH   1   5
TORSDOF 3
ENDMDL
MODEL 4
REMARK VINA RESULT:    -3.261      2.462      3.914
REMARK INTER + INTRA:          -3.935
REMARK INTER:                  -3.823
REMARK INTRA:                  -0.112
REMARK UNBOUND:                -0.103
REMARK SMILES CCCCC(=O)[O-]
REMARK SMILES IDX 4 1 5 2 6 3 7 4 3 5 2 6 1 7
REMARK H PARENT
REMARK Flexibility Score: inf
ROOT
ATOM      1  C   UNL     1     140.167 134.436 131.008  1.00  0.00     0.053 C 
ENDROOT
BRANCH   1   2
ATOM      2  C   UNL     1     139.134 133.451 130.560  1.00  0.00     0.041 C 
ATOM      3  O   UNL     1     138.420 133.695 129.553  1.00  0.00    -0.550 OA
ATOM      4  O   UNL     1     138.993 132.240 131.227  1.00  0.00    -0.550 OA
ENDBRANCH   1   2
BRANCH   1   5
ATOM      5  C   UNL     1     140.052 135.736 130.202  1.00  0.00     0.006 C 
BRANCH   5   6
ATOM      6  C   UNL     1     139.451 136.889 131.021  1.00  0.00    -0.003 C 
ATOM      7  C   UNL     1     137.974 137.128 130.710  1.00  0.00     0.004 C 
ENDBRANCH   5   6
ENDBRANCH   1   5
TORSDOF 3
ENDMDL
MODEL 5
REMARK VINA RESULT:    -3.260      2.265      3.445
REMARK INTER + INTRA:          -3.934
REMARK INTER:                  -3.800
REMARK INTRA:                  -0.134
REMARK UNBOUND:                -0.103
REMARK SMILES CCCCC(=O)[O-]
REMARK SMILES IDX 4 1 5 2 6 3 7 4 3 5 2 6 1 7
REMARK H PARENT
REMARK Flexibility Score: inf
ROOT
ATOM      1  C   UNL     1     139.625 133.737 130.214  1.00  0.00     0.053 C 
ENDROOT
BRANCH   1   2
ATOM      2  C   UNL     1     138.160 133.846 129.931  1.00  0.00     0.041 C 
ATOM      3  O   UNL     1     137.756 134.085 128.764  1.00  0.00    -0.550 OA
ATOM      4  O   UNL     1     137.238 133.634 130.949  1.00  0.00    -0.550 OA
ENDBRANCH   1   2
BRANCH   1   5
ATOM      5  C   UNL     1     140.310 135.097 130.018  1.00  0.00     0.006 C 
BRANCH   5   6
ATOM      6  C   UNL     1     139.777 136.171 130.977  1.00  0.00    -0.003 C 
ATOM      7  C   UNL     1     139.286 137.423 130.250  1.00  0.00     0.004 C 
ENDBRANCH   5   6
ENDBRANCH   1   5
TORSDOF 3
ENDMDL
MODEL 6
REMARK VINA RESULT:    -3.245      2.312      3.450
REMARK INTER + INTRA:          -3.917
REMARK INTER:                  -3.784
REMARK INTRA:                  -0.132
REMARK UNBOUND:                -0.103
REMARK SMILES CCCCC(=O)[O-]
REMARK SMILES IDX 4 1 5 2 6 3 7 4 3 5 2 6 1 7
REMARK H PARENT
REMARK Flexibility Score: inf
ROOT
ATOM      1  C   UNL     1     139.656 133.663 130.402  1.00  0.00     0.053 C 
ENDROOT
BRANCH   1   2
ATOM      2  C   UNL     1     138.248 133.632 129.895  1.00  0.00     0.041 C 
ATOM      3  O   UNL     1     137.335 133.121 130.594  1.00  0.00    -0.550 OA
ATOM      4  O   UNL     1     137.937 134.211 128.671  1.00  0.00    -0.550 OA
ENDBRANCH   1   2
BRANCH   1   5
ATOM      5  C   UNL     1     140.306 135.018 130.091  1.00  0.00     0.006 C 
BRANCH   5   6
ATOM      6  C   UNL     1     139.843 136.128 131.045  1.00  0.00    -0.003 C 
ATOM      7  C   UNL     1     139.187 137.301 130.315  1.00  0.00     0.004 C 
ENDBRANCH   5   6
ENDBRANCH   1   5
TORSDOF 3
ENDMDL
MODEL 7
REMARK VINA RESULT:    -3.190      3.127      4.209
REMARK INTER + INTRA:          -3.852
REMARK INTER:                  -3.744
REMARK INTRA:                  -0.109
REMARK UNBOUND:                -0.103
REMARK SMILES CCCCC(=O)[O-]
REMARK SMILES IDX 4 1 5 2 6 3 7 4 3 5 2 6 1 7
REMARK H PARENT
REMARK Flexibility Score: inf
ROOT
ATOM      1  C   UNL     1     139.706 133.118 130.962  1.00  0.00     0.053 C 
ENDROOT
BRANCH   1   2
ATOM      2  C   UNL     1     139.571 134.191 129.929  1.00  0.00     0.041 C 
ATOM      3  O   UNL     1     138.587 134.195 129.144  1.00  0.00    -0.550 OA
ATOM      4  O   UNL     1     140.507 135.217 129.866  1.00  0.00    -0.550 OA
ENDBRANCH   1   2
BRANCH   1   5
ATOM      5  C   UNL     1     138.638 132.036 130.753  1.00  0.00     0.006 C 
BRANCH   5   6
ATOM      6  C   UNL     1     139.188 130.794 130.036  1.00  0.00    -0.003 C 
ATOM      7  C   UNL     1     138.540 130.564 128.670  1.00  0.00     0.004 C 
ENDBRANCH   5   6
ENDBRANCH   1   5
TORSDOF 3
ENDMDL
MODEL 8
REMARK VINA RESULT:    -3.177      2.393      4.083
REMARK INTER + INTRA:          -3.837
REMARK INTER:                  -3.732
REMARK INTRA:                  -0.105
REMARK UNBOUND:                -0.103
REMARK SMILES CCCCC(=O)[O-]
REMARK SMILES IDX 4 1 5 2 6 3 7 4 3 5 2 6 1 7
REMARK H PARENT
REMARK Flexibility Score: inf
ROOT
ATOM      1  C   UNL     1     139.234 132.882 130.185  1.00  0.00     0.053 C 
ENDROOT
BRANCH   1   2
ATOM      2  C   UNL     1     137.844 132.770 130.726  1.00  0.00     0.041 C 
ATOM      3  O   UNL     1     137.176 133.806 130.977  1.00  0.00    -0.550 OA
ATOM      4  O   UNL     1     137.269 131.518 130.909  1.00  0.00    -0.550 OA
ENDBRANCH   1   2
BRANCH   1   5
ATOM      5  C   UNL     1     140.025 133.947 130.956  1.00  0.00     0.006 C 
BRANCH   5   6
ATOM      6  C   UNL     1     140.352 135.178 130.098  1.00  0.00    -0.003 C 
ATOM      7  C   UNL     1     139.611 136.433 130.557  1.00  0.00     0.004 C 
ENDBRANCH   5   6
ENDBRANCH   1   5
TORSDOF 3
ENDMDL
MODEL 9
REMARK VINA RESULT:    -3.143      4.083      5.385
REMARK INTER + INTRA:          -3.796
REMARK INTER:                  -3.726
REMARK INTRA:                  -0.070
REMARK UNBOUND:                -0.103
REMARK SMILES CCCCC(=O)[O-]
REMARK SMILES IDX 4 1 5 2 6 3 7 4 3 5 2 6 1 7
REMARK H PARENT
REMARK Flexibility Score: inf
ROOT
ATOM      1  C   UNL     1     139.677 131.446 129.816  1.00  0.00     0.053 C 
ENDROOT
BRANCH   1   2
ATOM      2  C   UNL     1     138.358 130.998 129.271  1.00  0.00     0.041 C 
ATOM      3  O   UNL     1     137.353 130.923 130.024  1.00  0.00    -0.550 OA
ATOM      4  O   UNL     1     138.228 130.709 127.918  1.00  0.00    -0.550 OA
ENDBRANCH   1   2
BRANCH   1   5
ATOM      5  C   UNL     1     139.508 132.732 130.636  1.00  0.00     0.006 C 
BRANCH   5   6
ATOM      6  C   UNL     1     139.364 133.981 129.753  1.00  0.00    -0.003 C 
ATOM      7  C   UNL     1     140.346 135.090 130.133  1.00  0.00     0.004 C 
ENDBRANCH   5   6
ENDBRANCH   1   5
TORSDOF 3
ENDMDL
