MODEL 1
REMARK VINA RESULT:    -6.999      0.000      0.000
REMARK INTER + INTRA:          -9.972
REMARK INTER:                  -9.249
REMARK INTRA:                  -0.722
REMARK UNBOUND:                -0.722
REMARK SMILES CC[C@H](C=C[C@@H](C)[C@@H]1CC[C@@H]2[C@@H]3CC=C4C[C@H](O)CC[C@]4(C)[C@H]3CC[C@]21C)C(C)C
REMARK SMILES IDX 6 1 7 2 5 3 4 4 3 5 2 6 1 7 28 8 29 9 30 10 8 11 9 12 26 13
REMARK SMILES IDX 10 14 11 15 25 16 27 17 12 18 24 19 23 20 13 21 21 22 14 23
REMARK SMILES IDX 15 24 20 25 22 26 16 27 19 28 17 29 18 30
REMARK H PARENT 18 31
REMARK Flexibility Score: inf
ROOT
ATOM      1  C   UNL     1      65.453  49.049   9.173  1.00  0.00     0.012 C 
ATOM      2  C   UNL     1      64.743  50.029  10.125  1.00  0.00     0.012 C 
ENDROOT
BRANCH   1   3
ATOM      3  C   UNL     1      64.908  47.656   9.428  1.00  0.00    -0.028 C 
ATOM      4  C   UNL     1      63.629  47.326   9.180  1.00  0.00    -0.027 C 
BRANCH   4   5
ATOM      5  C   UNL     1      63.120  45.917   9.415  1.00  0.00     0.014 C 
BRANCH   5   6
ATOM      6  C   UNL     1      61.742  45.946  10.125  1.00  0.00     0.004 C 
ATOM      7  C   UNL     1      60.690  45.125   9.378  1.00  0.00     0.004 C 
ENDBRANCH   5   6
BRANCH   5   8
ATOM      8  C   UNL     1      63.100  45.118   8.072  1.00  0.00    -0.011 C 
ATOM      9  C   UNL     1      64.367  44.277   7.848  1.00  0.00     0.008 C 
ATOM     10  C   UNL     1      62.835  46.028   6.862  1.00  0.00     0.008 C 
ENDBRANCH   5   8
ENDBRANCH   4   5
ENDBRANCH   1   3
BRANCH   1  11
ATOM     11  C   UNL     1      67.021  49.025   9.237  1.00  0.00     0.002 C 
ATOM     12  C   UNL     1      67.730  50.399   9.137  1.00  0.00     0.005 C 
ATOM     13  C   UNL     1      67.853  48.086   8.309  1.00  0.00    -0.026 C 
ATOM     14  C   UNL     1      69.173  50.103   8.675  1.00  0.00     0.005 C 
ATOM     15  C   UNL     1      69.265  48.579   8.688  1.00  0.00    -0.001 C 
ATOM     16  C   UNL     1      67.730  46.563   8.650  1.00  0.00     0.007 C 
ATOM     17  C   UNL     1      67.535  48.351   6.801  1.00  0.00     0.012 C 
ATOM     18  C   UNL     1      70.463  47.844   8.016  1.00  0.00     0.000 C 
ATOM     19  C   UNL     1      69.075  45.776   8.562  1.00  0.00     0.005 C 
ATOM     20  C   UNL     1      70.078  46.408   7.558  1.00  0.00     0.003 C 
ATOM     21  C   UNL     1      71.168  48.578   6.876  1.00  0.00     0.031 C 
ATOM     22  C   UNL     1      71.364  45.556   7.245  1.00  0.00    -0.008 C 
ATOM     23  C   UNL     1      72.313  47.752   6.346  1.00  0.00    -0.027 C 
ATOM     24  C   UNL     1      72.385  46.400   6.450  1.00  0.00    -0.065 C 
ATOM     25  C   UNL     1      70.964  44.333   6.363  1.00  0.00     0.014 C 
ATOM     26  C   UNL     1      72.025  45.044   8.556  1.00  0.00     0.016 C 
ATOM     27  C   UNL     1      73.562  45.684   5.815  1.00  0.00     0.063 C 
ATOM     28  C   UNL     1      72.167  43.573   5.777  1.00  0.00     0.033 C 
ATOM     29  C   UNL     1      73.087  44.496   4.967  1.00  0.00     0.118 C 
BRANCH  29  30
ATOM     30  O   UNL     1      72.412  44.955   3.825  1.00  0.00    -0.393 OA
ATOM     31  H   UNL     1      72.624  44.321   3.093  1.00  0.00     0.210 HD
ENDBRANCH  29  30
ENDBRANCH   1  11
TORSDOF 6
ENDMDL
MODEL 2
REMARK VINA RESULT:    -6.744      1.663      2.949
REMARK INTER + INTRA:          -9.635
REMARK INTER:                  -8.829
REMARK INTRA:                  -0.806
REMARK UNBOUND:                -0.722
REMARK SMILES CC[C@H](C=C[C@@H](C)[C@@H]1CC[C@@H]2[C@@H]3CC=C4C[C@H](O)CC[C@]4(C)[C@H]3CC[C@]21C)C(C)C
REMARK SMILES IDX 6 1 7 2 5 3 4 4 3 5 2 6 1 7 28 8 29 9 30 10 8 11 9 12 26 13
REMARK SMILES IDX 10 14 11 15 25 16 27 17 12 18 24 19 23 20 13 21 21 22 14 23
REMARK SMILES IDX 15 24 20 25 22 26 16 27 19 28 17 29 18 30
REMARK H PARENT 18 31
REMARK Flexibility Score: inf
ROOT
ATOM      1  C   UNL     1      66.640  44.352   9.779  1.00  0.00     0.012 C 
ATOM      2  C   UNL     1      66.818  43.357   8.618  1.00  0.00     0.012 C 
ENDROOT
BRANCH   1   3
ATOM      3  C   UNL     1      65.247  44.948   9.690  1.00  0.00    -0.028 C 
ATOM      4  C   UNL     1      64.569  45.020   8.532  1.00  0.00    -0.027 C 
BRANCH   4   5
ATOM      5  C   UNL     1      63.164  45.592   8.477  1.00  0.00     0.014 C 
BRANCH   5   6
ATOM      6  C   UNL     1      62.287  44.990   9.604  1.00  0.00     0.004 C 
ATOM      7  C   UNL     1      60.792  45.147   9.318  1.00  0.00     0.004 C 
ENDBRANCH   5   6
BRANCH   5   8
ATOM      8  C   UNL     1      63.214  47.152   8.505  1.00  0.00    -0.011 C 
ATOM      9  C   UNL     1      64.419  47.735   7.748  1.00  0.00     0.008 C 
ATOM     10  C   UNL     1      63.156  47.707   9.937  1.00  0.00     0.008 C 
ENDBRANCH   5   8
ENDBRANCH   4   5
ENDBRANCH   1   3
BRANCH   1  11
ATOM     11  C   UNL     1      67.702  45.503   9.883  1.00  0.00     0.002 C 
ATOM     12  C   UNL     1      67.145  46.929  10.122  1.00  0.00     0.005 C 
ATOM     13  C   UNL     1      68.801  45.690   8.790  1.00  0.00    -0.026 C 
ATOM     14  C   UNL     1      68.244  47.903   9.648  1.00  0.00     0.005 C 
ATOM     15  C   UNL     1      69.429  46.998   9.315  1.00  0.00    -0.001 C 
ATOM     16  C   UNL     1      69.892  44.567   8.770  1.00  0.00     0.007 C 
ATOM     17  C   UNL     1      68.166  45.881   7.374  1.00  0.00     0.012 C 
ATOM     18  C   UNL     1      70.657  47.544   8.529  1.00  0.00     0.000 C 
ATOM     19  C   UNL     1      71.345  45.090   8.545  1.00  0.00     0.005 C 
ATOM     20  C   UNL     1      71.389  46.419   7.742  1.00  0.00     0.003 C 
ATOM     21  C   UNL     1      70.408  48.740   7.609  1.00  0.00     0.031 C 
ATOM     22  C   UNL     1      72.817  46.895   7.282  1.00  0.00    -0.008 C 
ATOM     23  C   UNL     1      71.691  49.164   6.938  1.00  0.00    -0.027 C 
ATOM     24  C   UNL     1      72.749  48.337   6.731  1.00  0.00    -0.065 C 
ATOM     25  C   UNL     1      73.318  45.967   6.131  1.00  0.00     0.014 C 
ATOM     26  C   UNL     1      73.829  46.838   8.460  1.00  0.00     0.016 C 
ATOM     27  C   UNL     1      73.955  48.874   5.985  1.00  0.00     0.063 C 
ATOM     28  C   UNL     1      74.582  46.488   5.423  1.00  0.00     0.033 C 
ATOM     29  C   UNL     1      74.386  47.906   4.874  1.00  0.00     0.118 C 
BRANCH  29  30
ATOM     30  O   UNL     1      73.429  47.890   3.848  1.00  0.00    -0.393 OA
ATOM     31  H   UNL     1      73.746  48.520   3.151  1.00  0.00     0.210 HD
ENDBRANCH  29  30
ENDBRANCH   1  11
TORSDOF 6
ENDMDL
MODEL 3
REMARK VINA RESULT:    -6.666      2.598      8.502
REMARK INTER + INTRA:          -9.531
REMARK INTER:                  -8.386
REMARK INTRA:                  -1.145
REMARK UNBOUND:                -0.722
REMARK SMILES CC[C@H](C=C[C@@H](C)[C@@H]1CC[C@@H]2[C@@H]3CC=C4C[C@H](O)CC[C@]4(C)[C@H]3CC[C@]21C)C(C)C
REMARK SMILES IDX 6 1 7 2 5 3 4 4 3 5 2 6 1 7 28 8 29 9 30 10 8 11 9 12 26 13
REMARK SMILES IDX 10 14 11 15 25 16 27 17 12 18 24 19 23 20 13 21 21 22 14 23
REMARK SMILES IDX 15 24 20 25 22 26 16 27 19 28 17 29 18 30
REMARK H PARENT 18 31
REMARK Flexibility Score: inf
ROOT
ATOM      1  C   UNL     1      73.265  44.553   7.570  1.00  0.00     0.012 C 
ATOM      2  C   UNL     1      74.580  43.877   7.998  1.00  0.00     0.012 C 
ENDROOT
BRANCH   1   3
ATOM      3  C   UNL     1      73.585  45.949   7.070  1.00  0.00    -0.028 C 
ATOM      4  C   UNL     1      73.788  46.983   7.904  1.00  0.00    -0.027 C 
BRANCH   4   5
ATOM      5  C   UNL     1      74.138  48.363   7.378  1.00  0.00     0.014 C 
BRANCH   5   6
ATOM      6  C   UNL     1      73.535  48.576   5.966  1.00  0.00     0.004 C 
ATOM      7  C   UNL     1      74.586  48.436   4.863  1.00  0.00     0.004 C 
ENDBRANCH   5   6
BRANCH   5   8
ATOM      8  C   UNL     1      73.704  49.459   8.402  1.00  0.00    -0.011 C 
ATOM      9  C   UNL     1      73.339  48.889   9.783  1.00  0.00     0.008 C 
ATOM     10  C   UNL     1      72.562  50.335   7.862  1.00  0.00     0.008 C 
ENDBRANCH   5   8
ENDBRANCH   4   5
ENDBRANCH   1   3
BRANCH   1  11
ATOM     11  C   UNL     1      72.131  44.624   8.653  1.00  0.00     0.002 C 
ATOM     12  C   UNL     1      71.977  43.381   9.565  1.00  0.00     0.005 C 
ATOM     13  C   UNL     1      70.669  45.011   8.268  1.00  0.00    -0.026 C 
ATOM     14  C   UNL     1      70.541  43.436  10.125  1.00  0.00     0.005 C 
ATOM     15  C   UNL     1      70.000  44.780   9.639  1.00  0.00    -0.001 C 
ATOM     16  C   UNL     1      70.484  46.509   7.850  1.00  0.00     0.007 C 
ATOM     17  C   UNL     1      70.096  44.049   7.176  1.00  0.00     0.012 C 
ATOM     18  C   UNL     1      68.483  45.116   9.739  1.00  0.00     0.000 C 
ATOM     19  C   UNL     1      69.186  47.173   8.408  1.00  0.00     0.005 C 
ATOM     20  C   UNL     1      68.045  46.149   8.661  1.00  0.00     0.003 C 
ATOM     21  C   UNL     1      67.515  43.932   9.742  1.00  0.00     0.031 C 
ATOM     22  C   UNL     1      66.638  46.762   9.010  1.00  0.00    -0.008 C 
ATOM     23  C   UNL     1      66.092  44.416   9.865  1.00  0.00    -0.027 C 
ATOM     24  C   UNL     1      65.675  45.652   9.487  1.00  0.00    -0.065 C 
ATOM     25  C   UNL     1      66.029  47.404   7.724  1.00  0.00     0.014 C 
ATOM     26  C   UNL     1      66.763  47.849  10.113  1.00  0.00     0.016 C 
ATOM     27  C   UNL     1      64.201  45.989   9.603  1.00  0.00     0.063 C 
ATOM     28  C   UNL     1      64.550  47.803   7.875  1.00  0.00     0.033 C 
ATOM     29  C   UNL     1      63.678  46.616   8.304  1.00  0.00     0.118 C 
BRANCH  29  30
ATOM     30  O   UNL     1      63.648  45.656   7.281  1.00  0.00    -0.393 OA
ATOM     31  H   UNL     1      64.368  45.894   6.643  1.00  0.00     0.210 HD
ENDBRANCH  29  30
ENDBRANCH   1  11
TORSDOF 6
ENDMDL
MODEL 4
REMARK VINA RESULT:    -6.661      0.972      1.299
REMARK INTER + INTRA:          -9.525
REMARK INTER:                  -8.654
REMARK INTRA:                  -0.871
REMARK UNBOUND:                -0.722
REMARK SMILES CC[C@H](C=C[C@@H](C)[C@@H]1CC[C@@H]2[C@@H]3CC=C4C[C@H](O)CC[C@]4(C)[C@H]3CC[C@]21C)C(C)C
REMARK SMILES IDX 6 1 7 2 5 3 4 4 3 5 2 6 1 7 28 8 29 9 30 10 8 11 9 12 26 13
REMARK SMILES IDX 10 14 11 15 25 16 27 17 12 18 24 19 23 20 13 21 21 22 14 23
REMARK SMILES IDX 15 24 20 25 22 26 16 27 19 28 17 29 18 30
REMARK H PARENT 18 31
REMARK Flexibility Score: inf
ROOT
ATOM      1  C   UNL     1      66.479  49.568   9.185  1.00  0.00     0.012 C 
ATOM      2  C   UNL     1      65.854  50.615  10.125  1.00  0.00     0.012 C 
ENDROOT
BRANCH   1   3
ATOM      3  C   UNL     1      65.839  48.223   9.474  1.00  0.00    -0.028 C 
ATOM      4  C   UNL     1      64.659  47.858   8.944  1.00  0.00    -0.027 C 
BRANCH   4   5
ATOM      5  C   UNL     1      64.058  46.493   9.226  1.00  0.00     0.014 C 
BRANCH   5   6
ATOM      6  C   UNL     1      62.615  46.408   8.667  1.00  0.00     0.004 C 
ATOM      7  C   UNL     1      61.625  45.874   9.704  1.00  0.00     0.004 C 
ENDBRANCH   5   6
BRANCH   5   8
ATOM      8  C   UNL     1      64.994  45.367   8.682  1.00  0.00    -0.011 C 
ATOM      9  C   UNL     1      64.251  44.313   7.844  1.00  0.00     0.008 C 
ATOM     10  C   UNL     1      65.801  44.694   9.804  1.00  0.00     0.008 C 
ENDBRANCH   5   8
ENDBRANCH   4   5
ENDBRANCH   1   3
BRANCH   1  11
ATOM     11  C   UNL     1      68.042  49.432   9.229  1.00  0.00     0.002 C 
ATOM     12  C   UNL     1      68.848  50.735   9.000  1.00  0.00     0.005 C 
ATOM     13  C   UNL     1      68.784  48.356   8.376  1.00  0.00    -0.026 C 
ATOM     14  C   UNL     1      70.255  50.293   8.547  1.00  0.00     0.005 C 
ATOM     15  C   UNL     1      70.236  48.773   8.692  1.00  0.00    -0.001 C 
ATOM     16  C   UNL     1      68.556  46.882   8.852  1.00  0.00     0.007 C 
ATOM     17  C   UNL     1      68.457  48.512   6.855  1.00  0.00     0.012 C 
ATOM     18  C   UNL     1      71.362  47.894   8.072  1.00  0.00     0.000 C 
ATOM     19  C   UNL     1      69.838  45.992   8.815  1.00  0.00     0.005 C 
ATOM     20  C   UNL     1      70.864  46.457   7.746  1.00  0.00     0.003 C 
ATOM     21  C   UNL     1      72.097  48.473   6.862  1.00  0.00     0.031 C 
ATOM     22  C   UNL     1      72.078  45.487   7.493  1.00  0.00    -0.008 C 
ATOM     23  C   UNL     1      73.167  47.520   6.392  1.00  0.00    -0.027 C 
ATOM     24  C   UNL     1      73.142  46.180   6.612  1.00  0.00    -0.065 C 
ATOM     25  C   UNL     1      71.571  44.226   6.726  1.00  0.00     0.014 C 
ATOM     26  C   UNL     1      72.725  45.043   8.834  1.00  0.00     0.016 C 
ATOM     27  C   UNL     1      74.250  45.325   6.027  1.00  0.00     0.063 C 
ATOM     28  C   UNL     1      72.704  43.330   6.194  1.00  0.00     0.033 C 
ATOM     29  C   UNL     1      73.672  44.107   5.293  1.00  0.00     0.118 C 
BRANCH  29  30
ATOM     30  O   UNL     1      73.010  44.515   4.125  1.00  0.00    -0.393 OA
ATOM     31  H   UNL     1      73.182  43.818   3.441  1.00  0.00     0.210 HD
ENDBRANCH  29  30
ENDBRANCH   1  11
TORSDOF 6
ENDMDL
MODEL 5
REMARK VINA RESULT:    -6.451      3.294      7.215
REMARK INTER + INTRA:          -9.247
REMARK INTER:                  -7.961
REMARK INTRA:                  -1.287
REMARK UNBOUND:                -0.722
REMARK SMILES CC[C@H](C=C[C@@H](C)[C@@H]1CC[C@@H]2[C@@H]3CC=C4C[C@H](O)CC[C@]4(C)[C@H]3CC[C@]21C)C(C)C
REMARK SMILES IDX 6 1 7 2 5 3 4 4 3 5 2 6 1 7 28 8 29 9 30 10 8 11 9 12 26 13
REMARK SMILES IDX 10 14 11 15 25 16 27 17 12 18 24 19 23 20 13 21 21 22 14 23
REMARK SMILES IDX 15 24 20 25 22 26 16 27 19 28 17 29 18 30
REMARK H PARENT 18 31
REMARK Flexibility Score: inf
ROOT
ATOM      1  C   UNL     1      70.102  48.590   9.128  1.00  0.00     0.012 C 
ATOM      2  C   UNL     1      69.509  50.000   8.959  1.00  0.00     0.012 C 
ENDROOT
BRANCH   1   3
ATOM      3  C   UNL     1      71.552  48.624   8.684  1.00  0.00    -0.028 C 
ATOM      4  C   UNL     1      71.914  48.962   7.435  1.00  0.00    -0.027 C 
BRANCH   4   5
ATOM      5  C   UNL     1      73.374  49.020   7.026  1.00  0.00     0.014 C 
BRANCH   5   6
ATOM      6  C   UNL     1      74.292  48.760   8.248  1.00  0.00     0.004 C 
ATOM      7  C   UNL     1      74.791  47.315   8.298  1.00  0.00     0.004 C 
ENDBRANCH   5   6
BRANCH   5   8
ATOM      8  C   UNL     1      73.643  48.041   5.839  1.00  0.00    -0.011 C 
ATOM      9  C   UNL     1      74.663  48.584   4.825  1.00  0.00     0.008 C 
ATOM     10  C   UNL     1      72.346  47.624   5.129  1.00  0.00     0.008 C 
ENDBRANCH   5   8
ENDBRANCH   4   5
ENDBRANCH   1   3
BRANCH   1  11
ATOM     11  C   UNL     1      69.351  47.423   8.395  1.00  0.00     0.002 C 
ATOM     12  C   UNL     1      67.809  47.397   8.552  1.00  0.00     0.005 C 
ATOM     13  C   UNL     1      69.789  45.936   8.582  1.00  0.00    -0.026 C 
ATOM     14  C   UNL     1      67.373  45.947   8.251  1.00  0.00     0.005 C 
ATOM     15  C   UNL     1      68.655  45.259   7.784  1.00  0.00    -0.001 C 
ATOM     16  C   UNL     1      71.165  45.579   7.925  1.00  0.00     0.007 C 
ATOM     17  C   UNL     1      69.762  45.522  10.090  1.00  0.00     0.012 C 
ATOM     18  C   UNL     1      68.728  43.709   7.650  1.00  0.00     0.000 C 
ATOM     19  C   UNL     1      71.192  44.192   7.210  1.00  0.00     0.005 C 
ATOM     20  C   UNL     1      70.181  43.181   7.818  1.00  0.00     0.003 C 
ATOM     21  C   UNL     1      67.778  42.897   8.530  1.00  0.00     0.031 C 
ATOM     22  C   UNL     1      70.302  41.698   7.304  1.00  0.00    -0.008 C 
ATOM     23  C   UNL     1      67.952  41.422   8.271  1.00  0.00    -0.027 C 
ATOM     24  C   UNL     1      69.091  40.866   7.782  1.00  0.00    -0.065 C 
ATOM     25  C   UNL     1      71.591  41.054   7.903  1.00  0.00     0.014 C 
ATOM     26  C   UNL     1      70.381  41.652   5.753  1.00  0.00     0.016 C 
ATOM     27  C   UNL     1      69.157  39.358   7.630  1.00  0.00     0.063 C 
ATOM     28  C   UNL     1      71.680  39.533   7.684  1.00  0.00     0.033 C 
ATOM     29  C   UNL     1      70.451  38.803   8.240  1.00  0.00     0.118 C 
BRANCH  29  30
ATOM     30  O   UNL     1      70.418  38.924   9.638  1.00  0.00    -0.393 OA
ATOM     31  H   UNL     1      71.077  38.276   9.996  1.00  0.00     0.210 HD
ENDBRANCH  29  30
ENDBRANCH   1  11
TORSDOF 6
ENDMDL
MODEL 6
REMARK VINA RESULT:    -6.410      3.032      5.303
REMARK INTER + INTRA:          -9.193
REMARK INTER:                  -7.915
REMARK INTRA:                  -1.277
REMARK UNBOUND:                -0.722
REMARK SMILES CC[C@H](C=C[C@@H](C)[C@@H]1CC[C@@H]2[C@@H]3CC=C4C[C@H](O)CC[C@]4(C)[C@H]3CC[C@]21C)C(C)C
REMARK SMILES IDX 6 1 7 2 5 3 4 4 3 5 2 6 1 7 28 8 29 9 30 10 8 11 9 12 26 13
REMARK SMILES IDX 10 14 11 15 25 16 27 17 12 18 24 19 23 20 13 21 21 22 14 23
REMARK SMILES IDX 15 24 20 25 22 26 16 27 19 28 17 29 18 30
REMARK H PARENT 18 31
REMARK Flexibility Score: inf
ROOT
ATOM      1  C   UNL     1      71.834  50.103   7.526  1.00  0.00     0.012 C 
ATOM      2  C   UNL     1      72.543  51.445   7.788  1.00  0.00     0.012 C 
ENDROOT
BRANCH   1   3
ATOM      3  C   UNL     1      70.405  50.212   8.024  1.00  0.00    -0.028 C 
ATOM      4  C   UNL     1      69.839  49.270   8.798  1.00  0.00    -0.027 C 
BRANCH   4   5
ATOM      5  C   UNL     1      68.418  49.420   9.308  1.00  0.00     0.014 C 
BRANCH   5   6
ATOM      6  C   UNL     1      67.852  50.815   8.940  1.00  0.00     0.004 C 
ATOM      7  C   UNL     1      67.094  51.456  10.104  1.00  0.00     0.004 C 
ENDBRANCH   5   6
BRANCH   5   8
ATOM      8  C   UNL     1      67.531  48.243   8.792  1.00  0.00    -0.011 C 
ATOM      9  C   UNL     1      67.799  46.916   9.521  1.00  0.00     0.008 C 
ATOM     10  C   UNL     1      67.645  48.056   7.271  1.00  0.00     0.008 C 
ENDBRANCH   5   8
ENDBRANCH   4   5
ENDBRANCH   1   3
BRANCH   1  11
ATOM     11  C   UNL     1      72.512  48.825   8.135  1.00  0.00     0.002 C 
ATOM     12  C   UNL     1      73.962  48.999   8.652  1.00  0.00     0.005 C 
ATOM     13  C   UNL     1      72.534  47.472   7.356  1.00  0.00    -0.026 C 
ATOM     14  C   UNL     1      74.582  47.587   8.674  1.00  0.00     0.005 C 
ATOM     15  C   UNL     1      73.417  46.661   8.326  1.00  0.00    -0.001 C 
ATOM     16  C   UNL     1      71.137  46.777   7.227  1.00  0.00     0.007 C 
ATOM     17  C   UNL     1      73.211  47.635   5.956  1.00  0.00     0.012 C 
ATOM     18  C   UNL     1      73.664  45.168   7.959  1.00  0.00     0.000 C 
ATOM     19  C   UNL     1      71.172  45.229   7.424  1.00  0.00     0.005 C 
ATOM     20  C   UNL     1      72.542  44.603   7.041  1.00  0.00     0.003 C 
ATOM     21  C   UNL     1      75.033  44.820   7.374  1.00  0.00     0.031 C 
ATOM     22  C   UNL     1      72.590  43.031   6.999  1.00  0.00    -0.008 C 
ATOM     23  C   UNL     1      75.125  43.341   7.093  1.00  0.00    -0.027 C 
ATOM     24  C   UNL     1      74.050  42.544   6.864  1.00  0.00    -0.065 C 
ATOM     25  C   UNL     1      71.801  42.530   5.748  1.00  0.00     0.014 C 
ATOM     26  C   UNL     1      71.956  42.420   8.280  1.00  0.00     0.016 C 
ATOM     27  C   UNL     1      74.286  41.084   6.528  1.00  0.00     0.063 C 
ATOM     28  C   UNL     1      71.996  41.031   5.455  1.00  0.00     0.033 C 
ATOM     29  C   UNL     1      73.477  40.669   5.291  1.00  0.00     0.118 C 
BRANCH  29  30
ATOM     30  O   UNL     1      73.994  41.289   4.144  1.00  0.00    -0.393 OA
ATOM     31  H   UNL     1      74.939  41.000   4.063  1.00  0.00     0.210 HD
ENDBRANCH  29  30
ENDBRANCH   1  11
TORSDOF 6
ENDMDL
MODEL 7
REMARK VINA RESULT:    -6.299      4.132      7.674
REMARK INTER + INTRA:          -9.047
REMARK INTER:                  -7.644
REMARK INTRA:                  -1.403
REMARK UNBOUND:                -0.722
REMARK SMILES CC[C@H](C=C[C@@H](C)[C@@H]1CC[C@@H]2[C@@H]3CC=C4C[C@H](O)CC[C@]4(C)[C@H]3CC[C@]21C)C(C)C
REMARK SMILES IDX 6 1 7 2 5 3 4 4 3 5 2 6 1 7 28 8 29 9 30 10 8 11 9 12 26 13
REMARK SMILES IDX 10 14 11 15 25 16 27 17 12 18 24 19 23 20 13 21 21 22 14 23
REMARK SMILES IDX 15 24 20 25 22 26 16 27 19 28 17 29 18 30
REMARK H PARENT 18 31
REMARK Flexibility Score: inf
ROOT
ATOM      1  C   UNL     1      72.897  46.522   5.565  1.00  0.00     0.012 C 
ATOM      2  C   UNL     1      74.301  46.767   4.983  1.00  0.00     0.012 C 
ENDROOT
BRANCH   1   3
ATOM      3  C   UNL     1      72.233  47.867   5.793  1.00  0.00    -0.028 C 
ATOM      4  C   UNL     1      71.437  48.106   6.849  1.00  0.00    -0.027 C 
BRANCH   4   5
ATOM      5  C   UNL     1      70.811  49.471   7.070  1.00  0.00     0.014 C 
BRANCH   5   6
ATOM      6  C   UNL     1      69.292  49.336   7.342  1.00  0.00     0.004 C 
ATOM      7  C   UNL     1      68.841  47.874   7.386  1.00  0.00     0.004 C 
ENDBRANCH   5   6
BRANCH   5   8
ATOM      8  C   UNL     1      71.570  50.238   8.199  1.00  0.00    -0.011 C 
ATOM      9  C   UNL     1      73.070  50.413   7.911  1.00  0.00     0.008 C 
ATOM     10  C   UNL     1      71.357  49.595   9.579  1.00  0.00     0.008 C 
ENDBRANCH   5   8
ENDBRANCH   4   5
ENDBRANCH   1   3
BRANCH   1  11
ATOM     11  C   UNL     1      72.825  45.665   6.879  1.00  0.00     0.002 C 
ATOM     12  C   UNL     1      74.168  45.428   7.615  1.00  0.00     0.005 C 
ATOM     13  C   UNL     1      72.115  44.275   6.899  1.00  0.00    -0.026 C 
ATOM     14  C   UNL     1      73.959  44.175   8.492  1.00  0.00     0.005 C 
ATOM     15  C   UNL     1      72.473  43.855   8.340  1.00  0.00    -0.001 C 
ATOM     16  C   UNL     1      70.558  44.342   6.754  1.00  0.00     0.007 C 
ATOM     17  C   UNL     1      72.737  43.305   5.843  1.00  0.00     0.012 C 
ATOM     18  C   UNL     1      71.893  42.496   8.832  1.00  0.00     0.000 C 
ATOM     19  C   UNL     1      69.786  43.354   7.683  1.00  0.00     0.005 C 
ATOM     20  C   UNL     1      70.616  42.090   8.043  1.00  0.00     0.003 C 
ATOM     21  C   UNL     1      72.862  41.315   8.889  1.00  0.00     0.031 C 
ATOM     22  C   UNL     1      69.834  40.946   8.789  1.00  0.00    -0.008 C 
ATOM     23  C   UNL     1      72.160  40.083   9.403  1.00  0.00    -0.027 C 
ATOM     24  C   UNL     1      70.821  39.878   9.311  1.00  0.00    -0.065 C 
ATOM     25  C   UNL     1      68.864  40.251   7.783  1.00  0.00     0.014 C 
ATOM     26  C   UNL     1      69.012  41.518   9.978  1.00  0.00     0.016 C 
ATOM     27  C   UNL     1      70.250  38.564   9.810  1.00  0.00     0.063 C 
ATOM     28  C   UNL     1      68.239  38.953   8.325  1.00  0.00     0.033 C 
ATOM     29  C   UNL     1      69.308  37.946   8.769  1.00  0.00     0.118 C 
BRANCH  29  30
ATOM     30  O   UNL     1      70.039  37.507   7.654  1.00  0.00    -0.393 OA
ATOM     31  H   UNL     1      69.465  36.859   7.172  1.00  0.00     0.210 HD
ENDBRANCH  29  30
ENDBRANCH   1  11
TORSDOF 6
ENDMDL
MODEL 8
REMARK VINA RESULT:    -5.962      2.581      8.470
REMARK INTER + INTRA:          -8.601
REMARK INTER:                  -7.753
REMARK INTRA:                  -0.848
REMARK UNBOUND:                -0.722
REMARK SMILES CC[C@H](C=C[C@@H](C)[C@@H]1CC[C@@H]2[C@@H]3CC=C4C[C@H](O)CC[C@]4(C)[C@H]3CC[C@]21C)C(C)C
REMARK SMILES IDX 6 1 7 2 5 3 4 4 3 5 2 6 1 7 28 8 29 9 30 10 8 11 9 12 26 13
REMARK SMILES IDX 10 14 11 15 25 16 27 17 12 18 24 19 23 20 13 21 21 22 14 23
REMARK SMILES IDX 15 24 20 25 22 26 16 27 19 28 17 29 18 30
REMARK H PARENT 18 31
REMARK Flexibility Score: inf
ROOT
ATOM      1  C   UNL     1      74.709  45.849   6.739  1.00  0.00     0.012 C 
ATOM      2  C   UNL     1      74.202  45.972   5.290  1.00  0.00     0.012 C 
ENDROOT
BRANCH   1   3
ATOM      3  C   UNL     1      75.063  44.397   6.999  1.00  0.00    -0.028 C 
ATOM      4  C   UNL     1      74.446  43.382   6.371  1.00  0.00    -0.027 C 
BRANCH   4   5
ATOM      5  C   UNL     1      74.843  41.940   6.627  1.00  0.00     0.014 C 
BRANCH   5   6
ATOM      6  C   UNL     1      74.581  41.558   8.106  1.00  0.00     0.004 C 
ATOM      7  C   UNL     1      73.198  42.006   8.582  1.00  0.00     0.004 C 
ENDBRANCH   5   6
BRANCH   5   8
ATOM      8  C   UNL     1      74.126  40.993   5.613  1.00  0.00    -0.011 C 
ATOM      9  C   UNL     1      74.076  39.529   6.081  1.00  0.00     0.008 C 
ATOM     10  C   UNL     1      74.732  41.089   4.204  1.00  0.00     0.008 C 
ENDBRANCH   5   8
ENDBRANCH   4   5
ENDBRANCH   1   3
BRANCH   1  11
ATOM     11  C   UNL     1      73.745  46.369   7.863  1.00  0.00     0.002 C 
ATOM     12  C   UNL     1      73.872  45.681   9.245  1.00  0.00     0.005 C 
ATOM     13  C   UNL     1      72.207  46.482   7.621  1.00  0.00    -0.026 C 
ATOM     14  C   UNL     1      72.536  45.935   9.974  1.00  0.00     0.005 C 
ATOM     15  C   UNL     1      71.778  46.883   9.048  1.00  0.00    -0.001 C 
ATOM     16  C   UNL     1      71.790  47.612   6.621  1.00  0.00     0.007 C 
ATOM     17  C   UNL     1      71.597  45.105   7.200  1.00  0.00     0.012 C 
ATOM     18  C   UNL     1      70.263  47.172   9.263  1.00  0.00     0.000 C 
ATOM     19  C   UNL     1      70.519  48.410   7.050  1.00  0.00     0.005 C 
ATOM     20  C   UNL     1      69.555  47.576   7.938  1.00  0.00     0.003 C 
ATOM     21  C   UNL     1      69.451  46.088   9.972  1.00  0.00     0.031 C 
ATOM     22  C   UNL     1      68.153  48.229   8.228  1.00  0.00    -0.008 C 
ATOM     23  C   UNL     1      68.015  46.521  10.125  1.00  0.00    -0.027 C 
ATOM     24  C   UNL     1      67.405  47.428   9.318  1.00  0.00    -0.065 C 
ATOM     25  C   UNL     1      67.291  48.184   6.927  1.00  0.00     0.014 C 
ATOM     26  C   UNL     1      68.310  49.705   8.686  1.00  0.00     0.016 C 
ATOM     27  C   UNL     1      65.935  47.727   9.540  1.00  0.00     0.063 C 
ATOM     28  C   UNL     1      65.814  48.554   7.152  1.00  0.00     0.033 C 
ATOM     29  C   UNL     1      65.158  47.666   8.218  1.00  0.00     0.118 C 
BRANCH  29  30
ATOM     30  O   UNL     1      65.091  46.342   7.757  1.00  0.00    -0.393 OA
ATOM     31  H   UNL     1      64.132  46.090   7.753  1.00  0.00     0.210 HD
ENDBRANCH  29  30
ENDBRANCH   1  11
TORSDOF 6
ENDMDL
MODEL 9
REMARK VINA RESULT:    -5.908      4.174      7.779
REMARK INTER + INTRA:          -8.529
REMARK INTER:                  -7.429
REMARK INTRA:                  -1.100
REMARK UNBOUND:                -0.722
REMARK SMILES CC[C@H](C=C[C@@H](C)[C@@H]1CC[C@@H]2[C@@H]3CC=C4C[C@H](O)CC[C@]4(C)[C@H]3CC[C@]21C)C(C)C
REMARK SMILES IDX 6 1 7 2 5 3 4 4 3 5 2 6 1 7 28 8 29 9 30 10 8 11 9 12 26 13
REMARK SMILES IDX 10 14 11 15 25 16 27 17 12 18 24 19 23 20 13 21 21 22 14 23
REMARK SMILES IDX 15 24 20 25 22 26 16 27 19 28 17 29 18 30
REMARK H PARENT 18 31
REMARK Flexibility Score: inf
ROOT
ATOM      1  C   UNL     1      72.850  46.872   5.675  1.00  0.00     0.012 C 
ATOM      2  C   UNL     1      73.809  47.414   4.599  1.00  0.00     0.012 C 
ENDROOT
BRANCH   1   3
ATOM      3  C   UNL     1      72.725  47.914   6.771  1.00  0.00    -0.028 C 
ATOM      4  C   UNL     1      71.542  48.253   7.310  1.00  0.00    -0.027 C 
BRANCH   4   5
ATOM      5  C   UNL     1      71.450  49.275   8.428  1.00  0.00     0.014 C 
BRANCH   5   6
ATOM      6  C   UNL     1      71.441  50.714   7.851  1.00  0.00     0.004 C 
ATOM      7  C   UNL     1      72.848  51.207   7.508  1.00  0.00     0.004 C 
ENDBRANCH   5   6
BRANCH   5   8
ATOM      8  C   UNL     1      70.218  48.972   9.338  1.00  0.00    -0.011 C 
ATOM      9  C   UNL     1      70.217  47.541   9.902  1.00  0.00     0.008 C 
ATOM     10  C   UNL     1      68.887  49.273   8.629  1.00  0.00     0.008 C 
ENDBRANCH   5   8
ENDBRANCH   4   5
ENDBRANCH   1   3
BRANCH   1  11
ATOM     11  C   UNL     1      73.218  45.482   6.303  1.00  0.00     0.002 C 
ATOM     12  C   UNL     1      74.390  44.719   5.637  1.00  0.00     0.005 C 
ATOM     13  C   UNL     1      72.128  44.391   6.546  1.00  0.00    -0.026 C 
ATOM     14  C   UNL     1      74.211  43.236   6.024  1.00  0.00     0.005 C 
ATOM     15  C   UNL     1      73.049  43.246   7.016  1.00  0.00    -0.001 C 
ATOM     16  C   UNL     1      71.111  44.735   7.686  1.00  0.00     0.007 C 
ATOM     17  C   UNL     1      71.384  44.028   5.220  1.00  0.00     0.012 C 
ATOM     18  C   UNL     1      72.349  41.921   7.442  1.00  0.00     0.000 C 
ATOM     19  C   UNL     1      70.745  43.526   8.603  1.00  0.00     0.005 C 
ATOM     20  C   UNL     1      70.874  42.158   7.877  1.00  0.00     0.003 C 
ATOM     21  C   UNL     1      72.414  40.760   6.450  1.00  0.00     0.031 C 
ATOM     22  C   UNL     1      70.313  40.912   8.658  1.00  0.00    -0.008 C 
ATOM     23  C   UNL     1      71.714  39.548   7.013  1.00  0.00    -0.027 C 
ATOM     24  C   UNL     1      70.735  39.604   7.952  1.00  0.00    -0.065 C 
ATOM     25  C   UNL     1      68.754  40.972   8.661  1.00  0.00     0.014 C 
ATOM     26  C   UNL     1      70.826  40.897  10.125  1.00  0.00     0.016 C 
ATOM     27  C   UNL     1      70.067  38.313   8.384  1.00  0.00     0.063 C 
ATOM     28  C   UNL     1      68.087  39.680   9.165  1.00  0.00     0.033 C 
ATOM     29  C   UNL     1      68.539  38.453   8.363  1.00  0.00     0.118 C 
BRANCH  29  30
ATOM     30  O   UNL     1      68.081  38.555   7.040  1.00  0.00    -0.393 OA
ATOM     31  H   UNL     1      67.092  38.485   7.074  1.00  0.00     0.210 HD
ENDBRANCH  29  30
ENDBRANCH   1  11
TORSDOF 6
ENDMDL
