MODEL 1
REMARK VINA RESULT:    -2.960      0.000      0.000
REMARK INTER + INTRA:          -4.057
REMARK INTER:                  -4.517
REMARK INTRA:                   0.460
REMARK UNBOUND:                 0.460
REMARK SMILES CC1=CCC[C@@H](C)C(=O)C[C@H](C(C)C)C(=O)C1
REMARK SMILES IDX 8 1 9 2 6 3 7 4 5 5 4 6 3 7 2 8 1 9 10 11 11 12 15 13 16 14
REMARK SMILES IDX 17 15 12 17 13 18 14 19
REMARK H PARENT
REMARK Flexibility Score: 70.00
ROOT
ATOM      1  C   UNL     1      25.790  -9.751   6.924  1.00  0.00     0.136 C 
ATOM      2  O   UNL     1      24.971  -8.843   6.894  1.00  0.00    -0.299 OA
ENDROOT
BRANCH   1   3
ATOM      3  C   UNL     1      26.032 -10.490   8.254  1.00  0.00     0.053 C 
ATOM      4  C   UNL     1      27.017  -9.670   9.097  1.00  0.00     0.016 C 
BRANCH   3   5
ATOM      5  C   UNL     1      26.550 -11.981   8.081  1.00  0.00     0.015 C 
BRANCH   5   6
ATOM      6  C   UNL     1      25.435 -13.082   7.955  1.00  0.00     0.028 C 
BRANCH   6   7
ATOM      7  C   UNL     1      23.971 -12.631   8.125  1.00  0.00    -0.028 C 
ATOM      8  C   UNL     1      23.198 -12.128   7.124  1.00  0.00    -0.070 CG0
ATOM      9  C   UNL     1      21.794 -11.667   7.401  1.00  0.00     0.039 C 
ATOM     10  G   UNL     1      23.712 -12.323   5.743  1.00  0.00     0.000 G0
ENDBRANCH   6   7
ENDBRANCH   5   6
ENDBRANCH   3   5
ENDBRANCH   1   3
BRANCH   1  11
ATOM     11  C   UNL     1      26.513 -10.131   5.619  1.00  0.00     0.087 C 
BRANCH  11  12
ATOM     12  C   UNL     1      25.905 -11.375   4.841  1.00  0.00     0.066 C 
BRANCH  12  13
ATOM     13  C   UNL     1      24.359 -11.346   4.853  1.00  0.00     0.140 C 
ATOM     14  O   UNL     1      23.704 -10.495   4.271  1.00  0.00    -0.299 OA
BRANCH  13  15
ATOM     15  C   UNL     1      23.709 -12.326   5.750  1.00  0.00     0.106 CG0
ATOM     16  G   UNL     1      23.191 -12.135   7.131  1.00  0.00     0.000 G0
ENDBRANCH  13  15
ENDBRANCH  12  13
BRANCH  12  17
ATOM     17  C   UNL     1      26.452 -11.532   3.376  1.00  0.00    -0.006 C 
ATOM     18  C   UNL     1      26.846 -10.161   2.789  1.00  0.00     0.008 C 
ATOM     19  C   UNL     1      25.464 -12.201   2.403  1.00  0.00     0.008 C 
ENDBRANCH  12  17
ENDBRANCH  11  12
ENDBRANCH   1  11
TORSDOF 1
ENDMDL
MODEL 2
REMARK VINA RESULT:    -0.270      1.782      4.154
REMARK INTER + INTRA:           0.047
REMARK INTER:                  -2.451
REMARK INTRA:                   2.498
REMARK UNBOUND:                 0.460
REMARK SMILES CC1=CCC[C@@H](C)C(=O)C[C@H](C(C)C)C(=O)C1
REMARK SMILES IDX 8 1 9 2 6 3 7 4 5 5 4 6 3 7 2 8 1 9 10 11 11 12 15 13 16 14
REMARK SMILES IDX 17 15 12 17 13 18 14 19
REMARK H PARENT
REMARK Flexibility Score: 70.00
ROOT
ATOM      1  C   UNL     1      25.686 -10.690   6.977  1.00  0.00     0.136 C 
ATOM      2  O   UNL     1      25.889 -11.872   7.214  1.00  0.00    -0.299 OA
ENDROOT
BRANCH   1   3
ATOM      3  C   UNL     1      26.812  -9.854   6.339  1.00  0.00     0.053 C 
ATOM      4  C   UNL     1      26.461  -8.368   6.487  1.00  0.00     0.016 C 
BRANCH   3   5
ATOM      5  C   UNL     1      27.104 -10.212   4.820  1.00  0.00     0.015 C 
BRANCH   5   6
ATOM      6  C   UNL     1      26.734 -11.675   4.379  1.00  0.00     0.028 C 
BRANCH   6   7
ATOM      7  C   UNL     1      25.828 -11.835   3.142  1.00  0.00    -0.028 C 
ATOM      8  C   UNL     1      24.469 -11.763   3.167  1.00  0.00    -0.070 CG0
ATOM      9  C   UNL     1      23.670 -11.984   1.914  1.00  0.00     0.039 C 
ATOM     10  G   UNL     1      23.870 -11.193   4.403  1.00  0.00     0.000 G0
ENDBRANCH   6   7
ENDBRANCH   5   6
ENDBRANCH   3   5
ENDBRANCH   1   3
BRANCH   1  11
ATOM     11  C   UNL     1      24.298 -10.107   7.296  1.00  0.00     0.087 C 
BRANCH  11  12
ATOM     12  C   UNL     1      23.063 -10.995   6.837  1.00  0.00     0.066 C 
BRANCH  12  13
ATOM     13  C   UNL     1      23.435 -11.901   5.642  1.00  0.00     0.140 C 
ATOM     14  O   UNL     1      23.504 -13.118   5.724  1.00  0.00    -0.299 OA
BRANCH  13  15
ATOM     15  C   UNL     1      23.865 -11.195   4.415  1.00  0.00     0.106 CG0
ATOM     16  G   UNL     1      24.471 -11.750   3.176  1.00  0.00     0.000 G0
ENDBRANCH  13  15
ENDBRANCH  12  13
BRANCH  12  17
ATOM     17  C   UNL     1      22.423 -11.835   8.001  1.00  0.00    -0.006 C 
ATOM     18  C   UNL     1      23.230 -13.124   8.254  1.00  0.00     0.008 C 
ATOM     19  C   UNL     1      20.955 -12.232   7.757  1.00  0.00     0.008 C 
ENDBRANCH  12  17
ENDBRANCH  11  12
ENDBRANCH   1  11
TORSDOF 1
ENDMDL
