MODEL 1
REMARK VINA RESULT:    -2.808      0.000      0.000
REMARK INTER + INTRA:          -3.760
REMARK INTER:                  -3.547
REMARK INTRA:                  -0.213
REMARK UNBOUND:                -0.213
REMARK SMILES CSCC[C@@H]([NH3+])C(=O)[O-]
REMARK SMILES IDX 4 1 5 2 6 3 7 7 8 8 9 9 3 10 2 11 1 12
REMARK H PARENT 6 4 6 5 6 6
REMARK Flexibility Score: inf
ROOT
ATOM      1  C   UNL     1      31.055   5.407   0.577  1.00  0.00     0.082 C 
ENDROOT
BRANCH   1   2
ATOM      2  C   UNL     1      31.815   6.360   1.526  1.00  0.00     0.228 C 
BRANCH   2   3
ATOM      3  N   UNL     1      33.082   5.775   1.987  1.00  0.00    -0.350 N 
ATOM      4  H   UNL     1      33.089   5.708   3.030  1.00  0.00     0.345 HD
ATOM      5  H   UNL     1      33.222   4.822   1.577  1.00  0.00     0.345 HD
ATOM      6  H   UNL     1      33.881   6.389   1.705  1.00  0.00     0.345 HD
ENDBRANCH   2   3
BRANCH   2   7
ATOM      7  C   UNL     1      32.077   7.665   0.822  1.00  0.00     0.099 C 
ATOM      8  O   UNL     1      31.523   8.723   1.222  1.00  0.00    -0.544 OA
ATOM      9  O   UNL     1      32.915   7.707  -0.287  1.00  0.00    -0.544 OA
ENDBRANCH   2   7
ENDBRANCH   1   2
BRANCH   1  10
ATOM     10  C   UNL     1      29.533   5.562   0.680  1.00  0.00     0.076 C 
BRANCH  10  11
ATOM     11  S   UNL     1      29.063   6.163   2.341  1.00  0.00    -0.165 SA
ATOM     12  C   UNL     1      28.149   7.630   1.761  1.00  0.00     0.085 C 
ENDBRANCH  10  11
ENDBRANCH   1  10
TORSDOF 5
ENDMDL
MODEL 2
REMARK VINA RESULT:    -2.794      0.865      1.381
REMARK INTER + INTRA:          -3.742
REMARK INTER:                  -3.586
REMARK INTRA:                  -0.156
REMARK UNBOUND:                -0.213
REMARK SMILES CSCC[C@@H]([NH3+])C(=O)[O-]
REMARK SMILES IDX 4 1 5 2 6 3 7 7 8 8 9 9 3 10 2 11 1 12
REMARK H PARENT 6 4 6 5 6 6
REMARK Flexibility Score: inf
ROOT
ATOM      1  C   UNL     1      31.095   5.389   0.420  1.00  0.00     0.082 C 
ENDROOT
BRANCH   1   2
ATOM      2  C   UNL     1      32.245   6.149   1.117  1.00  0.00     0.228 C 
BRANCH   2   3
ATOM      3  N   UNL     1      33.531   5.455   0.960  1.00  0.00    -0.350 N 
ATOM      4  H   UNL     1      33.525   4.560   1.499  1.00  0.00     0.345 HD
ATOM      5  H   UNL     1      33.722   5.252  -0.049  1.00  0.00     0.345 HD
ATOM      6  H   UNL     1      34.304   6.048   1.342  1.00  0.00     0.345 HD
ENDBRANCH   2   3
BRANCH   2   7
ATOM      7  C   UNL     1      32.340   7.541   0.555  1.00  0.00     0.099 C 
ATOM      8  O   UNL     1      33.084   7.776  -0.434  1.00  0.00    -0.544 OA
ATOM      9  O   UNL     1      31.622   8.581   1.135  1.00  0.00    -0.544 OA
ENDBRANCH   2   7
ENDBRANCH   1   2
BRANCH   1  10
ATOM     10  C   UNL     1      29.855   5.248   1.311  1.00  0.00     0.076 C 
BRANCH  10  11
ATOM     11  S   UNL     1      28.387   5.952   0.479  1.00  0.00    -0.165 SA
ATOM     12  C   UNL     1      28.315   7.477   1.477  1.00  0.00     0.085 C 
ENDBRANCH  10  11
ENDBRANCH   1  10
TORSDOF 5
ENDMDL
MODEL 3
REMARK VINA RESULT:    -2.650      0.617      1.242
REMARK INTER + INTRA:          -3.560
REMARK INTER:                  -3.333
REMARK INTRA:                  -0.227
REMARK UNBOUND:                -0.213
REMARK SMILES CSCC[C@@H]([NH3+])C(=O)[O-]
REMARK SMILES IDX 4 1 5 2 6 3 7 7 8 8 9 9 3 10 2 11 1 12
REMARK H PARENT 6 4 6 5 6 6
REMARK Flexibility Score: inf
ROOT
ATOM      1  C   UNL     1      31.154   5.315   0.413  1.00  0.00     0.082 C 
ENDROOT
BRANCH   1   2
ATOM      2  C   UNL     1      32.156   6.174   1.217  1.00  0.00     0.228 C 
BRANCH   2   3
ATOM      3  N   UNL     1      33.489   5.558   1.262  1.00  0.00    -0.350 N 
ATOM      4  H   UNL     1      33.948   5.625   0.326  1.00  0.00     0.345 HD
ATOM      5  H   UNL     1      34.090   6.027   1.979  1.00  0.00     0.345 HD
ATOM      6  H   UNL     1      33.404   4.542   1.499  1.00  0.00     0.345 HD
ENDBRANCH   2   3
BRANCH   2   7
ATOM      7  C   UNL     1      32.243   7.547   0.606  1.00  0.00     0.099 C 
ATOM      8  O   UNL     1      32.949   7.740  -0.419  1.00  0.00    -0.544 OA
ATOM      9  O   UNL     1      31.560   8.613   1.179  1.00  0.00    -0.544 OA
ENDBRANCH   2   7
ENDBRANCH   1   2
BRANCH   1  10
ATOM     10  C   UNL     1      29.695   5.619   0.771  1.00  0.00     0.076 C 
BRANCH  10  11
ATOM     11  S   UNL     1      29.444   5.506   2.579  1.00  0.00    -0.165 SA
ATOM     12  C   UNL     1      28.750   7.179   2.781  1.00  0.00     0.085 C 
ENDBRANCH  10  11
ENDBRANCH   1  10
TORSDOF 5
ENDMDL
MODEL 4
REMARK VINA RESULT:    -2.606     13.801     14.656
REMARK INTER + INTRA:          -3.505
REMARK INTER:                  -3.368
REMARK INTRA:                  -0.137
REMARK UNBOUND:                -0.213
REMARK SMILES CSCC[C@@H]([NH3+])C(=O)[O-]
REMARK SMILES IDX 4 1 5 2 6 3 7 7 8 8 9 9 3 10 2 11 1 12
REMARK H PARENT 6 4 6 5 6 6
REMARK Flexibility Score: inf
ROOT
ATOM      1  C   UNL     1      43.024   9.079   9.171  1.00  0.00     0.082 C 
ENDROOT
BRANCH   1   2
ATOM      2  C   UNL     1      42.855   7.702   8.491  1.00  0.00     0.228 C 
BRANCH   2   3
ATOM      3  N   UNL     1      42.886   7.810   7.027  1.00  0.00    -0.350 N 
ATOM      4  H   UNL     1      43.867   7.720   6.679  1.00  0.00     0.345 HD
ATOM      5  H   UNL     1      42.292   7.069   6.587  1.00  0.00     0.345 HD
ATOM      6  H   UNL     1      42.532   8.750   6.732  1.00  0.00     0.345 HD
ENDBRANCH   2   3
BRANCH   2   7
ATOM      7  C   UNL     1      43.943   6.774   8.962  1.00  0.00     0.099 C 
ATOM      8  O   UNL     1      44.612   6.107   8.128  1.00  0.00    -0.544 OA
ATOM      9  O   UNL     1      44.203   6.631  10.320  1.00  0.00    -0.544 OA
ENDBRANCH   2   7
ENDBRANCH   1   2
BRANCH   1  10
ATOM     10  C   UNL     1      43.517  10.159   8.203  1.00  0.00     0.076 C 
BRANCH  10  11
ATOM     11  S   UNL     1      42.449  11.640   8.299  1.00  0.00    -0.165 SA
ATOM     12  C   UNL     1      41.275  11.113   7.008  1.00  0.00     0.085 C 
ENDBRANCH  10  11
ENDBRANCH   1  10
TORSDOF 5
ENDMDL
MODEL 5
REMARK VINA RESULT:    -2.555      1.617      1.932
REMARK INTER + INTRA:          -3.440
REMARK INTER:                  -3.399
REMARK INTRA:                  -0.041
REMARK UNBOUND:                -0.213
REMARK SMILES CSCC[C@@H]([NH3+])C(=O)[O-]
REMARK SMILES IDX 4 1 5 2 6 3 7 7 8 8 9 9 3 10 2 11 1 12
REMARK H PARENT 6 4 6 5 6 6
REMARK Flexibility Score: inf
ROOT
ATOM      1  C   UNL     1      30.651   6.887   1.107  1.00  0.00     0.082 C 
ENDROOT
BRANCH   1   2
ATOM      2  C   UNL     1      32.130   7.334   1.154  1.00  0.00     0.228 C 
BRANCH   2   3
ATOM      3  N   UNL     1      32.851   6.712   2.272  1.00  0.00    -0.350 N 
ATOM      4  H   UNL     1      33.761   6.320   1.940  1.00  0.00     0.345 HD
ATOM      5  H   UNL     1      33.030   7.408   3.033  1.00  0.00     0.345 HD
ATOM      6  H   UNL     1      32.290   5.918   2.661  1.00  0.00     0.345 HD
ENDBRANCH   2   3
BRANCH   2   7
ATOM      7  C   UNL     1      32.800   6.988  -0.148  1.00  0.00     0.099 C 
ATOM      8  O   UNL     1      32.872   5.788  -0.525  1.00  0.00    -0.544 OA
ATOM      9  O   UNL     1      33.362   7.988  -0.934  1.00  0.00    -0.544 OA
ENDBRANCH   2   7
ENDBRANCH   1   2
BRANCH   1  10
ATOM     10  C   UNL     1      29.783   7.611   2.142  1.00  0.00     0.076 C 
BRANCH  10  11
ATOM     11  S   UNL     1      28.013   7.466   1.705  1.00  0.00    -0.165 SA
ATOM     12  C   UNL     1      27.386   8.418   3.127  1.00  0.00     0.085 C 
ENDBRANCH  10  11
ENDBRANCH   1  10
TORSDOF 5
ENDMDL
MODEL 6
REMARK VINA RESULT:    -2.539      1.809      2.069
REMARK INTER + INTRA:          -3.420
REMARK INTER:                  -3.225
REMARK INTRA:                  -0.195
REMARK UNBOUND:                -0.213
REMARK SMILES CSCC[C@@H]([NH3+])C(=O)[O-]
REMARK SMILES IDX 4 1 5 2 6 3 7 7 8 8 9 9 3 10 2 11 1 12
REMARK H PARENT 6 4 6 5 6 6
REMARK Flexibility Score: inf
ROOT
ATOM      1  C   UNL     1      31.905   6.441   2.898  1.00  0.00     0.082 C 
ENDROOT
BRANCH   1   2
ATOM      2  C   UNL     1      31.790   6.323   1.361  1.00  0.00     0.228 C 
BRANCH   2   3
ATOM      3  N   UNL     1      30.450   5.884   0.947  1.00  0.00    -0.350 N 
ATOM      4  H   UNL     1      29.761   6.659   1.079  1.00  0.00     0.345 HD
ATOM      5  H   UNL     1      30.451   5.586  -0.056  1.00  0.00     0.345 HD
ATOM      6  H   UNL     1      30.139   5.081   1.542  1.00  0.00     0.345 HD
ENDBRANCH   2   3
BRANCH   2   7
ATOM      7  C   UNL     1      32.116   7.650   0.730  1.00  0.00     0.099 C 
ATOM      8  O   UNL     1      31.579   8.705   1.161  1.00  0.00    -0.544 OA
ATOM      9  O   UNL     1      32.995   7.718  -0.344  1.00  0.00    -0.544 OA
ENDBRANCH   2   7
ENDBRANCH   1   2
BRANCH   1  10
ATOM     10  C   UNL     1      30.599   6.084   3.617  1.00  0.00     0.076 C 
BRANCH  10  11
ATOM     11  S   UNL     1      30.114   7.424   4.763  1.00  0.00    -0.165 SA
ATOM     12  C   UNL     1      29.130   8.365   3.550  1.00  0.00     0.085 C 
ENDBRANCH  10  11
ENDBRANCH   1  10
TORSDOF 5
ENDMDL
MODEL 7
REMARK VINA RESULT:    -2.530      3.686      4.676
REMARK INTER + INTRA:          -3.409
REMARK INTER:                  -3.251
REMARK INTRA:                  -0.157
REMARK UNBOUND:                -0.213
REMARK SMILES CSCC[C@@H]([NH3+])C(=O)[O-]
REMARK SMILES IDX 4 1 5 2 6 3 7 7 8 8 9 9 3 10 2 11 1 12
REMARK H PARENT 6 4 6 5 6 6
REMARK Flexibility Score: inf
ROOT
ATOM      1  C   UNL     1      33.670   5.224  -0.735  1.00  0.00     0.082 C 
ENDROOT
BRANCH   1   2
ATOM      2  C   UNL     1      32.753   5.889   0.315  1.00  0.00     0.228 C 
BRANCH   2   3
ATOM      3  N   UNL     1      33.217   5.632   1.685  1.00  0.00    -0.350 N 
ATOM      4  H   UNL     1      33.026   4.640   1.949  1.00  0.00     0.345 HD
ATOM      5  H   UNL     1      34.242   5.824   1.772  1.00  0.00     0.345 HD
ATOM      6  H   UNL     1      32.698   6.244   2.357  1.00  0.00     0.345 HD
ENDBRANCH   2   3
BRANCH   2   7
ATOM      7  C   UNL     1      32.692   7.371   0.061  1.00  0.00     0.099 C 
ATOM      8  O   UNL     1      33.284   7.868  -0.934  1.00  0.00    -0.544 OA
ATOM      9  O   UNL     1      32.000   8.204   0.932  1.00  0.00    -0.544 OA
ENDBRANCH   2   7
ENDBRANCH   1   2
BRANCH   1  10
ATOM     10  C   UNL     1      34.833   4.452  -0.100  1.00  0.00     0.076 C 
BRANCH  10  11
ATOM     11  S   UNL     1      36.396   4.815  -0.977  1.00  0.00    -0.165 SA
ATOM     12  C   UNL     1      35.629   5.686  -2.382  1.00  0.00     0.085 C 
ENDBRANCH  10  11
ENDBRANCH   1  10
TORSDOF 5
ENDMDL
MODEL 8
REMARK VINA RESULT:    -2.522      2.398      3.522
REMARK INTER + INTRA:          -3.398
REMARK INTER:                  -3.167
REMARK INTRA:                  -0.231
REMARK UNBOUND:                -0.213
REMARK SMILES CSCC[C@@H]([NH3+])C(=O)[O-]
REMARK SMILES IDX 4 1 5 2 6 3 7 7 8 8 9 9 3 10 2 11 1 12
REMARK H PARENT 6 4 6 5 6 6
REMARK Flexibility Score: inf
ROOT
ATOM      1  C   UNL     1      31.416   5.268   0.830  1.00  0.00     0.082 C 
ENDROOT
BRANCH   1   2
ATOM      2  C   UNL     1      31.912   6.407   1.748  1.00  0.00     0.228 C 
BRANCH   2   3
ATOM      3  N   UNL     1      33.190   6.071   2.391  1.00  0.00    -0.350 N 
ATOM      4  H   UNL     1      33.275   5.035   2.504  1.00  0.00     0.345 HD
ATOM      5  H   UNL     1      33.995   6.427   1.826  1.00  0.00     0.345 HD
ATOM      6  H   UNL     1      33.229   6.496   3.347  1.00  0.00     0.345 HD
ENDBRANCH   2   3
BRANCH   2   7
ATOM      7  C   UNL     1      32.056   7.671   0.945  1.00  0.00     0.099 C 
ATOM      8  O   UNL     1      32.812   7.700  -0.062  1.00  0.00    -0.544 OA
ATOM      9  O   UNL     1      31.372   8.822   1.321  1.00  0.00    -0.544 OA
ENDBRANCH   2   7
ENDBRANCH   1   2
BRANCH   1  10
ATOM     10  C   UNL     1      32.503   4.225   0.543  1.00  0.00     0.076 C 
BRANCH  10  11
ATOM     11  S   UNL     1      32.980   4.268  -1.222  1.00  0.00    -0.165 SA
ATOM     12  C   UNL     1      34.701   4.799  -0.941  1.00  0.00     0.085 C 
ENDBRANCH  10  11
ENDBRANCH   1  10
TORSDOF 5
ENDMDL
MODEL 9
REMARK VINA RESULT:    -2.476     13.300     13.991
REMARK INTER + INTRA:          -3.340
REMARK INTER:                  -3.165
REMARK INTRA:                  -0.175
REMARK UNBOUND:                -0.213
REMARK SMILES CSCC[C@@H]([NH3+])C(=O)[O-]
REMARK SMILES IDX 4 1 5 2 6 3 7 7 8 8 9 9 3 10 2 11 1 12
REMARK H PARENT 6 4 6 5 6 6
REMARK Flexibility Score: inf
ROOT
ATOM      1  C   UNL     1      41.132   8.194   8.547  1.00  0.00     0.082 C 
ENDROOT
BRANCH   1   2
ATOM      2  C   UNL     1      42.395   7.328   8.342  1.00  0.00     0.228 C 
BRANCH   2   3
ATOM      3  N   UNL     1      43.106   7.685   7.107  1.00  0.00    -0.350 N 
ATOM      4  H   UNL     1      43.865   6.993   6.916  1.00  0.00     0.345 HD
ATOM      5  H   UNL     1      42.448   7.713   6.294  1.00  0.00     0.345 HD
ATOM      6  H   UNL     1      43.556   8.624   7.215  1.00  0.00     0.345 HD
ENDBRANCH   2   3
BRANCH   2   7
ATOM      7  C   UNL     1      43.309   7.485   9.527  1.00  0.00     0.099 C 
ATOM      8  O   UNL     1      43.247   8.521  10.242  1.00  0.00    -0.544 OA
ATOM      9  O   UNL     1      44.240   6.498   9.830  1.00  0.00    -0.544 OA
ENDBRANCH   2   7
ENDBRANCH   1   2
BRANCH   1  10
ATOM     10  C   UNL     1      41.010   9.315   7.508  1.00  0.00     0.076 C 
BRANCH  10  11
ATOM     11  S   UNL     1      41.511  10.916   8.234  1.00  0.00    -0.165 SA
ATOM     12  C   UNL     1      42.348  11.548   6.743  1.00  0.00     0.085 C 
ENDBRANCH  10  11
ENDBRANCH   1  10
TORSDOF 5
ENDMDL
