MODEL 1
REMARK VINA RESULT:    -3.278      0.000      0.000
REMARK INTER + INTRA:          -3.374
REMARK INTER:                  -3.374
REMARK INTRA:                   0.000
REMARK UNBOUND:                 0.000
REMARK SMILES O=c1ccc2cc(O)ccc2o1
REMARK SMILES IDX 9 1 10 2 11 3 5 4 4 5 3 6 2 7 1 8 12 9 6 10 7 11 8 12
REMARK H PARENT 8 13
REMARK Flexibility Score: inf
ROOT
ATOM      1  C   UNL     1       7.241 -10.088  -4.429  1.00  0.00     0.050 A 
ATOM      2  C   UNL     1       6.399 -10.125  -3.313  1.00  0.00     0.052 A 
ATOM      3  C   UNL     1       6.887  -9.760  -2.054  1.00  0.00     0.138 A 
ATOM      4  C   UNL     1       8.233  -9.353  -1.915  1.00  0.00     0.021 A 
ATOM      5  C   UNL     1       8.692  -8.993  -0.645  1.00  0.00     0.019 A 
ATOM      6  C   UNL     1       7.817  -9.046   0.440  1.00  0.00     0.094 A 
ATOM      7  C   UNL     1       6.497  -9.459   0.226  1.00  0.00     0.336 A 
ATOM      8  O   UNL     1       5.692  -9.512   1.192  1.00  0.00    -0.246 OA
ATOM      9  O   UNL     1       6.085  -9.795  -0.993  1.00  0.00    -0.423 OA
ATOM     10  C   UNL     1       9.073  -9.317  -3.037  1.00  0.00     0.058 A 
ATOM     11  C   UNL     1       8.575  -9.685  -4.296  1.00  0.00     0.116 A 
ENDROOT
BRANCH  11  12
ATOM     12  O   UNL     1       9.398  -9.655  -5.420  1.00  0.00    -0.508 OA
ATOM     13  H   UNL     1       9.191 -10.209  -6.244  1.00  0.00     0.293 HD
ENDBRANCH  11  12
TORSDOF 1
ENDMDL
MODEL 2
REMARK VINA RESULT:    -3.268     20.395     21.099
REMARK INTER + INTRA:          -3.363
REMARK INTER:                  -3.363
REMARK INTRA:                   0.000
REMARK UNBOUND:                 0.000
REMARK SMILES O=c1ccc2cc(O)ccc2o1
REMARK SMILES IDX 9 1 10 2 11 3 5 4 4 5 3 6 2 7 1 8 12 9 6 10 7 11 8 12
REMARK H PARENT 8 13
REMARK Flexibility Score: inf
ROOT
ATOM      1  C   UNL     1       4.828   7.012   9.966  1.00  0.00     0.050 A 
ATOM      2  C   UNL     1       3.717   6.178  10.125  1.00  0.00     0.052 A 
ATOM      3  C   UNL     1       2.465   6.580   9.647  1.00  0.00     0.138 A 
ATOM      4  C   UNL     1       2.329   7.831   9.004  1.00  0.00     0.021 A 
ATOM      5  C   UNL     1       1.065   8.205   8.536  1.00  0.00     0.019 A 
ATOM      6  C   UNL     1      -0.015   7.342   8.717  1.00  0.00     0.094 A 
ATOM      7  C   UNL     1       0.195   6.118   9.363  1.00  0.00     0.336 A 
ATOM      8  O   UNL     1      -0.767   5.326   9.535  1.00  0.00    -0.246 OA
ATOM      9  O   UNL     1       1.407   5.786   9.798  1.00  0.00    -0.423 OA
ATOM     10  C   UNL     1       3.446   8.663   8.847  1.00  0.00     0.058 A 
ATOM     11  C   UNL     1       4.698   8.251   9.329  1.00  0.00     0.116 A 
ENDROOT
BRANCH  11  12
ATOM     12  O   UNL     1       5.817   9.067   9.181  1.00  0.00    -0.508 OA
ATOM     13  H   UNL     1       6.009   9.552   8.312  1.00  0.00     0.293 HD
ENDBRANCH  11  12
TORSDOF 1
ENDMDL
MODEL 3
REMARK VINA RESULT:    -3.233     23.460     24.371
REMARK INTER + INTRA:          -3.327
REMARK INTER:                  -3.327
REMARK INTRA:                   0.000
REMARK UNBOUND:                 0.000
REMARK SMILES O=c1ccc2cc(O)ccc2o1
REMARK SMILES IDX 9 1 10 2 11 3 5 4 4 5 3 6 2 7 1 8 12 9 6 10 7 11 8 12
REMARK H PARENT 8 13
REMARK Flexibility Score: inf
ROOT
ATOM      1  C   UNL     1      -9.422   6.096  -2.463  1.00  0.00     0.050 A 
ATOM      2  C   UNL     1      -9.181   5.909  -1.099  1.00  0.00     0.052 A 
ATOM      3  C   UNL     1      -9.410   6.953  -0.197  1.00  0.00     0.138 A 
ATOM      4  C   UNL     1      -9.885   8.197  -0.670  1.00  0.00     0.021 A 
ATOM      5  C   UNL     1     -10.106   9.222   0.255  1.00  0.00     0.019 A 
ATOM      6  C   UNL     1      -9.852   8.990   1.606  1.00  0.00     0.094 A 
ATOM      7  C   UNL     1      -9.383   7.733   2.003  1.00  0.00     0.336 A 
ATOM      8  O   UNL     1      -9.149   7.504   3.218  1.00  0.00    -0.246 OA
ATOM      9  O   UNL     1      -9.182   6.774   1.102  1.00  0.00    -0.423 OA
ATOM     10  C   UNL     1     -10.125   8.379  -2.040  1.00  0.00     0.058 A 
ATOM     11  C   UNL     1      -9.892   7.326  -2.937  1.00  0.00     0.116 A 
ENDROOT
BRANCH  11  12
ATOM     12  O   UNL     1     -10.125   7.493  -4.300  1.00  0.00    -0.508 OA
ATOM     13  H   UNL     1     -10.337   8.402  -4.695  1.00  0.00     0.293 HD
ENDBRANCH  11  12
TORSDOF 1
ENDMDL
MODEL 4
REMARK VINA RESULT:    -3.226     17.540     18.095
REMARK INTER + INTRA:          -3.320
REMARK INTER:                  -3.320
REMARK INTRA:                   0.000
REMARK UNBOUND:                 0.000
REMARK SMILES O=c1ccc2cc(O)ccc2o1
REMARK SMILES IDX 9 1 10 2 11 3 5 4 4 5 3 6 2 7 1 8 12 9 6 10 7 11 8 12
REMARK H PARENT 8 13
REMARK Flexibility Score: inf
ROOT
ATOM      1  C   UNL     1      -9.663  -6.733   0.742  1.00  0.00     0.050 A 
ATOM      2  C   UNL     1      -9.594  -6.238  -0.564  1.00  0.00     0.052 A 
ATOM      3  C   UNL     1      -9.748  -7.104  -1.651  1.00  0.00     0.138 A 
ATOM      4  C   UNL     1      -9.974  -8.480  -1.425  1.00  0.00     0.021 A 
ATOM      5  C   UNL     1     -10.125  -9.321  -2.531  1.00  0.00     0.019 A 
ATOM      6  C   UNL     1     -10.048  -8.783  -3.815  1.00  0.00     0.094 A 
ATOM      7  C   UNL     1      -9.823  -7.410  -3.963  1.00  0.00     0.336 A 
ATOM      8  O   UNL     1      -9.751  -6.906  -5.114  1.00  0.00    -0.246 OA
ATOM      9  O   UNL     1      -9.683  -6.631  -2.894  1.00  0.00    -0.423 OA
ATOM     10  C   UNL     1     -10.042  -8.972  -0.113  1.00  0.00     0.058 A 
ATOM     11  C   UNL     1      -9.886  -8.096   0.971  1.00  0.00     0.116 A 
ENDROOT
BRANCH  11  12
ATOM     12  O   UNL     1      -9.951  -8.570   2.280  1.00  0.00    -0.508 OA
ATOM     13  H   UNL     1      -9.173  -8.465   2.921  1.00  0.00     0.293 HD
ENDBRANCH  11  12
TORSDOF 1
ENDMDL
MODEL 5
REMARK VINA RESULT:    -3.224     20.266     21.182
REMARK INTER + INTRA:          -3.318
REMARK INTER:                  -3.318
REMARK INTRA:                   0.000
REMARK UNBOUND:                 0.000
REMARK SMILES O=c1ccc2cc(O)ccc2o1
REMARK SMILES IDX 9 1 10 2 11 3 5 4 4 5 3 6 2 7 1 8 12 9 6 10 7 11 8 12
REMARK H PARENT 8 13
REMARK Flexibility Score: inf
ROOT
ATOM      1  C   UNL     1      -9.943   4.191  -7.397  1.00  0.00     0.050 A 
ATOM      2  C   UNL     1     -10.121   3.085  -6.560  1.00  0.00     0.052 A 
ATOM      3  C   UNL     1      -9.564   1.849  -6.904  1.00  0.00     0.138 A 
ATOM      4  C   UNL     1      -8.821   1.724  -8.099  1.00  0.00     0.021 A 
ATOM      5  C   UNL     1      -8.275   0.476  -8.416  1.00  0.00     0.019 A 
ATOM      6  C   UNL     1      -8.478  -0.600  -7.552  1.00  0.00     0.094 A 
ATOM      7  C   UNL     1      -9.225  -0.401  -6.385  1.00  0.00     0.336 A 
ATOM      8  O   UNL     1      -9.419  -1.359  -5.593  1.00  0.00    -0.246 OA
ATOM      9  O   UNL     1      -9.733   0.797  -6.106  1.00  0.00    -0.423 OA
ATOM     10  C   UNL     1      -8.645   2.836  -8.934  1.00  0.00     0.058 A 
ATOM     11  C   UNL     1      -9.208   4.072  -8.581  1.00  0.00     0.116 A 
ENDROOT
BRANCH  11  12
ATOM     12  O   UNL     1      -9.042   5.185  -9.402  1.00  0.00    -0.508 OA
ATOM     13  H   UNL     1      -9.645   5.351 -10.200  1.00  0.00     0.293 HD
ENDBRANCH  11  12
TORSDOF 1
ENDMDL
MODEL 6
REMARK VINA RESULT:    -3.178     10.489     12.137
REMARK INTER + INTRA:          -3.270
REMARK INTER:                  -3.270
REMARK INTRA:                   0.000
REMARK UNBOUND:                 0.000
REMARK SMILES O=c1ccc2cc(O)ccc2o1
REMARK SMILES IDX 9 1 10 2 11 3 5 4 4 5 3 6 2 7 1 8 12 9 6 10 7 11 8 12
REMARK H PARENT 8 13
REMARK Flexibility Score: inf
ROOT
ATOM      1  C   UNL     1      -1.144 -10.125   5.978  1.00  0.00     0.050 A 
ATOM      2  C   UNL     1       0.230 -10.122   5.720  1.00  0.00     0.052 A 
ATOM      3  C   UNL     1       1.143 -10.118   6.781  1.00  0.00     0.138 A 
ATOM      4  C   UNL     1       0.670 -10.116   8.112  1.00  0.00     0.021 A 
ATOM      5  C   UNL     1       1.606 -10.113   9.151  1.00  0.00     0.019 A 
ATOM      6  C   UNL     1       2.966 -10.110   8.847  1.00  0.00     0.094 A 
ATOM      7  C   UNL     1       3.361 -10.113   7.504  1.00  0.00     0.336 A 
ATOM      8  O   UNL     1       4.585 -10.111   7.210  1.00  0.00    -0.246 OA
ATOM      9  O   UNL     1       2.451 -10.116   6.534  1.00  0.00    -0.423 OA
ATOM     10  C   UNL     1      -0.709 -10.119   8.366  1.00  0.00     0.058 A 
ATOM     11  C   UNL     1      -1.617 -10.123   7.296  1.00  0.00     0.116 A 
ENDROOT
BRANCH  11  12
ATOM     12  O   UNL     1      -2.990 -10.125   7.532  1.00  0.00    -0.508 OA
ATOM     13  H   UNL     1      -3.620 -10.708   6.993  1.00  0.00     0.293 HD
ENDBRANCH  11  12
TORSDOF 1
ENDMDL
MODEL 7
REMARK VINA RESULT:    -3.144     13.921     15.567
REMARK INTER + INTRA:          -3.236
REMARK INTER:                  -3.236
REMARK INTRA:                   0.000
REMARK UNBOUND:                 0.000
REMARK SMILES O=c1ccc2cc(O)ccc2o1
REMARK SMILES IDX 9 1 10 2 11 3 5 4 4 5 3 6 2 7 1 8 12 9 6 10 7 11 8 12
REMARK H PARENT 8 13
REMARK Flexibility Score: inf
ROOT
ATOM      1  C   UNL     1       6.612   1.832  10.074  1.00  0.00     0.050 A 
ATOM      2  C   UNL     1       6.219   0.491  10.057  1.00  0.00     0.052 A 
ATOM      3  C   UNL     1       7.183  -0.523  10.073  1.00  0.00     0.138 A 
ATOM      4  C   UNL     1       8.554  -0.185  10.107  1.00  0.00     0.021 A 
ATOM      5  C   UNL     1       9.495  -1.220  10.123  1.00  0.00     0.019 A 
ATOM      6  C   UNL     1       9.056  -2.543  10.106  1.00  0.00     0.094 A 
ATOM      7  C   UNL     1       7.682  -2.802  10.073  1.00  0.00     0.336 A 
ATOM      8  O   UNL     1       7.266  -3.990  10.057  1.00  0.00    -0.246 OA
ATOM      9  O   UNL     1       6.807  -1.800  10.058  1.00  0.00    -0.423 OA
ATOM     10  C   UNL     1       8.944   1.162  10.124  1.00  0.00     0.058 A 
ATOM     11  C   UNL     1       7.970   2.172  10.107  1.00  0.00     0.116 A 
ENDROOT
BRANCH  11  12
ATOM     12  O   UNL     1       8.342   3.514  10.122  1.00  0.00    -0.508 OA
ATOM     13  H   UNL     1       8.198   4.114   9.318  1.00  0.00     0.293 HD
ENDBRANCH  11  12
TORSDOF 1
ENDMDL
MODEL 8
REMARK VINA RESULT:    -3.130     23.857     25.087
REMARK INTER + INTRA:          -3.221
REMARK INTER:                  -3.221
REMARK INTRA:                   0.000
REMARK UNBOUND:                 0.000
REMARK SMILES O=c1ccc2cc(O)ccc2o1
REMARK SMILES IDX 9 1 10 2 11 3 5 4 4 5 3 6 2 7 1 8 12 9 6 10 7 11 8 12
REMARK H PARENT 8 13
REMARK Flexibility Score: inf
ROOT
ATOM      1  C   UNL     1      -9.764   6.509   3.599  1.00  0.00     0.050 A 
ATOM      2  C   UNL     1      -9.825   6.000   2.298  1.00  0.00     0.052 A 
ATOM      3  C   UNL     1      -9.923   6.872   1.208  1.00  0.00     0.138 A 
ATOM      4  C   UNL     1      -9.958   8.267   1.428  1.00  0.00     0.021 A 
ATOM      5  C   UNL     1     -10.055   9.113   0.319  1.00  0.00     0.019 A 
ATOM      6  C   UNL     1     -10.114   8.561  -0.960  1.00  0.00     0.094 A 
ATOM      7  C   UNL     1     -10.073   7.170  -1.101  1.00  0.00     0.336 A 
ATOM      8  O   UNL     1     -10.125   6.653  -2.247  1.00  0.00    -0.246 OA
ATOM      9  O   UNL     1      -9.981   6.386  -0.030  1.00  0.00    -0.423 OA
ATOM     10  C   UNL     1      -9.896   8.772   2.734  1.00  0.00     0.058 A 
ATOM     11  C   UNL     1      -9.798   7.890   3.821  1.00  0.00     0.116 A 
ENDROOT
BRANCH  11  12
ATOM     12  O   UNL     1      -9.736   8.377   5.125  1.00  0.00    -0.508 OA
ATOM     13  H   UNL     1     -10.541   8.804   5.571  1.00  0.00     0.293 HD
ENDBRANCH  11  12
TORSDOF 1
ENDMDL
