MODEL 1
REMARK VINA RESULT:    -5.211      0.000      0.000
REMARK INTER + INTRA:          -6.286
REMARK INTER:                  -5.972
REMARK INTRA:                  -0.314
REMARK UNBOUND:                -0.314
REMARK SMILES COc1ccc(C(C)=O)c(O)c1
REMARK SMILES IDX 6 1 10 2 12 3 3 4 4 5 5 6 7 7 8 8 9 9 11 10 2 12 1 13
REMARK H PARENT 11 11
REMARK Flexibility Score: inf
ROOT
ATOM      1  C   UNL     1     -12.864  44.518  22.381  1.00  0.00     0.059 A 
ATOM      2  C   UNL     1     -12.765  45.454  23.439  1.00  0.00     0.130 A 
ATOM      3  C   UNL     1     -13.810  45.571  24.365  1.00  0.00     0.093 A 
ATOM      4  C   UNL     1     -14.945  44.746  24.277  1.00  0.00     0.122 A 
ATOM      5  C   UNL     1     -15.025  43.805  23.249  1.00  0.00     0.047 A 
ATOM      6  C   UNL     1     -13.999  43.691  22.310  1.00  0.00     0.019 A 
ENDROOT
BRANCH   1   7
ATOM      7  C   UNL     1     -11.828  44.413  21.325  1.00  0.00     0.163 C 
ATOM      8  C   UNL     1     -11.188  43.099  20.998  1.00  0.00     0.093 C 
ATOM      9  O   UNL     1     -11.533  45.423  20.631  1.00  0.00    -0.294 OA
ENDBRANCH   1   7
BRANCH   2  10
ATOM     10  O   UNL     1     -11.639  46.259  23.623  1.00  0.00    -0.507 OA
ATOM     11  H   UNL     1     -10.972  46.121  24.370  1.00  0.00     0.293 HD
ENDBRANCH   2  10
BRANCH   4  12
ATOM     12  O   UNL     1     -16.009  44.829  25.189  1.00  0.00    -0.497 OA
ATOM     13  C   UNL     1     -15.861  44.770  26.604  1.00  0.00     0.278 C 
ENDBRANCH   4  12
TORSDOF 3
ENDMDL
MODEL 2
REMARK VINA RESULT:    -5.048     19.832     22.107
REMARK INTER + INTRA:          -6.099
REMARK INTER:                  -5.808
REMARK INTRA:                  -0.291
REMARK UNBOUND:                -0.314
REMARK SMILES COc1ccc(C(C)=O)c(O)c1
REMARK SMILES IDX 6 1 10 2 12 3 3 4 4 5 5 6 7 7 8 8 9 9 11 10 2 12 1 13
REMARK H PARENT 11 11
REMARK Flexibility Score: inf
ROOT
ATOM      1  C   UNL     1     -25.837  61.281  31.282  1.00  0.00     0.059 A 
ATOM      2  C   UNL     1     -25.666  60.261  30.314  1.00  0.00     0.130 A 
ATOM      3  C   UNL     1     -24.870  60.498  29.186  1.00  0.00     0.093 A 
ATOM      4  C   UNL     1     -24.210  61.728  29.017  1.00  0.00     0.122 A 
ATOM      5  C   UNL     1     -24.358  62.720  29.988  1.00  0.00     0.047 A 
ATOM      6  C   UNL     1     -25.162  62.502  31.108  1.00  0.00     0.019 A 
ENDROOT
BRANCH   1   7
ATOM      7  C   UNL     1     -26.735  61.114  32.449  1.00  0.00     0.163 C 
ATOM      8  C   UNL     1     -26.218  61.245  33.848  1.00  0.00     0.093 C 
ATOM      9  O   UNL     1     -27.971  60.940  32.272  1.00  0.00    -0.294 OA
ENDBRANCH   1   7
BRANCH   2  10
ATOM     10  O   UNL     1     -26.241  58.996  30.451  1.00  0.00    -0.507 OA
ATOM     11  H   UNL     1     -26.952  58.638  29.829  1.00  0.00     0.293 HD
ENDBRANCH   2  10
BRANCH   4  12
ATOM     12  O   UNL     1     -23.398  62.000  27.904  1.00  0.00    -0.497 OA
ATOM     13  C   UNL     1     -22.052  61.560  27.763  1.00  0.00     0.278 C 
ENDBRANCH   4  12
TORSDOF 3
ENDMDL
MODEL 3
REMARK VINA RESULT:    -5.009      1.511      4.840
REMARK INTER + INTRA:          -6.055
REMARK INTER:                  -5.728
REMARK INTRA:                  -0.327
REMARK UNBOUND:                -0.314
REMARK SMILES COc1ccc(C(C)=O)c(O)c1
REMARK SMILES IDX 6 1 10 2 12 3 3 4 4 5 5 6 7 7 8 8 9 9 11 10 2 12 1 13
REMARK H PARENT 11 11
REMARK Flexibility Score: inf
ROOT
ATOM      1  C   UNL     1     -14.910  45.260  25.361  1.00  0.00     0.059 A 
ATOM      2  C   UNL     1     -13.824  46.163  25.252  1.00  0.00     0.130 A 
ATOM      3  C   UNL     1     -12.974  46.098  24.142  1.00  0.00     0.093 A 
ATOM      4  C   UNL     1     -13.202  45.167  23.114  1.00  0.00     0.122 A 
ATOM      5  C   UNL     1     -14.291  44.298  23.212  1.00  0.00     0.047 A 
ATOM      6  C   UNL     1     -15.136  44.341  24.321  1.00  0.00     0.019 A 
ENDROOT
BRANCH   1   7
ATOM      7  C   UNL     1     -15.789  45.229  26.555  1.00  0.00     0.163 C 
ATOM      8  C   UNL     1     -16.354  43.939  27.064  1.00  0.00     0.093 C 
ATOM      9  O   UNL     1     -16.006  46.286  27.205  1.00  0.00    -0.294 OA
ENDBRANCH   1   7
BRANCH   2  10
ATOM     10  O   UNL     1     -13.578  47.154  26.205  1.00  0.00    -0.507 OA
ATOM     11  H   UNL     1     -14.037  47.187  27.105  1.00  0.00     0.293 HD
ENDBRANCH   2  10
BRANCH   4  12
ATOM     12  O   UNL     1     -12.376  45.076  21.982  1.00  0.00    -0.497 OA
ATOM     13  C   UNL     1     -12.715  44.370  20.794  1.00  0.00     0.278 C 
ENDBRANCH   4  12
TORSDOF 3
ENDMDL
MODEL 4
REMARK VINA RESULT:    -4.905     20.938     23.490
REMARK INTER + INTRA:          -5.935
REMARK INTER:                  -5.762
REMARK INTRA:                  -0.173
REMARK UNBOUND:                -0.314
REMARK SMILES COc1ccc(C(C)=O)c(O)c1
REMARK SMILES IDX 6 1 10 2 12 3 3 4 4 5 5 6 7 7 8 8 9 9 11 10 2 12 1 13
REMARK H PARENT 11 11
REMARK Flexibility Score: inf
ROOT
ATOM      1  C   UNL     1     -26.422  61.245  33.655  1.00  0.00     0.059 A 
ATOM      2  C   UNL     1     -26.803  61.907  32.462  1.00  0.00     0.130 A 
ATOM      3  C   UNL     1     -25.868  62.080  31.433  1.00  0.00     0.093 A 
ATOM      4  C   UNL     1     -24.561  61.576  31.556  1.00  0.00     0.122 A 
ATOM      5  C   UNL     1     -24.199  60.899  32.723  1.00  0.00     0.047 A 
ATOM      6  C   UNL     1     -25.116  60.735  33.762  1.00  0.00     0.019 A 
ENDROOT
BRANCH   1   7
ATOM      7  C   UNL     1     -27.345  61.111  34.808  1.00  0.00     0.163 C 
ATOM      8  C   UNL     1     -27.438  62.180  35.852  1.00  0.00     0.093 C 
ATOM      9  O   UNL     1     -28.125  60.123  34.877  1.00  0.00    -0.294 OA
ENDBRANCH   1   7
BRANCH   2  10
ATOM     10  O   UNL     1     -28.101  62.375  32.248  1.00  0.00    -0.507 OA
ATOM     11  H   UNL     1     -28.476  63.199  32.697  1.00  0.00     0.293 HD
ENDBRANCH   2  10
BRANCH   4  12
ATOM     12  O   UNL     1     -23.599  61.724  30.545  1.00  0.00    -0.497 OA
ATOM     13  C   UNL     1     -23.859  61.558  29.156  1.00  0.00     0.278 C 
ENDBRANCH   4  12
TORSDOF 3
ENDMDL
MODEL 5
REMARK VINA RESULT:    -4.869      1.514      2.180
REMARK INTER + INTRA:          -5.894
REMARK INTER:                  -5.567
REMARK INTRA:                  -0.327
REMARK UNBOUND:                -0.314
REMARK SMILES COc1ccc(C(C)=O)c(O)c1
REMARK SMILES IDX 6 1 10 2 12 3 3 4 4 5 5 6 7 7 8 8 9 9 11 10 2 12 1 13
REMARK H PARENT 11 11
REMARK Flexibility Score: inf
ROOT
ATOM      1  C   UNL     1     -13.171  44.756  22.543  1.00  0.00     0.059 A 
ATOM      2  C   UNL     1     -14.352  44.015  22.794  1.00  0.00     0.130 A 
ATOM      3  C   UNL     1     -15.046  44.196  23.997  1.00  0.00     0.093 A 
ATOM      4  C   UNL     1     -14.604  45.132  24.949  1.00  0.00     0.122 A 
ATOM      5  C   UNL     1     -13.455  45.881  24.684  1.00  0.00     0.047 A 
ATOM      6  C   UNL     1     -12.745  45.697  23.498  1.00  0.00     0.019 A 
ENDROOT
BRANCH   1   7
ATOM      7  C   UNL     1     -12.351  44.541  21.327  1.00  0.00     0.163 C 
ATOM      8  C   UNL     1     -10.856  44.590  21.384  1.00  0.00     0.093 C 
ATOM      9  O   UNL     1     -12.909  44.232  20.239  1.00  0.00    -0.294 OA
ENDBRANCH   1   7
BRANCH   2  10
ATOM     10  O   UNL     1     -14.881  43.116  21.865  1.00  0.00    -0.507 OA
ATOM     11  H   UNL     1     -15.852  43.116  21.583  1.00  0.00     0.293 HD
ENDBRANCH   2  10
BRANCH   4  12
ATOM     12  O   UNL     1     -15.276  45.347  26.162  1.00  0.00    -0.497 OA
ATOM     13  C   UNL     1     -16.124  44.394  26.792  1.00  0.00     0.278 C 
ENDBRANCH   4  12
TORSDOF 3
ENDMDL
MODEL 6
REMARK VINA RESULT:    -4.829     20.387     22.102
REMARK INTER + INTRA:          -5.848
REMARK INTER:                  -5.529
REMARK INTRA:                  -0.319
REMARK UNBOUND:                -0.314
REMARK SMILES COc1ccc(C(C)=O)c(O)c1
REMARK SMILES IDX 6 1 10 2 12 3 3 4 4 5 5 6 7 7 8 8 9 9 11 10 2 12 1 13
REMARK H PARENT 11 11
REMARK Flexibility Score: inf
ROOT
ATOM      1  C   UNL     1     -25.313  60.629  32.722  1.00  0.00     0.059 A 
ATOM      2  C   UNL     1     -26.200  60.060  31.776  1.00  0.00     0.130 A 
ATOM      3  C   UNL     1     -25.917  60.158  30.408  1.00  0.00     0.093 A 
ATOM      4  C   UNL     1     -24.743  60.789  29.960  1.00  0.00     0.122 A 
ATOM      5  C   UNL     1     -23.856  61.322  30.898  1.00  0.00     0.047 A 
ATOM      6  C   UNL     1     -24.135  61.246  32.263  1.00  0.00     0.019 A 
ENDROOT
BRANCH   1   7
ATOM      7  C   UNL     1     -25.607  60.628  34.175  1.00  0.00     0.163 C 
ATOM      8  C   UNL     1     -24.523  60.856  35.183  1.00  0.00     0.093 C 
ATOM      9  O   UNL     1     -26.796  60.516  34.576  1.00  0.00    -0.294 OA
ENDBRANCH   1   7
BRANCH   2  10
ATOM     10  O   UNL     1     -27.351  59.365  32.154  1.00  0.00    -0.507 OA
ATOM     11  H   UNL     1     -28.238  59.457  31.679  1.00  0.00     0.293 HD
ENDBRANCH   2  10
BRANCH   4  12
ATOM     12  O   UNL     1     -24.420  60.901  28.599  1.00  0.00    -0.497 OA
ATOM     13  C   UNL     1     -23.317  61.645  28.092  1.00  0.00     0.278 C 
ENDBRANCH   4  12
TORSDOF 3
ENDMDL
MODEL 7
REMARK VINA RESULT:    -4.765     19.094     21.623
REMARK INTER + INTRA:          -5.775
REMARK INTER:                  -5.448
REMARK INTRA:                  -0.328
REMARK UNBOUND:                -0.314
REMARK SMILES COc1ccc(C(C)=O)c(O)c1
REMARK SMILES IDX 6 1 10 2 12 3 3 4 4 5 5 6 7 7 8 8 9 9 11 10 2 12 1 13
REMARK H PARENT 11 11
REMARK Flexibility Score: inf
ROOT
ATOM      1  C   UNL     1     -25.951  60.589  31.127  1.00  0.00     0.059 A 
ATOM      2  C   UNL     1     -25.507  61.810  30.564  1.00  0.00     0.130 A 
ATOM      3  C   UNL     1     -24.662  61.796  29.447  1.00  0.00     0.093 A 
ATOM      4  C   UNL     1     -24.274  60.582  28.854  1.00  0.00     0.122 A 
ATOM      5  C   UNL     1     -24.738  59.381  29.394  1.00  0.00     0.047 A 
ATOM      6  C   UNL     1     -25.566  59.381  30.518  1.00  0.00     0.019 A 
ENDROOT
BRANCH   1   7
ATOM      7  C   UNL     1     -26.774  60.544  32.359  1.00  0.00     0.163 C 
ATOM      8  C   UNL     1     -26.233  59.966  33.630  1.00  0.00     0.093 C 
ATOM      9  O   UNL     1     -27.920  61.070  32.369  1.00  0.00    -0.294 OA
ENDBRANCH   1   7
BRANCH   2  10
ATOM     10  O   UNL     1     -25.905  63.052  31.065  1.00  0.00    -0.507 OA
ATOM     11  H   UNL     1     -26.113  63.847  30.477  1.00  0.00     0.293 HD
ENDBRANCH   2  10
BRANCH   4  12
ATOM     12  O   UNL     1     -23.435  60.527  27.730  1.00  0.00    -0.497 OA
ATOM     13  C   UNL     1     -22.636  59.403  27.377  1.00  0.00     0.278 C 
ENDBRANCH   4  12
TORSDOF 3
ENDMDL
MODEL 8
REMARK VINA RESULT:    -4.748     19.195     20.633
REMARK INTER + INTRA:          -5.755
REMARK INTER:                  -5.424
REMARK INTRA:                  -0.332
REMARK UNBOUND:                -0.314
REMARK SMILES COc1ccc(C(C)=O)c(O)c1
REMARK SMILES IDX 6 1 10 2 12 3 3 4 4 5 5 6 7 7 8 8 9 9 11 10 2 12 1 13
REMARK H PARENT 11 11
REMARK Flexibility Score: inf
ROOT
ATOM      1  C   UNL     1     -23.123  61.402  29.037  1.00  0.00     0.059 A 
ATOM      2  C   UNL     1     -23.949  60.277  28.794  1.00  0.00     0.130 A 
ATOM      3  C   UNL     1     -25.104  60.082  29.562  1.00  0.00     0.093 A 
ATOM      4  C   UNL     1     -25.473  61.007  30.554  1.00  0.00     0.122 A 
ATOM      5  C   UNL     1     -24.671  62.130  30.771  1.00  0.00     0.047 A 
ATOM      6  C   UNL     1     -23.509  62.327  30.024  1.00  0.00     0.019 A 
ENDROOT
BRANCH   1   7
ATOM      7  C   UNL     1     -21.846  61.611  28.314  1.00  0.00     0.163 C 
ATOM      8  C   UNL     1     -20.533  61.551  29.030  1.00  0.00     0.093 C 
ATOM      9  O   UNL     1     -21.850  61.762  27.062  1.00  0.00    -0.294 OA
ENDBRANCH   1   7
BRANCH   2  10
ATOM     10  O   UNL     1     -23.675  59.354  27.783  1.00  0.00    -0.507 OA
ATOM     11  H   UNL     1     -24.372  59.018  27.132  1.00  0.00     0.293 HD
ENDBRANCH   2  10
BRANCH   4  12
ATOM     12  O   UNL     1     -26.626  60.850  31.339  1.00  0.00    -0.497 OA
ATOM     13  C   UNL     1     -27.007  61.727  32.393  1.00  0.00     0.278 C 
ENDBRANCH   4  12
TORSDOF 3
ENDMDL
MODEL 9
REMARK VINA RESULT:    -4.745     21.182     22.349
REMARK INTER + INTRA:          -5.752
REMARK INTER:                  -5.417
REMARK INTRA:                  -0.335
REMARK UNBOUND:                -0.314
REMARK SMILES COc1ccc(C(C)=O)c(O)c1
REMARK SMILES IDX 6 1 10 2 12 3 3 4 4 5 5 6 7 7 8 8 9 9 11 10 2 12 1 13
REMARK H PARENT 11 11
REMARK Flexibility Score: inf
ROOT
ATOM      1  C   UNL     1     -24.147  61.610  31.746  1.00  0.00     0.059 A 
ATOM      2  C   UNL     1     -25.494  61.964  31.487  1.00  0.00     0.130 A 
ATOM      3  C   UNL     1     -26.511  61.499  32.331  1.00  0.00     0.093 A 
ATOM      4  C   UNL     1     -26.209  60.709  33.454  1.00  0.00     0.122 A 
ATOM      5  C   UNL     1     -24.876  60.387  33.722  1.00  0.00     0.047 A 
ATOM      6  C   UNL     1     -23.856  60.830  32.879  1.00  0.00     0.019 A 
ENDROOT
BRANCH   1   7
ATOM      7  C   UNL     1     -23.043  62.003  30.838  1.00  0.00     0.163 C 
ATOM      8  C   UNL     1     -21.683  62.333  31.372  1.00  0.00     0.093 C 
ATOM      9  O   UNL     1     -23.218  61.985  29.590  1.00  0.00    -0.294 OA
ENDBRANCH   1   7
BRANCH   2  10
ATOM     10  O   UNL     1     -25.858  62.796  30.426  1.00  0.00    -0.507 OA
ATOM     11  H   UNL     1     -25.194  63.344  29.896  1.00  0.00     0.293 HD
ENDBRANCH   2  10
BRANCH   4  12
ATOM     12  O   UNL     1     -27.198  60.230  34.326  1.00  0.00    -0.497 OA
ATOM     13  C   UNL     1     -28.113  61.057  35.036  1.00  0.00     0.278 C 
ENDBRANCH   4  12
TORSDOF 3
ENDMDL
