MODEL 1
REMARK VINA RESULT:    -4.212      0.000      0.000
REMARK INTER + INTRA:          -5.135
REMARK INTER:                  -4.828
REMARK INTRA:                  -0.307
REMARK UNBOUND:                -0.307
REMARK SMILES COc1ccc(C(C)=O)c(O)c1
REMARK SMILES IDX 6 1 10 2 12 3 3 4 4 5 5 6 7 7 8 8 9 9 11 10 2 12 1 13
REMARK H PARENT 11 11
REMARK Flexibility Score: inf
ROOT
ATOM      1  C   UNL     1     -12.669  82.592 -10.888  1.00  0.00     0.059 A 
ATOM      2  C   UNL     1     -11.804  82.534  -9.768  1.00  0.00     0.130 A 
ATOM      3  C   UNL     1     -12.104  83.276  -8.619  1.00  0.00     0.093 A 
ATOM      4  C   UNL     1     -13.265  84.049  -8.542  1.00  0.00     0.122 A 
ATOM      5  C   UNL     1     -14.139  84.082  -9.641  1.00  0.00     0.047 A 
ATOM      6  C   UNL     1     -13.843  83.361 -10.799  1.00  0.00     0.019 A 
ENDROOT
BRANCH   1   7
ATOM      7  C   UNL     1     -12.357  81.896 -12.159  1.00  0.00     0.163 C 
ATOM      8  C   UNL     1     -13.403  81.702 -13.212  1.00  0.00     0.093 C 
ATOM      9  O   UNL     1     -11.176  81.529 -12.401  1.00  0.00    -0.294 OA
ENDBRANCH   1   7
BRANCH   2  10
ATOM     10  O   UNL     1     -10.658  81.735  -9.748  1.00  0.00    -0.507 OA
ATOM     11  H   UNL     1      -9.747  82.075  -9.474  1.00  0.00     0.293 HD
ENDBRANCH   2  10
BRANCH   4  12
ATOM     12  O   UNL     1     -13.514  84.762  -7.360  1.00  0.00    -0.497 OA
ATOM     13  C   UNL     1     -14.760  85.374  -7.037  1.00  0.00     0.278 C 
ENDBRANCH   4  12
TORSDOF 3
ENDMDL
MODEL 2
REMARK VINA RESULT:    -3.940      7.833      9.068
REMARK INTER + INTRA:          -4.823
REMARK INTER:                  -4.484
REMARK INTRA:                  -0.339
REMARK UNBOUND:                -0.307
REMARK SMILES COc1ccc(C(C)=O)c(O)c1
REMARK SMILES IDX 6 1 10 2 12 3 3 4 4 5 5 6 7 7 8 8 9 9 11 10 2 12 1 13
REMARK H PARENT 11 11
REMARK Flexibility Score: inf
ROOT
ATOM      1  C   UNL     1      -3.850  83.682  -9.116  1.00  0.00     0.059 A 
ATOM      2  C   UNL     1      -5.065  83.860  -9.822  1.00  0.00     0.130 A 
ATOM      3  C   UNL     1      -5.599  85.146  -9.974  1.00  0.00     0.093 A 
ATOM      4  C   UNL     1      -4.935  86.267  -9.470  1.00  0.00     0.122 A 
ATOM      5  C   UNL     1      -3.714  86.094  -8.796  1.00  0.00     0.047 A 
ATOM      6  C   UNL     1      -3.180  84.817  -8.623  1.00  0.00     0.019 A 
ENDROOT
BRANCH   1   7
ATOM      7  C   UNL     1      -3.283  82.339  -8.852  1.00  0.00     0.163 C 
ATOM      8  C   UNL     1      -2.722  81.986  -7.509  1.00  0.00     0.093 C 
ATOM      9  O   UNL     1      -3.343  81.446  -9.739  1.00  0.00    -0.294 OA
ENDBRANCH   1   7
BRANCH   2  10
ATOM     10  O   UNL     1      -5.752  82.795 -10.408  1.00  0.00    -0.507 OA
ATOM     11  H   UNL     1      -6.067  82.797 -11.368  1.00  0.00     0.293 HD
ENDBRANCH   2  10
BRANCH   4  12
ATOM     12  O   UNL     1      -5.517  87.529  -9.662  1.00  0.00    -0.497 OA
ATOM     13  C   UNL     1      -6.411  87.848 -10.724  1.00  0.00     0.278 C 
ENDBRANCH   4  12
TORSDOF 3
ENDMDL
MODEL 3
REMARK VINA RESULT:    -3.763      7.754      9.216
REMARK INTER + INTRA:          -4.621
REMARK INTER:                  -4.289
REMARK INTRA:                  -0.331
REMARK UNBOUND:                -0.307
REMARK SMILES COc1ccc(C(C)=O)c(O)c1
REMARK SMILES IDX 6 1 10 2 12 3 3 4 4 5 5 6 7 7 8 8 9 9 11 10 2 12 1 13
REMARK H PARENT 11 11
REMARK Flexibility Score: inf
ROOT
ATOM      1  C   UNL     1      -5.319  85.410  -9.823  1.00  0.00     0.059 A 
ATOM      2  C   UNL     1      -4.161  85.738  -9.076  1.00  0.00     0.130 A 
ATOM      3  C   UNL     1      -3.277  84.726  -8.683  1.00  0.00     0.093 A 
ATOM      4  C   UNL     1      -3.500  83.394  -9.043  1.00  0.00     0.122 A 
ATOM      5  C   UNL     1      -4.632  83.072  -9.810  1.00  0.00     0.047 A 
ATOM      6  C   UNL     1      -5.530  84.069 -10.194  1.00  0.00     0.019 A 
ENDROOT
BRANCH   1   7
ATOM      7  C   UNL     1      -6.331  86.427 -10.192  1.00  0.00     0.163 C 
ATOM      8  C   UNL     1      -7.796  86.136 -10.087  1.00  0.00     0.093 C 
ATOM      9  O   UNL     1      -5.965  87.586 -10.525  1.00  0.00    -0.294 OA
ENDBRANCH   1   7
BRANCH   2  10
ATOM     10  O   UNL     1      -3.840  87.053  -8.733  1.00  0.00    -0.507 OA
ATOM     11  H   UNL     1      -2.911  87.440  -8.819  1.00  0.00     0.293 HD
ENDBRANCH   2  10
BRANCH   4  12
ATOM     12  O   UNL     1      -2.572  82.427  -8.626  1.00  0.00    -0.497 OA
ATOM     13  C   UNL     1      -2.861  81.384  -7.699  1.00  0.00     0.278 C 
ENDBRANCH   4  12
TORSDOF 3
ENDMDL
MODEL 4
REMARK VINA RESULT:    -3.763      9.183     10.214
REMARK INTER + INTRA:          -4.620
REMARK INTER:                  -4.331
REMARK INTRA:                  -0.290
REMARK UNBOUND:                -0.307
REMARK SMILES COc1ccc(C(C)=O)c(O)c1
REMARK SMILES IDX 6 1 10 2 12 3 3 4 4 5 5 6 7 7 8 8 9 9 11 10 2 12 1 13
REMARK H PARENT 11 11
REMARK Flexibility Score: inf
ROOT
ATOM      1  C   UNL     1      -3.388  84.293  -8.525  1.00  0.00     0.059 A 
ATOM      2  C   UNL     1      -3.920  85.472  -9.102  1.00  0.00     0.130 A 
ATOM      3  C   UNL     1      -3.614  86.719  -8.542  1.00  0.00     0.093 A 
ATOM      4  C   UNL     1      -2.761  86.825  -7.440  1.00  0.00     0.122 A 
ATOM      5  C   UNL     1      -2.208  85.658  -6.888  1.00  0.00     0.047 A 
ATOM      6  C   UNL     1      -2.519  84.408  -7.425  1.00  0.00     0.019 A 
ENDROOT
BRANCH   1   7
ATOM      7  C   UNL     1      -3.746  82.944  -9.023  1.00  0.00     0.163 C 
ATOM      8  C   UNL     1      -3.007  81.726  -8.560  1.00  0.00     0.093 C 
ATOM      9  O   UNL     1      -4.737  82.798  -9.786  1.00  0.00    -0.294 OA
ENDBRANCH   1   7
BRANCH   2  10
ATOM     10  O   UNL     1      -4.728  85.449 -10.241  1.00  0.00    -0.507 OA
ATOM     11  H   UNL     1      -5.677  85.103 -10.242  1.00  0.00     0.293 HD
ENDBRANCH   2  10
BRANCH   4  12
ATOM     12  O   UNL     1      -2.486  88.104  -6.931  1.00  0.00    -0.497 OA
ATOM     13  C   UNL     1      -3.430  89.169  -6.880  1.00  0.00     0.278 C 
ENDBRANCH   4  12
TORSDOF 3
ENDMDL
MODEL 5
REMARK VINA RESULT:    -3.734      8.966      9.841
REMARK INTER + INTRA:          -4.587
REMARK INTER:                  -4.305
REMARK INTRA:                  -0.283
REMARK UNBOUND:                -0.307
REMARK SMILES COc1ccc(C(C)=O)c(O)c1
REMARK SMILES IDX 6 1 10 2 12 3 3 4 4 5 5 6 7 7 8 8 9 9 11 10 2 12 1 13
REMARK H PARENT 11 11
REMARK Flexibility Score: inf
ROOT
ATOM      1  C   UNL     1      -3.974  85.306  -8.862  1.00  0.00     0.059 A 
ATOM      2  C   UNL     1      -2.897  85.856  -8.125  1.00  0.00     0.130 A 
ATOM      3  C   UNL     1      -2.849  87.235  -7.888  1.00  0.00     0.093 A 
ATOM      4  C   UNL     1      -3.868  88.080  -8.337  1.00  0.00     0.122 A 
ATOM      5  C   UNL     1      -4.952  87.530  -9.040  1.00  0.00     0.047 A 
ATOM      6  C   UNL     1      -5.003  86.159  -9.299  1.00  0.00     0.019 A 
ENDROOT
BRANCH   1   7
ATOM      7  C   UNL     1      -4.032  83.868  -9.215  1.00  0.00     0.163 C 
ATOM      8  C   UNL     1      -5.263  83.268  -9.820  1.00  0.00     0.093 C 
ATOM      9  O   UNL     1      -3.007  83.146  -9.083  1.00  0.00    -0.294 OA
ENDBRANCH   1   7
BRANCH   2  10
ATOM     10  O   UNL     1      -1.876  85.066  -7.591  1.00  0.00    -0.507 OA
ATOM     11  H   UNL     1      -1.078  85.446  -7.101  1.00  0.00     0.293 HD
ENDBRANCH   2  10
BRANCH   4  12
ATOM     12  O   UNL     1      -3.767  89.452  -8.059  1.00  0.00    -0.497 OA
ATOM     13  C   UNL     1      -4.347  90.478  -8.859  1.00  0.00     0.278 C 
ENDBRANCH   4  12
TORSDOF 3
ENDMDL
MODEL 6
REMARK VINA RESULT:    -3.734      1.677      2.365
REMARK INTER + INTRA:          -4.587
REMARK INTER:                  -4.250
REMARK INTRA:                  -0.336
REMARK UNBOUND:                -0.307
REMARK SMILES COc1ccc(C(C)=O)c(O)c1
REMARK SMILES IDX 6 1 10 2 12 3 3 4 4 5 5 6 7 7 8 8 9 9 11 10 2 12 1 13
REMARK H PARENT 11 11
REMARK Flexibility Score: inf
ROOT
ATOM      1  C   UNL     1     -12.416  82.718 -10.420  1.00  0.00     0.059 A 
ATOM      2  C   UNL     1     -13.485  83.603 -10.138  1.00  0.00     0.130 A 
ATOM      3  C   UNL     1     -13.476  84.349  -8.953  1.00  0.00     0.093 A 
ATOM      4  C   UNL     1     -12.409  84.262  -8.055  1.00  0.00     0.122 A 
ATOM      5  C   UNL     1     -11.334  83.408  -8.349  1.00  0.00     0.047 A 
ATOM      6  C   UNL     1     -11.340  82.645  -9.518  1.00  0.00     0.019 A 
ENDROOT
BRANCH   1   7
ATOM      7  C   UNL     1     -12.415  81.842 -11.616  1.00  0.00     0.163 C 
ATOM      8  C   UNL     1     -11.181  81.662 -12.443  1.00  0.00     0.093 C 
ATOM      9  O   UNL     1     -13.442  81.170 -11.903  1.00  0.00    -0.294 OA
ENDBRANCH   1   7
BRANCH   2  10
ATOM     10  O   UNL     1     -14.554  83.790 -11.018  1.00  0.00    -0.507 OA
ATOM     11  H   UNL     1     -14.465  83.726 -12.023  1.00  0.00     0.293 HD
ENDBRANCH   2  10
BRANCH   4  12
ATOM     12  O   UNL     1     -12.455  85.042  -6.889  1.00  0.00    -0.497 OA
ATOM     13  C   UNL     1     -12.494  86.466  -6.875  1.00  0.00     0.278 C 
ENDBRANCH   4  12
TORSDOF 3
ENDMDL
MODEL 7
REMARK VINA RESULT:    -3.682      8.762     10.307
REMARK INTER + INTRA:          -4.527
REMARK INTER:                  -4.186
REMARK INTRA:                  -0.341
REMARK UNBOUND:                -0.307
REMARK SMILES COc1ccc(C(C)=O)c(O)c1
REMARK SMILES IDX 6 1 10 2 12 3 3 4 4 5 5 6 7 7 8 8 9 9 11 10 2 12 1 13
REMARK H PARENT 11 11
REMARK Flexibility Score: inf
ROOT
ATOM      1  C   UNL     1      -4.021  87.120  -8.608  1.00  0.00     0.059 A 
ATOM      2  C   UNL     1      -3.110  86.065  -8.354  1.00  0.00     0.130 A 
ATOM      3  C   UNL     1      -3.424  84.762  -8.760  1.00  0.00     0.093 A 
ATOM      4  C   UNL     1      -4.610  84.487  -9.446  1.00  0.00     0.122 A 
ATOM      5  C   UNL     1      -5.499  85.537  -9.726  1.00  0.00     0.047 A 
ATOM      6  C   UNL     1      -5.207  86.838  -9.311  1.00  0.00     0.019 A 
ENDROOT
BRANCH   1   7
ATOM      7  C   UNL     1      -3.780  88.500  -8.126  1.00  0.00     0.163 C 
ATOM      8  C   UNL     1      -4.260  89.686  -8.904  1.00  0.00     0.093 C 
ATOM      9  O   UNL     1      -3.234  88.689  -7.006  1.00  0.00    -0.294 OA
ENDBRANCH   1   7
BRANCH   2  10
ATOM     10  O   UNL     1      -1.878  86.275  -7.730  1.00  0.00    -0.507 OA
ATOM     11  H   UNL     1      -1.689  86.019  -6.771  1.00  0.00     0.293 HD
ENDBRANCH   2  10
BRANCH   4  12
ATOM     12  O   UNL     1      -4.863  83.162  -9.834  1.00  0.00    -0.497 OA
ATOM     13  C   UNL     1      -3.874  82.139  -9.893  1.00  0.00     0.278 C 
ENDBRANCH   4  12
TORSDOF 3
ENDMDL
MODEL 8
REMARK VINA RESULT:    -3.671     11.964     12.746
REMARK INTER + INTRA:          -4.515
REMARK INTER:                  -4.262
REMARK INTRA:                  -0.253
REMARK UNBOUND:                -0.307
REMARK SMILES COc1ccc(C(C)=O)c(O)c1
REMARK SMILES IDX 6 1 10 2 12 3 3 4 4 5 5 6 7 7 8 8 9 9 11 10 2 12 1 13
REMARK H PARENT 11 11
REMARK Flexibility Score: inf
ROOT
ATOM      1  C   UNL     1      -5.455  90.438 -13.862  1.00  0.00     0.059 A 
ATOM      2  C   UNL     1      -4.231  91.146 -13.781  1.00  0.00     0.130 A 
ATOM      3  C   UNL     1      -3.536  91.470 -14.952  1.00  0.00     0.093 A 
ATOM      4  C   UNL     1      -4.046  91.136 -16.209  1.00  0.00     0.122 A 
ATOM      5  C   UNL     1      -5.275  90.461 -16.292  1.00  0.00     0.047 A 
ATOM      6  C   UNL     1      -5.970  90.117 -15.131  1.00  0.00     0.019 A 
ENDROOT
BRANCH   1   7
ATOM      7  C   UNL     1      -6.190  89.995 -12.654  1.00  0.00     0.163 C 
ATOM      8  C   UNL     1      -7.522  89.321 -12.761  1.00  0.00     0.093 C 
ATOM      9  O   UNL     1      -5.657  90.111 -11.517  1.00  0.00    -0.294 OA
ENDBRANCH   1   7
BRANCH   2  10
ATOM     10  O   UNL     1      -3.691  91.568 -12.563  1.00  0.00    -0.507 OA
ATOM     11  H   UNL     1      -2.698  91.624 -12.385  1.00  0.00     0.293 HD
ENDBRANCH   2  10
BRANCH   4  12
ATOM     12  O   UNL     1      -3.306  91.496 -17.346  1.00  0.00    -0.497 OA
ATOM     13  C   UNL     1      -2.639  92.744 -17.509  1.00  0.00     0.278 C 
ENDBRANCH   4  12
TORSDOF 3
ENDMDL
