MODEL 1
REMARK VINA RESULT:     6.380      0.000      0.000
REMARK INTER + INTRA:           6.959
REMARK INTER:                   6.940
REMARK INTRA:                   0.019
REMARK UNBOUND:                 0.019
REMARK SMILES CC1(C)CC[C@]2(C(=O)[O-])CC[C@@]3(C)C(=CC[C@H]4[C@]5(C)CC[C@H](O)C(C)(C)[C@@H]5CC[C@@]43C)[C@@H]2C1
REMARK SMILES IDX 6 1 5 2 10 3 32 4 4 5 11 6 14 7 33 8 2 9 12 10 15 11 1 12
REMARK SMILES IDX 3 13 13 14 30 15 16 16 17 17 29 18 31 19 18 20 28 21 27 22
REMARK SMILES IDX 20 23 19 24 24 25 21 26 22 27 25 28 26 29 7 30 8 31 9 32
REMARK SMILES IDX 23 33
REMARK H PARENT 23 34
REMARK Flexibility Score: inf
ROOT
ATOM      1  C   UNL     1     -27.991  -2.832  15.811  1.00  0.00     0.017 C 
ATOM      2  C   UNL     1     -27.917  -3.834  14.625  1.00  0.00     0.014 C 
ATOM      3  C   UNL     1     -26.885  -3.139  16.845  1.00  0.00     0.014 C 
ATOM      4  C   UNL     1     -29.372  -2.914  16.530  1.00  0.00     0.028 C 
ATOM      5  C   UNL     1     -28.324  -5.267  14.990  1.00  0.00     0.007 C 
ATOM      6  C   UNL     1     -26.800  -2.089  17.961  1.00  0.00     0.013 C 
ATOM      7  C   UNL     1     -29.418  -2.107  17.831  1.00  0.00    -0.064 C 
ATOM      8  C   UNL     1     -29.795  -4.380  16.845  1.00  0.00     0.015 C 
ATOM      9  C   UNL     1     -29.725  -5.342  15.635  1.00  0.00    -0.035 C 
ATOM     10  C   UNL     1     -28.171  -1.542  18.539  1.00  0.00    -0.006 C 
ATOM     11  C   UNL     1     -30.638  -1.907  18.384  1.00  0.00    -0.027 C 
ATOM     12  C   UNL     1     -30.832  -5.013  14.604  1.00  0.00     0.011 C 
ATOM     13  C   UNL     1     -29.958  -6.785  16.134  1.00  0.00     0.011 C 
ATOM     14  C   UNL     1     -28.198   0.001  18.249  1.00  0.00     0.017 C 
ATOM     15  C   UNL     1     -28.296  -1.852  20.109  1.00  0.00    -0.020 C 
ATOM     16  C   UNL     1     -30.874  -1.565  19.835  1.00  0.00     0.032 C 
ATOM     17  C   UNL     1     -29.610  -1.177  20.662  1.00  0.00     0.006 C 
ATOM     18  C   UNL     1     -27.044  -1.306  20.889  1.00  0.00     0.008 C 
ATOM     19  C   UNL     1     -28.367  -3.398  20.325  1.00  0.00     0.012 C 
ATOM     20  C   UNL     1     -29.821  -1.191  22.255  1.00  0.00    -0.025 C 
ATOM     21  C   UNL     1     -27.360  -0.467  22.134  1.00  0.00     0.005 C 
ATOM     22  C   UNL     1     -28.424  -1.158  23.030  1.00  0.00     0.003 C 
ATOM     23  C   UNL     1     -30.666   0.080  22.601  1.00  0.00     0.010 C 
ATOM     24  C   UNL     1     -30.637  -2.450  22.682  1.00  0.00     0.012 C 
ATOM     25  C   UNL     1     -28.453  -0.610  24.543  1.00  0.00    -0.006 C 
ATOM     26  C   UNL     1     -30.777   0.374  24.092  1.00  0.00     0.033 C 
ATOM     27  C   UNL     1     -29.395   0.622  24.703  1.00  0.00     0.120 C 
ATOM     28  C   UNL     1     -28.901  -1.728  25.538  1.00  0.00     0.014 C 
ATOM     29  C   UNL     1     -27.035  -0.202  25.046  1.00  0.00     0.014 C 
ENDROOT
BRANCH   1  30
ATOM     30  C   UNL     1     -27.763  -1.457  15.194  1.00  0.00     0.048 C 
ATOM     31  O   UNL     1     -28.691  -0.604  15.153  1.00  0.00    -0.550 OA
ATOM     32  O   UNL     1     -26.557  -1.164  14.566  1.00  0.00    -0.550 OA
ENDBRANCH   1  30
BRANCH  27  33
ATOM     33  O   UNL     1     -28.836   1.764  24.096  1.00  0.00    -0.393 OA
ATOM     34  H   UNL     1     -29.580   2.389  23.889  1.00  0.00     0.210 HD
ENDBRANCH  27  33
TORSDOF 2
ENDMDL
MODEL 2
REMARK VINA RESULT:     7.285      1.795      3.751
REMARK INTER + INTRA:           7.943
REMARK INTER:                   7.743
REMARK INTRA:                   0.201
REMARK UNBOUND:                 0.019
REMARK SMILES CC1(C)CC[C@]2(C(=O)[O-])CC[C@@]3(C)C(=CC[C@H]4[C@]5(C)CC[C@H](O)C(C)(C)[C@@H]5CC[C@@]43C)[C@@H]2C1
REMARK SMILES IDX 6 1 5 2 10 3 32 4 4 5 11 6 14 7 33 8 2 9 12 10 15 11 1 12
REMARK SMILES IDX 3 13 13 14 30 15 16 16 17 17 29 18 31 19 18 20 28 21 27 22
REMARK SMILES IDX 20 23 19 24 24 25 21 26 22 27 25 28 26 29 7 30 8 31 9 32
REMARK SMILES IDX 23 33
REMARK H PARENT 23 34
REMARK Flexibility Score: inf
ROOT
ATOM      1  C   UNL     1     -28.815  -3.098  15.950  1.00  0.00     0.017 C 
ATOM      2  C   UNL     1     -28.678  -2.946  14.409  1.00  0.00     0.014 C 
ATOM      3  C   UNL     1     -30.040  -2.308  16.463  1.00  0.00     0.014 C 
ATOM      4  C   UNL     1     -27.545  -2.565  16.682  1.00  0.00     0.028 C 
ATOM      5  C   UNL     1     -28.263  -1.542  13.954  1.00  0.00     0.007 C 
ATOM      6  C   UNL     1     -30.326  -2.546  17.951  1.00  0.00     0.013 C 
ATOM      7  C   UNL     1     -27.717  -2.491  18.203  1.00  0.00    -0.064 C 
ATOM      8  C   UNL     1     -27.106  -1.160  16.169  1.00  0.00     0.015 C 
ATOM      9  C   UNL     1     -26.964  -1.055  14.632  1.00  0.00    -0.035 C 
ATOM     10  C   UNL     1     -29.075  -2.611  18.923  1.00  0.00    -0.006 C 
ATOM     11  C   UNL     1     -26.597  -2.292  18.936  1.00  0.00    -0.027 C 
ATOM     12  C   UNL     1     -25.740  -1.861  14.135  1.00  0.00     0.011 C 
ATOM     13  C   UNL     1     -26.739   0.426  14.255  1.00  0.00     0.011 C 
ATOM     14  C   UNL     1     -29.076  -4.045  19.562  1.00  0.00     0.017 C 
ATOM     15  C   UNL     1     -29.157  -1.462  20.042  1.00  0.00    -0.020 C 
ATOM     16  C   UNL     1     -26.581  -1.743  20.342  1.00  0.00     0.032 C 
ATOM     17  C   UNL     1     -27.964  -1.651  21.057  1.00  0.00     0.006 C 
ATOM     18  C   UNL     1     -30.529  -1.526  20.809  1.00  0.00     0.008 C 
ATOM     19  C   UNL     1     -29.048  -0.064  19.354  1.00  0.00     0.012 C 
ATOM     20  C   UNL     1     -27.977  -0.729  22.373  1.00  0.00    -0.025 C 
ATOM     21  C   UNL     1     -30.426  -1.500  22.340  1.00  0.00     0.005 C 
ATOM     22  C   UNL     1     -29.468  -0.378  22.826  1.00  0.00     0.003 C 
ATOM     23  C   UNL     1     -27.246  -1.544  23.491  1.00  0.00     0.010 C 
ATOM     24  C   UNL     1     -27.174   0.585  22.124  1.00  0.00     0.012 C 
ATOM     25  C   UNL     1     -29.676   0.027  24.370  1.00  0.00    -0.006 C 
ATOM     26  C   UNL     1     -27.357  -0.939  24.885  1.00  0.00     0.033 C 
ATOM     27  C   UNL     1     -28.821  -0.857  25.328  1.00  0.00     0.120 C 
ATOM     28  C   UNL     1     -29.322   1.529  24.611  1.00  0.00     0.014 C 
ATOM     29  C   UNL     1     -31.167  -0.086  24.811  1.00  0.00     0.014 C 
ENDROOT
BRANCH   1  30
ATOM     30  C   UNL     1     -29.015  -4.589  16.194  1.00  0.00     0.048 C 
ATOM     31  O   UNL     1     -28.193  -5.248  16.886  1.00  0.00    -0.550 OA
ATOM     32  O   UNL     1     -30.051  -5.268  15.561  1.00  0.00    -0.550 OA
ENDBRANCH   1  30
BRANCH  27  33
ATOM     33  O   UNL     1     -29.339  -2.165  25.402  1.00  0.00    -0.393 OA
ATOM     34  H   UNL     1     -28.570  -2.793  25.415  1.00  0.00     0.210 HD
ENDBRANCH  27  33
TORSDOF 2
ENDMDL
