MODEL 1
REMARK VINA RESULT:    -3.187      0.000      0.000
REMARK INTER + INTRA:          -5.154
REMARK INTER:                  -4.491
REMARK INTRA:                  -0.662
REMARK UNBOUND:                -0.662
REMARK SMILES CCCCCCCCC(=O)[O-]
REMARK SMILES IDX 6 1 7 2 8 3 9 4 10 5 11 6 5 7 4 8 3 9 2 10 1 11
REMARK H PARENT
REMARK Flexibility Score: inf
ROOT
ATOM      1  C   UNL     1      24.125  -5.928 -27.907  1.00  0.00     0.000 C 
ENDROOT
BRANCH   1   2
ATOM      2  C   UNL     1      24.217  -5.061 -29.179  1.00  0.00     0.006 C 
BRANCH   2   3
ATOM      3  C   UNL     1      24.221  -5.858 -30.495  1.00  0.00     0.053 C 
BRANCH   3   4
ATOM      4  C   UNL     1      24.226  -4.962 -31.695  1.00  0.00     0.041 C 
ATOM      5  O   UNL     1      24.664  -5.383 -32.798  1.00  0.00    -0.550 OA
ATOM      6  O   UNL     1      23.714  -3.674 -31.605  1.00  0.00    -0.550 OA
ENDBRANCH   3   4
ENDBRANCH   2   3
ENDBRANCH   1   2
BRANCH   1   7
ATOM      7  C   UNL     1      24.318  -7.439 -28.132  1.00  0.00     0.000 C 
BRANCH   7   8
ATOM      8  C   UNL     1      25.174  -8.102 -27.043  1.00  0.00    -0.000 C 
BRANCH   8   9
ATOM      9  C   UNL     1      26.667  -7.884 -27.309  1.00  0.00    -0.000 C 
BRANCH   9  10
ATOM     10  C   UNL     1      26.979  -7.984 -28.807  1.00  0.00    -0.003 C 
ATOM     11  C   UNL     1      27.838  -6.810 -29.271  1.00  0.00     0.004 C 
ENDBRANCH   9  10
ENDBRANCH   8   9
ENDBRANCH   7   8
ENDBRANCH   1   7
TORSDOF 7
ENDMDL
MODEL 2
REMARK VINA RESULT:    -3.126     15.242     16.403
REMARK INTER + INTRA:          -5.068
REMARK INTER:                  -4.602
REMARK INTRA:                  -0.466
REMARK UNBOUND:                -0.662
REMARK SMILES CCCCCCCCC(=O)[O-]
REMARK SMILES IDX 6 1 7 2 8 3 9 4 10 5 11 6 5 7 4 8 3 9 2 10 1 11
REMARK H PARENT
REMARK Flexibility Score: inf
ROOT
ATOM      1  C   UNL     1      34.685   7.500 -31.556  1.00  0.00     0.000 C 
ENDROOT
BRANCH   1   2
ATOM      2  C   UNL     1      33.312   7.490 -30.853  1.00  0.00     0.006 C 
BRANCH   2   3
ATOM      3  C   UNL     1      33.050   8.706 -29.948  1.00  0.00     0.053 C 
BRANCH   3   4
ATOM      4  C   UNL     1      32.469   9.858 -30.707  1.00  0.00     0.041 C 
ATOM      5  O   UNL     1      33.207  10.573 -31.436  1.00  0.00    -0.550 OA
ATOM      6  O   UNL     1      31.107  10.120 -30.640  1.00  0.00    -0.550 OA
ENDBRANCH   3   4
ENDBRANCH   2   3
ENDBRANCH   1   2
BRANCH   1   7
ATOM      7  C   UNL     1      35.659   6.399 -31.100  1.00  0.00     0.000 C 
BRANCH   7   8
ATOM      8  C   UNL     1      35.205   4.991 -31.513  1.00  0.00    -0.000 C 
BRANCH   8   9
ATOM      9  C   UNL     1      35.036   4.891 -33.032  1.00  0.00    -0.000 C 
BRANCH   9  10
ATOM     10  C   UNL     1      33.970   3.853 -33.401  1.00  0.00    -0.003 C 
ATOM     11  C   UNL     1      32.576   4.327 -32.996  1.00  0.00     0.004 C 
ENDBRANCH   9  10
ENDBRANCH   8   9
ENDBRANCH   7   8
ENDBRANCH   1   7
TORSDOF 7
ENDMDL
MODEL 3
REMARK VINA RESULT:    -3.110      0.939      1.405
REMARK INTER + INTRA:          -5.045
REMARK INTER:                  -4.558
REMARK INTRA:                  -0.487
REMARK UNBOUND:                -0.662
REMARK SMILES CCCCCCCCC(=O)[O-]
REMARK SMILES IDX 6 1 7 2 8 3 9 4 10 5 11 6 5 7 4 8 3 9 2 10 1 11
REMARK H PARENT
REMARK Flexibility Score: inf
ROOT
ATOM      1  C   UNL     1      24.129  -6.265 -29.108  1.00  0.00     0.000 C 
ENDROOT
BRANCH   1   2
ATOM      2  C   UNL     1      23.866  -5.973 -30.599  1.00  0.00     0.006 C 
BRANCH   2   3
ATOM      3  C   UNL     1      25.000  -5.217 -31.311  1.00  0.00     0.053 C 
BRANCH   3   4
ATOM      4  C   UNL     1      24.657  -4.895 -32.732  1.00  0.00     0.041 C 
ATOM      5  O   UNL     1      23.568  -4.323 -33.007  1.00  0.00    -0.550 OA
ATOM      6  O   UNL     1      25.553  -5.192 -33.750  1.00  0.00    -0.550 OA
ENDBRANCH   3   4
ENDBRANCH   2   3
ENDBRANCH   1   2
BRANCH   1   7
ATOM      7  C   UNL     1      24.409  -7.741 -28.771  1.00  0.00     0.000 C 
BRANCH   7   8
ATOM      8  C   UNL     1      24.947  -7.939 -27.346  1.00  0.00    -0.000 C 
BRANCH   8   9
ATOM      9  C   UNL     1      26.356  -7.354 -27.205  1.00  0.00    -0.000 C 
BRANCH   9  10
ATOM     10  C   UNL     1      27.316  -7.980 -28.223  1.00  0.00    -0.003 C 
ATOM     11  C   UNL     1      27.949  -6.912 -29.113  1.00  0.00     0.004 C 
ENDBRANCH   9  10
ENDBRANCH   8   9
ENDBRANCH   7   8
ENDBRANCH   1   7
TORSDOF 7
ENDMDL
MODEL 4
REMARK VINA RESULT:    -3.068      1.361      2.496
REMARK INTER + INTRA:          -4.986
REMARK INTER:                  -4.306
REMARK INTRA:                  -0.680
REMARK UNBOUND:                -0.662
REMARK SMILES CCCCCCCCC(=O)[O-]
REMARK SMILES IDX 6 1 7 2 8 3 9 4 10 5 11 6 5 7 4 8 3 9 2 10 1 11
REMARK H PARENT
REMARK Flexibility Score: inf
ROOT
ATOM      1  C   UNL     1      26.862  -6.598 -28.913  1.00  0.00     0.000 C 
ENDROOT
BRANCH   1   2
ATOM      2  C   UNL     1      26.254  -5.236 -29.309  1.00  0.00     0.006 C 
BRANCH   2   3
ATOM      3  C   UNL     1      26.010  -5.061 -30.817  1.00  0.00     0.053 C 
BRANCH   3   4
ATOM      4  C   UNL     1      24.562  -5.201 -31.172  1.00  0.00     0.041 C 
ATOM      5  O   UNL     1      24.224  -5.496 -32.349  1.00  0.00    -0.550 OA
ATOM      6  O   UNL     1      23.588  -5.043 -30.196  1.00  0.00    -0.550 OA
ENDBRANCH   3   4
ENDBRANCH   2   3
ENDBRANCH   1   2
BRANCH   1   7
ATOM      7  C   UNL     1      25.950  -7.814 -29.154  1.00  0.00     0.000 C 
BRANCH   7   8
ATOM      8  C   UNL     1      24.736  -7.848 -28.214  1.00  0.00    -0.000 C 
BRANCH   8   9
ATOM      9  C   UNL     1      25.176  -7.998 -26.754  1.00  0.00    -0.000 C 
BRANCH   9  10
ATOM     10  C   UNL     1      24.728  -6.795 -25.917  1.00  0.00    -0.003 C 
ATOM     11  C   UNL     1      23.780  -5.896 -26.707  1.00  0.00     0.004 C 
ENDBRANCH   9  10
ENDBRANCH   8   9
ENDBRANCH   7   8
ENDBRANCH   1   7
TORSDOF 7
ENDMDL
MODEL 5
REMARK VINA RESULT:    -2.948     13.840     15.134
REMARK INTER + INTRA:          -4.816
REMARK INTER:                  -4.204
REMARK INTRA:                  -0.613
REMARK UNBOUND:                -0.662
REMARK SMILES CCCCCCCCC(=O)[O-]
REMARK SMILES IDX 6 1 7 2 8 3 9 4 10 5 11 6 5 7 4 8 3 9 2 10 1 11
REMARK H PARENT
REMARK Flexibility Score: inf
ROOT
ATOM      1  C   UNL     1      34.896   5.318 -33.318  1.00  0.00     0.000 C 
ENDROOT
BRANCH   1   2
ATOM      2  C   UNL     1      34.265   4.037 -32.736  1.00  0.00     0.006 C 
BRANCH   2   3
ATOM      3  C   UNL     1      32.868   3.707 -33.287  1.00  0.00     0.053 C 
BRANCH   3   4
ATOM      4  C   UNL     1      32.859   2.433 -34.074  1.00  0.00     0.041 C 
ATOM      5  O   UNL     1      33.854   1.661 -34.040  1.00  0.00    -0.550 OA
ATOM      6  O   UNL     1      31.739   2.080 -34.815  1.00  0.00    -0.550 OA
ENDBRANCH   3   4
ENDBRANCH   2   3
ENDBRANCH   1   2
BRANCH   1   7
ATOM      7  C   UNL     1      35.954   5.988 -32.423  1.00  0.00     0.000 C 
BRANCH   7   8
ATOM      8  C   UNL     1      35.356   6.617 -31.156  1.00  0.00    -0.000 C 
BRANCH   8   9
ATOM      9  C   UNL     1      34.506   7.845 -31.501  1.00  0.00    -0.000 C 
BRANCH   9  10
ATOM     10  C   UNL     1      33.228   7.885 -30.656  1.00  0.00    -0.003 C 
ATOM     11  C   UNL     1      32.278   6.754 -31.039  1.00  0.00     0.004 C 
ENDBRANCH   9  10
ENDBRANCH   8   9
ENDBRANCH   7   8
ENDBRANCH   1   7
TORSDOF 7
ENDMDL
MODEL 6
REMARK VINA RESULT:    -2.930     14.393     15.700
REMARK INTER + INTRA:          -4.791
REMARK INTER:                  -4.254
REMARK INTRA:                  -0.537
REMARK UNBOUND:                -0.662
REMARK SMILES CCCCCCCCC(=O)[O-]
REMARK SMILES IDX 6 1 7 2 8 3 9 4 10 5 11 6 5 7 4 8 3 9 2 10 1 11
REMARK H PARENT
REMARK Flexibility Score: inf
ROOT
ATOM      1  C   UNL     1      35.732   5.970 -32.233  1.00  0.00     0.000 C 
ENDROOT
BRANCH   1   2
ATOM      2  C   UNL     1      35.084   5.213 -33.410  1.00  0.00     0.006 C 
BRANCH   2   3
ATOM      3  C   UNL     1      34.300   3.954 -33.004  1.00  0.00     0.053 C 
BRANCH   3   4
ATOM      4  C   UNL     1      32.828   4.110 -33.233  1.00  0.00     0.041 C 
ATOM      5  O   UNL     1      32.215   5.104 -32.761  1.00  0.00    -0.550 OA
ATOM      6  O   UNL     1      32.141   3.177 -33.999  1.00  0.00    -0.550 OA
ENDBRANCH   3   4
ENDBRANCH   2   3
ENDBRANCH   1   2
BRANCH   1   7
ATOM      7  C   UNL     1      35.270   5.521 -30.835  1.00  0.00     0.000 C 
BRANCH   7   8
ATOM      8  C   UNL     1      34.251   6.482 -30.203  1.00  0.00    -0.000 C 
BRANCH   8   9
ATOM      9  C   UNL     1      34.067   7.733 -31.069  1.00  0.00    -0.000 C 
BRANCH   9  10
ATOM     10  C   UNL     1      32.683   8.355 -30.850  1.00  0.00    -0.003 C 
ATOM     11  C   UNL     1      32.780   9.866 -30.663  1.00  0.00     0.004 C 
ENDBRANCH   9  10
ENDBRANCH   8   9
ENDBRANCH   7   8
ENDBRANCH   1   7
TORSDOF 7
ENDMDL
MODEL 7
REMARK VINA RESULT:    -2.928      1.306      2.599
REMARK INTER + INTRA:          -4.788
REMARK INTER:                  -4.045
REMARK INTRA:                  -0.744
REMARK UNBOUND:                -0.662
REMARK SMILES CCCCCCCCC(=O)[O-]
REMARK SMILES IDX 6 1 7 2 8 3 9 4 10 5 11 6 5 7 4 8 3 9 2 10 1 11
REMARK H PARENT
REMARK Flexibility Score: inf
ROOT
ATOM      1  C   UNL     1      27.095  -4.797 -28.649  1.00  0.00     0.000 C 
ENDROOT
BRANCH   1   2
ATOM      2  C   UNL     1      25.767  -4.368 -29.306  1.00  0.00     0.006 C 
BRANCH   2   3
ATOM      3  C   UNL     1      25.727  -4.538 -30.834  1.00  0.00     0.053 C 
BRANCH   3   4
ATOM      4  C   UNL     1      24.468  -5.206 -31.293  1.00  0.00     0.041 C 
ATOM      5  O   UNL     1      23.557  -5.476 -30.467  1.00  0.00    -0.550 OA
ATOM      6  O   UNL     1      24.285  -5.497 -32.638  1.00  0.00    -0.550 OA
ENDBRANCH   3   4
ENDBRANCH   2   3
ENDBRANCH   1   2
BRANCH   1   7
ATOM      7  C   UNL     1      27.705  -6.099 -29.200  1.00  0.00     0.000 C 
BRANCH   7   8
ATOM      8  C   UNL     1      27.233  -7.349 -28.442  1.00  0.00    -0.000 C 
BRANCH   8   9
ATOM      9  C   UNL     1      26.050  -8.011 -29.157  1.00  0.00    -0.000 C 
BRANCH   9  10
ATOM     10  C   UNL     1      24.782  -7.945 -28.298  1.00  0.00    -0.003 C 
ATOM     11  C   UNL     1      25.118  -8.013 -26.811  1.00  0.00     0.004 C 
ENDBRANCH   9  10
ENDBRANCH   8   9
ENDBRANCH   7   8
ENDBRANCH   1   7
TORSDOF 7
ENDMDL
MODEL 8
REMARK VINA RESULT:    -2.924     15.884     17.010
REMARK INTER + INTRA:          -4.783
REMARK INTER:                  -4.471
REMARK INTRA:                  -0.312
REMARK UNBOUND:                -0.662
REMARK SMILES CCCCCCCCC(=O)[O-]
REMARK SMILES IDX 6 1 7 2 8 3 9 4 10 5 11 6 5 7 4 8 3 9 2 10 1 11
REMARK H PARENT
REMARK Flexibility Score: inf
ROOT
ATOM      1  C   UNL     1      33.537   7.453 -30.141  1.00  0.00     0.000 C 
ENDROOT
BRANCH   1   2
ATOM      2  C   UNL     1      32.371   8.429 -29.883  1.00  0.00     0.006 C 
BRANCH   2   3
ATOM      3  C   UNL     1      32.802   9.826 -29.406  1.00  0.00     0.053 C 
BRANCH   3   4
ATOM      4  C   UNL     1      32.817   9.929 -27.912  1.00  0.00     0.041 C 
ATOM      5  O   UNL     1      33.672  10.653 -27.336  1.00  0.00    -0.550 OA
ATOM      6  O   UNL     1      31.866   9.256 -27.157  1.00  0.00    -0.550 OA
ENDBRANCH   3   4
ENDBRANCH   2   3
ENDBRANCH   1   2
BRANCH   1   7
ATOM      7  C   UNL     1      34.338   7.719 -31.428  1.00  0.00     0.000 C 
BRANCH   7   8
ATOM      8  C   UNL     1      35.692   6.994 -31.451  1.00  0.00    -0.000 C 
BRANCH   8   9
ATOM      9  C   UNL     1      35.508   5.494 -31.706  1.00  0.00    -0.000 C 
BRANCH   9  10
ATOM     10  C   UNL     1      35.116   5.228 -33.164  1.00  0.00    -0.003 C 
ATOM     11  C   UNL     1      34.160   4.043 -33.271  1.00  0.00     0.004 C 
ENDBRANCH   9  10
ENDBRANCH   8   9
ENDBRANCH   7   8
ENDBRANCH   1   7
TORSDOF 7
ENDMDL
MODEL 9
REMARK VINA RESULT:    -2.905      2.445      3.883
REMARK INTER + INTRA:          -4.756
REMARK INTER:                  -3.944
REMARK INTRA:                  -0.811
REMARK UNBOUND:                -0.662
REMARK SMILES CCCCCCCCC(=O)[O-]
REMARK SMILES IDX 6 1 7 2 8 3 9 4 10 5 11 6 5 7 4 8 3 9 2 10 1 11
REMARK H PARENT
REMARK Flexibility Score: inf
ROOT
ATOM      1  C   UNL     1      25.582  -7.730 -29.237  1.00  0.00     0.000 C 
ENDROOT
BRANCH   1   2
ATOM      2  C   UNL     1      27.053  -7.904 -28.807  1.00  0.00     0.006 C 
BRANCH   2   3
ATOM      3  C   UNL     1      27.969  -6.724 -29.173  1.00  0.00     0.053 C 
BRANCH   3   4
ATOM      4  C   UNL     1      27.501  -5.439 -28.562  1.00  0.00     0.041 C 
ATOM      5  O   UNL     1      27.693  -5.212 -27.338  1.00  0.00    -0.550 OA
ATOM      6  O   UNL     1      26.886  -4.476 -29.352  1.00  0.00    -0.550 OA
ENDBRANCH   3   4
ENDBRANCH   2   3
ENDBRANCH   1   2
BRANCH   1   7
ATOM      7  C   UNL     1      24.545  -7.976 -28.127  1.00  0.00     0.000 C 
BRANCH   7   8
ATOM      8  C   UNL     1      25.160  -7.966 -26.720  1.00  0.00    -0.000 C 
BRANCH   8   9
ATOM      9  C   UNL     1      24.824  -6.664 -25.983  1.00  0.00    -0.000 C 
BRANCH   9  10
ATOM     10  C   UNL     1      23.785  -5.846 -26.758  1.00  0.00    -0.003 C 
ATOM     11  C   UNL     1      24.240  -4.399 -26.930  1.00  0.00     0.004 C 
ENDBRANCH   9  10
ENDBRANCH   8   9
ENDBRANCH   7   8
ENDBRANCH   1   7
TORSDOF 7
ENDMDL
