MODEL 1
REMARK VINA RESULT:    -3.102      0.000      0.000
REMARK INTER + INTRA:          -4.073
REMARK INTER:                  -3.827
REMARK INTRA:                  -0.245
REMARK UNBOUND:                -0.245
REMARK SMILES CCCCCC(=O)[O-]
REMARK SMILES IDX 4 1 5 2 6 3 7 4 8 5 3 6 2 7 1 8
REMARK H PARENT
REMARK Flexibility Score: inf
ROOT
ATOM      1  C   UNL     1     154.367 153.433 159.028  1.00  0.00     0.006 C 
ENDROOT
BRANCH   1   2
ATOM      2  C   UNL     1     154.945 153.098 157.650  1.00  0.00     0.053 C 
BRANCH   2   3
ATOM      3  C   UNL     1     155.098 151.618 157.492  1.00  0.00     0.041 C 
ATOM      4  O   UNL     1     154.081 150.879 157.432  1.00  0.00    -0.550 OA
ATOM      5  O   UNL     1     156.364 151.060 157.361  1.00  0.00    -0.550 OA
ENDBRANCH   2   3
ENDBRANCH   1   2
BRANCH   1   6
ATOM      6  C   UNL     1     152.894 153.847 158.921  1.00  0.00     0.000 C 
BRANCH   6   7
ATOM      7  C   UNL     1     151.985 152.829 159.619  1.00  0.00    -0.003 C 
ATOM      8  C   UNL     1     152.751 152.037 160.674  1.00  0.00     0.004 C 
ENDBRANCH   6   7
ENDBRANCH   1   6
TORSDOF 4
ENDMDL
MODEL 2
REMARK VINA RESULT:    -3.065      1.347      2.156
REMARK INTER + INTRA:          -4.028
REMARK INTER:                  -3.768
REMARK INTRA:                  -0.259
REMARK UNBOUND:                -0.245
REMARK SMILES CCCCCC(=O)[O-]
REMARK SMILES IDX 4 1 5 2 6 3 7 4 8 5 3 6 2 7 1 8
REMARK H PARENT
REMARK Flexibility Score: inf
ROOT
ATOM      1  C   UNL     1     153.258 150.889 159.274  1.00  0.00     0.006 C 
ENDROOT
BRANCH   1   2
ATOM      2  C   UNL     1     153.420 151.057 157.760  1.00  0.00     0.053 C 
BRANCH   2   3
ATOM      3  C   UNL     1     154.712 151.740 157.443  1.00  0.00     0.041 C 
ATOM      4  O   UNL     1     155.802 151.122 157.567  1.00  0.00    -0.550 OA
ATOM      5  O   UNL     1     154.710 153.044 156.964  1.00  0.00    -0.550 OA
ENDBRANCH   2   3
ENDBRANCH   1   2
BRANCH   1   6
ATOM      6  C   UNL     1     152.902 152.223 159.941  1.00  0.00     0.000 C 
BRANCH   6   7
ATOM      7  C   UNL     1     151.665 152.851 159.289  1.00  0.00    -0.003 C 
ATOM      8  C   UNL     1     151.932 154.296 158.879  1.00  0.00     0.004 C 
ENDBRANCH   6   7
ENDBRANCH   1   6
TORSDOF 4
ENDMDL
MODEL 3
REMARK VINA RESULT:    -3.052      1.871      2.453
REMARK INTER + INTRA:          -4.011
REMARK INTER:                  -3.759
REMARK INTRA:                  -0.253
REMARK UNBOUND:                -0.245
REMARK SMILES CCCCCC(=O)[O-]
REMARK SMILES IDX 4 1 5 2 6 3 7 4 8 5 3 6 2 7 1 8
REMARK H PARENT
REMARK Flexibility Score: inf
ROOT
ATOM      1  C   UNL     1     153.164 151.426 157.986  1.00  0.00     0.006 C 
ENDROOT
BRANCH   1   2
ATOM      2  C   UNL     1     154.580 151.718 157.480  1.00  0.00     0.053 C 
BRANCH   2   3
ATOM      3  C   UNL     1     154.863 153.186 157.533  1.00  0.00     0.041 C 
ATOM      4  O   UNL     1     155.353 153.700 158.573  1.00  0.00    -0.550 OA
ATOM      5  O   UNL     1     154.632 153.978 156.415  1.00  0.00    -0.550 OA
ENDBRANCH   2   3
ENDBRANCH   1   2
BRANCH   1   6
ATOM      6  C   UNL     1     153.193 150.875 159.417  1.00  0.00     0.000 C 
BRANCH   6   7
ATOM      7  C   UNL     1     152.736 151.937 160.424  1.00  0.00    -0.003 C 
ATOM      8  C   UNL     1     151.795 152.946 159.773  1.00  0.00     0.004 C 
ENDBRANCH   6   7
ENDBRANCH   1   6
TORSDOF 4
ENDMDL
MODEL 4
REMARK VINA RESULT:    -2.975      2.422      3.731
REMARK INTER + INTRA:          -3.915
REMARK INTER:                  -3.642
REMARK INTRA:                  -0.273
REMARK UNBOUND:                -0.245
REMARK SMILES CCCCCC(=O)[O-]
REMARK SMILES IDX 4 1 5 2 6 3 7 4 8 5 3 6 2 7 1 8
REMARK H PARENT
REMARK Flexibility Score: inf
ROOT
ATOM      1  C   UNL     1     153.557 151.340 157.571  1.00  0.00     0.006 C 
ENDROOT
BRANCH   1   2
ATOM      2  C   UNL     1     153.211 150.876 158.989  1.00  0.00     0.053 C 
BRANCH   2   3
ATOM      3  C   UNL     1     152.661 152.011 159.793  1.00  0.00     0.041 C 
ATOM      4  O   UNL     1     153.140 152.275 160.927  1.00  0.00    -0.550 OA
ATOM      5  O   UNL     1     151.652 152.810 159.268  1.00  0.00    -0.550 OA
ENDBRANCH   2   3
ENDBRANCH   1   2
BRANCH   1   6
ATOM      6  C   UNL     1     154.855 152.154 157.559  1.00  0.00     0.000 C 
BRANCH   6   7
ATOM      7  C   UNL     1     154.603 153.586 157.074  1.00  0.00    -0.003 C 
ATOM      8  C   UNL     1     154.774 154.591 158.209  1.00  0.00     0.004 C 
ENDBRANCH   6   7
ENDBRANCH   1   6
TORSDOF 4
ENDMDL
MODEL 5
REMARK VINA RESULT:    -2.972      2.499      3.880
REMARK INTER + INTRA:          -3.912
REMARK INTER:                  -3.748
REMARK INTRA:                  -0.164
REMARK UNBOUND:                -0.245
REMARK SMILES CCCCCC(=O)[O-]
REMARK SMILES IDX 4 1 5 2 6 3 7 4 8 5 3 6 2 7 1 8
REMARK H PARENT
REMARK Flexibility Score: inf
ROOT
ATOM      1  C   UNL     1     153.997 153.754 158.859  1.00  0.00     0.006 C 
ENDROOT
BRANCH   1   2
ATOM      2  C   UNL     1     153.521 152.647 159.804  1.00  0.00     0.053 C 
BRANCH   2   3
ATOM      3  C   UNL     1     152.030 152.670 159.930  1.00  0.00     0.041 C 
ATOM      4  O   UNL     1     151.484 152.431 161.039  1.00  0.00    -0.550 OA
ATOM      5  O   UNL     1     151.245 153.005 158.833  1.00  0.00    -0.550 OA
ENDBRANCH   2   3
ENDBRANCH   1   2
BRANCH   1   6
ATOM      6  C   UNL     1     155.089 153.239 157.914  1.00  0.00     0.000 C 
BRANCH   6   7
ATOM      7  C   UNL     1     154.830 151.782 157.515  1.00  0.00    -0.003 C 
ATOM      8  C   UNL     1     156.128 150.981 157.479  1.00  0.00     0.004 C 
ENDBRANCH   6   7
ENDBRANCH   1   6
TORSDOF 4
ENDMDL
MODEL 6
REMARK VINA RESULT:    -2.953     12.402     13.133
REMARK INTER + INTRA:          -3.889
REMARK INTER:                  -3.647
REMARK INTRA:                  -0.241
REMARK UNBOUND:                -0.245
REMARK SMILES CCCCCC(=O)[O-]
REMARK SMILES IDX 4 1 5 2 6 3 7 4 8 5 3 6 2 7 1 8
REMARK H PARENT
REMARK Flexibility Score: inf
ROOT
ATOM      1  C   UNL     1     148.690 153.355 147.290  1.00  0.00     0.006 C 
ENDROOT
BRANCH   1   2
ATOM      2  C   UNL     1     148.573 154.480 146.257  1.00  0.00     0.053 C 
BRANCH   2   3
ATOM      3  C   UNL     1     149.816 155.313 146.246  1.00  0.00     0.041 C 
ATOM      4  O   UNL     1     149.775 156.516 146.615  1.00  0.00    -0.550 OA
ATOM      5  O   UNL     1     151.029 154.747 145.875  1.00  0.00    -0.550 OA
ENDBRANCH   2   3
ENDBRANCH   1   2
BRANCH   1   6
ATOM      6  C   UNL     1     148.576 151.980 146.622  1.00  0.00     0.000 C 
BRANCH   6   7
ATOM      7  C   UNL     1     149.958 151.345 146.428  1.00  0.00    -0.003 C 
ATOM      8  C   UNL     1     150.876 151.654 147.607  1.00  0.00     0.004 C 
ENDBRANCH   6   7
ENDBRANCH   1   6
TORSDOF 4
ENDMDL
MODEL 7
REMARK VINA RESULT:    -2.943     11.750     12.499
REMARK INTER + INTRA:          -3.877
REMARK INTER:                  -3.656
REMARK INTRA:                  -0.220
REMARK UNBOUND:                -0.245
REMARK SMILES CCCCCC(=O)[O-]
REMARK SMILES IDX 4 1 5 2 6 3 7 4 8 5 3 6 2 7 1 8
REMARK H PARENT
REMARK Flexibility Score: inf
ROOT
ATOM      1  C   UNL     1     149.039 153.988 146.742  1.00  0.00     0.006 C 
ENDROOT
BRANCH   1   2
ATOM      2  C   UNL     1     148.723 152.577 147.244  1.00  0.00     0.053 C 
BRANCH   2   3
ATOM      3  C   UNL     1     149.828 151.633 146.886  1.00  0.00     0.041 C 
ATOM      4  O   UNL     1     149.715 150.877 145.886  1.00  0.00    -0.550 OA
ATOM      5  O   UNL     1     151.002 151.625 147.627  1.00  0.00    -0.550 OA
ENDBRANCH   2   3
ENDBRANCH   1   2
BRANCH   1   6
ATOM      6  C   UNL     1     149.568 154.872 147.877  1.00  0.00     0.000 C 
BRANCH   6   7
ATOM      7  C   UNL     1     150.763 155.710 147.411  1.00  0.00    -0.003 C 
ATOM      8  C   UNL     1     151.610 154.947 146.398  1.00  0.00     0.004 C 
ENDBRANCH   6   7
ENDBRANCH   1   6
TORSDOF 4
ENDMDL
MODEL 8
REMARK VINA RESULT:    -2.936      2.687      4.046
REMARK INTER + INTRA:          -3.868
REMARK INTER:                  -3.664
REMARK INTRA:                  -0.204
REMARK UNBOUND:                -0.245
REMARK SMILES CCCCCC(=O)[O-]
REMARK SMILES IDX 4 1 5 2 6 3 7 4 8 5 3 6 2 7 1 8
REMARK H PARENT
REMARK Flexibility Score: inf
ROOT
ATOM      1  C   UNL     1     153.244 152.295 159.675  1.00  0.00     0.006 C 
ENDROOT
BRANCH   1   2
ATOM      2  C   UNL     1     151.803 152.749 159.920  1.00  0.00     0.053 C 
BRANCH   2   3
ATOM      3  C   UNL     1     151.310 153.573 158.773  1.00  0.00     0.041 C 
ATOM      4  O   UNL     1     150.866 153.014 157.736  1.00  0.00    -0.550 OA
ATOM      5  O   UNL     1     151.295 154.959 158.869  1.00  0.00    -0.550 OA
ENDBRANCH   2   3
ENDBRANCH   1   2
BRANCH   1   6
ATOM      6  C   UNL     1     153.284 150.877 159.092  1.00  0.00     0.000 C 
BRANCH   6   7
ATOM      7  C   UNL     1     153.783 150.891 157.643  1.00  0.00    -0.003 C 
ATOM      8  C   UNL     1     154.886 151.927 157.450  1.00  0.00     0.004 C 
ENDBRANCH   6   7
ENDBRANCH   1   6
TORSDOF 4
ENDMDL
MODEL 9
REMARK VINA RESULT:    -2.908     12.594     13.177
REMARK INTER + INTRA:          -3.833
REMARK INTER:                  -3.616
REMARK INTRA:                  -0.217
REMARK UNBOUND:                -0.245
REMARK SMILES CCCCCC(=O)[O-]
REMARK SMILES IDX 4 1 5 2 6 3 7 4 8 5 3 6 2 7 1 8
REMARK H PARENT
REMARK Flexibility Score: inf
ROOT
ATOM      1  C   UNL     1     150.833 153.137 147.072  1.00  0.00     0.006 C 
ENDROOT
BRANCH   1   2
ATOM      2  C   UNL     1     151.038 154.487 146.378  1.00  0.00     0.053 C 
BRANCH   2   3
ATOM      3  C   UNL     1     149.752 155.251 146.327  1.00  0.00     0.041 C 
ATOM      4  O   UNL     1     149.752 156.501 146.474  1.00  0.00    -0.550 OA
ATOM      5  O   UNL     1     148.560 154.587 146.068  1.00  0.00    -0.550 OA
ENDBRANCH   2   3
ENDBRANCH   1   2
BRANCH   1   6
ATOM      6  C   UNL     1     150.898 151.984 146.064  1.00  0.00     0.000 C 
BRANCH   6   7
ATOM      7  C   UNL     1     149.654 151.094 146.164  1.00  0.00    -0.003 C 
ATOM      8  C   UNL     1     148.921 151.317 147.483  1.00  0.00     0.004 C 
ENDBRANCH   6   7
ENDBRANCH   1   6
TORSDOF 4
ENDMDL
