MODEL 1
REMARK VINA RESULT:    -4.387      0.000      0.000
REMARK INTER + INTRA:         -16.307
REMARK INTER:                 -11.568
REMARK INTRA:                  -4.738
REMARK UNBOUND:                -4.738
REMARK SMILES CCCCCCCCCCCCCCCCCCCCCCCCCCCCCC(=O)[O-]
REMARK SMILES IDX 16 1 17 2 18 3 19 4 20 5 21 6 22 7 23 8 24 9 25 10 26 11
REMARK SMILES IDX 27 12 28 13 29 14 30 15 31 16 32 17 15 18 14 19 13 20 12 21
REMARK SMILES IDX 11 22 10 23 9 24 8 25 7 26 6 27 5 28 4 29 3 30 2 31 1 32
REMARK H PARENT
REMARK Flexibility Score: inf
ROOT
ATOM      1  C   UNL     1      15.286  35.875  66.348  1.00  0.00     0.000 C 
ENDROOT
BRANCH   1   2
ATOM      2  C   UNL     1      14.995  34.612  67.178  1.00  0.00     0.000 C 
BRANCH   2   3
ATOM      3  C   UNL     1      13.731  34.685  68.059  1.00  0.00     0.000 C 
BRANCH   3   4
ATOM      4  C   UNL     1      12.813  33.452  67.990  1.00  0.00     0.000 C 
BRANCH   4   5
ATOM      5  C   UNL     1      12.906  32.721  66.640  1.00  0.00     0.000 C 
BRANCH   5   6
ATOM      6  C   UNL     1      12.081  31.421  66.612  1.00  0.00     0.000 C 
BRANCH   6   7
ATOM      7  C   UNL     1      11.375  31.075  67.940  1.00  0.00     0.000 C 
BRANCH   7   8
ATOM      8  C   UNL     1      11.016  29.579  68.069  1.00  0.00     0.000 C 
BRANCH   8   9
ATOM      9  C   UNL     1       9.571  29.365  68.562  1.00  0.00     0.000 C 
BRANCH   9  10
ATOM     10  C   UNL     1       8.748  28.483  67.610  1.00  0.00     0.000 C 
BRANCH  10  11
ATOM     11  C   UNL     1       8.237  29.258  66.383  1.00  0.00     0.000 C 
BRANCH  11  12
ATOM     12  C   UNL     1       7.843  30.705  66.728  1.00  0.00     0.000 C 
BRANCH  12  13
ATOM     13  C   UNL     1       8.344  31.716  65.681  1.00  0.00     0.006 C 
BRANCH  13  14
ATOM     14  C   UNL     1       8.757  33.055  66.315  1.00  0.00     0.053 C 
BRANCH  14  15
ATOM     15  C   UNL     1       7.662  34.081  66.374  1.00  0.00     0.041 C 
ATOM     16  O   UNL     1       6.631  33.909  67.081  1.00  0.00    -0.550 OA
ATOM     17  O   UNL     1       7.767  35.231  65.599  1.00  0.00    -0.550 OA
ENDBRANCH  14  15
ENDBRANCH  13  14
ENDBRANCH  12  13
ENDBRANCH  11  12
ENDBRANCH  10  11
ENDBRANCH   9  10
ENDBRANCH   8   9
ENDBRANCH   7   8
ENDBRANCH   6   7
ENDBRANCH   5   6
ENDBRANCH   4   5
ENDBRANCH   3   4
ENDBRANCH   2   3
ENDBRANCH   1   2
BRANCH   1  18
ATOM     18  C   UNL     1      16.737  35.935  65.845  1.00  0.00     0.000 C 
BRANCH  18  19
ATOM     19  C   UNL     1      17.521  34.686  66.272  1.00  0.00     0.000 C 
BRANCH  19  20
ATOM     20  C   UNL     1      19.019  34.765  65.933  1.00  0.00     0.000 C 
BRANCH  20  21
ATOM     21  C   UNL     1      19.842  33.566  66.442  1.00  0.00     0.000 C 
BRANCH  21  22
ATOM     22  C   UNL     1      18.957  32.397  66.916  1.00  0.00     0.000 C 
BRANCH  22  23
ATOM     23  C   UNL     1      19.459  31.796  68.239  1.00  0.00     0.000 C 
BRANCH  23  24
ATOM     24  C   UNL     1      19.245  30.274  68.294  1.00  0.00    -0.000 C 
BRANCH  24  25
ATOM     25  C   UNL     1      18.937  29.767  69.714  1.00  0.00    -0.000 C 
BRANCH  25  26
ATOM     26  C   UNL     1      18.769  30.874  70.775  1.00  0.00    -0.000 C 
BRANCH  26  27
ATOM     27  C   UNL     1      17.403  30.900  71.490  1.00  0.00    -0.000 C 
BRANCH  27  28
ATOM     28  C   UNL     1      16.310  30.026  70.845  1.00  0.00    -0.000 C 
BRANCH  28  29
ATOM     29  C   UNL     1      15.218  30.812  70.097  1.00  0.00    -0.000 C 
BRANCH  29  30
ATOM     30  C   UNL     1      15.678  31.310  68.718  1.00  0.00    -0.000 C 
BRANCH  30  31
ATOM     31  C   UNL     1      15.462  30.236  67.647  1.00  0.00    -0.003 C 
ATOM     32  C   UNL     1      15.922  30.723  66.277  1.00  0.00     0.004 C 
ENDBRANCH  30  31
ENDBRANCH  29  30
ENDBRANCH  28  29
ENDBRANCH  27  28
ENDBRANCH  26  27
ENDBRANCH  25  26
ENDBRANCH  24  25
ENDBRANCH  23  24
ENDBRANCH  22  23
ENDBRANCH  21  22
ENDBRANCH  20  21
ENDBRANCH  19  20
ENDBRANCH  18  19
ENDBRANCH   1  18
TORSDOF 28
ENDMDL
MODEL 2
REMARK VINA RESULT:    -4.382      1.867      3.913
REMARK INTER + INTRA:         -16.293
REMARK INTER:                 -12.010
REMARK INTRA:                  -4.283
REMARK UNBOUND:                -4.738
REMARK SMILES CCCCCCCCCCCCCCCCCCCCCCCCCCCCCC(=O)[O-]
REMARK SMILES IDX 16 1 17 2 18 3 19 4 20 5 21 6 22 7 23 8 24 9 25 10 26 11
REMARK SMILES IDX 27 12 28 13 29 14 30 15 31 16 32 17 15 18 14 19 13 20 12 21
REMARK SMILES IDX 11 22 10 23 9 24 8 25 7 26 6 27 5 28 4 29 3 30 2 31 1 32
REMARK H PARENT
REMARK Flexibility Score: inf
ROOT
ATOM      1  C   UNL     1      13.914  33.649  66.756  1.00  0.00     0.000 C 
ENDROOT
BRANCH   1   2
ATOM      2  C   UNL     1      14.737  32.414  67.166  1.00  0.00     0.000 C 
BRANCH   2   3
ATOM      3  C   UNL     1      15.153  32.369  68.651  1.00  0.00     0.000 C 
BRANCH   3   4
ATOM      4  C   UNL     1      15.589  30.986  69.167  1.00  0.00     0.000 C 
BRANCH   4   5
ATOM      5  C   UNL     1      15.531  29.904  68.075  1.00  0.00     0.000 C 
BRANCH   5   6
ATOM      6  C   UNL     1      14.475  28.822  68.370  1.00  0.00     0.000 C 
BRANCH   6   7
ATOM      7  C   UNL     1      13.250  28.842  67.432  1.00  0.00     0.000 C 
BRANCH   7   8
ATOM      8  C   UNL     1      11.947  29.278  68.137  1.00  0.00     0.000 C 
BRANCH   8   9
ATOM      9  C   UNL     1      11.650  30.778  67.940  1.00  0.00     0.000 C 
BRANCH   9  10
ATOM     10  C   UNL     1      11.279  31.120  66.488  1.00  0.00     0.000 C 
BRANCH  10  11
ATOM     11  C   UNL     1      10.231  32.242  66.397  1.00  0.00     0.000 C 
BRANCH  11  12
ATOM     12  C   UNL     1       8.800  31.697  66.256  1.00  0.00     0.000 C 
BRANCH  12  13
ATOM     13  C   UNL     1       7.802  32.776  65.796  1.00  0.00     0.006 C 
BRANCH  13  14
ATOM     14  C   UNL     1       8.098  34.148  66.424  1.00  0.00     0.053 C 
BRANCH  14  15
ATOM     15  C   UNL     1       7.003  35.162  66.248  1.00  0.00     0.041 C 
ATOM     16  O   UNL     1       7.032  36.011  65.315  1.00  0.00    -0.550 OA
ATOM     17  O   UNL     1       5.954  35.192  67.160  1.00  0.00    -0.550 OA
ENDBRANCH  14  15
ENDBRANCH  13  14
ENDBRANCH  12  13
ENDBRANCH  11  12
ENDBRANCH  10  11
ENDBRANCH   9  10
ENDBRANCH   8   9
ENDBRANCH   7   8
ENDBRANCH   6   7
ENDBRANCH   5   6
ENDBRANCH   4   5
ENDBRANCH   3   4
ENDBRANCH   2   3
ENDBRANCH   1   2
BRANCH   1  18
ATOM     18  C   UNL     1      13.976  34.778  67.796  1.00  0.00     0.000 C 
BRANCH  18  19
ATOM     19  C   UNL     1      14.321  36.119  67.134  1.00  0.00     0.000 C 
BRANCH  19  20
ATOM     20  C   UNL     1      15.118  35.964  65.827  1.00  0.00     0.000 C 
BRANCH  20  21
ATOM     21  C   UNL     1      16.642  36.116  65.999  1.00  0.00     0.000 C 
BRANCH  21  22
ATOM     22  C   UNL     1      17.320  34.811  66.457  1.00  0.00     0.000 C 
BRANCH  22  23
ATOM     23  C   UNL     1      18.758  34.692  65.923  1.00  0.00     0.000 C 
BRANCH  23  24
ATOM     24  C   UNL     1      19.432  33.387  66.379  1.00  0.00    -0.000 C 
BRANCH  24  25
ATOM     25  C   UNL     1      18.418  32.316  66.817  1.00  0.00    -0.000 C 
BRANCH  25  26
ATOM     26  C   UNL     1      18.580  30.947  66.125  1.00  0.00    -0.000 C 
BRANCH  26  27
ATOM     27  C   UNL     1      18.886  31.004  64.616  1.00  0.00    -0.000 C 
BRANCH  27  28
ATOM     28  C   UNL     1      17.676  30.763  63.692  1.00  0.00    -0.000 C 
BRANCH  28  29
ATOM     29  C   UNL     1      16.347  30.513  64.428  1.00  0.00    -0.000 C 
BRANCH  29  30
ATOM     30  C   UNL     1      15.345  29.704  63.591  1.00  0.00    -0.000 C 
BRANCH  30  31
ATOM     31  C   UNL     1      15.692  29.772  62.101  1.00  0.00    -0.003 C 
ATOM     32  C   UNL     1      15.152  28.558  61.352  1.00  0.00     0.004 C 
ENDBRANCH  30  31
ENDBRANCH  29  30
ENDBRANCH  28  29
ENDBRANCH  27  28
ENDBRANCH  26  27
ENDBRANCH  25  26
ENDBRANCH  24  25
ENDBRANCH  23  24
ENDBRANCH  22  23
ENDBRANCH  21  22
ENDBRANCH  20  21
ENDBRANCH  19  20
ENDBRANCH  18  19
ENDBRANCH   1  18
TORSDOF 28
ENDMDL
MODEL 3
REMARK VINA RESULT:    -4.347      9.976     14.018
REMARK INTER + INTRA:         -16.202
REMARK INTER:                 -11.010
REMARK INTRA:                  -5.192
REMARK UNBOUND:                -4.738
REMARK SMILES CCCCCCCCCCCCCCCCCCCCCCCCCCCCCC(=O)[O-]
REMARK SMILES IDX 16 1 17 2 18 3 19 4 20 5 21 6 22 7 23 8 24 9 25 10 26 11
REMARK SMILES IDX 27 12 28 13 29 14 30 15 31 16 32 17 15 18 14 19 13 20 12 21
REMARK SMILES IDX 11 22 10 23 9 24 8 25 7 26 6 27 5 28 4 29 3 30 2 31 1 32
REMARK H PARENT
REMARK Flexibility Score: inf
ROOT
ATOM      1  C   UNL     1      14.090  45.262  61.576  1.00  0.00     0.000 C 
ENDROOT
BRANCH   1   2
ATOM      2  C   UNL     1      13.946  44.675  60.160  1.00  0.00     0.000 C 
BRANCH   2   3
ATOM      3  C   UNL     1      14.711  43.358  59.916  1.00  0.00     0.000 C 
BRANCH   3   4
ATOM      4  C   UNL     1      15.044  42.551  61.184  1.00  0.00     0.000 C 
BRANCH   4   5
ATOM      5  C   UNL     1      16.553  42.509  61.478  1.00  0.00     0.000 C 
BRANCH   5   6
ATOM      6  C   UNL     1      17.374  43.350  60.480  1.00  0.00     0.000 C 
BRANCH   6   7
ATOM      7  C   UNL     1      18.793  43.718  60.960  1.00  0.00     0.000 C 
BRANCH   7   8
ATOM      8  C   UNL     1      19.591  42.510  61.495  1.00  0.00     0.000 C 
BRANCH   8   9
ATOM      9  C   UNL     1      21.094  42.819  61.639  1.00  0.00     0.000 C 
BRANCH   9  10
ATOM     10  C   UNL     1      21.599  42.634  63.078  1.00  0.00     0.000 C 
BRANCH  10  11
ATOM     11  C   UNL     1      22.773  41.644  63.167  1.00  0.00     0.000 C 
BRANCH  11  12
ATOM     12  C   UNL     1      22.535  40.548  64.220  1.00  0.00     0.000 C 
BRANCH  12  13
ATOM     13  C   UNL     1      21.047  40.176  64.357  1.00  0.00     0.006 C 
BRANCH  13  14
ATOM     14  C   UNL     1      20.680  39.765  65.792  1.00  0.00     0.053 C 
BRANCH  14  15
ATOM     15  C   UNL     1      20.511  38.285  65.992  1.00  0.00     0.041 C 
ATOM     16  O   UNL     1      21.361  37.603  66.627  1.00  0.00    -0.550 OA
ATOM     17  O   UNL     1      19.412  37.646  65.429  1.00  0.00    -0.550 OA
ENDBRANCH  14  15
ENDBRANCH  13  14
ENDBRANCH  12  13
ENDBRANCH  11  12
ENDBRANCH  10  11
ENDBRANCH   9  10
ENDBRANCH   8   9
ENDBRANCH   7   8
ENDBRANCH   6   7
ENDBRANCH   5   6
ENDBRANCH   4   5
ENDBRANCH   3   4
ENDBRANCH   2   3
ENDBRANCH   1   2
BRANCH   1  18
ATOM     18  C   UNL     1      15.319  46.173  61.720  1.00  0.00     0.000 C 
BRANCH  18  19
ATOM     19  C   UNL     1      16.094  45.855  63.007  1.00  0.00     0.000 C 
BRANCH  19  20
ATOM     20  C   UNL     1      15.281  45.023  64.013  1.00  0.00     0.000 C 
BRANCH  20  21
ATOM     21  C   UNL     1      16.128  44.035  64.840  1.00  0.00     0.000 C 
BRANCH  21  22
ATOM     22  C   UNL     1      17.635  44.156  64.546  1.00  0.00     0.000 C 
BRANCH  22  23
ATOM     23  C   UNL     1      18.414  42.916  65.016  1.00  0.00     0.000 C 
BRANCH  23  24
ATOM     24  C   UNL     1      19.439  43.264  66.109  1.00  0.00    -0.000 C 
BRANCH  24  25
ATOM     25  C   UNL     1      19.178  42.516  67.428  1.00  0.00    -0.000 C 
BRANCH  25  26
ATOM     26  C   UNL     1      18.559  43.376  68.550  1.00  0.00    -0.000 C 
BRANCH  26  27
ATOM     27  C   UNL     1      17.037  43.597  68.447  1.00  0.00    -0.000 C 
BRANCH  27  28
ATOM     28  C   UNL     1      16.588  45.071  68.442  1.00  0.00    -0.000 C 
BRANCH  28  29
ATOM     29  C   UNL     1      15.099  45.288  68.116  1.00  0.00    -0.000 C 
BRANCH  29  30
ATOM     30  C   UNL     1      14.336  43.972  67.902  1.00  0.00    -0.000 C 
BRANCH  30  31
ATOM     31  C   UNL     1      12.952  44.231  67.299  1.00  0.00    -0.003 C 
ATOM     32  C   UNL     1      12.398  42.977  66.630  1.00  0.00     0.004 C 
ENDBRANCH  30  31
ENDBRANCH  29  30
ENDBRANCH  28  29
ENDBRANCH  27  28
ENDBRANCH  26  27
ENDBRANCH  25  26
ENDBRANCH  24  25
ENDBRANCH  23  24
ENDBRANCH  22  23
ENDBRANCH  21  22
ENDBRANCH  20  21
ENDBRANCH  19  20
ENDBRANCH  18  19
ENDBRANCH   1  18
TORSDOF 28
ENDMDL
MODEL 4
REMARK VINA RESULT:    -4.333      1.204      4.079
REMARK INTER + INTRA:         -16.165
REMARK INTER:                 -11.200
REMARK INTRA:                  -4.965
REMARK UNBOUND:                -4.738
REMARK SMILES CCCCCCCCCCCCCCCCCCCCCCCCCCCCCC(=O)[O-]
REMARK SMILES IDX 16 1 17 2 18 3 19 4 20 5 21 6 22 7 23 8 24 9 25 10 26 11
REMARK SMILES IDX 27 12 28 13 29 14 30 15 31 16 32 17 15 18 14 19 13 20 12 21
REMARK SMILES IDX 11 22 10 23 9 24 8 25 7 26 6 27 5 28 4 29 3 30 2 31 1 32
REMARK H PARENT
REMARK Flexibility Score: inf
ROOT
ATOM      1  C   UNL     1      15.147  31.987  68.855  1.00  0.00     0.000 C 
ENDROOT
BRANCH   1   2
ATOM      2  C   UNL     1      15.277  32.007  67.321  1.00  0.00     0.000 C 
BRANCH   2   3
ATOM      3  C   UNL     1      14.143  32.742  66.578  1.00  0.00     0.000 C 
BRANCH   3   4
ATOM      4  C   UNL     1      13.295  31.860  65.644  1.00  0.00     0.000 C 
BRANCH   4   5
ATOM      5  C   UNL     1      11.797  31.898  65.995  1.00  0.00     0.000 C 
BRANCH   5   6
ATOM      6  C   UNL     1      11.543  32.324  67.454  1.00  0.00     0.000 C 
BRANCH   6   7
ATOM      7  C   UNL     1      10.941  31.223  68.353  1.00  0.00     0.000 C 
BRANCH   7   8
ATOM      8  C   UNL     1      11.079  29.805  67.757  1.00  0.00     0.000 C 
BRANCH   8   9
ATOM      9  C   UNL     1       9.711  29.135  67.522  1.00  0.00     0.000 C 
BRANCH   9  10
ATOM     10  C   UNL     1       9.234  29.266  66.067  1.00  0.00     0.000 C 
BRANCH  10  11
ATOM     11  C   UNL     1       7.836  29.901  65.960  1.00  0.00     0.000 C 
BRANCH  11  12
ATOM     12  C   UNL     1       7.891  31.355  65.461  1.00  0.00     0.000 C 
BRANCH  12  13
ATOM     13  C   UNL     1       7.891  32.373  66.616  1.00  0.00     0.006 C 
BRANCH  13  14
ATOM     14  C   UNL     1       8.371  33.763  66.167  1.00  0.00     0.053 C 
BRANCH  14  15
ATOM     15  C   UNL     1       7.276  34.679  65.700  1.00  0.00     0.041 C 
ATOM     16  O   UNL     1       6.522  35.279  66.515  1.00  0.00    -0.550 OA
ATOM     17  O   UNL     1       7.061  34.840  64.335  1.00  0.00    -0.550 OA
ENDBRANCH  14  15
ENDBRANCH  13  14
ENDBRANCH  12  13
ENDBRANCH  11  12
ENDBRANCH  10  11
ENDBRANCH   9  10
ENDBRANCH   8   9
ENDBRANCH   7   8
ENDBRANCH   6   7
ENDBRANCH   5   6
ENDBRANCH   4   5
ENDBRANCH   3   4
ENDBRANCH   2   3
ENDBRANCH   1   2
BRANCH   1  18
ATOM     18  C   UNL     1      14.329  30.791  69.367  1.00  0.00     0.000 C 
BRANCH  18  19
ATOM     19  C   UNL     1      14.663  29.517  68.578  1.00  0.00     0.000 C 
BRANCH  19  20
ATOM     20  C   UNL     1      15.243  28.395  69.455  1.00  0.00     0.000 C 
BRANCH  20  21
ATOM     21  C   UNL     1      14.602  28.296  70.854  1.00  0.00     0.000 C 
BRANCH  21  22
ATOM     22  C   UNL     1      15.565  28.720  71.978  1.00  0.00     0.000 C 
BRANCH  22  23
ATOM     23  C   UNL     1      16.983  28.994  71.448  1.00  0.00     0.000 C 
BRANCH  23  24
ATOM     24  C   UNL     1      17.310  30.496  71.437  1.00  0.00    -0.000 C 
BRANCH  24  25
ATOM     25  C   UNL     1      18.461  30.846  70.477  1.00  0.00    -0.000 C 
BRANCH  25  26
ATOM     26  C   UNL     1      18.413  30.124  69.115  1.00  0.00    -0.000 C 
BRANCH  26  27
ATOM     27  C   UNL     1      18.800  30.986  67.898  1.00  0.00    -0.000 C 
BRANCH  27  28
ATOM     28  C   UNL     1      19.622  32.248  68.223  1.00  0.00    -0.000 C 
BRANCH  28  29
ATOM     29  C   UNL     1      19.627  33.315  67.113  1.00  0.00    -0.000 C 
BRANCH  29  30
ATOM     30  C   UNL     1      18.223  33.619  66.571  1.00  0.00    -0.000 C 
BRANCH  30  31
ATOM     31  C   UNL     1      18.258  34.787  65.579  1.00  0.00    -0.003 C 
ATOM     32  C   UNL     1      17.200  35.832  65.919  1.00  0.00     0.004 C 
ENDBRANCH  30  31
ENDBRANCH  29  30
ENDBRANCH  28  29
ENDBRANCH  27  28
ENDBRANCH  26  27
ENDBRANCH  25  26
ENDBRANCH  24  25
ENDBRANCH  23  24
ENDBRANCH  22  23
ENDBRANCH  21  22
ENDBRANCH  20  21
ENDBRANCH  19  20
ENDBRANCH  18  19
ENDBRANCH   1  18
TORSDOF 28
ENDMDL
MODEL 5
REMARK VINA RESULT:    -4.326      5.245      9.193
REMARK INTER + INTRA:         -16.145
REMARK INTER:                 -12.833
REMARK INTRA:                  -3.312
REMARK UNBOUND:                -4.738
REMARK SMILES CCCCCCCCCCCCCCCCCCCCCCCCCCCCCC(=O)[O-]
REMARK SMILES IDX 16 1 17 2 18 3 19 4 20 5 21 6 22 7 23 8 24 9 25 10 26 11
REMARK SMILES IDX 27 12 28 13 29 14 30 15 31 16 32 17 15 18 14 19 13 20 12 21
REMARK SMILES IDX 11 22 10 23 9 24 8 25 7 26 6 27 5 28 4 29 3 30 2 31 1 32
REMARK H PARENT
REMARK Flexibility Score: inf
ROOT
ATOM      1  C   UNL     1      17.209  36.127  65.897  1.00  0.00     0.000 C 
ENDROOT
BRANCH   1   2
ATOM      2  C   UNL     1      15.696  35.878  66.041  1.00  0.00     0.000 C 
BRANCH   2   3
ATOM      3  C   UNL     1      15.081  36.344  67.376  1.00  0.00     0.000 C 
BRANCH   3   4
ATOM      4  C   UNL     1      13.786  35.621  67.787  1.00  0.00     0.000 C 
BRANCH   4   5
ATOM      5  C   UNL     1      13.745  34.162  67.301  1.00  0.00     0.000 C 
BRANCH   5   6
ATOM      6  C   UNL     1      14.162  33.162  68.395  1.00  0.00     0.000 C 
BRANCH   6   7
ATOM      7  C   UNL     1      15.431  32.345  68.074  1.00  0.00     0.000 C 
BRANCH   7   8
ATOM      8  C   UNL     1      15.706  32.212  66.561  1.00  0.00     0.000 C 
BRANCH   8   9
ATOM      9  C   UNL     1      15.829  30.741  66.117  1.00  0.00     0.000 C 
BRANCH   9  10
ATOM     10  C   UNL     1      16.902  30.540  65.035  1.00  0.00     0.000 C 
BRANCH  10  11
ATOM     11  C   UNL     1      18.116  31.465  65.231  1.00  0.00     0.000 C 
BRANCH  11  12
ATOM     12  C   UNL     1      19.342  30.713  65.776  1.00  0.00     0.000 C 
BRANCH  12  13
ATOM     13  C   UNL     1      19.133  30.213  67.217  1.00  0.00     0.006 C 
BRANCH  13  14
ATOM     14  C   UNL     1      19.025  31.369  68.225  1.00  0.00     0.053 C 
BRANCH  14  15
ATOM     15  C   UNL     1      18.895  30.936  69.658  1.00  0.00     0.041 C 
ATOM     16  O   UNL     1      17.784  30.954  70.256  1.00  0.00    -0.550 OA
ATOM     17  O   UNL     1      20.033  30.545  70.354  1.00  0.00    -0.550 OA
ENDBRANCH  14  15
ENDBRANCH  13  14
ENDBRANCH  12  13
ENDBRANCH  11  12
ENDBRANCH  10  11
ENDBRANCH   9  10
ENDBRANCH   8   9
ENDBRANCH   7   8
ENDBRANCH   6   7
ENDBRANCH   5   6
ENDBRANCH   4   5
ENDBRANCH   3   4
ENDBRANCH   2   3
ENDBRANCH   1   2
BRANCH   1  18
ATOM     18  C   UNL     1      18.041  34.847  66.074  1.00  0.00     0.000 C 
BRANCH  18  19
ATOM     19  C   UNL     1      19.501  35.077  65.657  1.00  0.00     0.000 C 
BRANCH  19  20
ATOM     20  C   UNL     1      20.500  34.219  66.452  1.00  0.00     0.000 C 
BRANCH  20  21
ATOM     21  C   UNL     1      21.567  35.036  67.208  1.00  0.00     0.000 C 
BRANCH  21  22
ATOM     22  C   UNL     1      22.601  35.678  66.264  1.00  0.00     0.000 C 
BRANCH  22  23
ATOM     23  C   UNL     1      22.906  37.135  66.652  1.00  0.00     0.000 C 
BRANCH  23  24
ATOM     24  C   UNL     1      21.642  37.884  67.105  1.00  0.00    -0.000 C 
BRANCH  24  25
ATOM     25  C   UNL     1      21.779  39.411  66.978  1.00  0.00    -0.000 C 
BRANCH  25  26
ATOM     26  C   UNL     1      23.013  39.888  66.186  1.00  0.00    -0.000 C 
BRANCH  26  27
ATOM     27  C   UNL     1      22.744  41.002  65.154  1.00  0.00    -0.000 C 
BRANCH  27  28
ATOM     28  C   UNL     1      22.014  40.547  63.875  1.00  0.00    -0.000 C 
BRANCH  28  29
ATOM     29  C   UNL     1      22.096  41.541  62.702  1.00  0.00    -0.000 C 
BRANCH  29  30
ATOM     30  C   UNL     1      20.952  41.369  61.693  1.00  0.00    -0.000 C 
BRANCH  30  31
ATOM     31  C   UNL     1      20.543  42.717  61.090  1.00  0.00    -0.003 C 
ATOM     32  C   UNL     1      19.028  42.828  60.961  1.00  0.00     0.004 C 
ENDBRANCH  30  31
ENDBRANCH  29  30
ENDBRANCH  28  29
ENDBRANCH  27  28
ENDBRANCH  26  27
ENDBRANCH  25  26
ENDBRANCH  24  25
ENDBRANCH  23  24
ENDBRANCH  22  23
ENDBRANCH  21  22
ENDBRANCH  20  21
ENDBRANCH  19  20
ENDBRANCH  18  19
ENDBRANCH   1  18
TORSDOF 28
ENDMDL
MODEL 6
REMARK VINA RESULT:    -4.298      2.961      8.704
REMARK INTER + INTRA:         -16.072
REMARK INTER:                 -11.715
REMARK INTRA:                  -4.357
REMARK UNBOUND:                -4.738
REMARK SMILES CCCCCCCCCCCCCCCCCCCCCCCCCCCCCC(=O)[O-]
REMARK SMILES IDX 16 1 17 2 18 3 19 4 20 5 21 6 22 7 23 8 24 9 25 10 26 11
REMARK SMILES IDX 27 12 28 13 29 14 30 15 31 16 32 17 15 18 14 19 13 20 12 21
REMARK SMILES IDX 11 22 10 23 9 24 8 25 7 26 6 27 5 28 4 29 3 30 2 31 1 32
REMARK H PARENT
REMARK Flexibility Score: inf
ROOT
ATOM      1  C   UNL     1      15.070  33.342  67.769  1.00  0.00     0.000 C 
ENDROOT
BRANCH   1   2
ATOM      2  C   UNL     1      15.323  31.854  68.071  1.00  0.00     0.000 C 
BRANCH   2   3
ATOM      3  C   UNL     1      15.149  31.447  69.548  1.00  0.00     0.000 C 
BRANCH   3   4
ATOM      4  C   UNL     1      14.844  29.957  69.785  1.00  0.00     0.000 C 
BRANCH   4   5
ATOM      5  C   UNL     1      15.269  29.483  71.185  1.00  0.00     0.000 C 
BRANCH   5   6
ATOM      6  C   UNL     1      16.772  29.695  71.451  1.00  0.00     0.000 C 
BRANCH   6   7
ATOM      7  C   UNL     1      17.693  28.613  70.848  1.00  0.00     0.000 C 
BRANCH   7   8
ATOM      8  C   UNL     1      18.765  29.185  69.896  1.00  0.00     0.000 C 
BRANCH   8   9
ATOM      9  C   UNL     1      18.813  30.726  69.927  1.00  0.00     0.000 C 
BRANCH   9  10
ATOM     10  C   UNL     1      19.022  31.337  68.533  1.00  0.00     0.000 C 
BRANCH  10  11
ATOM     11  C   UNL     1      18.576  30.393  67.403  1.00  0.00     0.000 C 
BRANCH  11  12
ATOM     12  C   UNL     1      19.470  30.508  66.157  1.00  0.00     0.000 C 
BRANCH  12  13
ATOM     13  C   UNL     1      18.669  30.851  64.888  1.00  0.00     0.006 C 
BRANCH  13  14
ATOM     14  C   UNL     1      17.152  30.836  65.135  1.00  0.00     0.053 C 
BRANCH  14  15
ATOM     15  C   UNL     1      16.340  30.291  63.994  1.00  0.00     0.041 C 
ATOM     16  O   UNL     1      15.274  29.646  64.190  1.00  0.00    -0.550 OA
ATOM     17  O   UNL     1      16.796  30.467  62.692  1.00  0.00    -0.550 OA
ENDBRANCH  14  15
ENDBRANCH  13  14
ENDBRANCH  12  13
ENDBRANCH  11  12
ENDBRANCH  10  11
ENDBRANCH   9  10
ENDBRANCH   8   9
ENDBRANCH   7   8
ENDBRANCH   6   7
ENDBRANCH   5   6
ENDBRANCH   4   5
ENDBRANCH   3   4
ENDBRANCH   2   3
ENDBRANCH   1   2
BRANCH   1  18
ATOM     18  C   UNL     1      14.149  33.555  66.557  1.00  0.00     0.000 C 
BRANCH  18  19
ATOM     19  C   UNL     1      13.707  32.213  65.958  1.00  0.00     0.000 C 
BRANCH  19  20
ATOM     20  C   UNL     1      12.212  31.919  66.170  1.00  0.00     0.000 C 
BRANCH  20  21
ATOM     21  C   UNL     1      11.618  32.563  67.438  1.00  0.00     0.000 C 
BRANCH  21  22
ATOM     22  C   UNL     1      11.386  31.543  68.568  1.00  0.00     0.000 C 
BRANCH  22  23
ATOM     23  C   UNL     1      11.154  30.124  68.023  1.00  0.00     0.000 C 
BRANCH  23  24
ATOM     24  C   UNL     1       9.838  29.520  68.541  1.00  0.00    -0.000 C 
BRANCH  24  25
ATOM     25  C   UNL     1       8.621  29.929  67.691  1.00  0.00    -0.000 C 
BRANCH  25  26
ATOM     26  C   UNL     1       8.867  29.937  66.169  1.00  0.00    -0.000 C 
BRANCH  26  27
ATOM     27  C   UNL     1       8.116  31.031  65.385  1.00  0.00    -0.000 C 
BRANCH  27  28
ATOM     28  C   UNL     1       8.453  32.478  65.794  1.00  0.00    -0.000 C 
BRANCH  28  29
ATOM     29  C   UNL     1       7.238  33.418  65.890  1.00  0.00    -0.000 C 
BRANCH  29  30
ATOM     30  C   UNL     1       7.525  34.683  66.712  1.00  0.00    -0.000 C 
BRANCH  30  31
ATOM     31  C   UNL     1       6.426  34.922  67.753  1.00  0.00    -0.003 C 
ATOM     32  C   UNL     1       6.387  36.383  68.189  1.00  0.00     0.004 C 
ENDBRANCH  30  31
ENDBRANCH  29  30
ENDBRANCH  28  29
ENDBRANCH  27  28
ENDBRANCH  26  27
ENDBRANCH  25  26
ENDBRANCH  24  25
ENDBRANCH  23  24
ENDBRANCH  22  23
ENDBRANCH  21  22
ENDBRANCH  20  21
ENDBRANCH  19  20
ENDBRANCH  18  19
ENDBRANCH   1  18
TORSDOF 28
ENDMDL
MODEL 7
REMARK VINA RESULT:    -4.259      3.338      9.182
REMARK INTER + INTRA:         -15.970
REMARK INTER:                 -11.969
REMARK INTRA:                  -4.001
REMARK UNBOUND:                -4.738
REMARK SMILES CCCCCCCCCCCCCCCCCCCCCCCCCCCCCC(=O)[O-]
REMARK SMILES IDX 16 1 17 2 18 3 19 4 20 5 21 6 22 7 23 8 24 9 25 10 26 11
REMARK SMILES IDX 27 12 28 13 29 14 30 15 31 16 32 17 15 18 14 19 13 20 12 21
REMARK SMILES IDX 11 22 10 23 9 24 8 25 7 26 6 27 5 28 4 29 3 30 2 31 1 32
REMARK H PARENT
REMARK Flexibility Score: inf
ROOT
ATOM      1  C   UNL     1      15.527  34.299  67.077  1.00  0.00     0.000 C 
ENDROOT
BRANCH   1   2
ATOM      2  C   UNL     1      15.784  32.845  66.639  1.00  0.00     0.000 C 
BRANCH   2   3
ATOM      3  C   UNL     1      16.155  31.874  67.778  1.00  0.00     0.000 C 
BRANCH   3   4
ATOM      4  C   UNL     1      15.804  30.398  67.520  1.00  0.00     0.000 C 
BRANCH   4   5
ATOM      5  C   UNL     1      15.205  29.708  68.758  1.00  0.00     0.000 C 
BRANCH   5   6
ATOM      6  C   UNL     1      14.849  30.706  69.877  1.00  0.00     0.000 C 
BRANCH   6   7
ATOM      7  C   UNL     1      15.686  30.558  71.165  1.00  0.00     0.000 C 
BRANCH   7   8
ATOM      8  C   UNL     1      17.082  29.946  70.920  1.00  0.00     0.000 C 
BRANCH   8   9
ATOM      9  C   UNL     1      18.209  30.989  71.048  1.00  0.00     0.000 C 
BRANCH   9  10
ATOM     10  C   UNL     1      19.492  30.563  70.317  1.00  0.00     0.000 C 
BRANCH  10  11
ATOM     11  C   UNL     1      19.529  31.052  68.859  1.00  0.00     0.000 C 
BRANCH  11  12
ATOM     12  C   UNL     1      19.532  29.889  67.852  1.00  0.00     0.000 C 
BRANCH  12  13
ATOM     13  C   UNL     1      19.411  30.373  66.395  1.00  0.00     0.006 C 
BRANCH  13  14
ATOM     14  C   UNL     1      19.433  31.906  66.286  1.00  0.00     0.053 C 
BRANCH  14  15
ATOM     15  C   UNL     1      18.907  32.447  64.988  1.00  0.00     0.041 C 
ATOM     16  O   UNL     1      18.615  31.686  64.024  1.00  0.00    -0.550 OA
ATOM     17  O   UNL     1      18.776  33.822  64.828  1.00  0.00    -0.550 OA
ENDBRANCH  14  15
ENDBRANCH  13  14
ENDBRANCH  12  13
ENDBRANCH  11  12
ENDBRANCH  10  11
ENDBRANCH   9  10
ENDBRANCH   8   9
ENDBRANCH   7   8
ENDBRANCH   6   7
ENDBRANCH   5   6
ENDBRANCH   4   5
ENDBRANCH   3   4
ENDBRANCH   2   3
ENDBRANCH   1   2
BRANCH   1  18
ATOM     18  C   UNL     1      14.032  34.649  67.131  1.00  0.00     0.000 C 
BRANCH  18  19
ATOM     19  C   UNL     1      13.415  34.230  68.473  1.00  0.00     0.000 C 
BRANCH  19  20
ATOM     20  C   UNL     1      12.471  33.021  68.355  1.00  0.00     0.000 C 
BRANCH  20  21
ATOM     21  C   UNL     1      12.365  32.444  66.929  1.00  0.00     0.000 C 
BRANCH  21  22
ATOM     22  C   UNL     1      11.683  31.063  66.898  1.00  0.00     0.000 C 
BRANCH  22  23
ATOM     23  C   UNL     1      10.263  31.110  67.489  1.00  0.00     0.000 C 
BRANCH  23  24
ATOM     24  C   UNL     1       9.197  30.730  66.448  1.00  0.00    -0.000 C 
BRANCH  24  25
ATOM     25  C   UNL     1       8.259  31.900  66.104  1.00  0.00    -0.000 C 
BRANCH  25  26
ATOM     26  C   UNL     1       8.892  33.300  66.240  1.00  0.00    -0.000 C 
BRANCH  26  27
ATOM     27  C   UNL     1       7.895  34.476  66.245  1.00  0.00    -0.000 C 
BRANCH  27  28
ATOM     28  C   UNL     1       6.874  34.465  67.400  1.00  0.00    -0.000 C 
BRANCH  28  29
ATOM     29  C   UNL     1       6.081  35.774  67.568  1.00  0.00    -0.000 C 
BRANCH  29  30
ATOM     30  C   UNL     1       6.098  36.301  69.010  1.00  0.00    -0.000 C 
BRANCH  30  31
ATOM     31  C   UNL     1       5.572  35.245  69.987  1.00  0.00    -0.003 C 
ATOM     32  C   UNL     1       5.766  35.686  71.434  1.00  0.00     0.004 C 
ENDBRANCH  30  31
ENDBRANCH  29  30
ENDBRANCH  28  29
ENDBRANCH  27  28
ENDBRANCH  26  27
ENDBRANCH  25  26
ENDBRANCH  24  25
ENDBRANCH  23  24
ENDBRANCH  22  23
ENDBRANCH  21  22
ENDBRANCH  20  21
ENDBRANCH  19  20
ENDBRANCH  18  19
ENDBRANCH   1  18
TORSDOF 28
ENDMDL
MODEL 8
REMARK VINA RESULT:    -4.254      2.402      3.787
REMARK INTER + INTRA:         -15.956
REMARK INTER:                 -11.711
REMARK INTRA:                  -4.245
REMARK UNBOUND:                -4.738
REMARK SMILES CCCCCCCCCCCCCCCCCCCCCCCCCCCCCC(=O)[O-]
REMARK SMILES IDX 16 1 17 2 18 3 19 4 20 5 21 6 22 7 23 8 24 9 25 10 26 11
REMARK SMILES IDX 27 12 28 13 29 14 30 15 31 16 32 17 15 18 14 19 13 20 12 21
REMARK SMILES IDX 11 22 10 23 9 24 8 25 7 26 6 27 5 28 4 29 3 30 2 31 1 32
REMARK H PARENT
REMARK Flexibility Score: inf
ROOT
ATOM      1  C   UNL     1      14.284  34.902  67.339  1.00  0.00     0.000 C 
ENDROOT
BRANCH   1   2
ATOM      2  C   UNL     1      13.772  33.783  68.264  1.00  0.00     0.000 C 
BRANCH   2   3
ATOM      3  C   UNL     1      12.462  33.107  67.810  1.00  0.00     0.000 C 
BRANCH   3   4
ATOM      4  C   UNL     1      11.953  31.983  68.730  1.00  0.00     0.000 C 
BRANCH   4   5
ATOM      5  C   UNL     1      10.842  31.143  68.075  1.00  0.00     0.000 C 
BRANCH   5   6
ATOM      6  C   UNL     1      10.747  31.370  66.554  1.00  0.00     0.000 C 
BRANCH   6   7
ATOM      7  C   UNL     1       9.435  30.878  65.908  1.00  0.00     0.000 C 
BRANCH   7   8
ATOM      8  C   UNL     1       8.294  31.917  65.973  1.00  0.00     0.000 C 
BRANCH   8   9
ATOM      9  C   UNL     1       8.813  33.336  66.278  1.00  0.00     0.000 C 
BRANCH   9  10
ATOM     10  C   UNL     1       7.764  34.421  65.991  1.00  0.00     0.000 C 
BRANCH  10  11
ATOM     11  C   UNL     1       6.634  34.438  67.034  1.00  0.00     0.000 C 
BRANCH  11  12
ATOM     12  C   UNL     1       6.671  35.698  67.917  1.00  0.00     0.000 C 
BRANCH  12  13
ATOM     13  C   UNL     1       5.472  35.776  68.879  1.00  0.00     0.006 C 
BRANCH  13  14
ATOM     14  C   UNL     1       5.910  35.971  70.340  1.00  0.00     0.053 C 
BRANCH  14  15
ATOM     15  C   UNL     1       5.854  37.393  70.824  1.00  0.00     0.041 C 
ATOM     16  O   UNL     1       6.811  38.193  70.635  1.00  0.00    -0.550 OA
ATOM     17  O   UNL     1       4.738  37.825  71.531  1.00  0.00    -0.550 OA
ENDBRANCH  14  15
ENDBRANCH  13  14
ENDBRANCH  12  13
ENDBRANCH  11  12
ENDBRANCH  10  11
ENDBRANCH   9  10
ENDBRANCH   8   9
ENDBRANCH   7   8
ENDBRANCH   6   7
ENDBRANCH   5   6
ENDBRANCH   4   5
ENDBRANCH   3   4
ENDBRANCH   2   3
ENDBRANCH   1   2
BRANCH   1  18
ATOM     18  C   UNL     1      15.605  34.540  66.642  1.00  0.00     0.000 C 
BRANCH  18  19
ATOM     19  C   UNL     1      16.277  33.340  67.323  1.00  0.00     0.000 C 
BRANCH  19  20
ATOM     20  C   UNL     1      17.557  32.876  66.609  1.00  0.00     0.000 C 
BRANCH  20  21
ATOM     21  C   UNL     1      18.627  32.294  67.553  1.00  0.00     0.000 C 
BRANCH  21  22
ATOM     22  C   UNL     1      18.773  30.766  67.413  1.00  0.00     0.000 C 
BRANCH  22  23
ATOM     23  C   UNL     1      18.869  30.071  68.782  1.00  0.00     0.000 C 
BRANCH  23  24
ATOM     24  C   UNL     1      18.326  30.958  69.914  1.00  0.00    -0.000 C 
BRANCH  24  25
ATOM     25  C   UNL     1      17.089  30.354  70.601  1.00  0.00    -0.000 C 
BRANCH  25  26
ATOM     26  C   UNL     1      15.748  31.014  70.219  1.00  0.00    -0.000 C 
BRANCH  26  27
ATOM     27  C   UNL     1      14.839  30.174  69.300  1.00  0.00    -0.000 C 
BRANCH  27  28
ATOM     28  C   UNL     1      15.369  29.964  67.868  1.00  0.00    -0.000 C 
BRANCH  28  29
ATOM     29  C   UNL     1      14.277  29.863  66.787  1.00  0.00    -0.000 C 
BRANCH  29  30
ATOM     30  C   UNL     1      14.554  30.763  65.573  1.00  0.00    -0.000 C 
BRANCH  30  31
ATOM     31  C   UNL     1      15.726  30.225  64.747  1.00  0.00    -0.003 C 
ATOM     32  C   UNL     1      15.273  29.811  63.350  1.00  0.00     0.004 C 
ENDBRANCH  30  31
ENDBRANCH  29  30
ENDBRANCH  28  29
ENDBRANCH  27  28
ENDBRANCH  26  27
ENDBRANCH  25  26
ENDBRANCH  24  25
ENDBRANCH  23  24
ENDBRANCH  22  23
ENDBRANCH  21  22
ENDBRANCH  20  21
ENDBRANCH  19  20
ENDBRANCH  18  19
ENDBRANCH   1  18
TORSDOF 28
ENDMDL
MODEL 9
REMARK VINA RESULT:    -4.243      3.227      8.896
REMARK INTER + INTRA:         -15.925
REMARK INTER:                 -11.479
REMARK INTRA:                  -4.447
REMARK UNBOUND:                -4.738
REMARK SMILES CCCCCCCCCCCCCCCCCCCCCCCCCCCCCC(=O)[O-]
REMARK SMILES IDX 16 1 17 2 18 3 19 4 20 5 21 6 22 7 23 8 24 9 25 10 26 11
REMARK SMILES IDX 27 12 28 13 29 14 30 15 31 16 32 17 15 18 14 19 13 20 12 21
REMARK SMILES IDX 11 22 10 23 9 24 8 25 7 26 6 27 5 28 4 29 3 30 2 31 1 32
REMARK H PARENT
REMARK Flexibility Score: inf
ROOT
ATOM      1  C   UNL     1      15.149  33.201  67.879  1.00  0.00     0.000 C 
ENDROOT
BRANCH   1   2
ATOM      2  C   UNL     1      15.367  31.704  68.169  1.00  0.00     0.000 C 
BRANCH   2   3
ATOM      3  C   UNL     1      15.216  31.296  69.648  1.00  0.00     0.000 C 
BRANCH   3   4
ATOM      4  C   UNL     1      14.759  29.845  69.883  1.00  0.00     0.000 C 
BRANCH   4   5
ATOM      5  C   UNL     1      15.132  29.328  71.283  1.00  0.00     0.000 C 
BRANCH   5   6
ATOM      6  C   UNL     1      16.630  29.506  71.600  1.00  0.00     0.000 C 
BRANCH   6   7
ATOM      7  C   UNL     1      17.542  28.385  71.060  1.00  0.00     0.000 C 
BRANCH   7   8
ATOM      8  C   UNL     1      18.757  28.914  70.268  1.00  0.00     0.000 C 
BRANCH   8   9
ATOM      9  C   UNL     1      18.873  30.450  70.332  1.00  0.00     0.000 C 
BRANCH   9  10
ATOM     10  C   UNL     1      19.292  31.066  68.987  1.00  0.00     0.000 C 
BRANCH  10  11
ATOM     11  C   UNL     1      18.622  30.373  67.789  1.00  0.00     0.000 C 
BRANCH  11  12
ATOM     12  C   UNL     1      19.578  30.215  66.594  1.00  0.00     0.000 C 
BRANCH  12  13
ATOM     13  C   UNL     1      19.103  30.994  65.354  1.00  0.00     0.006 C 
BRANCH  13  14
ATOM     14  C   UNL     1      18.216  32.194  65.724  1.00  0.00     0.053 C 
BRANCH  14  15
ATOM     15  C   UNL     1      18.938  33.511  65.773  1.00  0.00     0.041 C 
ATOM     16  O   UNL     1      18.774  34.389  64.882  1.00  0.00    -0.550 OA
ATOM     17  O   UNL     1      19.841  33.751  66.803  1.00  0.00    -0.550 OA
ENDBRANCH  14  15
ENDBRANCH  13  14
ENDBRANCH  12  13
ENDBRANCH  11  12
ENDBRANCH  10  11
ENDBRANCH   9  10
ENDBRANCH   8   9
ENDBRANCH   7   8
ENDBRANCH   6   7
ENDBRANCH   5   6
ENDBRANCH   4   5
ENDBRANCH   3   4
ENDBRANCH   2   3
ENDBRANCH   1   2
BRANCH   1  18
ATOM     18  C   UNL     1      14.332  33.446  66.600  1.00  0.00     0.000 C 
BRANCH  18  19
ATOM     19  C   UNL     1      13.792  32.127  66.029  1.00  0.00     0.000 C 
BRANCH  19  20
ATOM     20  C   UNL     1      12.256  32.049  66.032  1.00  0.00     0.000 C 
BRANCH  20  21
ATOM     21  C   UNL     1      11.606  32.513  67.351  1.00  0.00     0.000 C 
BRANCH  21  22
ATOM     22  C   UNL     1      11.572  31.403  68.418  1.00  0.00     0.000 C 
BRANCH  22  23
ATOM     23  C   UNL     1      11.446  30.005  67.788  1.00  0.00     0.000 C 
BRANCH  23  24
ATOM     24  C   UNL     1      10.246  29.228  68.356  1.00  0.00    -0.000 C 
BRANCH  24  25
ATOM     25  C   UNL     1       8.997  29.327  67.463  1.00  0.00    -0.000 C 
BRANCH  25  26
ATOM     26  C   UNL     1       9.252  29.894  66.052  1.00  0.00    -0.000 C 
BRANCH  26  27
ATOM     27  C   UNL     1       8.248  30.964  65.579  1.00  0.00    -0.000 C 
BRANCH  27  28
ATOM     28  C   UNL     1       7.964  32.090  66.592  1.00  0.00    -0.000 C 
BRANCH  28  29
ATOM     29  C   UNL     1       8.407  33.491  66.135  1.00  0.00    -0.000 C 
BRANCH  29  30
ATOM     30  C   UNL     1       7.421  34.594  66.549  1.00  0.00    -0.000 C 
BRANCH  30  31
ATOM     31  C   UNL     1       6.992  35.429  65.338  1.00  0.00    -0.003 C 
ATOM     32  C   UNL     1       6.651  36.858  65.746  1.00  0.00     0.004 C 
ENDBRANCH  30  31
ENDBRANCH  29  30
ENDBRANCH  28  29
ENDBRANCH  27  28
ENDBRANCH  26  27
ENDBRANCH  25  26
ENDBRANCH  24  25
ENDBRANCH  23  24
ENDBRANCH  22  23
ENDBRANCH  21  22
ENDBRANCH  20  21
ENDBRANCH  19  20
ENDBRANCH  18  19
ENDBRANCH   1  18
TORSDOF 28
ENDMDL
