MODEL 1
REMARK VINA RESULT:    -3.109      0.000      0.000
REMARK INTER + INTRA:          -3.890
REMARK INTER:                  -3.654
REMARK INTRA:                  -0.235
REMARK UNBOUND:                -0.235
REMARK SMILES [NH3+][C@@H](CO)C(=O)[O-]
REMARK SMILES IDX 3 1 2 2 1 3 5 7 6 8 7 9 4 10
REMARK H PARENT 1 4 1 5 1 6 4 11
REMARK Flexibility Score: inf
ROOT
ATOM      1  C   UNL     1     128.805 144.814 130.522  1.00  0.00     0.227 C 
ENDROOT
BRANCH   1   2
ATOM      2  C   UNL     1     128.258 144.616 129.099  1.00  0.00     0.253 C 
BRANCH   2   3
ATOM      3  N   UNL     1     129.176 143.810 128.285  1.00  0.00    -0.348 N 
ATOM      4  H   UNL     1     128.645 143.133 127.688  1.00  0.00     0.345 HD
ATOM      5  H   UNL     1     129.749 144.432 127.672  1.00  0.00     0.345 HD
ATOM      6  H   UNL     1     129.828 143.279 128.909  1.00  0.00     0.345 HD
ENDBRANCH   2   3
BRANCH   2   7
ATOM      7  C   UNL     1     128.013 145.952 128.449  1.00  0.00     0.102 C 
ATOM      8  O   UNL     1     128.803 146.390 127.571  1.00  0.00    -0.544 OA
ATOM      9  O   UNL     1     126.915 146.715 128.825  1.00  0.00    -0.544 OA
ENDBRANCH   2   7
ENDBRANCH   1   2
BRANCH   1  10
ATOM     10  O   UNL     1     127.871 145.507 131.303  1.00  0.00    -0.390 OA
ATOM     11  H   UNL     1     127.016 145.009 131.216  1.00  0.00     0.210 HD
ENDBRANCH   1  10
TORSDOF 4
ENDMDL
MODEL 2
REMARK VINA RESULT:    -3.073      1.819      2.368
REMARK INTER + INTRA:          -3.847
REMARK INTER:                  -3.447
REMARK INTRA:                  -0.400
REMARK UNBOUND:                -0.235
REMARK SMILES [NH3+][C@@H](CO)C(=O)[O-]
REMARK SMILES IDX 3 1 2 2 1 3 5 7 6 8 7 9 4 10
REMARK H PARENT 1 4 1 5 1 6 4 11
REMARK Flexibility Score: inf
ROOT
ATOM      1  C   UNL     1     127.935 143.779 129.411  1.00  0.00     0.227 C 
ENDROOT
BRANCH   1   2
ATOM      2  C   UNL     1     128.478 145.195 129.662  1.00  0.00     0.253 C 
BRANCH   2   3
ATOM      3  N   UNL     1     128.068 145.694 130.981  1.00  0.00    -0.348 N 
ATOM      4  H   UNL     1     127.145 145.286 131.262  1.00  0.00     0.345 HD
ATOM      5  H   UNL     1     128.785 145.441 131.697  1.00  0.00     0.345 HD
ATOM      6  H   UNL     1     127.987 146.737 130.955  1.00  0.00     0.345 HD
ENDBRANCH   2   3
BRANCH   2   7
ATOM      7  C   UNL     1     128.012 146.129 128.578  1.00  0.00     0.102 C 
ATOM      8  O   UNL     1     126.894 146.703 128.665  1.00  0.00    -0.544 OA
ATOM      9  O   UNL     1     128.812 146.352 127.464  1.00  0.00    -0.544 OA
ENDBRANCH   2   7
ENDBRANCH   1   2
BRANCH   1  10
ATOM     10  O   UNL     1     127.154 143.766 128.248  1.00  0.00    -0.390 OA
ATOM     11  H   UNL     1     126.459 143.071 128.390  1.00  0.00     0.210 HD
ENDBRANCH   1  10
TORSDOF 4
ENDMDL
MODEL 3
REMARK VINA RESULT:    -2.973     11.656     12.639
REMARK INTER + INTRA:          -3.730
REMARK INTER:                  -3.506
REMARK INTRA:                  -0.224
REMARK UNBOUND:                -0.235
REMARK SMILES [NH3+][C@@H](CO)C(=O)[O-]
REMARK SMILES IDX 3 1 2 2 1 3 5 7 6 8 7 9 4 10
REMARK H PARENT 1 4 1 5 1 6 4 11
REMARK Flexibility Score: inf
ROOT
ATOM      1  C   UNL     1     129.047 143.879 118.274  1.00  0.00     0.227 C 
ENDROOT
BRANCH   1   2
ATOM      2  C   UNL     1     130.033 143.962 117.097  1.00  0.00     0.253 C 
BRANCH   2   3
ATOM      3  N   UNL     1     130.718 145.261 117.069  1.00  0.00    -0.348 N 
ATOM      4  H   UNL     1     131.740 145.137 116.879  1.00  0.00     0.345 HD
ATOM      5  H   UNL     1     130.303 145.867 116.326  1.00  0.00     0.345 HD
ATOM      6  H   UNL     1     130.596 145.744 117.989  1.00  0.00     0.345 HD
ENDBRANCH   2   3
BRANCH   2   7
ATOM      7  C   UNL     1     129.310 143.720 115.799  1.00  0.00     0.102 C 
ATOM      8  O   UNL     1     129.949 143.647 114.715  1.00  0.00    -0.544 OA
ATOM      9  O   UNL     1     127.927 143.590 115.789  1.00  0.00    -0.544 OA
ENDBRANCH   2   7
ENDBRANCH   1   2
BRANCH   1  10
ATOM     10  O   UNL     1     128.311 145.067 118.367  1.00  0.00    -0.390 OA
ATOM     11  H   UNL     1     128.766 145.721 117.774  1.00  0.00     0.210 HD
ENDBRANCH   1  10
TORSDOF 4
ENDMDL
MODEL 4
REMARK VINA RESULT:    -2.872      2.017      3.347
REMARK INTER + INTRA:          -3.611
REMARK INTER:                  -3.384
REMARK INTRA:                  -0.227
REMARK UNBOUND:                -0.235
REMARK SMILES [NH3+][C@@H](CO)C(=O)[O-]
REMARK SMILES IDX 3 1 2 2 1 3 5 7 6 8 7 9 4 10
REMARK H PARENT 1 4 1 5 1 6 4 11
REMARK Flexibility Score: inf
ROOT
ATOM      1  C   UNL     1     127.681 145.703 128.160  1.00  0.00     0.227 C 
ENDROOT
BRANCH   1   2
ATOM      2  C   UNL     1     127.670 145.727 129.697  1.00  0.00     0.253 C 
BRANCH   2   3
ATOM      3  N   UNL     1     127.866 147.090 130.208  1.00  0.00    -0.348 N 
ATOM      4  H   UNL     1     128.881 147.281 130.376  1.00  0.00     0.345 HD
ATOM      5  H   UNL     1     127.496 147.785 129.521  1.00  0.00     0.345 HD
ATOM      6  H   UNL     1     127.342 147.210 131.106  1.00  0.00     0.345 HD
ENDBRANCH   2   3
BRANCH   2   7
ATOM      7  C   UNL     1     128.731 144.805 130.237  1.00  0.00     0.102 C 
ATOM      8  O   UNL     1     128.661 144.371 131.417  1.00  0.00    -0.544 OA
ATOM      9  O   UNL     1     129.804 144.439 129.435  1.00  0.00    -0.544 OA
ENDBRANCH   2   7
ENDBRANCH   1   2
BRANCH   1  10
ATOM     10  O   UNL     1     128.724 146.503 127.676  1.00  0.00    -0.390 OA
ATOM     11  H   UNL     1     129.196 145.958 126.994  1.00  0.00     0.210 HD
ENDBRANCH   1  10
TORSDOF 4
ENDMDL
MODEL 5
REMARK VINA RESULT:    -2.815     12.534     13.077
REMARK INTER + INTRA:          -3.545
REMARK INTER:                  -3.322
REMARK INTRA:                  -0.223
REMARK UNBOUND:                -0.235
REMARK SMILES [NH3+][C@@H](CO)C(=O)[O-]
REMARK SMILES IDX 3 1 2 2 1 3 5 7 6 8 7 9 4 10
REMARK H PARENT 1 4 1 5 1 6 4 11
REMARK Flexibility Score: inf
ROOT
ATOM      1  C   UNL     1     131.249 144.270 117.065  1.00  0.00     0.227 C 
ENDROOT
BRANCH   1   2
ATOM      2  C   UNL     1     130.281 143.637 116.052  1.00  0.00     0.253 C 
BRANCH   2   3
ATOM      3  N   UNL     1     130.445 144.232 114.719  1.00  0.00    -0.348 N 
ATOM      4  H   UNL     1     131.187 144.970 114.731  1.00  0.00     0.345 HD
ATOM      5  H   UNL     1     130.708 143.492 114.029  1.00  0.00     0.345 HD
ATOM      6  H   UNL     1     129.541 144.659 114.409  1.00  0.00     0.345 HD
ENDBRANCH   2   3
BRANCH   2   7
ATOM      7  C   UNL     1     128.861 143.793 116.527  1.00  0.00     0.102 C 
ATOM      8  O   UNL     1     128.600 144.480 117.550  1.00  0.00    -0.544 OA
ATOM      9  O   UNL     1     127.828 143.165 115.842  1.00  0.00    -0.544 OA
ENDBRANCH   2   7
ENDBRANCH   1   2
BRANCH   1  10
ATOM     10  O   UNL     1     131.149 145.666 117.015  1.00  0.00    -0.390 OA
ATOM     11  H   UNL     1     130.536 145.872 116.262  1.00  0.00     0.210 HD
ENDBRANCH   1  10
TORSDOF 4
ENDMDL
MODEL 6
REMARK VINA RESULT:    -2.810     17.724     18.377
REMARK INTER + INTRA:          -3.538
REMARK INTER:                  -3.323
REMARK INTRA:                  -0.215
REMARK UNBOUND:                -0.235
REMARK SMILES [NH3+][C@@H](CO)C(=O)[O-]
REMARK SMILES IDX 3 1 2 2 1 3 5 7 6 8 7 9 4 10
REMARK H PARENT 1 4 1 5 1 6 4 11
REMARK Flexibility Score: inf
ROOT
ATOM      1  C   UNL     1     128.246 133.797 117.012  1.00  0.00     0.227 C 
ENDROOT
BRANCH   1   2
ATOM      2  C   UNL     1     128.547 132.633 116.055  1.00  0.00     0.253 C 
BRANCH   2   3
ATOM      3  N   UNL     1     128.005 132.894 114.715  1.00  0.00    -0.348 N 
ATOM      4  H   UNL     1     127.366 132.121 114.416  1.00  0.00     0.345 HD
ATOM      5  H   UNL     1     127.476 133.795 114.714  1.00  0.00     0.345 HD
ATOM      6  H   UNL     1     128.789 132.977 114.027  1.00  0.00     0.345 HD
ENDBRANCH   2   3
BRANCH   2   7
ATOM      7  C   UNL     1     127.986 131.350 116.608  1.00  0.00     0.102 C 
ATOM      8  O   UNL     1     128.274 130.245 116.077  1.00  0.00    -0.544 OA
ATOM      9  O   UNL     1     127.133 131.381 117.704  1.00  0.00    -0.544 OA
ENDBRANCH   2   7
ENDBRANCH   1   2
BRANCH   1  10
ATOM     10  O   UNL     1     126.875 134.085 117.001  1.00  0.00    -0.390 OA
ATOM     11  H   UNL     1     126.533 133.838 117.899  1.00  0.00     0.210 HD
ENDBRANCH   1  10
TORSDOF 4
ENDMDL
MODEL 7
REMARK VINA RESULT:    -2.804      1.911      2.141
REMARK INTER + INTRA:          -3.531
REMARK INTER:                  -3.127
REMARK INTRA:                  -0.404
REMARK UNBOUND:                -0.235
REMARK SMILES [NH3+][C@@H](CO)C(=O)[O-]
REMARK SMILES IDX 3 1 2 2 1 3 5 7 6 8 7 9 4 10
REMARK H PARENT 1 4 1 5 1 6 4 11
REMARK Flexibility Score: inf
ROOT
ATOM      1  C   UNL     1     130.077 143.870 128.786  1.00  0.00     0.227 C 
ENDROOT
BRANCH   1   2
ATOM      2  C   UNL     1     129.413 144.156 127.429  1.00  0.00     0.253 C 
BRANCH   2   3
ATOM      3  N   UNL     1     130.407 144.565 126.428  1.00  0.00    -0.348 N 
ATOM      4  H   UNL     1     130.884 145.450 126.720  1.00  0.00     0.345 HD
ATOM      5  H   UNL     1     131.124 143.814 126.309  1.00  0.00     0.345 HD
ATOM      6  H   UNL     1     129.938 144.716 125.505  1.00  0.00     0.345 HD
ENDBRANCH   2   3
BRANCH   2   7
ATOM      7  C   UNL     1     128.355 145.214 127.583  1.00  0.00     0.102 C 
ATOM      8  O   UNL     1     127.138 144.896 127.659  1.00  0.00    -0.544 OA
ATOM      9  O   UNL     1     128.716 146.555 127.628  1.00  0.00    -0.544 OA
ENDBRANCH   2   7
ENDBRANCH   1   2
BRANCH   1  10
ATOM     10  O   UNL     1     129.447 144.613 129.792  1.00  0.00    -0.390 OA
ATOM     11  H   UNL     1     130.093 145.316 130.062  1.00  0.00     0.210 HD
ENDBRANCH   1  10
TORSDOF 4
ENDMDL
MODEL 8
REMARK VINA RESULT:    -2.804      2.344      3.345
REMARK INTER + INTRA:          -3.531
REMARK INTER:                  -3.140
REMARK INTRA:                  -0.391
REMARK UNBOUND:                -0.235
REMARK SMILES [NH3+][C@@H](CO)C(=O)[O-]
REMARK SMILES IDX 3 1 2 2 1 3 5 7 6 8 7 9 4 10
REMARK H PARENT 1 4 1 5 1 6 4 11
REMARK Flexibility Score: inf
ROOT
ATOM      1  C   UNL     1     129.525 143.689 126.099  1.00  0.00     0.227 C 
ENDROOT
BRANCH   1   2
ATOM      2  C   UNL     1     128.404 143.987 127.108  1.00  0.00     0.253 C 
BRANCH   2   3
ATOM      3  N   UNL     1     127.146 144.310 126.423  1.00  0.00    -0.348 N 
ATOM      4  H   UNL     1     126.514 143.476 126.392  1.00  0.00     0.345 HD
ATOM      5  H   UNL     1     126.659 145.090 126.920  1.00  0.00     0.345 HD
ATOM      6  H   UNL     1     127.347 144.624 125.445  1.00  0.00     0.345 HD
ENDBRANCH   2   3
BRANCH   2   7
ATOM      7  C   UNL     1     128.812 145.114 128.018  1.00  0.00     0.102 C 
ATOM      8  O   UNL     1     129.237 144.875 129.180  1.00  0.00    -0.544 OA
ATOM      9  O   UNL     1     128.709 146.429 127.583  1.00  0.00    -0.544 OA
ENDBRANCH   2   7
ENDBRANCH   1   2
BRANCH   1  10
ATOM     10  O   UNL     1     130.600 144.562 126.307  1.00  0.00    -0.390 OA
ATOM     11  H   UNL     1     130.963 144.344 127.205  1.00  0.00     0.210 HD
ENDBRANCH   1  10
TORSDOF 4
ENDMDL
MODEL 9
REMARK VINA RESULT:    -2.792     20.861     21.389
REMARK INTER + INTRA:          -3.517
REMARK INTER:                  -3.148
REMARK INTRA:                  -0.369
REMARK UNBOUND:                -0.235
REMARK SMILES [NH3+][C@@H](CO)C(=O)[O-]
REMARK SMILES IDX 3 1 2 2 1 3 5 7 6 8 7 9 4 10
REMARK H PARENT 1 4 1 5 1 6 4 11
REMARK Flexibility Score: inf
ROOT
ATOM      1  C   UNL     1     144.233 144.474 116.294  1.00  0.00     0.227 C 
ENDROOT
BRANCH   1   2
ATOM      2  C   UNL     1     144.667 143.225 117.078  1.00  0.00     0.253 C 
BRANCH   2   3
ATOM      3  N   UNL     1     144.391 143.376 118.512  1.00  0.00    -0.348 N 
ATOM      4  H   UNL     1     143.361 143.440 118.687  1.00  0.00     0.345 HD
ATOM      5  H   UNL     1     144.777 142.559 119.038  1.00  0.00     0.345 HD
ATOM      6  H   UNL     1     144.855 144.242 118.872  1.00  0.00     0.345 HD
ENDBRANCH   2   3
BRANCH   2   7
ATOM      7  C   UNL     1     146.130 142.952 116.849  1.00  0.00     0.102 C 
ATOM      8  O   UNL     1     146.522 142.433 115.771  1.00  0.00    -0.544 OA
ATOM      9  O   UNL     1     147.056 143.262 117.837  1.00  0.00    -0.544 OA
ENDBRANCH   2   7
ENDBRANCH   1   2
BRANCH   1  10
ATOM     10  O   UNL     1     145.350 145.264 115.996  1.00  0.00    -0.390 OA
ATOM     11  H   UNL     1     145.903 144.734 115.366  1.00  0.00     0.210 HD
ENDBRANCH   1  10
TORSDOF 4
ENDMDL
