MODEL 1
REMARK VINA RESULT:     5.905      0.000      0.000
REMARK INTER + INTRA:          12.347
REMARK INTER:                  13.499
REMARK INTRA:                  -1.152
REMARK UNBOUND:                -1.152
REMARK SMILES CCCCCCCCCCCCCCCCCCCCCCCC(=O)[O-]
REMARK SMILES IDX 13 1 14 2 15 3 16 4 17 5 18 6 19 7 20 8 21 9 22 10 23 11
REMARK SMILES IDX 24 12 25 13 26 14 12 15 11 16 10 17 9 18 8 19 7 20 6 21 5 22
REMARK SMILES IDX 4 23 3 24 2 25 1 26
REMARK H PARENT
REMARK Flexibility Score: inf
ROOT
ATOM      1  C   UNL     1      23.701  39.904  24.695  1.00  0.00     0.000 C 
ENDROOT
BRANCH   1   2
ATOM      2  C   UNL     1      23.885  39.977  23.165  1.00  0.00     0.000 C 
BRANCH   2   3
ATOM      3  C   UNL     1      23.961  38.617  22.449  1.00  0.00     0.000 C 
BRANCH   3   4
ATOM      4  C   UNL     1      22.810  38.334  21.466  1.00  0.00     0.000 C 
BRANCH   4   5
ATOM      5  C   UNL     1      22.807  36.894  20.906  1.00  0.00     0.000 C 
BRANCH   5   6
ATOM      6  C   UNL     1      23.518  36.795  19.547  1.00  0.00     0.000 C 
BRANCH   6   7
ATOM      7  C   UNL     1      23.775  35.333  19.162  1.00  0.00     0.000 C 
BRANCH   7   8
ATOM      8  C   UNL     1      25.149  35.176  18.495  1.00  0.00     0.000 C 
BRANCH   8   9
ATOM      9  C   UNL     1      25.677  36.492  17.907  1.00  0.00     0.000 C 
BRANCH   9  10
ATOM     10  C   UNL     1      27.214  36.555  17.875  1.00  0.00     0.006 C 
BRANCH  10  11
ATOM     11  C   UNL     1      27.778  37.500  18.945  1.00  0.00     0.053 C 
BRANCH  11  12
ATOM     12  C   UNL     1      29.265  37.645  18.831  1.00  0.00     0.041 C 
ATOM     13  O   UNL     1      29.764  38.440  17.993  1.00  0.00    -0.550 OA
ATOM     14  O   UNL     1      30.101  36.911  19.665  1.00  0.00    -0.550 OA
ENDBRANCH  11  12
ENDBRANCH  10  11
ENDBRANCH   9  10
ENDBRANCH   8   9
ENDBRANCH   7   8
ENDBRANCH   6   7
ENDBRANCH   5   6
ENDBRANCH   4   5
ENDBRANCH   3   4
ENDBRANCH   2   3
ENDBRANCH   1   2
BRANCH   1  15
ATOM     15  C   UNL     1      24.059  38.533  25.306  1.00  0.00     0.000 C 
BRANCH  15  16
ATOM     16  C   UNL     1      22.815  37.705  25.672  1.00  0.00     0.000 C 
BRANCH  16  17
ATOM     17  C   UNL     1      21.900  38.407  26.689  1.00  0.00     0.000 C 
BRANCH  17  18
ATOM     18  C   UNL     1      22.645  38.963  27.922  1.00  0.00    -0.000 C 
BRANCH  18  19
ATOM     19  C   UNL     1      21.695  39.235  29.100  1.00  0.00    -0.000 C 
BRANCH  19  20
ATOM     20  C   UNL     1      21.911  38.223  30.232  1.00  0.00    -0.000 C 
BRANCH  20  21
ATOM     21  C   UNL     1      21.121  38.623  31.484  1.00  0.00    -0.000 C 
BRANCH  21  22
ATOM     22  C   UNL     1      21.996  38.535  32.744  1.00  0.00    -0.000 C 
BRANCH  22  23
ATOM     23  C   UNL     1      21.540  39.508  33.852  1.00  0.00    -0.000 C 
BRANCH  23  24
ATOM     24  C   UNL     1      22.698  40.135  34.655  1.00  0.00    -0.000 C 
BRANCH  24  25
ATOM     25  C   UNL     1      23.058  41.578  34.262  1.00  0.00    -0.003 C 
ATOM     26  C   UNL     1      24.102  41.652  33.146  1.00  0.00     0.004 C 
ENDBRANCH  24  25
ENDBRANCH  23  24
ENDBRANCH  22  23
ENDBRANCH  21  22
ENDBRANCH  20  21
ENDBRANCH  19  20
ENDBRANCH  18  19
ENDBRANCH  17  18
ENDBRANCH  16  17
ENDBRANCH  15  16
ENDBRANCH   1  15
TORSDOF 22
ENDMDL
MODEL 2
REMARK VINA RESULT:     6.714      4.874     12.659
REMARK INTER + INTRA:          14.198
REMARK INTER:                  15.231
REMARK INTRA:                  -1.032
REMARK UNBOUND:                -1.152
REMARK SMILES CCCCCCCCCCCCCCCCCCCCCCCC(=O)[O-]
REMARK SMILES IDX 13 1 14 2 15 3 16 4 17 5 18 6 19 7 20 8 21 9 22 10 23 11
REMARK SMILES IDX 24 12 25 13 26 14 12 15 11 16 10 17 9 18 8 19 7 20 6 21 5 22
REMARK SMILES IDX 4 23 3 24 2 25 1 26
REMARK H PARENT
REMARK Flexibility Score: inf
ROOT
ATOM      1  C   UNL     1      24.213  39.381  22.929  1.00  0.00     0.000 C 
ENDROOT
BRANCH   1   2
ATOM      2  C   UNL     1      23.749  39.965  24.279  1.00  0.00     0.000 C 
BRANCH   2   3
ATOM      3  C   UNL     1      24.154  39.149  25.519  1.00  0.00     0.000 C 
BRANCH   3   4
ATOM      4  C   UNL     1      23.474  37.772  25.643  1.00  0.00     0.000 C 
BRANCH   4   5
ATOM      5  C   UNL     1      22.157  37.795  26.450  1.00  0.00     0.000 C 
BRANCH   5   6
ATOM      6  C   UNL     1      22.225  38.756  27.648  1.00  0.00     0.000 C 
BRANCH   6   7
ATOM      7  C   UNL     1      22.253  37.987  28.974  1.00  0.00     0.000 C 
BRANCH   7   8
ATOM      8  C   UNL     1      21.701  38.849  30.119  1.00  0.00     0.000 C 
BRANCH   8   9
ATOM      9  C   UNL     1      21.649  38.096  31.456  1.00  0.00     0.000 C 
BRANCH   9  10
ATOM     10  C   UNL     1      21.197  38.990  32.624  1.00  0.00     0.006 C 
BRANCH  10  11
ATOM     11  C   UNL     1      22.178  38.941  33.804  1.00  0.00     0.053 C 
BRANCH  11  12
ATOM     12  C   UNL     1      22.595  40.315  34.236  1.00  0.00     0.041 C 
ATOM     13  O   UNL     1      23.496  40.931  33.609  1.00  0.00    -0.550 OA
ATOM     14  O   UNL     1      21.975  40.921  35.322  1.00  0.00    -0.550 OA
ENDBRANCH  11  12
ENDBRANCH  10  11
ENDBRANCH   9  10
ENDBRANCH   8   9
ENDBRANCH   7   8
ENDBRANCH   6   7
ENDBRANCH   5   6
ENDBRANCH   4   5
ENDBRANCH   3   4
ENDBRANCH   2   3
ENDBRANCH   1   2
BRANCH   1  15
ATOM     15  C   UNL     1      23.056  38.973  21.991  1.00  0.00     0.000 C 
BRANCH  15  16
ATOM     16  C   UNL     1      22.931  37.448  21.835  1.00  0.00     0.000 C 
BRANCH  16  17
ATOM     17  C   UNL     1      22.843  36.996  20.367  1.00  0.00     0.000 C 
BRANCH  17  18
ATOM     18  C   UNL     1      23.332  35.551  20.127  1.00  0.00    -0.000 C 
BRANCH  18  19
ATOM     19  C   UNL     1      23.311  35.171  18.638  1.00  0.00    -0.000 C 
BRANCH  19  20
ATOM     20  C   UNL     1      24.454  35.852  17.875  1.00  0.00    -0.000 C 
BRANCH  20  21
ATOM     21  C   UNL     1      25.794  35.167  18.168  1.00  0.00    -0.000 C 
BRANCH  21  22
ATOM     22  C   UNL     1      26.971  36.125  17.924  1.00  0.00    -0.000 C 
BRANCH  22  23
ATOM     23  C   UNL     1      28.331  35.395  17.880  1.00  0.00    -0.000 C 
BRANCH  23  24
ATOM     24  C   UNL     1      29.430  36.058  18.734  1.00  0.00    -0.000 C 
BRANCH  24  25
ATOM     25  C   UNL     1      30.814  35.393  18.646  1.00  0.00    -0.003 C 
ATOM     26  C   UNL     1      31.682  35.651  19.880  1.00  0.00     0.004 C 
ENDBRANCH  24  25
ENDBRANCH  23  24
ENDBRANCH  22  23
ENDBRANCH  21  22
ENDBRANCH  20  21
ENDBRANCH  19  20
ENDBRANCH  18  19
ENDBRANCH  17  18
ENDBRANCH  16  17
ENDBRANCH  15  16
ENDBRANCH   1  15
TORSDOF 22
ENDMDL
