MODEL 1
REMARK VINA RESULT:    -7.187      0.000      0.000
REMARK INTER + INTRA:          -9.062
REMARK INTER:                  -8.658
REMARK INTRA:                  -0.404
REMARK UNBOUND:                -0.404
REMARK SMILES O=c1c(O)c(-c2ccc(O)cc2O)oc2cc(O)cc(O)c12
REMARK SMILES IDX 5 1 3 2 2 3 1 4 22 5 20 6 19 7 17 8 16 9 15 10 14 11 6 12
REMARK SMILES IDX 8 13 7 14 9 15 11 16 12 17 10 18 13 20 4 22 21 24 18 26
REMARK H PARENT 10 19 13 21 4 23 21 25 18 27
REMARK Flexibility Score: inf
ROOT
ATOM      1  C   UNL     1      19.488  24.725  41.228  1.00  0.00     0.184 A 
ATOM      2  C   UNL     1      20.304  25.857  41.372  1.00  0.00     0.208 A 
ATOM      3  C   UNL     1      20.060  26.742  42.433  1.00  0.00     0.238 A 
ATOM      4  O   UNL     1      20.761  27.783  42.526  1.00  0.00    -0.285 OA
ATOM      5  C   UNL     1      19.012  26.473  43.347  1.00  0.00     0.111 A 
ATOM      6  C   UNL     1      18.699  27.280  44.483  1.00  0.00     0.134 A 
ATOM      7  C   UNL     1      17.559  26.990  45.242  1.00  0.00     0.093 A 
ATOM      8  C   UNL     1      16.757  25.885  44.946  1.00  0.00     0.123 A 
ATOM      9  C   UNL     1      17.087  25.057  43.876  1.00  0.00     0.094 A 
ATOM     10  C   UNL     1      18.197  25.341  43.077  1.00  0.00     0.146 A 
ATOM     11  O   UNL     1      18.470  24.533  42.059  1.00  0.00    -0.451 OA
ENDROOT
BRANCH   1  12
ATOM     12  C   UNL     1      19.701  23.745  40.143  1.00  0.00     0.063 A 
ATOM     13  C   UNL     1      20.762  21.696  39.374  1.00  0.00     0.047 A 
ATOM     14  C   UNL     1      20.533  22.639  40.380  1.00  0.00     0.020 A 
ATOM     15  C   UNL     1      20.173  21.852  38.117  1.00  0.00     0.119 A 
ATOM     16  C   UNL     1      19.359  22.965  37.863  1.00  0.00     0.093 A 
ATOM     17  C   UNL     1      19.130  23.919  38.865  1.00  0.00     0.130 A 
BRANCH  15  18
ATOM     18  O   UNL     1      20.405  20.901  37.126  1.00  0.00    -0.508 OA
ATOM     19  H   UNL     1      19.642  20.414  36.670  1.00  0.00     0.293 HD
ENDBRANCH  15  18
BRANCH  17  20
ATOM     20  O   UNL     1      18.358  25.047  38.585  1.00  0.00    -0.507 OA
ATOM     21  H   UNL     1      17.887  25.563  39.318  1.00  0.00     0.293 HD
ENDBRANCH  17  20
ENDBRANCH   1  12
BRANCH   2  22
ATOM     22  O   UNL     1      21.320  26.108  40.445  1.00  0.00    -0.502 OA
ATOM     23  H   UNL     1      22.275  26.302  40.725  1.00  0.00     0.293 HD
ENDBRANCH   2  22
BRANCH   6  24
ATOM     24  O   UNL     1      19.484  28.351  44.919  1.00  0.00    -0.507 OA
ATOM     25  H   UNL     1      20.254  28.748  44.401  1.00  0.00     0.293 HD
ENDBRANCH   6  24
BRANCH   8  26
ATOM     26  O   UNL     1      15.634  25.594  45.718  1.00  0.00    -0.508 OA
ATOM     27  H   UNL     1      15.628  24.823  46.376  1.00  0.00     0.293 HD
ENDBRANCH   8  26
TORSDOF 6
ENDMDL
MODEL 2
REMARK VINA RESULT:    -6.856      1.206      2.868
REMARK INTER + INTRA:          -8.662
REMARK INTER:                  -8.247
REMARK INTRA:                  -0.416
REMARK UNBOUND:                -0.404
REMARK SMILES O=c1c(O)c(-c2ccc(O)cc2O)oc2cc(O)cc(O)c12
REMARK SMILES IDX 5 1 3 2 2 3 1 4 22 5 20 6 19 7 17 8 16 9 15 10 14 11 6 12
REMARK SMILES IDX 8 13 7 14 9 15 11 16 12 17 10 18 13 20 4 22 21 24 18 26
REMARK H PARENT 10 19 13 21 4 23 21 25 18 27
REMARK Flexibility Score: inf
ROOT
ATOM      1  C   UNL     1      18.711  24.246  41.694  1.00  0.00     0.184 A 
ATOM      2  C   UNL     1      17.567  23.820  42.385  1.00  0.00     0.208 A 
ATOM      3  C   UNL     1      17.131  24.554  43.498  1.00  0.00     0.238 A 
ATOM      4  O   UNL     1      16.135  24.136  44.145  1.00  0.00    -0.285 OA
ATOM      5  C   UNL     1      17.835  25.717  43.895  1.00  0.00     0.111 A 
ATOM      6  C   UNL     1      17.459  26.561  44.983  1.00  0.00     0.134 A 
ATOM      7  C   UNL     1      18.304  27.610  45.366  1.00  0.00     0.093 A 
ATOM      8  C   UNL     1      19.477  27.886  44.659  1.00  0.00     0.123 A 
ATOM      9  C   UNL     1      19.822  27.105  43.559  1.00  0.00     0.094 A 
ATOM     10  C   UNL     1      19.019  26.028  43.175  1.00  0.00     0.146 A 
ATOM     11  O   UNL     1      19.391  25.302  42.128  1.00  0.00    -0.451 OA
ENDROOT
BRANCH   1  12
ATOM     12  C   UNL     1      19.214  23.529  40.504  1.00  0.00     0.063 A 
ATOM     13  C   UNL     1      20.725  21.873  39.562  1.00  0.00     0.047 A 
ATOM     14  C   UNL     1      20.223  22.566  40.667  1.00  0.00     0.020 A 
ATOM     15  C   UNL     1      20.236  22.141  38.282  1.00  0.00     0.119 A 
ATOM     16  C   UNL     1      19.245  23.117  38.106  1.00  0.00     0.093 A 
ATOM     17  C   UNL     1      18.740  23.821  39.208  1.00  0.00     0.130 A 
BRANCH  15  18
ATOM     18  O   UNL     1      20.743  21.438  37.191  1.00  0.00    -0.508 OA
ATOM     19  H   UNL     1      20.422  20.503  36.968  1.00  0.00     0.293 HD
ENDBRANCH  15  18
BRANCH  17  20
ATOM     20  O   UNL     1      17.789  24.824  39.015  1.00  0.00    -0.507 OA
ATOM     21  H   UNL     1      17.038  24.978  39.676  1.00  0.00     0.293 HD
ENDBRANCH  17  20
ENDBRANCH   1  12
BRANCH   2  22
ATOM     22  O   UNL     1      16.902  22.658  41.983  1.00  0.00    -0.502 OA
ATOM     23  H   UNL     1      17.227  22.085  41.213  1.00  0.00     0.293 HD
ENDBRANCH   2  22
BRANCH   6  24
ATOM     24  O   UNL     1      16.265  26.428  45.697  1.00  0.00    -0.507 OA
ATOM     25  H   UNL     1      15.750  27.195  46.103  1.00  0.00     0.293 HD
ENDBRANCH   6  24
BRANCH   8  26
ATOM     26  O   UNL     1      20.302  28.943  45.037  1.00  0.00    -0.508 OA
ATOM     27  H   UNL     1      21.297  28.934  44.844  1.00  0.00     0.293 HD
ENDBRANCH   8  26
TORSDOF 6
ENDMDL
MODEL 3
REMARK VINA RESULT:    -6.296      3.808      5.766
REMARK INTER + INTRA:          -7.988
REMARK INTER:                  -7.830
REMARK INTRA:                  -0.158
REMARK UNBOUND:                -0.404
REMARK SMILES O=c1c(O)c(-c2ccc(O)cc2O)oc2cc(O)cc(O)c12
REMARK SMILES IDX 5 1 3 2 2 3 1 4 22 5 20 6 19 7 17 8 16 9 15 10 14 11 6 12
REMARK SMILES IDX 8 13 7 14 9 15 11 16 12 17 10 18 13 20 4 22 21 24 18 26
REMARK H PARENT 10 19 13 21 4 23 21 25 18 27
REMARK Flexibility Score: inf
ROOT
ATOM      1  C   UNL     1      17.061  22.762  44.910  1.00  0.00     0.184 A 
ATOM      2  C   UNL     1      17.758  23.204  43.775  1.00  0.00     0.208 A 
ATOM      3  C   UNL     1      18.074  24.566  43.657  1.00  0.00     0.238 A 
ATOM      4  O   UNL     1      18.651  24.964  42.612  1.00  0.00    -0.285 OA
ATOM      5  C   UNL     1      17.704  25.466  44.686  1.00  0.00     0.111 A 
ATOM      6  C   UNL     1      18.008  26.861  44.691  1.00  0.00     0.134 A 
ATOM      7  C   UNL     1      17.479  27.678  45.697  1.00  0.00     0.093 A 
ATOM      8  C   UNL     1      16.711  27.141  46.734  1.00  0.00     0.123 A 
ATOM      9  C   UNL     1      16.459  25.772  46.770  1.00  0.00     0.094 A 
ATOM     10  C   UNL     1      16.942  24.936  45.761  1.00  0.00     0.146 A 
ATOM     11  O   UNL     1      16.668  23.638  45.827  1.00  0.00    -0.451 OA
ENDROOT
BRANCH   1  12
ATOM     12  C   UNL     1      16.713  21.340  45.104  1.00  0.00     0.063 A 
ATOM     13  C   UNL     1      15.739  19.299  44.209  1.00  0.00     0.047 A 
ATOM     14  C   UNL     1      16.087  20.644  44.057  1.00  0.00     0.020 A 
ATOM     15  C   UNL     1      15.999  18.636  45.411  1.00  0.00     0.119 A 
ATOM     16  C   UNL     1      16.603  19.328  46.470  1.00  0.00     0.093 A 
ATOM     17  C   UNL     1      16.950  20.679  46.328  1.00  0.00     0.130 A 
BRANCH  15  18
ATOM     18  O   UNL     1      15.651  17.294  45.546  1.00  0.00    -0.508 OA
ATOM     19  H   UNL     1      14.851  17.008  46.098  1.00  0.00     0.293 HD
ENDBRANCH  15  18
BRANCH  17  20
ATOM     20  O   UNL     1      17.505  21.371  47.405  1.00  0.00    -0.507 OA
ATOM     21  H   UNL     1      16.931  21.903  48.047  1.00  0.00     0.293 HD
ENDBRANCH  17  20
ENDBRANCH   1  12
BRANCH   2  22
ATOM     22  O   UNL     1      18.095  22.297  42.766  1.00  0.00    -0.502 OA
ATOM     23  H   UNL     1      19.054  22.041  42.564  1.00  0.00     0.293 HD
ENDBRANCH   2  22
BRANCH   6  24
ATOM     24  O   UNL     1      18.839  27.482  43.755  1.00  0.00    -0.507 OA
ATOM     25  H   UNL     1      18.551  28.223  43.133  1.00  0.00     0.293 HD
ENDBRANCH   6  24
BRANCH   8  26
ATOM     26  O   UNL     1      16.203  27.960  47.740  1.00  0.00    -0.508 OA
ATOM     27  H   UNL     1      15.794  28.864  47.532  1.00  0.00     0.293 HD
ENDBRANCH   8  26
TORSDOF 6
ENDMDL
MODEL 4
REMARK VINA RESULT:    -6.134      1.859      2.333
REMARK INTER + INTRA:          -7.793
REMARK INTER:                  -7.369
REMARK INTRA:                  -0.424
REMARK UNBOUND:                -0.404
REMARK SMILES O=c1c(O)c(-c2ccc(O)cc2O)oc2cc(O)cc(O)c12
REMARK SMILES IDX 5 1 3 2 2 3 1 4 22 5 20 6 19 7 17 8 16 9 15 10 14 11 6 12
REMARK SMILES IDX 8 13 7 14 9 15 11 16 12 17 10 18 13 20 4 22 21 24 18 26
REMARK H PARENT 10 19 13 21 4 23 21 25 18 27
REMARK Flexibility Score: inf
ROOT
ATOM      1  C   UNL     1      18.571  25.030  39.793  1.00  0.00     0.184 A 
ATOM      2  C   UNL     1      19.391  26.149  39.578  1.00  0.00     0.208 A 
ATOM      3  C   UNL     1      19.820  26.901  40.681  1.00  0.00     0.238 A 
ATOM      4  O   UNL     1      20.511  27.933  40.478  1.00  0.00    -0.285 OA
ATOM      5  C   UNL     1      19.437  26.514  41.989  1.00  0.00     0.111 A 
ATOM      6  C   UNL     1      19.847  27.179  43.184  1.00  0.00     0.134 A 
ATOM      7  C   UNL     1      19.301  26.788  44.412  1.00  0.00     0.093 A 
ATOM      8  C   UNL     1      18.411  25.714  44.497  1.00  0.00     0.123 A 
ATOM      9  C   UNL     1      18.051  25.021  43.344  1.00  0.00     0.094 A 
ATOM     10  C   UNL     1      18.549  25.410  42.099  1.00  0.00     0.146 A 
ATOM     11  O   UNL     1      18.172  24.730  41.023  1.00  0.00    -0.451 OA
ENDROOT
BRANCH   1  12
ATOM     12  C   UNL     1      18.098  24.186  38.676  1.00  0.00     0.063 A 
ATOM     13  C   UNL     1      18.569  22.446  37.045  1.00  0.00     0.047 A 
ATOM     14  C   UNL     1      18.982  23.256  38.105  1.00  0.00     0.020 A 
ATOM     15  C   UNL     1      17.274  22.562  36.533  1.00  0.00     0.119 A 
ATOM     16  C   UNL     1      16.392  23.503  37.081  1.00  0.00     0.093 A 
ATOM     17  C   UNL     1      16.800  24.324  38.141  1.00  0.00     0.130 A 
BRANCH  15  18
ATOM     18  O   UNL     1      16.875  21.743  35.478  1.00  0.00    -0.508 OA
ATOM     19  H   UNL     1      16.020  21.201  35.523  1.00  0.00     0.293 HD
ENDBRANCH  15  18
BRANCH  17  20
ATOM     20  O   UNL     1      15.929  25.291  38.646  1.00  0.00    -0.507 OA
ATOM     21  H   UNL     1      16.259  26.048  39.232  1.00  0.00     0.293 HD
ENDBRANCH  17  20
ENDBRANCH   1  12
BRANCH   2  22
ATOM     22  O   UNL     1      19.739  26.518  38.275  1.00  0.00    -0.502 OA
ATOM     23  H   UNL     1      19.067  26.532  37.517  1.00  0.00     0.293 HD
ENDBRANCH   2  22
BRANCH   6  24
ATOM     24  O   UNL     1      20.798  28.202  43.221  1.00  0.00    -0.507 OA
ATOM     25  H   UNL     1      20.686  29.107  42.789  1.00  0.00     0.293 HD
ENDBRANCH   6  24
BRANCH   8  26
ATOM     26  O   UNL     1      17.886  25.321  45.727  1.00  0.00    -0.508 OA
ATOM     27  H   UNL     1      17.202  25.887  46.216  1.00  0.00     0.293 HD
ENDBRANCH   8  26
TORSDOF 6
ENDMDL
MODEL 5
REMARK VINA RESULT:    -6.054      2.571      6.774
REMARK INTER + INTRA:          -7.697
REMARK INTER:                  -7.510
REMARK INTRA:                  -0.187
REMARK UNBOUND:                -0.404
REMARK SMILES O=c1c(O)c(-c2ccc(O)cc2O)oc2cc(O)cc(O)c12
REMARK SMILES IDX 5 1 3 2 2 3 1 4 22 5 20 6 19 7 17 8 16 9 15 10 14 11 6 12
REMARK SMILES IDX 8 13 7 14 9 15 11 16 12 17 10 18 13 20 4 22 21 24 18 26
REMARK H PARENT 10 19 13 21 4 23 21 25 18 27
REMARK Flexibility Score: inf
ROOT
ATOM      1  C   UNL     1      17.836  26.278  44.104  1.00  0.00     0.184 A 
ATOM      2  C   UNL     1      19.151  26.733  43.915  1.00  0.00     0.208 A 
ATOM      3  C   UNL     1      19.682  26.759  42.617  1.00  0.00     0.238 A 
ATOM      4  O   UNL     1      20.879  27.117  42.461  1.00  0.00    -0.285 OA
ATOM      5  C   UNL     1      18.886  26.345  41.522  1.00  0.00     0.111 A 
ATOM      6  C   UNL     1      19.308  26.367  40.158  1.00  0.00     0.134 A 
ATOM      7  C   UNL     1      18.484  25.812  39.172  1.00  0.00     0.093 A 
ATOM      8  C   UNL     1      17.226  25.296  39.490  1.00  0.00     0.123 A 
ATOM      9  C   UNL     1      16.780  25.323  40.809  1.00  0.00     0.094 A 
ATOM     10  C   UNL     1      17.594  25.836  41.821  1.00  0.00     0.146 A 
ATOM     11  O   UNL     1      17.135  25.834  43.067  1.00  0.00    -0.451 OA
ENDROOT
BRANCH   1  12
ATOM     12  C   UNL     1      17.211  26.242  45.442  1.00  0.00     0.063 A 
ATOM     13  C   UNL     1      16.113  24.952  47.187  1.00  0.00     0.047 A 
ATOM     14  C   UNL     1      16.716  25.021  45.928  1.00  0.00     0.020 A 
ATOM     15  C   UNL     1      15.986  26.102  47.970  1.00  0.00     0.119 A 
ATOM     16  C   UNL     1      16.455  27.330  47.483  1.00  0.00     0.093 A 
ATOM     17  C   UNL     1      17.056  27.409  46.219  1.00  0.00     0.130 A 
BRANCH  15  18
ATOM     18  O   UNL     1      15.387  26.017  49.225  1.00  0.00    -0.508 OA
ATOM     19  H   UNL     1      14.706  26.701  49.534  1.00  0.00     0.293 HD
ENDBRANCH  15  18
BRANCH  17  20
ATOM     20  O   UNL     1      17.475  28.645  45.725  1.00  0.00    -0.507 OA
ATOM     21  H   UNL     1      17.305  29.505  46.232  1.00  0.00     0.293 HD
ENDBRANCH  17  20
ENDBRANCH   1  12
BRANCH   2  22
ATOM     22  O   UNL     1      19.921  27.118  45.017  1.00  0.00    -0.502 OA
ATOM     23  H   UNL     1      20.145  28.087  45.210  1.00  0.00     0.293 HD
ENDBRANCH   2  22
BRANCH   6  24
ATOM     24  O   UNL     1      20.505  26.942  39.721  1.00  0.00    -0.507 OA
ATOM     25  H   UNL     1      21.350  26.996  40.270  1.00  0.00     0.293 HD
ENDBRANCH   6  24
BRANCH   8  26
ATOM     26  O   UNL     1      16.405  24.761  38.499  1.00  0.00    -0.508 OA
ATOM     27  H   UNL     1      16.609  23.866  38.068  1.00  0.00     0.293 HD
ENDBRANCH   8  26
TORSDOF 6
ENDMDL
MODEL 6
REMARK VINA RESULT:    -6.049      3.176      5.231
REMARK INTER + INTRA:          -7.691
REMARK INTER:                  -7.355
REMARK INTRA:                  -0.336
REMARK UNBOUND:                -0.404
REMARK SMILES O=c1c(O)c(-c2ccc(O)cc2O)oc2cc(O)cc(O)c12
REMARK SMILES IDX 5 1 3 2 2 3 1 4 22 5 20 6 19 7 17 8 16 9 15 10 14 11 6 12
REMARK SMILES IDX 8 13 7 14 9 15 11 16 12 17 10 18 13 20 4 22 21 24 18 26
REMARK H PARENT 10 19 13 21 4 23 21 25 18 27
REMARK Flexibility Score: inf
ROOT
ATOM      1  C   UNL     1      17.978  25.717  44.297  1.00  0.00     0.184 A 
ATOM      2  C   UNL     1      17.712  24.344  44.410  1.00  0.00     0.208 A 
ATOM      3  C   UNL     1      16.963  23.883  45.502  1.00  0.00     0.238 A 
ATOM      4  O   UNL     1      16.774  22.644  45.626  1.00  0.00    -0.285 OA
ATOM      5  C   UNL     1      16.472  24.804  46.459  1.00  0.00     0.111 A 
ATOM      6  C   UNL     1      15.667  24.453  47.585  1.00  0.00     0.134 A 
ATOM      7  C   UNL     1      15.349  25.430  48.536  1.00  0.00     0.093 A 
ATOM      8  C   UNL     1      15.751  26.757  48.370  1.00  0.00     0.123 A 
ATOM      9  C   UNL     1      16.487  27.121  47.245  1.00  0.00     0.094 A 
ATOM     10  C   UNL     1      16.851  26.163  46.296  1.00  0.00     0.146 A 
ATOM     11  O   UNL     1      17.562  26.551  45.244  1.00  0.00    -0.451 OA
ENDROOT
BRANCH   1  12
ATOM     12  C   UNL     1      18.746  26.271  43.163  1.00  0.00     0.063 A 
ATOM     13  C   UNL     1      18.967  26.590  40.763  1.00  0.00     0.047 A 
ATOM     14  C   UNL     1      18.262  26.085  41.858  1.00  0.00     0.020 A 
ATOM     15  C   UNL     1      20.169  27.276  40.955  1.00  0.00     0.119 A 
ATOM     16  C   UNL     1      20.672  27.447  42.252  1.00  0.00     0.093 A 
ATOM     17  C   UNL     1      19.974  26.938  43.356  1.00  0.00     0.130 A 
BRANCH  15  18
ATOM     18  O   UNL     1      20.858  27.779  39.854  1.00  0.00    -0.508 OA
ATOM     19  H   UNL     1      20.373  28.059  39.008  1.00  0.00     0.293 HD
ENDBRANCH  15  18
BRANCH  17  20
ATOM     20  O   UNL     1      20.509  27.072  44.638  1.00  0.00    -0.507 OA
ATOM     21  H   UNL     1      20.230  27.825  45.254  1.00  0.00     0.293 HD
ENDBRANCH  17  20
ENDBRANCH   1  12
BRANCH   2  22
ATOM     22  O   UNL     1      18.224  23.454  43.460  1.00  0.00    -0.502 OA
ATOM     23  H   UNL     1      18.273  22.455  43.624  1.00  0.00     0.293 HD
ENDBRANCH   2  22
BRANCH   6  24
ATOM     24  O   UNL     1      15.137  23.178  47.798  1.00  0.00    -0.507 OA
ATOM     25  H   UNL     1      14.219  22.992  48.172  1.00  0.00     0.293 HD
ENDBRANCH   6  24
BRANCH   8  26
ATOM     26  O   UNL     1      15.416  27.725  49.314  1.00  0.00    -0.508 OA
ATOM     27  H   UNL     1      14.654  27.586  49.968  1.00  0.00     0.293 HD
ENDBRANCH   8  26
TORSDOF 6
ENDMDL
MODEL 7
REMARK VINA RESULT:    -6.007      2.837      7.121
REMARK INTER + INTRA:          -7.639
REMARK INTER:                  -7.451
REMARK INTRA:                  -0.189
REMARK UNBOUND:                -0.404
REMARK SMILES O=c1c(O)c(-c2ccc(O)cc2O)oc2cc(O)cc(O)c12
REMARK SMILES IDX 5 1 3 2 2 3 1 4 22 5 20 6 19 7 17 8 16 9 15 10 14 11 6 12
REMARK SMILES IDX 8 13 7 14 9 15 11 16 12 17 10 18 13 20 4 22 21 24 18 26
REMARK H PARENT 10 19 13 21 4 23 21 25 18 27
REMARK Flexibility Score: inf
ROOT
ATOM      1  C   UNL     1      17.463  26.125  44.139  1.00  0.00     0.184 A 
ATOM      2  C   UNL     1      16.751  25.723  42.999  1.00  0.00     0.208 A 
ATOM      3  C   UNL     1      17.366  25.821  41.742  1.00  0.00     0.238 A 
ATOM      4  O   UNL     1      16.704  25.509  40.719  1.00  0.00    -0.285 OA
ATOM      5  C   UNL     1      18.694  26.305  41.644  1.00  0.00     0.111 A 
ATOM      6  C   UNL     1      19.431  26.409  40.426  1.00  0.00     0.134 A 
ATOM      7  C   UNL     1      20.689  27.024  40.431  1.00  0.00     0.093 A 
ATOM      8  C   UNL     1      21.264  27.479  41.620  1.00  0.00     0.123 A 
ATOM      9  C   UNL     1      20.578  27.329  42.822  1.00  0.00     0.094 A 
ATOM     10  C   UNL     1      19.306  26.753  42.845  1.00  0.00     0.146 A 
ATOM     11  O   UNL     1      18.682  26.638  44.011  1.00  0.00    -0.451 OA
ENDROOT
BRANCH   1  12
ATOM     12  C   UNL     1      16.880  26.032  45.494  1.00  0.00     0.063 A 
ATOM     13  C   UNL     1      15.702  24.712  47.161  1.00  0.00     0.047 A 
ATOM     14  C   UNL     1      16.268  24.832  45.889  1.00  0.00     0.020 A 
ATOM     15  C   UNL     1      15.729  25.790  48.049  1.00  0.00     0.119 A 
ATOM     16  C   UNL     1      16.318  27.000  47.655  1.00  0.00     0.093 A 
ATOM     17  C   UNL     1      16.883  27.131  46.379  1.00  0.00     0.130 A 
BRANCH  15  18
ATOM     18  O   UNL     1      15.166  25.654  49.315  1.00  0.00    -0.508 OA
ATOM     19  H   UNL     1      14.193  25.878  49.489  1.00  0.00     0.293 HD
ENDBRANCH  15  18
BRANCH  17  20
ATOM     20  O   UNL     1      17.423  28.355  45.980  1.00  0.00    -0.507 OA
ATOM     21  H   UNL     1      17.652  29.077  46.651  1.00  0.00     0.293 HD
ENDBRANCH  17  20
ENDBRANCH   1  12
BRANCH   2  22
ATOM     22  O   UNL     1      15.436  25.266  43.123  1.00  0.00    -0.502 OA
ATOM     23  H   UNL     1      15.200  24.280  43.114  1.00  0.00     0.293 HD
ENDBRANCH   2  22
BRANCH   6  24
ATOM     24  O   UNL     1      18.987  25.905  39.200  1.00  0.00    -0.507 OA
ATOM     25  H   UNL     1      18.032  25.942  38.875  1.00  0.00     0.293 HD
ENDBRANCH   6  24
BRANCH   8  26
ATOM     26  O   UNL     1      22.524  28.075  41.618  1.00  0.00    -0.508 OA
ATOM     27  H   UNL     1      23.360  27.544  41.403  1.00  0.00     0.293 HD
ENDBRANCH   8  26
TORSDOF 6
ENDMDL
MODEL 8
REMARK VINA RESULT:    -6.005      3.532      6.245
REMARK INTER + INTRA:          -7.638
REMARK INTER:                  -7.226
REMARK INTRA:                  -0.411
REMARK UNBOUND:                -0.404
REMARK SMILES O=c1c(O)c(-c2ccc(O)cc2O)oc2cc(O)cc(O)c12
REMARK SMILES IDX 5 1 3 2 2 3 1 4 22 5 20 6 19 7 17 8 16 9 15 10 14 11 6 12
REMARK SMILES IDX 8 13 7 14 9 15 11 16 12 17 10 18 13 20 4 22 21 24 18 26
REMARK H PARENT 10 19 13 21 4 23 21 25 18 27
REMARK Flexibility Score: inf
ROOT
ATOM      1  C   UNL     1      17.226  24.039  42.892  1.00  0.00     0.184 A 
ATOM      2  C   UNL     1      15.913  24.229  42.434  1.00  0.00     0.208 A 
ATOM      3  C   UNL     1      14.984  23.189  42.582  1.00  0.00     0.238 A 
ATOM      4  O   UNL     1      13.823  23.346  42.122  1.00  0.00    -0.285 OA
ATOM      5  C   UNL     1      15.375  21.978  43.203  1.00  0.00     0.111 A 
ATOM      6  C   UNL     1      14.505  20.871  43.442  1.00  0.00     0.134 A 
ATOM      7  C   UNL     1      15.032  19.675  43.944  1.00  0.00     0.093 A 
ATOM      8  C   UNL     1      16.384  19.567  44.277  1.00  0.00     0.123 A 
ATOM      9  C   UNL     1      17.229  20.660  44.103  1.00  0.00     0.094 A 
ATOM     10  C   UNL     1      16.741  21.855  43.569  1.00  0.00     0.146 A 
ATOM     11  O   UNL     1      17.583  22.869  43.409  1.00  0.00    -0.451 OA
ENDROOT
BRANCH   1  12
ATOM     12  C   UNL     1      18.250  25.099  42.782  1.00  0.00     0.063 A 
ATOM     13  C   UNL     1      19.879  26.279  41.417  1.00  0.00     0.047 A 
ATOM     14  C   UNL     1      18.902  25.290  41.553  1.00  0.00     0.020 A 
ATOM     15  C   UNL     1      20.225  27.082  42.506  1.00  0.00     0.119 A 
ATOM     16  C   UNL     1      19.596  26.884  43.743  1.00  0.00     0.093 A 
ATOM     17  C   UNL     1      18.619  25.890  43.891  1.00  0.00     0.130 A 
BRANCH  15  18
ATOM     18  O   UNL     1      21.197  28.068  42.354  1.00  0.00    -0.508 OA
ATOM     19  H   UNL     1      22.185  27.846  42.375  1.00  0.00     0.293 HD
ENDBRANCH  15  18
BRANCH  17  20
ATOM     20  O   UNL     1      18.035  25.669  45.139  1.00  0.00    -0.507 OA
ATOM     21  H   UNL     1      18.576  25.713  45.993  1.00  0.00     0.293 HD
ENDBRANCH  17  20
ENDBRANCH   1  12
BRANCH   2  22
ATOM     22  O   UNL     1      15.559  25.428  41.809  1.00  0.00    -0.502 OA
ATOM     23  H   UNL     1      14.599  25.745  41.746  1.00  0.00     0.293 HD
ENDBRANCH   2  22
BRANCH   6  24
ATOM     24  O   UNL     1      13.124  20.905  43.230  1.00  0.00    -0.507 OA
ATOM     25  H   UNL     1      12.459  21.358  43.840  1.00  0.00     0.293 HD
ENDBRANCH   6  24
BRANCH   8  26
ATOM     26  O   UNL     1      16.896  18.378  44.792  1.00  0.00    -0.508 OA
ATOM     27  H   UNL     1      16.359  17.802  45.430  1.00  0.00     0.293 HD
ENDBRANCH   8  26
TORSDOF 6
ENDMDL
MODEL 9
REMARK VINA RESULT:    -5.965      2.309      6.144
REMARK INTER + INTRA:          -7.590
REMARK INTER:                  -7.163
REMARK INTRA:                  -0.427
REMARK UNBOUND:                -0.404
REMARK SMILES O=c1c(O)c(-c2ccc(O)cc2O)oc2cc(O)cc(O)c12
REMARK SMILES IDX 5 1 3 2 2 3 1 4 22 5 20 6 19 7 17 8 16 9 15 10 14 11 6 12
REMARK SMILES IDX 8 13 7 14 9 15 11 16 12 17 10 18 13 20 4 22 21 24 18 26
REMARK H PARENT 10 19 13 21 4 23 21 25 18 27
REMARK Flexibility Score: inf
ROOT
ATOM      1  C   UNL     1      17.594  24.959  44.070  1.00  0.00     0.184 A 
ATOM      2  C   UNL     1      18.408  25.879  44.748  1.00  0.00     0.208 A 
ATOM      3  C   UNL     1      19.365  26.605  44.023  1.00  0.00     0.238 A 
ATOM      4  O   UNL     1      20.128  27.389  44.646  1.00  0.00    -0.285 OA
ATOM      5  C   UNL     1      19.483  26.414  42.625  1.00  0.00     0.111 A 
ATOM      6  C   UNL     1      20.391  27.125  41.783  1.00  0.00     0.134 A 
ATOM      7  C   UNL     1      20.512  26.761  40.437  1.00  0.00     0.093 A 
ATOM      8  C   UNL     1      19.713  25.756  39.886  1.00  0.00     0.123 A 
ATOM      9  C   UNL     1      18.783  25.097  40.685  1.00  0.00     0.094 A 
ATOM     10  C   UNL     1      18.663  25.412  42.041  1.00  0.00     0.146 A 
ATOM     11  O   UNL     1      17.772  24.751  42.770  1.00  0.00    -0.451 OA
ENDROOT
BRANCH   1  12
ATOM     12  C   UNL     1      16.556  24.175  44.770  1.00  0.00     0.063 A 
ATOM     13  C   UNL     1      14.348  24.091  45.784  1.00  0.00     0.047 A 
ATOM     14  C   UNL     1      15.348  24.802  45.116  1.00  0.00     0.020 A 
ATOM     15  C   UNL     1      14.544  22.750  46.124  1.00  0.00     0.119 A 
ATOM     16  C   UNL     1      15.755  22.122  45.803  1.00  0.00     0.093 A 
ATOM     17  C   UNL     1      16.767  22.829  45.138  1.00  0.00     0.130 A 
BRANCH  15  18
ATOM     18  O   UNL     1      13.536  22.053  46.785  1.00  0.00    -0.508 OA
ATOM     19  H   UNL     1      12.561  22.317  46.693  1.00  0.00     0.293 HD
ENDBRANCH  15  18
BRANCH  17  20
ATOM     20  O   UNL     1      17.987  22.208  44.868  1.00  0.00    -0.507 OA
ATOM     21  H   UNL     1      18.541  21.784  45.602  1.00  0.00     0.293 HD
ENDBRANCH  17  20
ENDBRANCH   1  12
BRANCH   2  22
ATOM     22  O   UNL     1      18.283  26.034  46.132  1.00  0.00    -0.502 OA
ATOM     23  H   UNL     1      18.259  26.945  46.576  1.00  0.00     0.293 HD
ENDBRANCH   2  22
BRANCH   6  24
ATOM     24  O   UNL     1      21.169  28.205  42.211  1.00  0.00    -0.507 OA
ATOM     25  H   UNL     1      22.132  28.357  41.953  1.00  0.00     0.293 HD
ENDBRANCH   6  24
BRANCH   8  26
ATOM     26  O   UNL     1      19.829  25.412  38.541  1.00  0.00    -0.508 OA
ATOM     27  H   UNL     1      20.406  25.950  37.904  1.00  0.00     0.293 HD
ENDBRANCH   8  26
TORSDOF 6
ENDMDL
