MODEL 1
REMARK VINA RESULT:    -3.773      0.000      0.000
REMARK INTER + INTRA:          -4.843
REMARK INTER:                  -4.765
REMARK INTRA:                  -0.077
REMARK UNBOUND:                -0.077
REMARK SMILES CSCC[C@@H]([NH3+])C(=O)[O-]
REMARK SMILES IDX 4 1 5 2 6 3 7 7 8 8 9 9 3 10 2 11 1 12
REMARK H PARENT 6 4 6 5 6 6
REMARK Flexibility Score: inf
ROOT
ATOM      1  C   UNL     1      -5.307  64.685 165.341  1.00  0.00     0.082 C 
ENDROOT
BRANCH   1   2
ATOM      2  C   UNL     1      -6.833  64.465 165.446  1.00  0.00     0.228 C 
BRANCH   2   3
ATOM      3  N   UNL     1      -7.586  65.579 164.852  1.00  0.00    -0.350 N 
ATOM      4  H   UNL     1      -7.934  65.326 163.898  1.00  0.00     0.345 HD
ATOM      5  H   UNL     1      -6.980  66.428 164.786  1.00  0.00     0.345 HD
ATOM      6  H   UNL     1      -8.402  65.822 165.460  1.00  0.00     0.345 HD
ENDBRANCH   2   3
BRANCH   2   7
ATOM      7  C   UNL     1      -7.205  63.171 164.774  1.00  0.00     0.099 C 
ATOM      8  O   UNL     1      -8.281  63.073 164.125  1.00  0.00    -0.544 OA
ATOM      9  O   UNL     1      -6.350  62.079 164.850  1.00  0.00    -0.544 OA
ENDBRANCH   2   7
ENDBRANCH   1   2
BRANCH   1  10
ATOM     10  C   UNL     1      -4.797  65.756 166.311  1.00  0.00     0.076 C 
BRANCH  10  11
ATOM     11  S   UNL     1      -4.216  67.227 165.393  1.00  0.00    -0.165 SA
ATOM     12  C   UNL     1      -2.450  67.014 165.788  1.00  0.00     0.085 C 
ENDBRANCH  10  11
ENDBRANCH   1  10
TORSDOF 5
ENDMDL
MODEL 2
REMARK VINA RESULT:    -3.680      1.909      2.194
REMARK INTER + INTRA:          -4.725
REMARK INTER:                  -4.678
REMARK INTRA:                  -0.048
REMARK UNBOUND:                -0.077
REMARK SMILES CSCC[C@@H]([NH3+])C(=O)[O-]
REMARK SMILES IDX 4 1 5 2 6 3 7 7 8 8 9 9 3 10 2 11 1 12
REMARK H PARENT 6 4 6 5 6 6
REMARK Flexibility Score: inf
ROOT
ATOM      1  C   UNL     1      -4.805  66.453 165.355  1.00  0.00     0.082 C 
ENDROOT
BRANCH   1   2
ATOM      2  C   UNL     1      -5.475  65.218 166.001  1.00  0.00     0.228 C 
BRANCH   2   3
ATOM      3  N   UNL     1      -5.644  65.387 167.452  1.00  0.00    -0.350 N 
ATOM      4  H   UNL     1      -6.410  66.068 167.660  1.00  0.00     0.345 HD
ATOM      5  H   UNL     1      -4.753  65.727 167.880  1.00  0.00     0.345 HD
ATOM      6  H   UNL     1      -5.874  64.467 167.893  1.00  0.00     0.345 HD
ENDBRANCH   2   3
BRANCH   2   7
ATOM      7  C   UNL     1      -6.808  64.966 165.350  1.00  0.00     0.099 C 
ATOM      8  O   UNL     1      -7.611  65.916 165.149  1.00  0.00    -0.544 OA
ATOM      9  O   UNL     1      -7.151  63.682 164.946  1.00  0.00    -0.544 OA
ENDBRANCH   2   7
ENDBRANCH   1   2
BRANCH   1  10
ATOM     10  C   UNL     1      -3.330  66.595 165.744  1.00  0.00     0.076 C 
BRANCH  10  11
ATOM     11  S   UNL     1      -2.825  68.352 165.706  1.00  0.00    -0.165 SA
ATOM     12  C   UNL     1      -1.359  68.107 164.651  1.00  0.00     0.085 C 
ENDBRANCH  10  11
ENDBRANCH   1  10
TORSDOF 5
ENDMDL
MODEL 3
REMARK VINA RESULT:    -3.516      4.429      5.598
REMARK INTER + INTRA:          -4.519
REMARK INTER:                  -4.466
REMARK INTRA:                  -0.053
REMARK UNBOUND:                -0.077
REMARK SMILES CSCC[C@@H]([NH3+])C(=O)[O-]
REMARK SMILES IDX 4 1 5 2 6 3 7 7 8 8 9 9 3 10 2 11 1 12
REMARK H PARENT 6 4 6 5 6 6
REMARK Flexibility Score: inf
ROOT
ATOM      1  C   UNL     1      -3.510  66.322 166.128  1.00  0.00     0.082 C 
ENDROOT
BRANCH   1   2
ATOM      2  C   UNL     1      -2.784  67.500 165.439  1.00  0.00     0.228 C 
BRANCH   2   3
ATOM      3  N   UNL     1      -2.918  68.746 166.207  1.00  0.00    -0.350 N 
ATOM      4  H   UNL     1      -2.176  68.812 166.942  1.00  0.00     0.345 HD
ATOM      5  H   UNL     1      -3.859  68.790 166.660  1.00  0.00     0.345 HD
ATOM      6  H   UNL     1      -2.839  69.569 165.566  1.00  0.00     0.345 HD
ENDBRANCH   2   3
BRANCH   2   7
ATOM      7  C   UNL     1      -1.330  67.159 165.254  1.00  0.00     0.099 C 
ATOM      8  O   UNL     1      -0.660  67.696 164.333  1.00  0.00    -0.544 OA
ATOM      9  O   UNL     1      -0.712  66.261 166.116  1.00  0.00    -0.544 OA
ENDBRANCH   2   7
ENDBRANCH   1   2
BRANCH   1  10
ATOM     10  C   UNL     1      -4.711  65.816 165.321  1.00  0.00     0.076 C 
BRANCH  10  11
ATOM     11  S   UNL     1      -6.128  65.477 166.425  1.00  0.00    -0.165 SA
ATOM     12  C   UNL     1      -7.422  65.847 165.196  1.00  0.00     0.085 C 
ENDBRANCH  10  11
ENDBRANCH   1  10
TORSDOF 5
ENDMDL
MODEL 4
REMARK VINA RESULT:    -3.498      2.784      2.977
REMARK INTER + INTRA:          -4.496
REMARK INTER:                  -4.397
REMARK INTRA:                  -0.099
REMARK UNBOUND:                -0.077
REMARK SMILES CSCC[C@@H]([NH3+])C(=O)[O-]
REMARK SMILES IDX 4 1 5 2 6 3 7 7 8 8 9 9 3 10 2 11 1 12
REMARK H PARENT 6 4 6 5 6 6
REMARK Flexibility Score: inf
ROOT
ATOM      1  C   UNL     1      -3.757  66.224 165.859  1.00  0.00     0.082 C 
ENDROOT
BRANCH   1   2
ATOM      2  C   UNL     1      -5.128  65.620 165.479  1.00  0.00     0.228 C 
BRANCH   2   3
ATOM      3  N   UNL     1      -5.010  64.212 165.074  1.00  0.00    -0.350 N 
ATOM      4  H   UNL     1      -4.042  63.856 165.246  1.00  0.00     0.345 HD
ATOM      5  H   UNL     1      -5.241  64.109 164.059  1.00  0.00     0.345 HD
ATOM      6  H   UNL     1      -5.691  63.629 165.612  1.00  0.00     0.345 HD
ENDBRANCH   2   3
BRANCH   2   7
ATOM      7  C   UNL     1      -6.077  65.748 166.640  1.00  0.00     0.099 C 
ATOM      8  O   UNL     1      -7.186  66.328 166.499  1.00  0.00    -0.544 OA
ATOM      9  O   UNL     1      -5.740  65.205 167.874  1.00  0.00    -0.544 OA
ENDBRANCH   2   7
ENDBRANCH   1   2
BRANCH   1  10
ATOM     10  C   UNL     1      -3.710  67.745 165.674  1.00  0.00     0.076 C 
BRANCH  10  11
ATOM     11  S   UNL     1      -2.059  68.392 166.118  1.00  0.00    -0.165 SA
ATOM     12  C   UNL     1      -1.145  66.860 165.747  1.00  0.00     0.085 C 
ENDBRANCH  10  11
ENDBRANCH   1  10
TORSDOF 5
ENDMDL
MODEL 5
REMARK VINA RESULT:    -3.481      4.405      5.563
REMARK INTER + INTRA:          -4.475
REMARK INTER:                  -4.405
REMARK INTRA:                  -0.070
REMARK UNBOUND:                -0.077
REMARK SMILES CSCC[C@@H]([NH3+])C(=O)[O-]
REMARK SMILES IDX 4 1 5 2 6 3 7 7 8 8 9 9 3 10 2 11 1 12
REMARK H PARENT 6 4 6 5 6 6
REMARK Flexibility Score: inf
ROOT
ATOM      1  C   UNL     1      -3.659  66.396 166.229  1.00  0.00     0.082 C 
ENDROOT
BRANCH   1   2
ATOM      2  C   UNL     1      -2.914  67.518 165.469  1.00  0.00     0.228 C 
BRANCH   2   3
ATOM      3  N   UNL     1      -3.029  68.811 166.158  1.00  0.00    -0.350 N 
ATOM      4  H   UNL     1      -3.918  68.862 166.708  1.00  0.00     0.345 HD
ATOM      5  H   UNL     1      -3.006  69.592 165.463  1.00  0.00     0.345 HD
ATOM      6  H   UNL     1      -2.218  68.942 166.805  1.00  0.00     0.345 HD
ENDBRANCH   2   3
BRANCH   2   7
ATOM      7  C   UNL     1      -1.466  67.143 165.306  1.00  0.00     0.099 C 
ATOM      8  O   UNL     1      -0.938  66.286 166.063  1.00  0.00    -0.544 OA
ATOM      9  O   UNL     1      -0.706  67.731 164.301  1.00  0.00    -0.544 OA
ENDBRANCH   2   7
ENDBRANCH   1   2
BRANCH   1  10
ATOM     10  C   UNL     1      -4.602  65.596 165.324  1.00  0.00     0.076 C 
BRANCH  10  11
ATOM     11  S   UNL     1      -6.090  65.076 166.251  1.00  0.00    -0.165 SA
ATOM     12  C   UNL     1      -7.228  66.265 165.467  1.00  0.00     0.085 C 
ENDBRANCH  10  11
ENDBRANCH   1  10
TORSDOF 5
ENDMDL
MODEL 6
REMARK VINA RESULT:    -3.479      4.628      5.565
REMARK INTER + INTRA:          -4.471
REMARK INTER:                  -4.411
REMARK INTRA:                  -0.060
REMARK UNBOUND:                -0.077
REMARK SMILES CSCC[C@@H]([NH3+])C(=O)[O-]
REMARK SMILES IDX 4 1 5 2 6 3 7 7 8 8 9 9 3 10 2 11 1 12
REMARK H PARENT 6 4 6 5 6 6
REMARK Flexibility Score: inf
ROOT
ATOM      1  C   UNL     1      -4.704  66.976 165.301  1.00  0.00     0.082 C 
ENDROOT
BRANCH   1   2
ATOM      2  C   UNL     1      -3.375  67.682 165.652  1.00  0.00     0.228 C 
BRANCH   2   3
ATOM      3  N   UNL     1      -2.213  66.940 165.144  1.00  0.00    -0.350 N 
ATOM      4  H   UNL     1      -1.349  67.189 165.679  1.00  0.00     0.345 HD
ATOM      5  H   UNL     1      -2.065  67.151 164.131  1.00  0.00     0.345 HD
ATOM      6  H   UNL     1      -2.382  65.911 165.229  1.00  0.00     0.345 HD
ENDBRANCH   2   3
BRANCH   2   7
ATOM      7  C   UNL     1      -3.382  69.080 165.093  1.00  0.00     0.099 C 
ATOM      8  O   UNL     1      -4.125  69.965 165.595  1.00  0.00    -0.544 OA
ATOM      9  O   UNL     1      -2.549  69.406 164.030  1.00  0.00    -0.544 OA
ENDBRANCH   2   7
ENDBRANCH   1   2
BRANCH   1  10
ATOM     10  C   UNL     1      -4.597  65.448 165.373  1.00  0.00     0.076 C 
BRANCH  10  11
ATOM     11  S   UNL     1      -6.236  64.707 165.704  1.00  0.00    -0.165 SA
ATOM     12  C   UNL     1      -7.185  66.252 165.521  1.00  0.00     0.085 C 
ENDBRANCH  10  11
ENDBRANCH   1  10
TORSDOF 5
ENDMDL
MODEL 7
REMARK VINA RESULT:    -3.468      4.662      5.632
REMARK INTER + INTRA:          -4.458
REMARK INTER:                  -4.398
REMARK INTRA:                  -0.060
REMARK UNBOUND:                -0.077
REMARK SMILES CSCC[C@@H]([NH3+])C(=O)[O-]
REMARK SMILES IDX 4 1 5 2 6 3 7 7 8 8 9 9 3 10 2 11 1 12
REMARK H PARENT 6 4 6 5 6 6
REMARK Flexibility Score: inf
ROOT
ATOM      1  C   UNL     1      -4.682  67.031 165.343  1.00  0.00     0.082 C 
ENDROOT
BRANCH   1   2
ATOM      2  C   UNL     1      -3.344  67.740 165.655  1.00  0.00     0.228 C 
BRANCH   2   3
ATOM      3  N   UNL     1      -2.193  66.977 165.151  1.00  0.00    -0.350 N 
ATOM      4  H   UNL     1      -2.469  66.383 164.336  1.00  0.00     0.345 HD
ATOM      5  H   UNL     1      -1.806  66.369 165.908  1.00  0.00     0.345 HD
ATOM      6  H   UNL     1      -1.434  67.633 164.856  1.00  0.00     0.345 HD
ENDBRANCH   2   3
BRANCH   2   7
ATOM      7  C   UNL     1      -3.352  69.122 165.058  1.00  0.00     0.099 C 
ATOM      8  O   UNL     1      -2.665  69.380 164.034  1.00  0.00    -0.544 OA
ATOM      9  O   UNL     1      -4.138  70.118 165.625  1.00  0.00    -0.544 OA
ENDBRANCH   2   7
ENDBRANCH   1   2
BRANCH   1  10
ATOM     10  C   UNL     1      -4.571  65.504 165.414  1.00  0.00     0.076 C 
BRANCH  10  11
ATOM     11  S   UNL     1      -6.214  64.756 165.705  1.00  0.00    -0.165 SA
ATOM     12  C   UNL     1      -7.150  66.319 165.637  1.00  0.00     0.085 C 
ENDBRANCH  10  11
ENDBRANCH   1  10
TORSDOF 5
ENDMDL
MODEL 8
REMARK VINA RESULT:    -3.348      3.532      4.611
REMARK INTER + INTRA:          -4.306
REMARK INTER:                  -4.233
REMARK INTRA:                  -0.072
REMARK UNBOUND:                -0.077
REMARK SMILES CSCC[C@@H]([NH3+])C(=O)[O-]
REMARK SMILES IDX 4 1 5 2 6 3 7 7 8 8 9 9 3 10 2 11 1 12
REMARK H PARENT 6 4 6 5 6 6
REMARK Flexibility Score: inf
ROOT
ATOM      1  C   UNL     1      -6.167  64.418 165.462  1.00  0.00     0.082 C 
ENDROOT
BRANCH   1   2
ATOM      2  C   UNL     1      -5.757  65.620 166.342  1.00  0.00     0.228 C 
BRANCH   2   3
ATOM      3  N   UNL     1      -5.642  65.244 167.759  1.00  0.00    -0.350 N 
ATOM      4  H   UNL     1      -4.641  65.093 168.024  1.00  0.00     0.345 HD
ATOM      5  H   UNL     1      -6.185  64.370 167.944  1.00  0.00     0.345 HD
ATOM      6  H   UNL     1      -6.045  65.998 168.361  1.00  0.00     0.345 HD
ENDBRANCH   2   3
BRANCH   2   7
ATOM      7  C   UNL     1      -4.452  66.187 165.849  1.00  0.00     0.099 C 
ATOM      8  O   UNL     1      -3.357  65.698 166.233  1.00  0.00    -0.544 OA
ATOM      9  O   UNL     1      -4.452  67.244 164.947  1.00  0.00    -0.544 OA
ENDBRANCH   2   7
ENDBRANCH   1   2
BRANCH   1  10
ATOM     10  C   UNL     1      -7.555  64.591 164.837  1.00  0.00     0.076 C 
BRANCH  10  11
ATOM     11  S   UNL     1      -8.193  62.984 164.240  1.00  0.00    -0.165 SA
ATOM     12  C   UNL     1      -6.776  61.991 164.812  1.00  0.00     0.085 C 
ENDBRANCH  10  11
ENDBRANCH   1  10
TORSDOF 5
ENDMDL
MODEL 9
REMARK VINA RESULT:    -3.238      2.208      2.518
REMARK INTER + INTRA:          -4.167
REMARK INTER:                  -4.271
REMARK INTRA:                   0.105
REMARK UNBOUND:                -0.077
REMARK SMILES CSCC[C@@H]([NH3+])C(=O)[O-]
REMARK SMILES IDX 4 1 5 2 6 3 7 7 8 8 9 9 3 10 2 11 1 12
REMARK H PARENT 6 4 6 5 6 6
REMARK Flexibility Score: inf
ROOT
ATOM      1  C   UNL     1      -5.043  66.892 165.072  1.00  0.00     0.082 C 
ENDROOT
BRANCH   1   2
ATOM      2  C   UNL     1      -6.324  66.425 165.799  1.00  0.00     0.228 C 
BRANCH   2   3
ATOM      3  N   UNL     1      -7.452  66.269 164.870  1.00  0.00    -0.350 N 
ATOM      4  H   UNL     1      -7.111  66.124 163.892  1.00  0.00     0.345 HD
ATOM      5  H   UNL     1      -8.064  67.116 164.901  1.00  0.00     0.345 HD
ATOM      6  H   UNL     1      -8.036  65.449 165.154  1.00  0.00     0.345 HD
ENDBRANCH   2   3
BRANCH   2   7
ATOM      7  C   UNL     1      -6.057  65.128 166.513  1.00  0.00     0.099 C 
ATOM      8  O   UNL     1      -6.135  64.031 165.898  1.00  0.00    -0.544 OA
ATOM      9  O   UNL     1      -5.700  65.135 167.857  1.00  0.00    -0.544 OA
ENDBRANCH   2   7
ENDBRANCH   1   2
BRANCH   1  10
ATOM     10  C   UNL     1      -3.764  66.499 165.819  1.00  0.00     0.076 C 
BRANCH  10  11
ATOM     11  S   UNL     1      -2.526  67.842 165.719  1.00  0.00    -0.165 SA
ATOM     12  C   UNL     1      -3.728  69.193 165.496  1.00  0.00     0.085 C 
ENDBRANCH  10  11
ENDBRANCH   1  10
TORSDOF 5
ENDMDL
