MODEL 1
REMARK VINA RESULT:    -4.211      0.000      0.000
REMARK INTER + INTRA:         -10.221
REMARK INTER:                  -7.657
REMARK INTRA:                  -2.564
REMARK UNBOUND:                -2.564
REMARK SMILES CCCCCCCCCCCCCC[C@@H](C)C(=O)[O-]
REMARK SMILES IDX 9 1 10 2 11 3 12 4 13 5 14 6 15 7 16 8 17 9 18 10 19 11 8 12
REMARK SMILES IDX 7 13 6 14 5 15 4 16 3 17 2 18 1 19
REMARK H PARENT
REMARK Flexibility Score: inf
ROOT
ATOM      1  C   UNL     1      -3.096  37.552  20.398  1.00  0.00     0.000 C 
ENDROOT
BRANCH   1   2
ATOM      2  C   UNL     1      -2.928  38.844  21.217  1.00  0.00     0.000 C 
BRANCH   2   3
ATOM      3  C   UNL     1      -2.546  40.052  20.345  1.00  0.00     0.000 C 
BRANCH   3   4
ATOM      4  C   UNL     1      -3.443  40.194  19.105  1.00  0.00     0.000 C 
BRANCH   4   5
ATOM      5  C   UNL     1      -2.611  40.159  17.815  1.00  0.00     0.001 C 
BRANCH   5   6
ATOM      6  C   UNL     1      -2.952  38.974  16.886  1.00  0.00     0.009 C 
BRANCH   6   7
ATOM      7  C   UNL     1      -1.911  37.827  16.788  1.00  0.00     0.032 C 
ATOM      8  C   UNL     1      -0.719  38.010  17.742  1.00  0.00     0.014 C 
BRANCH   7   9
ATOM      9  C   UNL     1      -2.532  36.459  16.904  1.00  0.00     0.044 C 
ATOM     10  O   UNL     1      -2.078  35.607  17.713  1.00  0.00    -0.550 OA
ATOM     11  O   UNL     1      -3.655  36.150  16.147  1.00  0.00    -0.550 OA
ENDBRANCH   7   9
ENDBRANCH   6   7
ENDBRANCH   5   6
ENDBRANCH   4   5
ENDBRANCH   3   4
ENDBRANCH   2   3
ENDBRANCH   1   2
BRANCH   1  12
ATOM     12  C   UNL     1      -4.085  36.568  21.045  1.00  0.00     0.000 C 
BRANCH  12  13
ATOM     13  C   UNL     1      -4.647  37.083  22.378  1.00  0.00    -0.000 C 
BRANCH  13  14
ATOM     14  C   UNL     1      -6.181  37.071  22.368  1.00  0.00    -0.000 C 
BRANCH  14  15
ATOM     15  C   UNL     1      -6.745  38.446  22.756  1.00  0.00    -0.000 C 
BRANCH  15  16
ATOM     16  C   UNL     1      -7.544  39.102  21.619  1.00  0.00    -0.000 C 
BRANCH  16  17
ATOM     17  C   UNL     1      -6.722  39.258  20.331  1.00  0.00    -0.000 C 
BRANCH  17  18
ATOM     18  C   UNL     1      -7.291  38.382  19.208  1.00  0.00    -0.003 C 
ATOM     19  C   UNL     1      -6.175  37.755  18.378  1.00  0.00     0.004 C 
ENDBRANCH  17  18
ENDBRANCH  16  17
ENDBRANCH  15  16
ENDBRANCH  14  15
ENDBRANCH  13  14
ENDBRANCH  12  13
ENDBRANCH   1  12
TORSDOF 14
ENDMDL
MODEL 2
REMARK VINA RESULT:    -4.105      1.320      2.223
REMARK INTER + INTRA:         -10.028
REMARK INTER:                  -7.001
REMARK INTRA:                  -3.027
REMARK UNBOUND:                -2.564
REMARK SMILES CCCCCCCCCCCCCC[C@@H](C)C(=O)[O-]
REMARK SMILES IDX 9 1 10 2 11 3 12 4 13 5 14 6 15 7 16 8 17 9 18 10 19 11 8 12
REMARK SMILES IDX 7 13 6 14 5 15 4 16 3 17 2 18 1 19
REMARK H PARENT
REMARK Flexibility Score: inf
ROOT
ATOM      1  C   UNL     1      -3.725  38.858  23.333  1.00  0.00     0.000 C 
ENDROOT
BRANCH   1   2
ATOM      2  C   UNL     1      -3.131  39.833  22.300  1.00  0.00     0.000 C 
BRANCH   2   3
ATOM      3  C   UNL     1      -4.178  40.810  21.740  1.00  0.00     0.000 C 
BRANCH   3   4
ATOM      4  C   UNL     1      -4.108  40.942  20.211  1.00  0.00     0.000 C 
BRANCH   4   5
ATOM      5  C   UNL     1      -2.816  40.320  19.662  1.00  0.00     0.001 C 
BRANCH   5   6
ATOM      6  C   UNL     1      -2.942  39.795  18.216  1.00  0.00     0.009 C 
BRANCH   6   7
ATOM      7  C   UNL     1      -2.015  38.621  17.803  1.00  0.00     0.032 C 
ATOM      8  C   UNL     1      -1.153  38.096  18.964  1.00  0.00     0.014 C 
BRANCH   7   9
ATOM      9  C   UNL     1      -2.749  37.516  17.090  1.00  0.00     0.044 C 
ATOM     10  O   UNL     1      -2.433  36.309  17.264  1.00  0.00    -0.550 OA
ATOM     11  O   UNL     1      -3.825  37.827  16.268  1.00  0.00    -0.550 OA
ENDBRANCH   7   9
ENDBRANCH   6   7
ENDBRANCH   5   6
ENDBRANCH   4   5
ENDBRANCH   3   4
ENDBRANCH   2   3
ENDBRANCH   1   2
BRANCH   1  12
ATOM     12  C   UNL     1      -3.382  37.391  23.025  1.00  0.00     0.000 C 
BRANCH  12  13
ATOM     13  C   UNL     1      -4.448  36.701  22.161  1.00  0.00    -0.000 C 
BRANCH  13  14
ATOM     14  C   UNL     1      -4.061  36.740  20.677  1.00  0.00    -0.000 C 
BRANCH  14  15
ATOM     15  C   UNL     1      -5.175  37.381  19.835  1.00  0.00    -0.000 C 
BRANCH  15  16
ATOM     16  C   UNL     1      -6.465  37.614  20.638  1.00  0.00    -0.000 C 
BRANCH  16  17
ATOM     17  C   UNL     1      -7.103  38.981  20.349  1.00  0.00    -0.000 C 
BRANCH  17  18
ATOM     18  C   UNL     1      -7.864  39.500  21.575  1.00  0.00    -0.003 C 
ATOM     19  C   UNL     1      -7.303  38.906  22.864  1.00  0.00     0.004 C 
ENDBRANCH  17  18
ENDBRANCH  16  17
ENDBRANCH  15  16
ENDBRANCH  14  15
ENDBRANCH  13  14
ENDBRANCH  12  13
ENDBRANCH   1  12
TORSDOF 14
ENDMDL
MODEL 3
REMARK VINA RESULT:    -3.958      1.689      3.185
REMARK INTER + INTRA:          -9.761
REMARK INTER:                  -7.324
REMARK INTRA:                  -2.437
REMARK UNBOUND:                -2.564
REMARK SMILES CCCCCCCCCCCCCC[C@@H](C)C(=O)[O-]
REMARK SMILES IDX 9 1 10 2 11 3 12 4 13 5 14 6 15 7 16 8 17 9 18 10 19 11 8 12
REMARK SMILES IDX 7 13 6 14 5 15 4 16 3 17 2 18 1 19
REMARK H PARENT
REMARK Flexibility Score: inf
ROOT
ATOM      1  C   UNL     1      -5.004  37.406  19.508  1.00  0.00     0.000 C 
ENDROOT
BRANCH   1   2
ATOM      2  C   UNL     1      -4.434  38.573  18.683  1.00  0.00     0.000 C 
BRANCH   2   3
ATOM      3  C   UNL     1      -3.070  39.056  19.206  1.00  0.00     0.000 C 
BRANCH   3   4
ATOM      4  C   UNL     1      -2.092  37.899  19.465  1.00  0.00     0.000 C 
BRANCH   4   5
ATOM      5  C   UNL     1      -0.912  37.944  18.485  1.00  0.00     0.001 C 
BRANCH   5   6
ATOM      6  C   UNL     1      -1.242  37.379  17.086  1.00  0.00     0.009 C 
BRANCH   6   7
ATOM      7  C   UNL     1      -2.069  36.067  17.027  1.00  0.00     0.032 C 
ATOM      8  C   UNL     1      -3.228  36.128  16.018  1.00  0.00     0.014 C 
BRANCH   7   9
ATOM      9  C   UNL     1      -1.214  34.841  16.844  1.00  0.00     0.044 C 
ATOM     10  O   UNL     1      -1.501  33.758  17.418  1.00  0.00    -0.550 OA
ATOM     11  O   UNL     1      -0.122  34.889  15.986  1.00  0.00    -0.550 OA
ENDBRANCH   7   9
ENDBRANCH   6   7
ENDBRANCH   5   6
ENDBRANCH   4   5
ENDBRANCH   3   4
ENDBRANCH   2   3
ENDBRANCH   1   2
BRANCH   1  12
ATOM     12  C   UNL     1      -6.541  37.416  19.561  1.00  0.00     0.000 C 
BRANCH  12  13
ATOM     13  C   UNL     1      -7.120  38.831  19.705  1.00  0.00    -0.000 C 
BRANCH  13  14
ATOM     14  C   UNL     1      -7.395  39.164  21.178  1.00  0.00    -0.000 C 
BRANCH  14  15
ATOM     15  C   UNL     1      -6.649  40.439  21.601  1.00  0.00    -0.000 C 
BRANCH  15  16
ATOM     16  C   UNL     1      -5.208  40.160  22.055  1.00  0.00    -0.000 C 
BRANCH  16  17
ATOM     17  C   UNL     1      -5.130  39.084  23.149  1.00  0.00    -0.000 C 
BRANCH  17  18
ATOM     18  C   UNL     1      -3.902  38.187  22.948  1.00  0.00    -0.003 C 
ATOM     19  C   UNL     1      -2.608  38.969  23.155  1.00  0.00     0.004 C 
ENDBRANCH  17  18
ENDBRANCH  16  17
ENDBRANCH  15  16
ENDBRANCH  14  15
ENDBRANCH  13  14
ENDBRANCH  12  13
ENDBRANCH   1  12
TORSDOF 14
ENDMDL
MODEL 4
REMARK VINA RESULT:    -3.936      1.816      3.539
REMARK INTER + INTRA:          -9.722
REMARK INTER:                  -7.704
REMARK INTRA:                  -2.018
REMARK UNBOUND:                -2.564
REMARK SMILES CCCCCCCCCCCCCC[C@@H](C)C(=O)[O-]
REMARK SMILES IDX 9 1 10 2 11 3 12 4 13 5 14 6 15 7 16 8 17 9 18 10 19 11 8 12
REMARK SMILES IDX 7 13 6 14 5 15 4 16 3 17 2 18 1 19
REMARK H PARENT
REMARK Flexibility Score: inf
ROOT
ATOM      1  C   UNL     1      -6.680  37.538  19.575  1.00  0.00     0.000 C 
ENDROOT
BRANCH   1   2
ATOM      2  C   UNL     1      -5.849  37.539  18.280  1.00  0.00     0.000 C 
BRANCH   2   3
ATOM      3  C   UNL     1      -4.622  38.462  18.365  1.00  0.00     0.000 C 
BRANCH   3   4
ATOM      4  C   UNL     1      -3.436  37.951  17.532  1.00  0.00     0.000 C 
BRANCH   4   5
ATOM      5  C   UNL     1      -2.464  37.137  18.398  1.00  0.00     0.001 C 
BRANCH   5   6
ATOM      6  C   UNL     1      -1.046  37.743  18.479  1.00  0.00     0.009 C 
BRANCH   6   7
ATOM      7  C   UNL     1      -0.197  37.740  17.179  1.00  0.00     0.032 C 
ATOM      8  C   UNL     1       0.459  39.099  16.884  1.00  0.00     0.014 C 
BRANCH   7   9
ATOM      9  C   UNL     1       0.790  36.604  17.125  1.00  0.00     0.044 C 
ATOM     10  O   UNL     1       0.417  35.433  16.847  1.00  0.00    -0.550 OA
ATOM     11  O   UNL     1       2.140  36.858  17.331  1.00  0.00    -0.550 OA
ENDBRANCH   7   9
ENDBRANCH   6   7
ENDBRANCH   5   6
ENDBRANCH   4   5
ENDBRANCH   3   4
ENDBRANCH   2   3
ENDBRANCH   1   2
BRANCH   1  12
ATOM     12  C   UNL     1      -7.091  38.954  20.013  1.00  0.00     0.000 C 
BRANCH  12  13
ATOM     13  C   UNL     1      -7.598  39.004  21.461  1.00  0.00    -0.000 C 
BRANCH  13  14
ATOM     14  C   UNL     1      -6.570  39.678  22.380  1.00  0.00    -0.000 C 
BRANCH  14  15
ATOM     15  C   UNL     1      -5.499  40.414  21.561  1.00  0.00    -0.000 C 
BRANCH  15  16
ATOM     16  C   UNL     1      -4.095  39.817  21.750  1.00  0.00    -0.000 C 
BRANCH  16  17
ATOM     17  C   UNL     1      -4.106  38.536  22.597  1.00  0.00    -0.000 C 
BRANCH  17  18
ATOM     18  C   UNL     1      -3.773  37.309  21.739  1.00  0.00    -0.003 C 
ATOM     19  C   UNL     1      -4.305  36.029  22.378  1.00  0.00     0.004 C 
ENDBRANCH  17  18
ENDBRANCH  16  17
ENDBRANCH  15  16
ENDBRANCH  14  15
ENDBRANCH  13  14
ENDBRANCH  12  13
ENDBRANCH   1  12
TORSDOF 14
ENDMDL
MODEL 5
REMARK VINA RESULT:    -3.926      1.558      2.564
REMARK INTER + INTRA:          -9.703
REMARK INTER:                  -6.853
REMARK INTRA:                  -2.850
REMARK UNBOUND:                -2.564
REMARK SMILES CCCCCCCCCCCCCC[C@@H](C)C(=O)[O-]
REMARK SMILES IDX 9 1 10 2 11 3 12 4 13 5 14 6 15 7 16 8 17 9 18 10 19 11 8 12
REMARK SMILES IDX 7 13 6 14 5 15 4 16 3 17 2 18 1 19
REMARK H PARENT
REMARK Flexibility Score: inf
ROOT
ATOM      1  C   UNL     1      -3.426  40.725  22.005  1.00  0.00     0.000 C 
ENDROOT
BRANCH   1   2
ATOM      2  C   UNL     1      -4.146  41.110  20.701  1.00  0.00     0.000 C 
BRANCH   2   3
ATOM      3  C   UNL     1      -3.475  40.507  19.455  1.00  0.00     0.000 C 
BRANCH   3   4
ATOM      4  C   UNL     1      -1.985  40.204  19.673  1.00  0.00     0.000 C 
BRANCH   4   5
ATOM      5  C   UNL     1      -1.522  39.040  18.784  1.00  0.00     0.001 C 
BRANCH   5   6
ATOM      6  C   UNL     1      -2.090  37.668  19.208  1.00  0.00     0.009 C 
BRANCH   6   7
ATOM      7  C   UNL     1      -2.690  36.773  18.092  1.00  0.00     0.032 C 
ATOM      8  C   UNL     1      -3.553  37.556  17.087  1.00  0.00     0.014 C 
BRANCH   7   9
ATOM      9  C   UNL     1      -1.659  35.912  17.412  1.00  0.00     0.044 C 
ATOM     10  O   UNL     1      -1.725  34.655  17.465  1.00  0.00    -0.550 OA
ATOM     11  O   UNL     1      -0.648  36.510  16.669  1.00  0.00    -0.550 OA
ENDBRANCH   7   9
ENDBRANCH   6   7
ENDBRANCH   5   6
ENDBRANCH   4   5
ENDBRANCH   3   4
ENDBRANCH   2   3
ENDBRANCH   1   2
BRANCH   1  12
ATOM     12  C   UNL     1      -4.403  40.481  23.167  1.00  0.00     0.000 C 
BRANCH  12  13
ATOM     13  C   UNL     1      -4.467  39.005  23.589  1.00  0.00    -0.000 C 
BRANCH  13  14
ATOM     14  C   UNL     1      -3.460  38.163  22.795  1.00  0.00    -0.000 C 
BRANCH  14  15
ATOM     15  C   UNL     1      -4.163  37.010  22.063  1.00  0.00    -0.000 C 
BRANCH  15  16
ATOM     16  C   UNL     1      -5.617  37.342  21.693  1.00  0.00    -0.000 C 
BRANCH  16  17
ATOM     17  C   UNL     1      -5.773  37.754  20.221  1.00  0.00    -0.000 C 
BRANCH  17  18
ATOM     18  C   UNL     1      -7.106  38.478  19.994  1.00  0.00    -0.003 C 
ATOM     19  C   UNL     1      -7.441  39.396  21.166  1.00  0.00     0.004 C 
ENDBRANCH  17  18
ENDBRANCH  16  17
ENDBRANCH  15  16
ENDBRANCH  14  15
ENDBRANCH  13  14
ENDBRANCH  12  13
ENDBRANCH   1  12
TORSDOF 14
ENDMDL
MODEL 6
REMARK VINA RESULT:    -3.913      1.636      2.235
REMARK INTER + INTRA:          -9.680
REMARK INTER:                  -7.285
REMARK INTRA:                  -2.394
REMARK UNBOUND:                -2.564
REMARK SMILES CCCCCCCCCCCCCC[C@@H](C)C(=O)[O-]
REMARK SMILES IDX 9 1 10 2 11 3 12 4 13 5 14 6 15 7 16 8 17 9 18 10 19 11 8 12
REMARK SMILES IDX 7 13 6 14 5 15 4 16 3 17 2 18 1 19
REMARK H PARENT
REMARK Flexibility Score: inf
ROOT
ATOM      1  C   UNL     1      -3.570  38.018  23.280  1.00  0.00     0.000 C 
ENDROOT
BRANCH   1   2
ATOM      2  C   UNL     1      -2.662  39.120  22.706  1.00  0.00     0.000 C 
BRANCH   2   3
ATOM      3  C   UNL     1      -3.194  39.693  21.382  1.00  0.00     0.000 C 
BRANCH   3   4
ATOM      4  C   UNL     1      -2.087  39.883  20.332  1.00  0.00     0.000 C 
BRANCH   4   5
ATOM      5  C   UNL     1      -1.380  38.555  20.029  1.00  0.00     0.001 C 
BRANCH   5   6
ATOM      6  C   UNL     1      -2.089  37.703  18.954  1.00  0.00     0.009 C 
BRANCH   6   7
ATOM      7  C   UNL     1      -1.596  37.854  17.490  1.00  0.00     0.032 C 
ATOM      8  C   UNL     1      -2.397  38.894  16.687  1.00  0.00     0.014 C 
BRANCH   7   9
ATOM      9  C   UNL     1      -0.110  38.075  17.390  1.00  0.00     0.044 C 
ATOM     10  O   UNL     1       0.698  37.115  17.505  1.00  0.00    -0.550 OA
ATOM     11  O   UNL     1       0.378  39.346  17.113  1.00  0.00    -0.550 OA
ENDBRANCH   7   9
ENDBRANCH   6   7
ENDBRANCH   5   6
ENDBRANCH   4   5
ENDBRANCH   3   4
ENDBRANCH   2   3
ENDBRANCH   1   2
BRANCH   1  12
ATOM     12  C   UNL     1      -4.244  37.178  22.182  1.00  0.00     0.000 C 
BRANCH  12  13
ATOM     13  C   UNL     1      -5.764  37.066  22.370  1.00  0.00    -0.000 C 
BRANCH  13  14
ATOM     14  C   UNL     1      -6.341  38.355  22.969  1.00  0.00    -0.000 C 
BRANCH  14  15
ATOM     15  C   UNL     1      -7.466  38.917  22.087  1.00  0.00    -0.000 C 
BRANCH  15  16
ATOM     16  C   UNL     1      -6.935  39.672  20.858  1.00  0.00    -0.000 C 
BRANCH  16  17
ATOM     17  C   UNL     1      -7.028  38.843  19.568  1.00  0.00    -0.000 C 
BRANCH  17  18
ATOM     18  C   UNL     1      -5.631  38.529  19.018  1.00  0.00    -0.003 C 
ATOM     19  C   UNL     1      -5.701  37.503  17.891  1.00  0.00     0.004 C 
ENDBRANCH  17  18
ENDBRANCH  16  17
ENDBRANCH  15  16
ENDBRANCH  14  15
ENDBRANCH  13  14
ENDBRANCH  12  13
ENDBRANCH   1  12
TORSDOF 14
ENDMDL
MODEL 7
REMARK VINA RESULT:    -3.907      2.748      6.065
REMARK INTER + INTRA:          -9.668
REMARK INTER:                  -7.063
REMARK INTRA:                  -2.606
REMARK UNBOUND:                -2.564
REMARK SMILES CCCCCCCCCCCCCC[C@@H](C)C(=O)[O-]
REMARK SMILES IDX 9 1 10 2 11 3 12 4 13 5 14 6 15 7 16 8 17 9 18 10 19 11 8 12
REMARK SMILES IDX 7 13 6 14 5 15 4 16 3 17 2 18 1 19
REMARK H PARENT
REMARK Flexibility Score: inf
ROOT
ATOM      1  C   UNL     1      -2.370  38.498  20.349  1.00  0.00     0.000 C 
ENDROOT
BRANCH   1   2
ATOM      2  C   UNL     1      -3.710  37.813  20.028  1.00  0.00     0.000 C 
BRANCH   2   3
ATOM      3  C   UNL     1      -4.706  38.759  19.336  1.00  0.00     0.000 C 
BRANCH   3   4
ATOM      4  C   UNL     1      -5.935  38.022  18.781  1.00  0.00     0.000 C 
BRANCH   4   5
ATOM      5  C   UNL     1      -7.112  38.091  19.764  1.00  0.00     0.001 C 
BRANCH   5   6
ATOM      6  C   UNL     1      -6.992  39.231  20.799  1.00  0.00     0.009 C 
BRANCH   6   7
ATOM      7  C   UNL     1      -6.747  38.826  22.276  1.00  0.00     0.032 C 
ATOM      8  C   UNL     1      -6.525  37.315  22.459  1.00  0.00     0.014 C 
BRANCH   7   9
ATOM      9  C   UNL     1      -5.672  39.647  22.940  1.00  0.00     0.044 C 
ATOM     10  O   UNL     1      -4.985  40.471  22.280  1.00  0.00    -0.550 OA
ATOM     11  O   UNL     1      -5.471  39.535  24.310  1.00  0.00    -0.550 OA
ENDBRANCH   7   9
ENDBRANCH   6   7
ENDBRANCH   5   6
ENDBRANCH   4   5
ENDBRANCH   3   4
ENDBRANCH   2   3
ENDBRANCH   1   2
BRANCH   1  12
ATOM     12  C   UNL     1      -2.358  39.984  19.954  1.00  0.00     0.000 C 
BRANCH  12  13
ATOM     13  C   UNL     1      -1.349  40.294  18.839  1.00  0.00    -0.000 C 
BRANCH  13  14
ATOM     14  C   UNL     1      -2.062  40.807  17.580  1.00  0.00    -0.000 C 
BRANCH  14  15
ATOM     15  C   UNL     1      -1.818  39.869  16.389  1.00  0.00    -0.000 C 
BRANCH  15  16
ATOM     16  C   UNL     1      -3.107  39.198  15.889  1.00  0.00    -0.000 C 
BRANCH  16  17
ATOM     17  C   UNL     1      -3.186  37.711  16.268  1.00  0.00    -0.000 C 
BRANCH  17  18
ATOM     18  C   UNL     1      -1.818  37.190  16.726  1.00  0.00    -0.003 C 
ATOM     19  C   UNL     1      -1.950  35.841  17.427  1.00  0.00     0.004 C 
ENDBRANCH  17  18
ENDBRANCH  16  17
ENDBRANCH  15  16
ENDBRANCH  14  15
ENDBRANCH  13  14
ENDBRANCH  12  13
ENDBRANCH   1  12
TORSDOF 14
ENDMDL
MODEL 8
REMARK VINA RESULT:    -3.823      1.600      2.354
REMARK INTER + INTRA:          -9.515
REMARK INTER:                  -6.995
REMARK INTRA:                  -2.520
REMARK UNBOUND:                -2.564
REMARK SMILES CCCCCCCCCCCCCC[C@@H](C)C(=O)[O-]
REMARK SMILES IDX 9 1 10 2 11 3 12 4 13 5 14 6 15 7 16 8 17 9 18 10 19 11 8 12
REMARK SMILES IDX 7 13 6 14 5 15 4 16 3 17 2 18 1 19
REMARK H PARENT
REMARK Flexibility Score: inf
ROOT
ATOM      1  C   UNL     1      -3.195  38.540  23.402  1.00  0.00     0.000 C 
ENDROOT
BRANCH   1   2
ATOM      2  C   UNL     1      -2.001  39.233  22.721  1.00  0.00     0.000 C 
BRANCH   2   3
ATOM      3  C   UNL     1      -2.101  39.209  21.186  1.00  0.00     0.000 C 
BRANCH   3   4
ATOM      4  C   UNL     1      -2.032  40.613  20.566  1.00  0.00     0.000 C 
BRANCH   4   5
ATOM      5  C   UNL     1      -2.588  40.612  19.135  1.00  0.00     0.001 C 
BRANCH   5   6
ATOM      6  C   UNL     1      -3.624  39.499  18.869  1.00  0.00     0.009 C 
BRANCH   6   7
ATOM      7  C   UNL     1      -3.557  38.779  17.496  1.00  0.00     0.032 C 
ATOM      8  C   UNL     1      -2.736  39.550  16.449  1.00  0.00     0.014 C 
BRANCH   7   9
ATOM      9  C   UNL     1      -3.132  37.338  17.609  1.00  0.00     0.044 C 
ATOM     10  O   UNL     1      -2.810  36.842  18.721  1.00  0.00    -0.550 OA
ATOM     11  O   UNL     1      -3.146  36.529  16.480  1.00  0.00    -0.550 OA
ENDBRANCH   7   9
ENDBRANCH   6   7
ENDBRANCH   5   6
ENDBRANCH   4   5
ENDBRANCH   3   4
ENDBRANCH   2   3
ENDBRANCH   1   2
BRANCH   1  12
ATOM     12  C   UNL     1      -4.074  39.524  24.193  1.00  0.00     0.000 C 
BRANCH  12  13
ATOM     13  C   UNL     1      -5.421  39.798  23.509  1.00  0.00    -0.000 C 
BRANCH  13  14
ATOM     14  C   UNL     1      -5.321  40.999  22.560  1.00  0.00    -0.000 C 
BRANCH  14  15
ATOM     15  C   UNL     1      -6.028  40.708  21.228  1.00  0.00    -0.000 C 
BRANCH  15  16
ATOM     16  C   UNL     1      -6.886  39.434  21.278  1.00  0.00    -0.000 C 
BRANCH  16  17
ATOM     17  C   UNL     1      -7.183  38.864  19.883  1.00  0.00    -0.000 C 
BRANCH  17  18
ATOM     18  C   UNL     1      -6.462  37.527  19.673  1.00  0.00    -0.003 C 
ATOM     19  C   UNL     1      -5.674  37.125  20.916  1.00  0.00     0.004 C 
ENDBRANCH  17  18
ENDBRANCH  16  17
ENDBRANCH  15  16
ENDBRANCH  14  15
ENDBRANCH  13  14
ENDBRANCH  12  13
ENDBRANCH   1  12
TORSDOF 14
ENDMDL
MODEL 9
REMARK VINA RESULT:    -3.774      2.733      5.856
REMARK INTER + INTRA:          -9.426
REMARK INTER:                  -6.958
REMARK INTRA:                  -2.468
REMARK UNBOUND:                -2.564
REMARK SMILES CCCCCCCCCCCCCC[C@@H](C)C(=O)[O-]
REMARK SMILES IDX 9 1 10 2 11 3 12 4 13 5 14 6 15 7 16 8 17 9 18 10 19 11 8 12
REMARK SMILES IDX 7 13 6 14 5 15 4 16 3 17 2 18 1 19
REMARK H PARENT
REMARK Flexibility Score: inf
ROOT
ATOM      1  C   UNL     1      -6.255  37.509  19.641  1.00  0.00     0.000 C 
ENDROOT
BRANCH   1   2
ATOM      2  C   UNL     1      -7.106  38.782  19.798  1.00  0.00     0.000 C 
BRANCH   2   3
ATOM      3  C   UNL     1      -7.502  39.051  21.259  1.00  0.00     0.000 C 
BRANCH   3   4
ATOM      4  C   UNL     1      -6.784  38.121  22.249  1.00  0.00     0.000 C 
BRANCH   4   5
ATOM      5  C   UNL     1      -6.087  38.925  23.356  1.00  0.00     0.001 C 
BRANCH   5   6
ATOM      6  C   UNL     1      -5.458  40.247  22.864  1.00  0.00     0.009 C 
BRANCH   6   7
ATOM      7  C   UNL     1      -4.165  40.144  22.014  1.00  0.00     0.032 C 
ATOM      8  C   UNL     1      -4.184  41.053  20.773  1.00  0.00     0.014 C 
BRANCH   7   9
ATOM      9  C   UNL     1      -2.910  40.315  22.829  1.00  0.00     0.044 C 
ATOM     10  O   UNL     1      -1.860  40.783  22.315  1.00  0.00    -0.550 OA
ATOM     11  O   UNL     1      -2.925  40.003  24.183  1.00  0.00    -0.550 OA
ENDBRANCH   7   9
ENDBRANCH   6   7
ENDBRANCH   5   6
ENDBRANCH   4   5
ENDBRANCH   3   4
ENDBRANCH   2   3
ENDBRANCH   1   2
BRANCH   1  12
ATOM     12  C   UNL     1      -4.846  37.805  19.100  1.00  0.00     0.000 C 
BRANCH  12  13
ATOM     13  C   UNL     1      -3.737  37.178  19.956  1.00  0.00    -0.000 C 
BRANCH  13  14
ATOM     14  C   UNL     1      -2.405  37.912  19.754  1.00  0.00    -0.000 C 
BRANCH  14  15
ATOM     15  C   UNL     1      -2.352  38.586  18.375  1.00  0.00    -0.000 C 
BRANCH  15  16
ATOM     16  C   UNL     1      -1.324  37.935  17.437  1.00  0.00    -0.000 C 
BRANCH  16  17
ATOM     17  C   UNL     1      -1.961  37.379  16.154  1.00  0.00    -0.000 C 
BRANCH  17  18
ATOM     18  C   UNL     1      -2.696  36.062  16.435  1.00  0.00    -0.003 C 
ATOM     19  C   UNL     1      -1.825  35.108  17.248  1.00  0.00     0.004 C 
ENDBRANCH  17  18
ENDBRANCH  16  17
ENDBRANCH  15  16
ENDBRANCH  14  15
ENDBRANCH  13  14
ENDBRANCH  12  13
ENDBRANCH   1  12
TORSDOF 14
ENDMDL
