MODEL 1
REMARK VINA RESULT:    -4.390      0.000      0.000
REMARK INTER + INTRA:          -8.594
REMARK INTER:                  -6.957
REMARK INTRA:                  -1.637
REMARK UNBOUND:                -1.637
REMARK SMILES CCCCCCCCCCCC(=O)[O-]
REMARK SMILES IDX 7 1 8 2 9 3 10 4 11 5 12 6 13 7 14 8 6 9 5 10 4 11 3 12 2 13
REMARK SMILES IDX 1 14
REMARK H PARENT
REMARK Flexibility Score: inf
ROOT
ATOM      1  C   UNL     1      -3.835 -48.945  16.846  1.00  0.00     0.000 C 
ENDROOT
BRANCH   1   2
ATOM      2  C   UNL     1      -4.969 -48.579  17.811  1.00  0.00     0.000 C 
BRANCH   2   3
ATOM      3  C   UNL     1      -4.525 -48.743  19.270  1.00  0.00     0.000 C 
BRANCH   3   4
ATOM      4  C   UNL     1      -4.653 -47.418  20.035  1.00  0.00     0.006 C 
BRANCH   4   5
ATOM      5  C   UNL     1      -5.295 -46.315  19.183  1.00  0.00     0.053 C 
BRANCH   5   6
ATOM      6  C   UNL     1      -5.343 -45.007  19.912  1.00  0.00     0.041 C 
ATOM      7  O   UNL     1      -6.161 -44.835  20.854  1.00  0.00    -0.550 OA
ATOM      8  O   UNL     1      -4.507 -43.967  19.528  1.00  0.00    -0.550 OA
ENDBRANCH   5   6
ENDBRANCH   4   5
ENDBRANCH   3   4
ENDBRANCH   2   3
ENDBRANCH   1   2
BRANCH   1   9
ATOM      9  C   UNL     1      -2.494 -49.049  17.588  1.00  0.00     0.000 C 
BRANCH   9  10
ATOM     10  C   UNL     1      -1.533 -47.899  17.245  1.00  0.00    -0.000 C 
BRANCH  10  11
ATOM     11  C   UNL     1      -1.617 -46.740  18.252  1.00  0.00    -0.000 C 
BRANCH  11  12
ATOM     12  C   UNL     1      -2.009 -45.403  17.595  1.00  0.00    -0.000 C 
BRANCH  12  13
ATOM     13  C   UNL     1      -2.386 -45.496  16.107  1.00  0.00    -0.003 C 
ATOM     14  C   UNL     1      -3.881 -45.303  15.855  1.00  0.00     0.004 C 
ENDBRANCH  12  13
ENDBRANCH  11  12
ENDBRANCH  10  11
ENDBRANCH   9  10
ENDBRANCH   1   9
TORSDOF 10
ENDMDL
MODEL 2
REMARK VINA RESULT:    -4.358      0.924      1.595
REMARK INTER + INTRA:          -8.542
REMARK INTER:                  -7.196
REMARK INTRA:                  -1.346
REMARK UNBOUND:                -1.637
REMARK SMILES CCCCCCCCCCCC(=O)[O-]
REMARK SMILES IDX 7 1 8 2 9 3 10 4 11 5 12 6 13 7 14 8 6 9 5 10 4 11 3 12 2 13
REMARK SMILES IDX 1 14
REMARK H PARENT
REMARK Flexibility Score: inf
ROOT
ATOM      1  C   UNL     1      -4.935 -48.577  17.803  1.00  0.00     0.000 C 
ENDROOT
BRANCH   1   2
ATOM      2  C   UNL     1      -4.459 -48.783  19.246  1.00  0.00     0.000 C 
BRANCH   2   3
ATOM      3  C   UNL     1      -4.610 -47.496  20.065  1.00  0.00     0.000 C 
BRANCH   3   4
ATOM      4  C   UNL     1      -5.307 -46.401  19.245  1.00  0.00     0.006 C 
BRANCH   4   5
ATOM      5  C   UNL     1      -4.978 -44.993  19.758  1.00  0.00     0.053 C 
BRANCH   5   6
ATOM      6  C   UNL     1      -6.124 -44.395  20.516  1.00  0.00     0.041 C 
ATOM      7  O   UNL     1      -7.162 -45.074  20.737  1.00  0.00    -0.550 OA
ATOM      8  O   UNL     1      -6.060 -43.077  20.948  1.00  0.00    -0.550 OA
ENDBRANCH   5   6
ENDBRANCH   4   5
ENDBRANCH   3   4
ENDBRANCH   2   3
ENDBRANCH   1   2
BRANCH   1   9
ATOM      9  C   UNL     1      -3.822 -48.925  16.803  1.00  0.00     0.000 C 
BRANCH   9  10
ATOM     10  C   UNL     1      -2.443 -49.057  17.469  1.00  0.00    -0.000 C 
BRANCH  10  11
ATOM     11  C   UNL     1      -1.507 -47.885  17.126  1.00  0.00    -0.000 C 
BRANCH  11  12
ATOM     12  C   UNL     1      -1.554 -46.756  18.171  1.00  0.00    -0.000 C 
BRANCH  12  13
ATOM     13  C   UNL     1      -2.065 -45.403  17.646  1.00  0.00    -0.003 C 
ATOM     14  C   UNL     1      -1.708 -45.156  16.180  1.00  0.00     0.004 C 
ENDBRANCH  12  13
ENDBRANCH  11  12
ENDBRANCH  10  11
ENDBRANCH   9  10
ENDBRANCH   1   9
TORSDOF 10
ENDMDL
MODEL 3
REMARK VINA RESULT:    -4.357      1.739      4.129
REMARK INTER + INTRA:          -8.541
REMARK INTER:                  -7.132
REMARK INTRA:                  -1.409
REMARK UNBOUND:                -1.637
REMARK SMILES CCCCCCCCCCCC(=O)[O-]
REMARK SMILES IDX 7 1 8 2 9 3 10 4 11 5 12 6 13 7 14 8 6 9 5 10 4 11 3 12 2 13
REMARK SMILES IDX 1 14
REMARK H PARENT
REMARK Flexibility Score: inf
ROOT
ATOM      1  C   UNL     1      -1.515 -47.815  17.263  1.00  0.00     0.000 C 
ENDROOT
BRANCH   1   2
ATOM      2  C   UNL     1      -1.598 -46.711  18.324  1.00  0.00     0.000 C 
BRANCH   2   3
ATOM      3  C   UNL     1      -2.019 -45.376  17.698  1.00  0.00     0.000 C 
BRANCH   3   4
ATOM      4  C   UNL     1      -1.684 -45.341  16.200  1.00  0.00     0.006 C 
BRANCH   4   5
ATOM      5  C   UNL     1      -2.584 -44.369  15.426  1.00  0.00     0.053 C 
BRANCH   5   6
ATOM      6  C   UNL     1      -4.035 -44.700  15.598  1.00  0.00     0.041 C 
ATOM      7  O   UNL     1      -4.829 -43.847  16.076  1.00  0.00    -0.550 OA
ATOM      8  O   UNL     1      -4.505 -45.962  15.260  1.00  0.00    -0.550 OA
ENDBRANCH   5   6
ENDBRANCH   4   5
ENDBRANCH   3   4
ENDBRANCH   2   3
ENDBRANCH   1   2
BRANCH   1   9
ATOM      9  C   UNL     1      -2.414 -49.003  17.636  1.00  0.00     0.000 C 
BRANCH   9  10
ATOM     10  C   UNL     1      -3.777 -48.963  16.925  1.00  0.00    -0.000 C 
BRANCH  10  11
ATOM     11  C   UNL     1      -4.955 -48.880  17.912  1.00  0.00    -0.000 C 
BRANCH  11  12
ATOM     12  C   UNL     1      -4.512 -48.527  19.343  1.00  0.00    -0.000 C 
BRANCH  12  13
ATOM     13  C   UNL     1      -4.871 -47.104  19.804  1.00  0.00    -0.003 C 
ATOM     14  C   UNL     1      -5.522 -46.265  18.706  1.00  0.00     0.004 C 
ENDBRANCH  12  13
ENDBRANCH  11  12
ENDBRANCH  10  11
ENDBRANCH   9  10
ENDBRANCH   1   9
TORSDOF 10
ENDMDL
MODEL 4
REMARK VINA RESULT:    -4.338      1.203      2.334
REMARK INTER + INTRA:          -8.511
REMARK INTER:                  -7.039
REMARK INTRA:                  -1.472
REMARK UNBOUND:                -1.637
REMARK SMILES CCCCCCCCCCCC(=O)[O-]
REMARK SMILES IDX 7 1 8 2 9 3 10 4 11 5 12 6 13 7 14 8 6 9 5 10 4 11 3 12 2 13
REMARK SMILES IDX 1 14
REMARK H PARENT
REMARK Flexibility Score: inf
ROOT
ATOM      1  C   UNL     1      -1.626 -47.809  17.591  1.00  0.00     0.000 C 
ENDROOT
BRANCH   1   2
ATOM      2  C   UNL     1      -2.550 -48.936  18.068  1.00  0.00     0.000 C 
BRANCH   2   3
ATOM      3  C   UNL     1      -3.763 -49.084  17.141  1.00  0.00     0.000 C 
BRANCH   3   4
ATOM      4  C   UNL     1      -5.058 -48.689  17.865  1.00  0.00     0.006 C 
BRANCH   4   5
ATOM      5  C   UNL     1      -5.354 -47.187  17.747  1.00  0.00     0.053 C 
BRANCH   5   6
ATOM      6  C   UNL     1      -5.403 -46.524  19.089  1.00  0.00     0.041 C 
ATOM      7  O   UNL     1      -4.820 -47.046  20.077  1.00  0.00    -0.550 OA
ATOM      8  O   UNL     1      -6.119 -45.347  19.257  1.00  0.00    -0.550 OA
ENDBRANCH   5   6
ENDBRANCH   4   5
ENDBRANCH   3   4
ENDBRANCH   2   3
ENDBRANCH   1   2
BRANCH   1   9
ATOM      9  C   UNL     1      -1.689 -46.606  18.544  1.00  0.00     0.000 C 
BRANCH   9  10
ATOM     10  C   UNL     1      -2.062 -45.297  17.827  1.00  0.00    -0.000 C 
BRANCH  10  11
ATOM     11  C   UNL     1      -1.820 -45.367  16.309  1.00  0.00    -0.000 C 
BRANCH  11  12
ATOM     12  C   UNL     1      -2.700 -44.382  15.518  1.00  0.00    -0.000 C 
BRANCH  12  13
ATOM     13  C   UNL     1      -3.648 -45.033  14.496  1.00  0.00    -0.003 C 
ATOM     14  C   UNL     1      -3.657 -46.559  14.574  1.00  0.00     0.004 C 
ENDBRANCH  12  13
ENDBRANCH  11  12
ENDBRANCH  10  11
ENDBRANCH   9  10
ENDBRANCH   1   9
TORSDOF 10
ENDMDL
MODEL 5
REMARK VINA RESULT:    -4.240      1.920      4.161
REMARK INTER + INTRA:          -8.356
REMARK INTER:                  -6.809
REMARK INTRA:                  -1.547
REMARK UNBOUND:                -1.637
REMARK SMILES CCCCCCCCCCCC(=O)[O-]
REMARK SMILES IDX 7 1 8 2 9 3 10 4 11 5 12 6 13 7 14 8 6 9 5 10 4 11 3 12 2 13
REMARK SMILES IDX 1 14
REMARK H PARENT
REMARK Flexibility Score: inf
ROOT
ATOM      1  C   UNL     1      -1.593 -46.767  18.455  1.00  0.00     0.000 C 
ENDROOT
BRANCH   1   2
ATOM      2  C   UNL     1      -2.075 -45.421  17.903  1.00  0.00     0.000 C 
BRANCH   2   3
ATOM      3  C   UNL     1      -1.740 -45.285  16.412  1.00  0.00     0.000 C 
BRANCH   3   4
ATOM      4  C   UNL     1      -2.992 -44.924  15.599  1.00  0.00     0.006 C 
BRANCH   4   5
ATOM      5  C   UNL     1      -4.248 -44.834  16.476  1.00  0.00     0.053 C 
BRANCH   5   6
ATOM      6  C   UNL     1      -5.439 -45.443  15.803  1.00  0.00     0.041 C 
ATOM      7  O   UNL     1      -6.435 -45.808  16.482  1.00  0.00    -0.550 OA
ATOM      8  O   UNL     1      -5.437 -45.639  14.428  1.00  0.00    -0.550 OA
ENDBRANCH   5   6
ENDBRANCH   4   5
ENDBRANCH   3   4
ENDBRANCH   2   3
ENDBRANCH   1   2
BRANCH   1   9
ATOM      9  C   UNL     1      -1.390 -47.785  17.323  1.00  0.00     0.000 C 
BRANCH   9  10
ATOM     10  C   UNL     1      -2.370 -48.968  17.403  1.00  0.00    -0.000 C 
BRANCH  10  11
ATOM     11  C   UNL     1      -3.747 -48.635  16.803  1.00  0.00    -0.000 C 
BRANCH  11  12
ATOM     12  C   UNL     1      -4.900 -48.844  17.801  1.00  0.00    -0.000 C 
BRANCH  12  13
ATOM     13  C   UNL     1      -4.566 -48.505  19.263  1.00  0.00    -0.003 C 
ATOM     14  C   UNL     1      -4.933 -47.072  19.645  1.00  0.00     0.004 C 
ENDBRANCH  12  13
ENDBRANCH  11  12
ENDBRANCH  10  11
ENDBRANCH   9  10
ENDBRANCH   1   9
TORSDOF 10
ENDMDL
MODEL 6
REMARK VINA RESULT:    -4.213      3.586      5.178
REMARK INTER + INTRA:          -8.314
REMARK INTER:                  -6.927
REMARK INTRA:                  -1.386
REMARK UNBOUND:                -1.637
REMARK SMILES CCCCCCCCCCCC(=O)[O-]
REMARK SMILES IDX 7 1 8 2 9 3 10 4 11 5 12 6 13 7 14 8 6 9 5 10 4 11 3 12 2 13
REMARK SMILES IDX 1 14
REMARK H PARENT
REMARK Flexibility Score: inf
ROOT
ATOM      1  C   UNL     1      -4.732 -48.281  17.744  1.00  0.00     0.000 C 
ENDROOT
BRANCH   1   2
ATOM      2  C   UNL     1      -3.590 -49.013  17.029  1.00  0.00     0.000 C 
BRANCH   2   3
ATOM      3  C   UNL     1      -2.289 -48.927  17.837  1.00  0.00     0.000 C 
BRANCH   3   4
ATOM      4  C   UNL     1      -1.069 -48.860  16.909  1.00  0.00     0.006 C 
BRANCH   4   5
ATOM      5  C   UNL     1      -0.946 -50.105  16.020  1.00  0.00     0.053 C 
BRANCH   5   6
ATOM      6  C   UNL     1      -0.742 -49.742  14.581  1.00  0.00     0.041 C 
ATOM      7  O   UNL     1       0.354 -49.992  14.012  1.00  0.00    -0.550 OA
ATOM      8  O   UNL     1      -1.750 -49.097  13.877  1.00  0.00    -0.550 OA
ENDBRANCH   5   6
ENDBRANCH   4   5
ENDBRANCH   3   4
ENDBRANCH   2   3
ENDBRANCH   1   2
BRANCH   1   9
ATOM      9  C   UNL     1      -4.520 -48.284  19.265  1.00  0.00     0.000 C 
BRANCH   9  10
ATOM     10  C   UNL     1      -4.638 -46.882  19.886  1.00  0.00    -0.000 C 
BRANCH  10  11
ATOM     11  C   UNL     1      -4.383 -45.761  18.863  1.00  0.00    -0.000 C 
BRANCH  11  12
ATOM     12  C   UNL     1      -2.984 -45.133  19.000  1.00  0.00    -0.000 C 
BRANCH  12  13
ATOM     13  C   UNL     1      -2.043 -45.376  17.808  1.00  0.00    -0.003 C 
ATOM     14  C   UNL     1      -2.758 -45.320  16.458  1.00  0.00     0.004 C 
ENDBRANCH  12  13
ENDBRANCH  11  12
ENDBRANCH  10  11
ENDBRANCH   9  10
ENDBRANCH   1   9
TORSDOF 10
ENDMDL
MODEL 7
REMARK VINA RESULT:    -4.155      2.265      4.457
REMARK INTER + INTRA:          -8.222
REMARK INTER:                  -6.502
REMARK INTRA:                  -1.720
REMARK UNBOUND:                -1.637
REMARK SMILES CCCCCCCCCCCC(=O)[O-]
REMARK SMILES IDX 7 1 8 2 9 3 10 4 11 5 12 6 13 7 14 8 6 9 5 10 4 11 3 12 2 13
REMARK SMILES IDX 1 14
REMARK H PARENT
REMARK Flexibility Score: inf
ROOT
ATOM      1  C   UNL     1      -4.157 -46.025  19.152  1.00  0.00     0.000 C 
ENDROOT
BRANCH   1   2
ATOM      2  C   UNL     1      -2.637 -45.889  19.311  1.00  0.00     0.000 C 
BRANCH   2   3
ATOM      3  C   UNL     1      -1.986 -45.425  18.002  1.00  0.00     0.000 C 
BRANCH   3   4
ATOM      4  C   UNL     1      -3.048 -44.961  16.995  1.00  0.00     0.006 C 
BRANCH   4   5
ATOM      5  C   UNL     1      -2.752 -45.454  15.572  1.00  0.00     0.053 C 
BRANCH   5   6
ATOM      6  C   UNL     1      -3.953 -46.094  14.946  1.00  0.00     0.041 C 
ATOM      7  O   UNL     1      -5.107 -45.848  15.387  1.00  0.00    -0.550 OA
ATOM      8  O   UNL     1      -3.796 -46.989  13.895  1.00  0.00    -0.550 OA
ENDBRANCH   5   6
ENDBRANCH   4   5
ENDBRANCH   3   4
ENDBRANCH   2   3
ENDBRANCH   1   2
BRANCH   1   9
ATOM      9  C   UNL     1      -4.687 -47.224  19.952  1.00  0.00     0.000 C 
BRANCH   9  10
ATOM     10  C   UNL     1      -4.352 -48.573  19.293  1.00  0.00    -0.000 C 
BRANCH  10  11
ATOM     11  C   UNL     1      -4.774 -48.629  17.815  1.00  0.00    -0.000 C 
BRANCH  11  12
ATOM     12  C   UNL     1      -3.621 -49.033  16.879  1.00  0.00    -0.000 C 
BRANCH  12  13
ATOM     13  C   UNL     1      -2.228 -49.051  17.531  1.00  0.00    -0.003 C 
ATOM     14  C   UNL     1      -1.103 -48.718  16.552  1.00  0.00     0.004 C 
ENDBRANCH  12  13
ENDBRANCH  11  12
ENDBRANCH  10  11
ENDBRANCH   9  10
ENDBRANCH   1   9
TORSDOF 10
ENDMDL
MODEL 8
REMARK VINA RESULT:    -4.136      0.800      1.610
REMARK INTER + INTRA:          -8.192
REMARK INTER:                  -6.700
REMARK INTRA:                  -1.492
REMARK UNBOUND:                -1.637
REMARK SMILES CCCCCCCCCCCC(=O)[O-]
REMARK SMILES IDX 7 1 8 2 9 3 10 4 11 5 12 6 13 7 14 8 6 9 5 10 4 11 3 12 2 13
REMARK SMILES IDX 1 14
REMARK H PARENT
REMARK Flexibility Score: inf
ROOT
ATOM      1  C   UNL     1      -4.891 -48.497  17.711  1.00  0.00     0.000 C 
ENDROOT
BRANCH   1   2
ATOM      2  C   UNL     1      -4.547 -48.716  19.189  1.00  0.00     0.000 C 
BRANCH   2   3
ATOM      3  C   UNL     1      -4.602 -47.397  19.970  1.00  0.00     0.000 C 
BRANCH   3   4
ATOM      4  C   UNL     1      -5.444 -46.352  19.224  1.00  0.00     0.006 C 
BRANCH   4   5
ATOM      5  C   UNL     1      -5.851 -45.181  20.129  1.00  0.00     0.053 C 
BRANCH   5   6
ATOM      6  C   UNL     1      -5.428 -43.863  19.556  1.00  0.00     0.041 C 
ATOM      7  O   UNL     1      -4.206 -43.565  19.485  1.00  0.00    -0.550 OA
ATOM      8  O   UNL     1      -6.384 -42.951  19.131  1.00  0.00    -0.550 OA
ENDBRANCH   5   6
ENDBRANCH   4   5
ENDBRANCH   3   4
ENDBRANCH   2   3
ENDBRANCH   1   2
BRANCH   1   9
ATOM      9  C   UNL     1      -3.794 -49.070  16.801  1.00  0.00     0.000 C 
BRANCH   9  10
ATOM     10  C   UNL     1      -2.405 -49.052  17.460  1.00  0.00    -0.000 C 
BRANCH  10  11
ATOM     11  C   UNL     1      -1.560 -47.844  17.022  1.00  0.00    -0.000 C 
BRANCH  11  12
ATOM     12  C   UNL     1      -1.670 -46.653  17.991  1.00  0.00    -0.000 C 
BRANCH  12  13
ATOM     13  C   UNL     1      -1.993 -45.303  17.329  1.00  0.00    -0.003 C 
ATOM     14  C   UNL     1      -3.186 -45.372  16.376  1.00  0.00     0.004 C 
ENDBRANCH  12  13
ENDBRANCH  11  12
ENDBRANCH  10  11
ENDBRANCH   9  10
ENDBRANCH   1   9
TORSDOF 10
ENDMDL
MODEL 9
REMARK VINA RESULT:    -4.006      1.237      3.123
REMARK INTER + INTRA:          -7.986
REMARK INTER:                  -6.361
REMARK INTRA:                  -1.625
REMARK UNBOUND:                -1.637
REMARK SMILES CCCCCCCCCCCC(=O)[O-]
REMARK SMILES IDX 7 1 8 2 9 3 10 4 11 5 12 6 13 7 14 8 6 9 5 10 4 11 3 12 2 13
REMARK SMILES IDX 1 14
REMARK H PARENT
REMARK Flexibility Score: inf
ROOT
ATOM      1  C   UNL     1      -3.037 -44.866  15.676  1.00  0.00     0.000 C 
ENDROOT
BRANCH   1   2
ATOM      2  C   UNL     1      -4.260 -44.777  16.598  1.00  0.00     0.000 C 
BRANCH   2   3
ATOM      3  C   UNL     1      -5.381 -45.707  16.116  1.00  0.00     0.000 C 
BRANCH   3   4
ATOM      4  C   UNL     1      -6.218 -46.216  17.299  1.00  0.00     0.006 C 
BRANCH   4   5
ATOM      5  C   UNL     1      -5.363 -46.945  18.344  1.00  0.00     0.053 C 
BRANCH   5   6
ATOM      6  C   UNL     1      -5.466 -46.301  19.693  1.00  0.00     0.041 C 
ATOM      7  O   UNL     1      -4.738 -46.694  20.641  1.00  0.00    -0.550 OA
ATOM      8  O   UNL     1      -6.392 -45.288  19.910  1.00  0.00    -0.550 OA
ENDBRANCH   5   6
ENDBRANCH   4   5
ENDBRANCH   3   4
ENDBRANCH   2   3
ENDBRANCH   1   2
BRANCH   1   9
ATOM      9  C   UNL     1      -1.781 -45.260  16.468  1.00  0.00     0.000 C 
BRANCH   9  10
ATOM     10  C   UNL     1      -2.042 -45.378  17.978  1.00  0.00    -0.000 C 
BRANCH  10  11
ATOM     11  C   UNL     1      -1.687 -46.770  18.530  1.00  0.00    -0.000 C 
BRANCH  11  12
ATOM     12  C   UNL     1      -1.381 -47.793  17.422  1.00  0.00    -0.000 C 
BRANCH  12  13
ATOM     13  C   UNL     1      -2.381 -48.958  17.317  1.00  0.00    -0.003 C 
ATOM     14  C   UNL     1      -3.233 -48.903  16.050  1.00  0.00     0.004 C 
ENDBRANCH  12  13
ENDBRANCH  11  12
ENDBRANCH  10  11
ENDBRANCH   9  10
ENDBRANCH   1   9
TORSDOF 10
ENDMDL
