MODEL 1
REMARK VINA RESULT:    -4.632      0.000      0.000
REMARK INTER + INTRA:          -7.511
REMARK INTER:                  -7.070
REMARK INTRA:                  -0.441
REMARK UNBOUND:                -0.441
REMARK SMILES O=C([O-])CCCCCCCCC(=O)[O-]
REMARK SMILES IDX 7 1 6 2 5 3 4 4 2 5 1 6 3 7 8 8 9 9 10 10 11 11 12 12 13 13
REMARK SMILES IDX 14 14
REMARK H PARENT
REMARK Flexibility Score: inf
ROOT
ATOM      1  C   UNL     1       4.953 -13.399   1.439  1.00  0.00     0.000 C 
ENDROOT
BRANCH   1   2
ATOM      2  C   UNL     1       5.398 -12.245   0.524  1.00  0.00     0.000 C 
BRANCH   2   3
ATOM      3  C   UNL     1       6.836 -12.420   0.004  1.00  0.00     0.006 C 
BRANCH   3   4
ATOM      4  C   UNL     1       7.800 -13.073   1.007  1.00  0.00     0.053 C 
BRANCH   4   5
ATOM      5  C   UNL     1       8.489 -14.271   0.428  1.00  0.00     0.041 C 
ATOM      6  O   UNL     1       9.707 -14.211   0.112  1.00  0.00    -0.550 OA
ATOM      7  O   UNL     1       7.794 -15.463   0.267  1.00  0.00    -0.550 OA
ENDBRANCH   4   5
ENDBRANCH   3   4
ENDBRANCH   2   3
ENDBRANCH   1   2
BRANCH   1   8
ATOM      8  C   UNL     1       4.384 -12.904   2.779  1.00  0.00     0.000 C 
BRANCH   8   9
ATOM      9  C   UNL     1       4.942 -13.677   3.983  1.00  0.00     0.000 C 
BRANCH   9  10
ATOM     10  C   UNL     1       4.355 -13.145   5.296  1.00  0.00     0.006 C 
BRANCH  10  11
ATOM     11  C   UNL     1       5.323 -13.366   6.462  1.00  0.00     0.053 C 
BRANCH  11  12
ATOM     12  C   UNL     1       5.664 -12.064   7.114  1.00  0.00     0.041 C 
ATOM     13  O   UNL     1       6.831 -11.853   7.537  1.00  0.00    -0.550 OA
ATOM     14  O   UNL     1       4.706 -11.062   7.210  1.00  0.00    -0.550 OA
ENDBRANCH  11  12
ENDBRANCH  10  11
ENDBRANCH   9  10
ENDBRANCH   8   9
ENDBRANCH   1   8
TORSDOF 9
ENDMDL
MODEL 2
REMARK VINA RESULT:    -4.543      0.483      6.617
REMARK INTER + INTRA:          -7.374
REMARK INTER:                  -7.036
REMARK INTRA:                  -0.338
REMARK UNBOUND:                -0.441
REMARK SMILES O=C([O-])CCCCCCCCC(=O)[O-]
REMARK SMILES IDX 7 1 6 2 5 3 4 4 2 5 1 6 3 7 8 8 9 9 10 10 11 11 12 12 13 13
REMARK SMILES IDX 14 14
REMARK H PARENT
REMARK Flexibility Score: inf
ROOT
ATOM      1  C   UNL     1       4.585 -12.882   3.065  1.00  0.00     0.000 C 
ENDROOT
BRANCH   1   2
ATOM      2  C   UNL     1       4.774 -13.781   4.298  1.00  0.00     0.000 C 
BRANCH   2   3
ATOM      3  C   UNL     1       4.463 -13.052   5.619  1.00  0.00     0.006 C 
BRANCH   3   4
ATOM      4  C   UNL     1       5.594 -13.109   6.658  1.00  0.00     0.053 C 
BRANCH   4   5
ATOM      5  C   UNL     1       5.869 -11.768   7.265  1.00  0.00     0.041 C 
ATOM      6  O   UNL     1       6.842 -11.615   8.050  1.00  0.00    -0.550 OA
ATOM      7  O   UNL     1       5.071 -10.680   6.938  1.00  0.00    -0.550 OA
ENDBRANCH   4   5
ENDBRANCH   3   4
ENDBRANCH   2   3
ENDBRANCH   1   2
BRANCH   1   8
ATOM      8  C   UNL     1       5.334 -13.409   1.830  1.00  0.00     0.000 C 
BRANCH   8   9
ATOM      9  C   UNL     1       5.307 -12.423   0.653  1.00  0.00     0.000 C 
BRANCH   9  10
ATOM     10  C   UNL     1       6.694 -12.298   0.010  1.00  0.00     0.006 C 
BRANCH  10  11
ATOM     11  C   UNL     1       7.764 -12.972   0.875  1.00  0.00     0.053 C 
BRANCH  11  12
ATOM     12  C   UNL     1       8.344 -14.153   0.167  1.00  0.00     0.041 C 
ATOM     13  O   UNL     1       7.638 -14.827  -0.629  1.00  0.00    -0.550 OA
ATOM     14  O   UNL     1       9.683 -14.483   0.345  1.00  0.00    -0.550 OA
ENDBRANCH  11  12
ENDBRANCH  10  11
ENDBRANCH   9  10
ENDBRANCH   8   9
ENDBRANCH   1   8
TORSDOF 9
ENDMDL
MODEL 3
REMARK VINA RESULT:    -4.523      1.634      6.461
REMARK INTER + INTRA:          -7.344
REMARK INTER:                  -6.688
REMARK INTRA:                  -0.656
REMARK UNBOUND:                -0.441
REMARK SMILES O=C([O-])CCCCCCCCC(=O)[O-]
REMARK SMILES IDX 7 1 6 2 5 3 4 4 2 5 1 6 3 7 8 8 9 9 10 10 11 11 12 12 13 13
REMARK SMILES IDX 14 14
REMARK H PARENT
REMARK Flexibility Score: inf
ROOT
ATOM      1  C   UNL     1       4.413 -14.035   5.014  1.00  0.00     0.000 C 
ENDROOT
BRANCH   1   2
ATOM      2  C   UNL     1       4.968 -13.555   6.366  1.00  0.00     0.000 C 
BRANCH   2   3
ATOM      3  C   UNL     1       5.834 -12.289   6.238  1.00  0.00     0.006 C 
BRANCH   3   4
ATOM      4  C   UNL     1       5.575 -11.229   7.321  1.00  0.00     0.053 C 
BRANCH   4   5
ATOM      5  C   UNL     1       4.576 -10.204   6.879  1.00  0.00     0.041 C 
ATOM      6  O   UNL     1       4.957  -9.054   6.536  1.00  0.00    -0.550 OA
ATOM      7  O   UNL     1       3.228 -10.531   6.814  1.00  0.00    -0.550 OA
ENDBRANCH   4   5
ENDBRANCH   3   4
ENDBRANCH   2   3
ENDBRANCH   1   2
BRANCH   1   8
ATOM      8  C   UNL     1       3.591 -12.952   4.296  1.00  0.00     0.000 C 
BRANCH   8   9
ATOM      9  C   UNL     1       4.108 -12.655   2.880  1.00  0.00     0.000 C 
BRANCH   9  10
ATOM     10  C   UNL     1       5.469 -13.322   2.643  1.00  0.00     0.006 C 
BRANCH  10  11
ATOM     11  C   UNL     1       5.665 -13.659   1.162  1.00  0.00     0.053 C 
BRANCH  11  12
ATOM     12  C   UNL     1       6.880 -12.973   0.624  1.00  0.00     0.041 C 
ATOM     13  O   UNL     1       8.025 -13.450   0.836  1.00  0.00    -0.550 OA
ATOM     14  O   UNL     1       6.745 -11.831  -0.157  1.00  0.00    -0.550 OA
ENDBRANCH  11  12
ENDBRANCH  10  11
ENDBRANCH   9  10
ENDBRANCH   8   9
ENDBRANCH   1   8
TORSDOF 9
ENDMDL
MODEL 4
REMARK VINA RESULT:    -4.448      3.476      5.282
REMARK INTER + INTRA:          -7.229
REMARK INTER:                  -6.470
REMARK INTRA:                  -0.759
REMARK UNBOUND:                -0.441
REMARK SMILES O=C([O-])CCCCCCCCC(=O)[O-]
REMARK SMILES IDX 7 1 6 2 5 3 4 4 2 5 1 6 3 7 8 8 9 9 10 10 11 11 12 12 13 13
REMARK SMILES IDX 14 14
REMARK H PARENT
REMARK Flexibility Score: inf
ROOT
ATOM      1  C   UNL     1       6.000 -12.321   6.601  1.00  0.00     0.000 C 
ENDROOT
BRANCH   1   2
ATOM      2  C   UNL     1       4.910 -13.401   6.500  1.00  0.00     0.000 C 
BRANCH   2   3
ATOM      3  C   UNL     1       4.728 -13.929   5.065  1.00  0.00     0.006 C 
BRANCH   3   4
ATOM      4  C   UNL     1       3.646 -13.200   4.252  1.00  0.00     0.053 C 
BRANCH   4   5
ATOM      5  C   UNL     1       4.201 -12.575   3.009  1.00  0.00     0.041 C 
ATOM      6  O   UNL     1       5.133 -13.140   2.378  1.00  0.00    -0.550 OA
ATOM      7  O   UNL     1       3.668 -11.385   2.532  1.00  0.00    -0.550 OA
ENDBRANCH   4   5
ENDBRANCH   3   4
ENDBRANCH   2   3
ENDBRANCH   1   2
BRANCH   1   8
ATOM      8  C   UNL     1       5.498 -11.040   7.289  1.00  0.00     0.000 C 
BRANCH   8   9
ATOM      9  C   UNL     1       4.048 -10.695   6.917  1.00  0.00     0.000 C 
BRANCH   9  10
ATOM     10  C   UNL     1       4.004  -9.692   5.758  1.00  0.00     0.006 C 
BRANCH  10  11
ATOM     11  C   UNL     1       4.610  -8.347   6.171  1.00  0.00     0.053 C 
BRANCH  11  12
ATOM     12  C   UNL     1       3.543  -7.413   6.644  1.00  0.00     0.041 C 
ATOM     13  O   UNL     1       2.344  -7.594   6.303  1.00  0.00    -0.550 OA
ATOM     14  O   UNL     1       3.863  -6.369   7.503  1.00  0.00    -0.550 OA
ENDBRANCH  11  12
ENDBRANCH  10  11
ENDBRANCH   9  10
ENDBRANCH   8   9
ENDBRANCH   1   8
TORSDOF 9
ENDMDL
MODEL 5
REMARK VINA RESULT:    -4.412      1.408      1.980
REMARK INTER + INTRA:          -7.174
REMARK INTER:                  -6.519
REMARK INTRA:                  -0.656
REMARK UNBOUND:                -0.441
REMARK SMILES O=C([O-])CCCCCCCCC(=O)[O-]
REMARK SMILES IDX 7 1 6 2 5 3 4 4 2 5 1 6 3 7 8 8 9 9 10 10 11 11 12 12 13 13
REMARK SMILES IDX 14 14
REMARK H PARENT
REMARK Flexibility Score: inf
ROOT
ATOM      1  C   UNL     1       3.016 -13.142   3.093  1.00  0.00     0.000 C 
ENDROOT
BRANCH   1   2
ATOM      2  C   UNL     1       4.200 -12.353   2.510  1.00  0.00     0.000 C 
BRANCH   2   3
ATOM      3  C   UNL     1       4.863 -13.070   1.319  1.00  0.00     0.006 C 
BRANCH   3   4
ATOM      4  C   UNL     1       6.306 -13.531   1.579  1.00  0.00     0.053 C 
BRANCH   4   5
ATOM      5  C   UNL     1       7.278 -12.900   0.629  1.00  0.00     0.041 C 
ATOM      6  O   UNL     1       6.901 -11.983  -0.147  1.00  0.00    -0.550 OA
ATOM      7  O   UNL     1       8.607 -13.302   0.625  1.00  0.00    -0.550 OA
ENDBRANCH   4   5
ENDBRANCH   3   4
ENDBRANCH   2   3
ENDBRANCH   1   2
BRANCH   1   8
ATOM      8  C   UNL     1       3.217 -13.499   4.575  1.00  0.00     0.000 C 
BRANCH   8   9
ATOM      9  C   UNL     1       4.606 -14.090   4.861  1.00  0.00     0.000 C 
BRANCH   9  10
ATOM     10  C   UNL     1       5.194 -13.508   6.153  1.00  0.00     0.006 C 
BRANCH  10  11
ATOM     11  C   UNL     1       4.466 -12.223   6.558  1.00  0.00     0.053 C 
BRANCH  11  12
ATOM     12  C   UNL     1       5.435 -11.219   7.097  1.00  0.00     0.041 C 
ATOM     13  O   UNL     1       6.482 -11.599   7.683  1.00  0.00    -0.550 OA
ATOM     14  O   UNL     1       5.207  -9.862   6.907  1.00  0.00    -0.550 OA
ENDBRANCH  11  12
ENDBRANCH  10  11
ENDBRANCH   9  10
ENDBRANCH   8   9
ENDBRANCH   1   8
TORSDOF 9
ENDMDL
MODEL 6
REMARK VINA RESULT:    -4.391      3.488      7.142
REMARK INTER + INTRA:          -7.143
REMARK INTER:                  -6.416
REMARK INTRA:                  -0.727
REMARK UNBOUND:                -0.441
REMARK SMILES O=C([O-])CCCCCCCCC(=O)[O-]
REMARK SMILES IDX 7 1 6 2 5 3 4 4 2 5 1 6 3 7 8 8 9 9 10 10 11 11 12 12 13 13
REMARK SMILES IDX 14 14
REMARK H PARENT
REMARK Flexibility Score: inf
ROOT
ATOM      1  C   UNL     1       5.447 -10.951   7.233  1.00  0.00     0.000 C 
ENDROOT
BRANCH   1   2
ATOM      2  C   UNL     1       3.971 -10.710   6.873  1.00  0.00     0.000 C 
BRANCH   2   3
ATOM      3  C   UNL     1       3.791  -9.623   5.797  1.00  0.00     0.006 C 
BRANCH   3   4
ATOM      4  C   UNL     1       4.423  -8.267   6.151  1.00  0.00     0.053 C 
BRANCH   4   5
ATOM      5  C   UNL     1       3.459  -7.364   6.858  1.00  0.00     0.041 C 
ATOM      6  O   UNL     1       2.223  -7.598   6.813  1.00  0.00    -0.550 OA
ATOM      7  O   UNL     1       3.929  -6.284   7.593  1.00  0.00    -0.550 OA
ENDBRANCH   4   5
ENDBRANCH   3   4
ENDBRANCH   2   3
ENDBRANCH   1   2
BRANCH   1   8
ATOM      8  C   UNL     1       5.969 -12.299   6.710  1.00  0.00     0.000 C 
BRANCH   8   9
ATOM      9  C   UNL     1       4.851 -13.337   6.524  1.00  0.00     0.000 C 
BRANCH   9  10
ATOM     10  C   UNL     1       4.854 -13.895   5.095  1.00  0.00     0.006 C 
BRANCH  10  11
ATOM     11  C   UNL     1       3.694 -13.318   4.277  1.00  0.00     0.053 C 
BRANCH  11  12
ATOM     12  C   UNL     1       4.207 -12.643   3.045  1.00  0.00     0.041 C 
ATOM     13  O   UNL     1       5.073 -13.207   2.326  1.00  0.00    -0.550 OA
ATOM     14  O   UNL     1       3.690 -11.411   2.661  1.00  0.00    -0.550 OA
ENDBRANCH  11  12
ENDBRANCH  10  11
ENDBRANCH   9  10
ENDBRANCH   8   9
ENDBRANCH   1   8
TORSDOF 9
ENDMDL
MODEL 7
REMARK VINA RESULT:    -4.372      3.558      6.470
REMARK INTER + INTRA:          -7.113
REMARK INTER:                  -6.330
REMARK INTRA:                  -0.783
REMARK UNBOUND:                -0.441
REMARK SMILES O=C([O-])CCCCCCCCC(=O)[O-]
REMARK SMILES IDX 7 1 6 2 5 3 4 4 2 5 1 6 3 7 8 8 9 9 10 10 11 11 12 12 13 13
REMARK SMILES IDX 14 14
REMARK H PARENT
REMARK Flexibility Score: inf
ROOT
ATOM      1  C   UNL     1       6.000 -12.386   6.799  1.00  0.00     0.000 C 
ENDROOT
BRANCH   1   2
ATOM      2  C   UNL     1       5.403 -10.992   7.056  1.00  0.00     0.000 C 
BRANCH   2   3
ATOM      3  C   UNL     1       3.866 -10.976   6.957  1.00  0.00     0.006 C 
BRANCH   3   4
ATOM      4  C   UNL     1       3.254  -9.574   6.805  1.00  0.00     0.053 C 
BRANCH   4   5
ATOM      5  C   UNL     1       3.675  -8.911   5.529  1.00  0.00     0.041 C 
ATOM      6  O   UNL     1       4.446  -7.916   5.557  1.00  0.00    -0.550 OA
ATOM      7  O   UNL     1       3.242  -9.413   4.309  1.00  0.00    -0.550 OA
ENDBRANCH   4   5
ENDBRANCH   3   4
ENDBRANCH   2   3
ENDBRANCH   1   2
BRANCH   1   8
ATOM      8  C   UNL     1       4.923 -13.442   6.499  1.00  0.00     0.000 C 
BRANCH   8   9
ATOM      9  C   UNL     1       4.915 -13.881   5.027  1.00  0.00     0.000 C 
BRANCH   9  10
ATOM     10  C   UNL     1       3.482 -14.116   4.533  1.00  0.00     0.006 C 
BRANCH  10  11
ATOM     11  C   UNL     1       2.958 -12.897   3.768  1.00  0.00     0.053 C 
BRANCH  11  12
ATOM     12  C   UNL     1       3.592 -12.813   2.416  1.00  0.00     0.041 C 
ATOM     13  O   UNL     1       4.075 -11.724   2.008  1.00  0.00    -0.550 OA
ATOM     14  O   UNL     1       3.695 -13.951   1.625  1.00  0.00    -0.550 OA
ENDBRANCH  11  12
ENDBRANCH  10  11
ENDBRANCH   9  10
ENDBRANCH   8   9
ENDBRANCH   1   8
TORSDOF 9
ENDMDL
MODEL 8
REMARK VINA RESULT:    -4.372      3.627      4.630
REMARK INTER + INTRA:          -7.113
REMARK INTER:                  -6.439
REMARK INTRA:                  -0.674
REMARK UNBOUND:                -0.441
REMARK SMILES O=C([O-])CCCCCCCCC(=O)[O-]
REMARK SMILES IDX 7 1 6 2 5 3 4 4 2 5 1 6 3 7 8 8 9 9 10 10 11 11 12 12 13 13
REMARK SMILES IDX 14 14
REMARK H PARENT
REMARK Flexibility Score: inf
ROOT
ATOM      1  C   UNL     1       4.858 -13.979   4.958  1.00  0.00     0.000 C 
ENDROOT
BRANCH   1   2
ATOM      2  C   UNL     1       3.436 -14.349   4.504  1.00  0.00     0.000 C 
BRANCH   2   3
ATOM      3  C   UNL     1       2.892 -13.400   3.420  1.00  0.00     0.006 C 
BRANCH   3   4
ATOM      4  C   UNL     1       3.977 -12.696   2.589  1.00  0.00     0.053 C 
BRANCH   4   5
ATOM      5  C   UNL     1       3.655 -11.253   2.348  1.00  0.00     0.041 C 
ATOM      6  O   UNL     1       3.641 -10.794   1.176  1.00  0.00    -0.550 OA
ATOM      7  O   UNL     1       3.339 -10.424   3.416  1.00  0.00    -0.550 OA
ENDBRANCH   4   5
ENDBRANCH   3   4
ENDBRANCH   2   3
ENDBRANCH   1   2
BRANCH   1   8
ATOM      8  C   UNL     1       4.895 -13.428   6.393  1.00  0.00     0.000 C 
BRANCH   8   9
ATOM      9  C   UNL     1       6.030 -12.416   6.611  1.00  0.00     0.000 C 
BRANCH   9  10
ATOM     10  C   UNL     1       5.503 -11.136   7.271  1.00  0.00     0.006 C 
BRANCH  10  11
ATOM     11  C   UNL     1       4.024 -10.915   6.940  1.00  0.00     0.053 C 
BRANCH  11  12
ATOM     12  C   UNL     1       3.724  -9.454   6.828  1.00  0.00     0.041 C 
ATOM     13  O   UNL     1       4.623  -8.647   6.473  1.00  0.00    -0.550 OA
ATOM     14  O   UNL     1       2.437  -8.989   7.067  1.00  0.00    -0.550 OA
ENDBRANCH  11  12
ENDBRANCH  10  11
ENDBRANCH   9  10
ENDBRANCH   8   9
ENDBRANCH   1   8
TORSDOF 9
ENDMDL
MODEL 9
REMARK VINA RESULT:    -4.312      2.145      3.568
REMARK INTER + INTRA:          -7.023
REMARK INTER:                  -6.397
REMARK INTRA:                  -0.625
REMARK UNBOUND:                -0.441
REMARK SMILES O=C([O-])CCCCCCCCC(=O)[O-]
REMARK SMILES IDX 7 1 6 2 5 3 4 4 2 5 1 6 3 7 8 8 9 9 10 10 11 11 12 12 13 13
REMARK SMILES IDX 14 14
REMARK H PARENT
REMARK Flexibility Score: inf
ROOT
ATOM      1  C   UNL     1       4.767 -14.083   5.128  1.00  0.00     0.000 C 
ENDROOT
BRANCH   1   2
ATOM      2  C   UNL     1       3.659 -13.494   4.238  1.00  0.00     0.000 C 
BRANCH   2   3
ATOM      3  C   UNL     1       4.145 -13.187   2.809  1.00  0.00     0.006 C 
BRANCH   3   4
ATOM      4  C   UNL     1       5.660 -13.345   2.605  1.00  0.00     0.053 C 
BRANCH   4   5
ATOM      5  C   UNL     1       6.043 -13.277   1.159  1.00  0.00     0.041 C 
ATOM      6  O   UNL     1       5.270 -13.735   0.276  1.00  0.00    -0.550 OA
ATOM      7  O   UNL     1       7.239 -12.679   0.783  1.00  0.00    -0.550 OA
ENDBRANCH   4   5
ENDBRANCH   3   4
ENDBRANCH   2   3
ENDBRANCH   1   2
BRANCH   1   8
ATOM      8  C   UNL     1       4.844 -13.400   6.503  1.00  0.00     0.000 C 
BRANCH   8   9
ATOM      9  C   UNL     1       5.949 -12.334   6.576  1.00  0.00     0.000 C 
BRANCH   9  10
ATOM     10  C   UNL     1       5.419 -11.037   7.200  1.00  0.00     0.006 C 
BRANCH  10  11
ATOM     11  C   UNL     1       3.929 -10.850   6.896  1.00  0.00     0.053 C 
BRANCH  11  12
ATOM     12  C   UNL     1       3.629  -9.413   6.608  1.00  0.00     0.041 C 
ATOM     13  O   UNL     1       2.727  -8.813   7.248  1.00  0.00    -0.550 OA
ATOM     14  O   UNL     1       4.382  -8.721   5.667  1.00  0.00    -0.550 OA
ENDBRANCH  11  12
ENDBRANCH  10  11
ENDBRANCH   9  10
ENDBRANCH   8   9
ENDBRANCH   1   8
TORSDOF 9
ENDMDL
