MODEL 1
REMARK VINA RESULT:    -3.776      0.000      0.000
REMARK INTER + INTRA:          -9.644
REMARK INTER:                  -6.866
REMARK INTRA:                  -2.778
REMARK UNBOUND:                -2.778
REMARK SMILES CCCCCCCCCCCCCC[C@@H](C)C(=O)[O-]
REMARK SMILES IDX 9 1 10 2 11 3 12 4 13 5 14 6 15 7 16 8 17 9 18 10 19 11 8 12
REMARK SMILES IDX 7 13 6 14 5 15 4 16 3 17 2 18 1 19
REMARK H PARENT
REMARK Flexibility Score: inf
ROOT
ATOM      1  C   UNL     1       0.461   1.919 -11.507  1.00  0.00     0.000 C 
ENDROOT
BRANCH   1   2
ATOM      2  C   UNL     1      -0.711   0.924 -11.549  1.00  0.00     0.000 C 
BRANCH   2   3
ATOM      3  C   UNL     1      -1.981   1.516 -12.187  1.00  0.00     0.000 C 
BRANCH   3   4
ATOM      4  C   UNL     1      -2.088   3.051 -12.136  1.00  0.00     0.000 C 
BRANCH   4   5
ATOM      5  C   UNL     1      -3.408   3.542 -11.524  1.00  0.00     0.001 C 
BRANCH   5   6
ATOM      6  C   UNL     1      -4.030   2.468 -10.617  1.00  0.00     0.009 C 
BRANCH   6   7
ATOM      7  C   UNL     1      -4.626   3.069  -9.327  1.00  0.00     0.032 C 
ATOM      8  C   UNL     1      -4.598   4.600  -9.382  1.00  0.00     0.014 C 
BRANCH   7   9
ATOM      9  C   UNL     1      -6.034   2.590  -9.094  1.00  0.00     0.044 C 
ATOM     10  O   UNL     1      -6.733   3.080  -8.167  1.00  0.00    -0.550 OA
ATOM     11  O   UNL     1      -6.572   1.599  -9.907  1.00  0.00    -0.550 OA
ENDBRANCH   7   9
ENDBRANCH   6   7
ENDBRANCH   5   6
ENDBRANCH   4   5
ENDBRANCH   3   4
ENDBRANCH   2   3
ENDBRANCH   1   2
BRANCH   1  12
ATOM     12  C   UNL     1       1.045   2.100 -10.093  1.00  0.00     0.000 C 
BRANCH  12  13
ATOM     13  C   UNL     1       0.249   1.425  -8.961  1.00  0.00    -0.000 C 
BRANCH  13  14
ATOM     14  C   UNL     1      -0.174   2.405  -7.856  1.00  0.00    -0.000 C 
BRANCH  14  15
ATOM     15  C   UNL     1      -1.333   3.294  -8.322  1.00  0.00    -0.000 C 
BRANCH  15  16
ATOM     16  C   UNL     1      -0.952   4.780  -8.245  1.00  0.00    -0.000 C 
BRANCH  16  17
ATOM     17  C   UNL     1      -0.984   5.470  -9.616  1.00  0.00    -0.000 C 
BRANCH  17  18
ATOM     18  C   UNL     1       0.421   5.713 -10.190  1.00  0.00    -0.003 C 
ATOM     19  C   UNL     1       0.405   5.685 -11.714  1.00  0.00     0.004 C 
ENDBRANCH  17  18
ENDBRANCH  16  17
ENDBRANCH  15  16
ENDBRANCH  14  15
ENDBRANCH  13  14
ENDBRANCH  12  13
ENDBRANCH   1  12
TORSDOF 14
ENDMDL
MODEL 2
REMARK VINA RESULT:    -3.591      1.146      3.543
REMARK INTER + INTRA:          -9.308
REMARK INTER:                  -7.064
REMARK INTRA:                  -2.244
REMARK UNBOUND:                -2.778
REMARK SMILES CCCCCCCCCCCCCC[C@@H](C)C(=O)[O-]
REMARK SMILES IDX 9 1 10 2 11 3 12 4 13 5 14 6 15 7 16 8 17 9 18 10 19 11 8 12
REMARK SMILES IDX 7 13 6 14 5 15 4 16 3 17 2 18 1 19
REMARK H PARENT
REMARK Flexibility Score: inf
ROOT
ATOM      1  C   UNL     1      -1.200   4.758  -8.127  1.00  0.00     0.000 C 
ENDROOT
BRANCH   1   2
ATOM      2  C   UNL     1      -0.740   5.427  -9.433  1.00  0.00     0.000 C 
BRANCH   2   3
ATOM      3  C   UNL     1      -1.907   6.001 -10.258  1.00  0.00     0.000 C 
BRANCH   3   4
ATOM      4  C   UNL     1      -3.230   6.179  -9.492  1.00  0.00     0.000 C 
BRANCH   4   5
ATOM      5  C   UNL     1      -4.418   5.481 -10.170  1.00  0.00     0.001 C 
BRANCH   5   6
ATOM      6  C   UNL     1      -4.976   4.355  -9.284  1.00  0.00     0.009 C 
BRANCH   6   7
ATOM      7  C   UNL     1      -6.217   3.684  -9.909  1.00  0.00     0.032 C 
ATOM      8  C   UNL     1      -6.327   4.032 -11.397  1.00  0.00     0.014 C 
BRANCH   7   9
ATOM      9  C   UNL     1      -6.183   2.189  -9.733  1.00  0.00     0.044 C 
ATOM     10  O   UNL     1      -6.611   1.427 -10.640  1.00  0.00    -0.550 OA
ATOM     11  O   UNL     1      -5.674   1.641  -8.562  1.00  0.00    -0.550 OA
ENDBRANCH   7   9
ENDBRANCH   6   7
ENDBRANCH   5   6
ENDBRANCH   4   5
ENDBRANCH   3   4
ENDBRANCH   2   3
ENDBRANCH   1   2
BRANCH   1  12
ATOM     12  C   UNL     1      -1.404   3.238  -8.270  1.00  0.00     0.000 C 
BRANCH  12  13
ATOM     13  C   UNL     1      -0.197   2.371  -7.867  1.00  0.00    -0.000 C 
BRANCH  13  14
ATOM     14  C   UNL     1       0.236   1.393  -8.969  1.00  0.00    -0.000 C 
BRANCH  14  15
ATOM     15  C   UNL     1       0.774   2.146 -10.192  1.00  0.00    -0.000 C 
BRANCH  15  16
ATOM     16  C   UNL     1       0.083   1.669 -11.479  1.00  0.00    -0.000 C 
BRANCH  16  17
ATOM     17  C   UNL     1      -1.399   1.330 -11.263  1.00  0.00    -0.000 C 
BRANCH  17  18
ATOM     18  C   UNL     1      -2.331   2.500 -11.610  1.00  0.00    -0.003 C 
ATOM     19  C   UNL     1      -3.393   2.077 -12.620  1.00  0.00     0.004 C 
ENDBRANCH  17  18
ENDBRANCH  16  17
ENDBRANCH  15  16
ENDBRANCH  14  15
ENDBRANCH  13  14
ENDBRANCH  12  13
ENDBRANCH   1  12
TORSDOF 14
ENDMDL
MODEL 3
REMARK VINA RESULT:    -3.584      2.594      5.881
REMARK INTER + INTRA:          -9.296
REMARK INTER:                  -6.517
REMARK INTRA:                  -2.779
REMARK UNBOUND:                -2.778
REMARK SMILES CCCCCCCCCCCCCC[C@@H](C)C(=O)[O-]
REMARK SMILES IDX 9 1 10 2 11 3 12 4 13 5 14 6 15 7 16 8 17 9 18 10 19 11 8 12
REMARK SMILES IDX 7 13 6 14 5 15 4 16 3 17 2 18 1 19
REMARK H PARENT
REMARK Flexibility Score: inf
ROOT
ATOM      1  C   UNL     1      -3.441   5.276  -9.104  1.00  0.00     0.000 C 
ENDROOT
BRANCH   1   2
ATOM      2  C   UNL     1      -2.215   5.988  -8.510  1.00  0.00     0.000 C 
BRANCH   2   3
ATOM      3  C   UNL     1      -1.535   6.947  -9.505  1.00  0.00     0.000 C 
BRANCH   3   4
ATOM      4  C   UNL     1      -0.639   6.273 -10.560  1.00  0.00     0.000 C 
BRANCH   4   5
ATOM      5  C   UNL     1       0.050   5.003 -10.042  1.00  0.00     0.001 C 
BRANCH   5   6
ATOM      6  C   UNL     1      -0.315   3.785 -10.907  1.00  0.00     0.009 C 
BRANCH   6   7
ATOM      7  C   UNL     1      -1.054   2.698 -10.099  1.00  0.00     0.032 C 
ATOM      8  C   UNL     1      -1.269   1.444 -10.952  1.00  0.00     0.014 C 
BRANCH   7   9
ATOM      9  C   UNL     1      -0.307   2.341  -8.842  1.00  0.00     0.044 C 
ATOM     10  O   UNL     1       0.731   1.628  -8.893  1.00  0.00    -0.550 OA
ATOM     11  O   UNL     1      -0.761   2.801  -7.612  1.00  0.00    -0.550 OA
ENDBRANCH   7   9
ENDBRANCH   6   7
ENDBRANCH   5   6
ENDBRANCH   4   5
ENDBRANCH   3   4
ENDBRANCH   2   3
ENDBRANCH   1   2
BRANCH   1  12
ATOM     12  C   UNL     1      -4.296   6.196  -9.996  1.00  0.00     0.000 C 
BRANCH  12  13
ATOM     13  C   UNL     1      -4.850   5.543 -11.275  1.00  0.00    -0.000 C 
BRANCH  13  14
ATOM     14  C   UNL     1      -3.917   4.469 -11.855  1.00  0.00    -0.000 C 
BRANCH  14  15
ATOM     15  C   UNL     1      -4.720   3.303 -12.445  1.00  0.00    -0.000 C 
BRANCH  15  16
ATOM     16  C   UNL     1      -5.724   2.753 -11.420  1.00  0.00    -0.000 C 
BRANCH  16  17
ATOM     17  C   UNL     1      -5.087   1.745 -10.450  1.00  0.00    -0.000 C 
BRANCH  17  18
ATOM     18  C   UNL     1      -5.371   2.079  -8.978  1.00  0.00    -0.003 C 
ATOM     19  C   UNL     1      -6.488   3.110  -8.854  1.00  0.00     0.004 C 
ENDBRANCH  17  18
ENDBRANCH  16  17
ENDBRANCH  15  16
ENDBRANCH  14  15
ENDBRANCH  13  14
ENDBRANCH  12  13
ENDBRANCH   1  12
TORSDOF 14
ENDMDL
MODEL 4
REMARK VINA RESULT:    -3.572      0.946      3.158
REMARK INTER + INTRA:          -9.274
REMARK INTER:                  -6.369
REMARK INTRA:                  -2.905
REMARK UNBOUND:                -2.778
REMARK SMILES CCCCCCCCCCCCCC[C@@H](C)C(=O)[O-]
REMARK SMILES IDX 9 1 10 2 11 3 12 4 13 5 14 6 15 7 16 8 17 9 18 10 19 11 8 12
REMARK SMILES IDX 7 13 6 14 5 15 4 16 3 17 2 18 1 19
REMARK H PARENT
REMARK Flexibility Score: inf
ROOT
ATOM      1  C   UNL     1      -0.505   6.596 -10.351  1.00  0.00     0.000 C 
ENDROOT
BRANCH   1   2
ATOM      2  C   UNL     1      -1.442   6.324 -11.539  1.00  0.00     0.000 C 
BRANCH   2   3
ATOM      3  C   UNL     1      -1.026   5.090 -12.362  1.00  0.00     0.000 C 
BRANCH   3   4
ATOM      4  C   UNL     1      -1.922   3.850 -12.187  1.00  0.00     0.000 C 
BRANCH   4   5
ATOM      5  C   UNL     1      -3.234   4.154 -11.449  1.00  0.00     0.001 C 
BRANCH   5   6
ATOM      6  C   UNL     1      -3.619   3.000 -10.509  1.00  0.00     0.009 C 
BRANCH   6   7
ATOM      7  C   UNL     1      -4.326   3.500  -9.233  1.00  0.00     0.032 C 
ATOM      8  C   UNL     1      -4.547   5.015  -9.296  1.00  0.00     0.014 C 
BRANCH   7   9
ATOM      9  C   UNL     1      -5.641   2.799  -9.019  1.00  0.00     0.044 C 
ATOM     10  O   UNL     1      -6.563   3.351  -8.363  1.00  0.00    -0.550 OA
ATOM     11  O   UNL     1      -5.845   1.532  -9.552  1.00  0.00    -0.550 OA
ENDBRANCH   7   9
ENDBRANCH   6   7
ENDBRANCH   5   6
ENDBRANCH   4   5
ENDBRANCH   3   4
ENDBRANCH   2   3
ENDBRANCH   1   2
BRANCH   1  12
ATOM     12  C   UNL     1      -1.248   6.660  -9.003  1.00  0.00     0.000 C 
BRANCH  12  13
ATOM     13  C   UNL     1      -1.254   5.351  -8.192  1.00  0.00    -0.000 C 
BRANCH  13  14
ATOM     14  C   UNL     1      -0.342   4.269  -8.791  1.00  0.00    -0.000 C 
BRANCH  14  15
ATOM     15  C   UNL     1      -0.702   2.882  -8.245  1.00  0.00    -0.000 C 
BRANCH  15  16
ATOM     16  C   UNL     1      -0.264   1.778  -9.219  1.00  0.00    -0.000 C 
BRANCH  16  17
ATOM     17  C   UNL     1       1.043   2.120  -9.952  1.00  0.00    -0.000 C 
BRANCH  17  18
ATOM     18  C   UNL     1       0.990   1.774 -11.448  1.00  0.00    -0.003 C 
ATOM     19  C   UNL     1      -0.038   0.683 -11.725  1.00  0.00     0.004 C 
ENDBRANCH  17  18
ENDBRANCH  16  17
ENDBRANCH  15  16
ENDBRANCH  14  15
ENDBRANCH  13  14
ENDBRANCH  12  13
ENDBRANCH   1  12
TORSDOF 14
ENDMDL
MODEL 5
REMARK VINA RESULT:    -3.548      1.147      3.104
REMARK INTER + INTRA:          -9.229
REMARK INTER:                  -6.695
REMARK INTRA:                  -2.535
REMARK UNBOUND:                -2.778
REMARK SMILES CCCCCCCCCCCCCC[C@@H](C)C(=O)[O-]
REMARK SMILES IDX 9 1 10 2 11 3 12 4 13 5 14 6 15 7 16 8 17 9 18 10 19 11 8 12
REMARK SMILES IDX 7 13 6 14 5 15 4 16 3 17 2 18 1 19
REMARK H PARENT
REMARK Flexibility Score: inf
ROOT
ATOM      1  C   UNL     1      -1.652   3.315  -8.424  1.00  0.00     0.000 C 
ENDROOT
BRANCH   1   2
ATOM      2  C   UNL     1      -1.328   4.813  -8.546  1.00  0.00     0.000 C 
BRANCH   2   3
ATOM      3  C   UNL     1      -2.586   5.702  -8.550  1.00  0.00     0.000 C 
BRANCH   3   4
ATOM      4  C   UNL     1      -2.894   6.399  -9.888  1.00  0.00     0.000 C 
BRANCH   4   5
ATOM      5  C   UNL     1      -3.927   5.642 -10.736  1.00  0.00     0.001 C 
BRANCH   5   6
ATOM      6  C   UNL     1      -5.105   5.161  -9.873  1.00  0.00     0.009 C 
BRANCH   6   7
ATOM      7  C   UNL     1      -5.531   3.720 -10.222  1.00  0.00     0.032 C 
ATOM      8  C   UNL     1      -4.396   2.978 -10.935  1.00  0.00     0.014 C 
BRANCH   7   9
ATOM      9  C   UNL     1      -5.951   2.956  -8.995  1.00  0.00     0.044 C 
ATOM     10  O   UNL     1      -6.504   3.547  -8.030  1.00  0.00    -0.550 OA
ATOM     11  O   UNL     1      -5.730   1.586  -8.923  1.00  0.00    -0.550 OA
ENDBRANCH   7   9
ENDBRANCH   6   7
ENDBRANCH   5   6
ENDBRANCH   4   5
ENDBRANCH   3   4
ENDBRANCH   2   3
ENDBRANCH   1   2
BRANCH   1  12
ATOM     12  C   UNL     1      -0.478   2.491  -7.861  1.00  0.00     0.000 C 
BRANCH  12  13
ATOM     13  C   UNL     1       0.266   1.618  -8.889  1.00  0.00    -0.000 C 
BRANCH  13  14
ATOM     14  C   UNL     1      -0.456   1.535 -10.242  1.00  0.00    -0.000 C 
BRANCH  14  15
ATOM     15  C   UNL     1       0.548   1.440 -11.397  1.00  0.00    -0.000 C 
BRANCH  15  16
ATOM     16  C   UNL     1       0.223   2.466 -12.494  1.00  0.00    -0.000 C 
BRANCH  16  17
ATOM     17  C   UNL     1      -0.858   3.469 -12.064  1.00  0.00    -0.000 C 
BRANCH  17  18
ATOM     18  C   UNL     1      -0.391   4.928 -12.180  1.00  0.00    -0.003 C 
ATOM     19  C   UNL     1       0.895   5.158 -11.394  1.00  0.00     0.004 C 
ENDBRANCH  17  18
ENDBRANCH  16  17
ENDBRANCH  15  16
ENDBRANCH  14  15
ENDBRANCH  13  14
ENDBRANCH  12  13
ENDBRANCH   1  12
TORSDOF 14
ENDMDL
MODEL 6
REMARK VINA RESULT:    -3.488      1.487      4.007
REMARK INTER + INTRA:          -9.121
REMARK INTER:                  -6.126
REMARK INTRA:                  -2.996
REMARK UNBOUND:                -2.778
REMARK SMILES CCCCCCCCCCCCCC[C@@H](C)C(=O)[O-]
REMARK SMILES IDX 9 1 10 2 11 3 12 4 13 5 14 6 15 7 16 8 17 9 18 10 19 11 8 12
REMARK SMILES IDX 7 13 6 14 5 15 4 16 3 17 2 18 1 19
REMARK H PARENT
REMARK Flexibility Score: inf
ROOT
ATOM      1  C   UNL     1      -1.957   6.777  -8.992  1.00  0.00     0.000 C 
ENDROOT
BRANCH   1   2
ATOM      2  C   UNL     1      -0.968   5.833  -8.289  1.00  0.00     0.000 C 
BRANCH   2   3
ATOM      3  C   UNL     1      -1.482   4.384  -8.195  1.00  0.00     0.000 C 
BRANCH   3   4
ATOM      4  C   UNL     1      -2.956   4.183  -8.592  1.00  0.00     0.000 C 
BRANCH   4   5
ATOM      5  C   UNL     1      -3.200   2.876  -9.361  1.00  0.00     0.001 C 
BRANCH   5   6
ATOM      6  C   UNL     1      -4.390   3.015 -10.323  1.00  0.00     0.009 C 
BRANCH   6   7
ATOM      7  C   UNL     1      -5.438   4.026  -9.811  1.00  0.00     0.032 C 
ATOM      8  C   UNL     1      -5.958   4.894 -10.961  1.00  0.00     0.014 C 
BRANCH   7   9
ATOM      9  C   UNL     1      -6.588   3.331  -9.131  1.00  0.00     0.044 C 
ATOM     10  O   UNL     1      -6.518   3.017  -7.913  1.00  0.00    -0.550 OA
ATOM     11  O   UNL     1      -7.740   3.035  -9.850  1.00  0.00    -0.550 OA
ENDBRANCH   7   9
ENDBRANCH   6   7
ENDBRANCH   5   6
ENDBRANCH   4   5
ENDBRANCH   3   4
ENDBRANCH   2   3
ENDBRANCH   1   2
BRANCH   1  12
ATOM     12  C   UNL     1      -1.604   7.023 -10.472  1.00  0.00     0.000 C 
BRANCH  12  13
ATOM     13  C   UNL     1      -2.483   6.276 -11.491  1.00  0.00    -0.000 C 
BRANCH  13  14
ATOM     14  C   UNL     1      -1.785   5.054 -12.107  1.00  0.00    -0.000 C 
BRANCH  14  15
ATOM     15  C   UNL     1      -0.269   5.114 -11.879  1.00  0.00    -0.000 C 
BRANCH  15  16
ATOM     16  C   UNL     1       0.246   3.805 -11.263  1.00  0.00    -0.000 C 
BRANCH  16  17
ATOM     17  C   UNL     1      -0.507   2.571 -11.781  1.00  0.00    -0.000 C 
BRANCH  17  18
ATOM     18  C   UNL     1      -0.226   1.312 -10.946  1.00  0.00    -0.003 C 
ATOM     19  C   UNL     1       0.489   1.663  -9.646  1.00  0.00     0.004 C 
ENDBRANCH  17  18
ENDBRANCH  16  17
ENDBRANCH  15  16
ENDBRANCH  14  15
ENDBRANCH  13  14
ENDBRANCH  12  13
ENDBRANCH   1  12
TORSDOF 14
ENDMDL
MODEL 7
REMARK VINA RESULT:    -3.473      2.970      6.107
REMARK INTER + INTRA:          -9.094
REMARK INTER:                  -6.664
REMARK INTRA:                  -2.430
REMARK UNBOUND:                -2.778
REMARK SMILES CCCCCCCCCCCCCC[C@@H](C)C(=O)[O-]
REMARK SMILES IDX 9 1 10 2 11 3 12 4 13 5 14 6 15 7 16 8 17 9 18 10 19 11 8 12
REMARK SMILES IDX 7 13 6 14 5 15 4 16 3 17 2 18 1 19
REMARK H PARENT
REMARK Flexibility Score: inf
ROOT
ATOM      1  C   UNL     1      -4.404   6.058 -10.037  1.00  0.00     0.000 C 
ENDROOT
BRANCH   1   2
ATOM      2  C   UNL     1      -2.949   6.538  -9.910  1.00  0.00     0.000 C 
BRANCH   2   3
ATOM      3  C   UNL     1      -2.346   6.270  -8.518  1.00  0.00     0.000 C 
BRANCH   3   4
ATOM      4  C   UNL     1      -0.815   6.114  -8.482  1.00  0.00     0.000 C 
BRANCH   4   5
ATOM      5  C   UNL     1      -0.324   4.828  -9.162  1.00  0.00     0.001 C 
BRANCH   5   6
ATOM      6  C   UNL     1      -1.027   3.592  -8.578  1.00  0.00     0.009 C 
BRANCH   6   7
ATOM      7  C   UNL     1      -1.196   2.469  -9.623  1.00  0.00     0.032 C 
ATOM      8  C   UNL     1      -1.410   3.060 -11.020  1.00  0.00     0.014 C 
BRANCH   7   9
ATOM      9  C   UNL     1      -0.009   1.543  -9.635  1.00  0.00     0.044 C 
ATOM     10  O   UNL     1       0.638   1.317  -8.578  1.00  0.00    -0.550 OA
ATOM     11  O   UNL     1       0.377   0.928 -10.820  1.00  0.00    -0.550 OA
ENDBRANCH   7   9
ENDBRANCH   6   7
ENDBRANCH   5   6
ENDBRANCH   4   5
ENDBRANCH   3   4
ENDBRANCH   2   3
ENDBRANCH   1   2
BRANCH   1  12
ATOM     12  C   UNL     1      -4.525   4.525 -10.129  1.00  0.00     0.000 C 
BRANCH  12  13
ATOM     13  C   UNL     1      -5.105   3.835  -8.881  1.00  0.00    -0.000 C 
BRANCH  13  14
ATOM     14  C   UNL     1      -5.306   2.324  -9.068  1.00  0.00    -0.000 C 
BRANCH  14  15
ATOM     15  C   UNL     1      -4.978   1.899 -10.504  1.00  0.00    -0.000 C 
BRANCH  15  16
ATOM     16  C   UNL     1      -6.237   1.400 -11.231  1.00  0.00    -0.000 C 
BRANCH  16  17
ATOM     17  C   UNL     1      -6.817   2.447 -12.194  1.00  0.00    -0.000 C 
BRANCH  17  18
ATOM     18  C   UNL     1      -7.941   3.279 -11.557  1.00  0.00    -0.003 C 
ATOM     19  C   UNL     1      -7.761   4.764 -11.854  1.00  0.00     0.004 C 
ENDBRANCH  17  18
ENDBRANCH  16  17
ENDBRANCH  15  16
ENDBRANCH  14  15
ENDBRANCH  13  14
ENDBRANCH  12  13
ENDBRANCH   1  12
TORSDOF 14
ENDMDL
MODEL 8
REMARK VINA RESULT:    -3.469      2.910      5.474
REMARK INTER + INTRA:          -9.086
REMARK INTER:                  -6.257
REMARK INTRA:                  -2.829
REMARK UNBOUND:                -2.778
REMARK SMILES CCCCCCCCCCCCCC[C@@H](C)C(=O)[O-]
REMARK SMILES IDX 9 1 10 2 11 3 12 4 13 5 14 6 15 7 16 8 17 9 18 10 19 11 8 12
REMARK SMILES IDX 7 13 6 14 5 15 4 16 3 17 2 18 1 19
REMARK H PARENT
REMARK Flexibility Score: inf
ROOT
ATOM      1  C   UNL     1      -5.041   2.204  -9.171  1.00  0.00     0.000 C 
ENDROOT
BRANCH   1   2
ATOM      2  C   UNL     1      -5.352   1.787 -10.618  1.00  0.00     0.000 C 
BRANCH   2   3
ATOM      3  C   UNL     1      -4.086   1.559 -11.464  1.00  0.00     0.000 C 
BRANCH   3   4
ATOM      4  C   UNL     1      -3.546   2.805 -12.189  1.00  0.00     0.000 C 
BRANCH   4   5
ATOM      5  C   UNL     1      -2.097   3.143 -11.807  1.00  0.00     0.001 C 
BRANCH   5   6
ATOM      6  C   UNL     1      -1.594   2.224 -10.683  1.00  0.00     0.009 C 
BRANCH   6   7
ATOM      7  C   UNL     1      -0.340   2.792  -9.984  1.00  0.00     0.032 C 
ATOM      8  C   UNL     1      -0.341   4.323 -10.036  1.00  0.00     0.014 C 
BRANCH   7   9
ATOM      9  C   UNL     1      -0.247   2.327  -8.555  1.00  0.00     0.044 C 
ATOM     10  O   UNL     1      -0.902   2.907  -7.648  1.00  0.00    -0.550 OA
ATOM     11  O   UNL     1       0.567   1.249  -8.230  1.00  0.00    -0.550 OA
ENDBRANCH   7   9
ENDBRANCH   6   7
ENDBRANCH   5   6
ENDBRANCH   4   5
ENDBRANCH   3   4
ENDBRANCH   2   3
ENDBRANCH   1   2
BRANCH   1  12
ATOM     12  C   UNL     1      -5.207   3.717  -8.933  1.00  0.00     0.000 C 
BRANCH  12  13
ATOM     13  C   UNL     1      -3.894   4.513  -8.825  1.00  0.00    -0.000 C 
BRANCH  13  14
ATOM     14  C   UNL     1      -3.858   5.742  -9.746  1.00  0.00    -0.000 C 
BRANCH  14  15
ATOM     15  C   UNL     1      -5.246   6.033 -10.330  1.00  0.00    -0.000 C 
BRANCH  15  16
ATOM     16  C   UNL     1      -5.203   6.055 -11.865  1.00  0.00    -0.000 C 
BRANCH  16  17
ATOM     17  C   UNL     1      -6.584   5.823 -12.498  1.00  0.00    -0.000 C 
BRANCH  17  18
ATOM     18  C   UNL     1      -6.918   4.333 -12.664  1.00  0.00    -0.003 C 
ATOM     19  C   UNL     1      -8.155   3.954 -11.857  1.00  0.00     0.004 C 
ENDBRANCH  17  18
ENDBRANCH  16  17
ENDBRANCH  15  16
ENDBRANCH  14  15
ENDBRANCH  13  14
ENDBRANCH  12  13
ENDBRANCH   1  12
TORSDOF 14
ENDMDL
MODEL 9
REMARK VINA RESULT:    -3.420      1.445      3.376
REMARK INTER + INTRA:          -8.998
REMARK INTER:                  -6.176
REMARK INTRA:                  -2.821
REMARK UNBOUND:                -2.778
REMARK SMILES CCCCCCCCCCCCCC[C@@H](C)C(=O)[O-]
REMARK SMILES IDX 9 1 10 2 11 3 12 4 13 5 14 6 15 7 16 8 17 9 18 10 19 11 8 12
REMARK SMILES IDX 7 13 6 14 5 15 4 16 3 17 2 18 1 19
REMARK H PARENT
REMARK Flexibility Score: inf
ROOT
ATOM      1  C   UNL     1       0.525   2.250  -9.871  1.00  0.00     0.000 C 
ENDROOT
BRANCH   1   2
ATOM      2  C   UNL     1       0.151   1.747  -8.466  1.00  0.00     0.000 C 
BRANCH   2   3
ATOM      3  C   UNL     1      -0.856   2.664  -7.748  1.00  0.00     0.000 C 
BRANCH   3   4
ATOM      4  C   UNL     1      -1.170   3.989  -8.467  1.00  0.00     0.000 C 
BRANCH   4   5
ATOM      5  C   UNL     1      -2.658   4.151  -8.807  1.00  0.00     0.001 C 
BRANCH   5   6
ATOM      6  C   UNL     1      -3.340   2.783  -8.971  1.00  0.00     0.009 C 
BRANCH   6   7
ATOM      7  C   UNL     1      -4.450   2.811 -10.043  1.00  0.00     0.032 C 
ATOM      8  C   UNL     1      -4.094   1.889 -11.213  1.00  0.00     0.014 C 
BRANCH   7   9
ATOM      9  C   UNL     1      -5.784   2.416  -9.466  1.00  0.00     0.044 C 
ATOM     10  O   UNL     1      -6.487   1.533 -10.025  1.00  0.00    -0.550 OA
ATOM     11  O   UNL     1      -6.245   3.028  -8.307  1.00  0.00    -0.550 OA
ENDBRANCH   7   9
ENDBRANCH   6   7
ENDBRANCH   5   6
ENDBRANCH   4   5
ENDBRANCH   3   4
ENDBRANCH   2   3
ENDBRANCH   1   2
BRANCH   1  12
ATOM     12  C   UNL     1      -0.410   1.712 -10.970  1.00  0.00     0.000 C 
BRANCH  12  13
ATOM     13  C   UNL     1      -0.553   2.612 -12.211  1.00  0.00    -0.000 C 
BRANCH  13  14
ATOM     14  C   UNL     1       0.068   4.004 -12.019  1.00  0.00    -0.000 C 
BRANCH  14  15
ATOM     15  C   UNL     1      -1.016   5.086 -11.957  1.00  0.00    -0.000 C 
BRANCH  15  16
ATOM     16  C   UNL     1      -2.327   4.588 -12.586  1.00  0.00    -0.000 C 
BRANCH  16  17
ATOM     17  C   UNL     1      -3.447   5.637 -12.527  1.00  0.00    -0.000 C 
BRANCH  17  18
ATOM     18  C   UNL     1      -3.325   6.567 -11.311  1.00  0.00    -0.003 C 
ATOM     19  C   UNL     1      -4.653   6.679 -10.569  1.00  0.00     0.004 C 
ENDBRANCH  17  18
ENDBRANCH  16  17
ENDBRANCH  15  16
ENDBRANCH  14  15
ENDBRANCH  13  14
ENDBRANCH  12  13
ENDBRANCH   1  12
TORSDOF 14
ENDMDL
