MODEL 1
REMARK VINA RESULT:     4.699      0.000      0.000
REMARK INTER + INTRA:           8.427
REMARK INTER:                   8.546
REMARK INTRA:                  -0.118
REMARK UNBOUND:                -0.118
REMARK SMILES CCCCCC=CCC=CCCCCCCCC(=O)[O-]
REMARK SMILES IDX 11 1 12 2 13 3 14 4 15 5 16 6 17 7 18 8 19 9 20 10 10 11
REMARK SMILES IDX 9 12 8 13 7 14 6 15 5 16 4 17 3 18 2 19 1 20
REMARK H PARENT
REMARK Flexibility Score: inf
ROOT
ATOM      1  C   UNL     1      31.586  18.365   5.649  1.00  0.00     0.027 C 
ENDROOT
BRANCH   1   2
ATOM      2  C   UNL     1      31.715  16.858   5.918  1.00  0.00     0.004 C 
BRANCH   2   3
ATOM      3  C   UNL     1      31.025  16.429   7.222  1.00  0.00     0.000 C 
BRANCH   3   4
ATOM      4  C   UNL     1      30.338  15.060   7.106  1.00  0.00     0.000 C 
BRANCH   4   5
ATOM      5  C   UNL     1      30.171  14.410   8.487  1.00  0.00     0.000 C 
BRANCH   5   6
ATOM      6  C   UNL     1      28.702  14.341   8.936  1.00  0.00     0.006 C 
BRANCH   6   7
ATOM      7  C   UNL     1      28.425  15.185  10.186  1.00  0.00     0.053 C 
BRANCH   7   8
ATOM      8  C   UNL     1      29.064  16.532  10.058  1.00  0.00     0.041 C 
ATOM      9  O   UNL     1      30.310  16.657  10.192  1.00  0.00    -0.550 OA
ATOM     10  O   UNL     1      28.290  17.642   9.744  1.00  0.00    -0.550 OA
ENDBRANCH   7   8
ENDBRANCH   6   7
ENDBRANCH   5   6
ENDBRANCH   4   5
ENDBRANCH   3   4
ENDBRANCH   2   3
ENDBRANCH   1   2
BRANCH   1  11
ATOM     11  C   UNL     1      30.640  18.630   4.509  1.00  0.00    -0.031 C 
ATOM     12  C   UNL     1      29.893  17.652   3.976  1.00  0.00    -0.027 C 
BRANCH  12  13
ATOM     13  C   UNL     1      28.941  17.912   2.844  1.00  0.00     0.054 C 
BRANCH  13  14
ATOM     14  C   UNL     1      29.531  18.908   1.878  1.00  0.00    -0.027 C 
ATOM     15  C   UNL     1      29.367  18.896   0.540  1.00  0.00    -0.031 C 
BRANCH  15  16
ATOM     16  C   UNL     1      28.615  17.848  -0.246  1.00  0.00     0.027 C 
BRANCH  16  17
ATOM     17  C   UNL     1      29.443  16.570  -0.426  1.00  0.00     0.004 C 
BRANCH  17  18
ATOM     18  C   UNL     1      29.008  15.760  -1.659  1.00  0.00     0.000 C 
BRANCH  18  19
ATOM     19  C   UNL     1      30.199  15.149  -2.415  1.00  0.00    -0.003 C 
ATOM     20  C   UNL     1      31.540  15.742  -1.982  1.00  0.00     0.004 C 
ENDBRANCH  18  19
ENDBRANCH  17  18
ENDBRANCH  16  17
ENDBRANCH  15  16
ENDBRANCH  13  14
ENDBRANCH  12  13
ENDBRANCH   1  11
TORSDOF 14
ENDMDL
MODEL 2
REMARK VINA RESULT:     4.738      4.011      9.345
REMARK INTER + INTRA:           8.498
REMARK INTER:                   8.194
REMARK INTRA:                   0.303
REMARK UNBOUND:                -0.118
REMARK SMILES CCCCCC=CCC=CCCCCCCCC(=O)[O-]
REMARK SMILES IDX 11 1 12 2 13 3 14 4 15 5 16 6 17 7 18 8 19 9 20 10 10 11
REMARK SMILES IDX 9 12 8 13 7 14 6 15 5 16 4 17 3 18 2 19 1 20
REMARK H PARENT
REMARK Flexibility Score: inf
ROOT
ATOM      1  C   UNL     1      31.492  17.688   4.796  1.00  0.00     0.027 C 
ENDROOT
BRANCH   1   2
ATOM      2  C   UNL     1      30.310  18.573   4.371  1.00  0.00     0.004 C 
BRANCH   2   3
ATOM      3  C   UNL     1      29.477  17.946   3.241  1.00  0.00     0.000 C 
BRANCH   3   4
ATOM      4  C   UNL     1      29.893  18.449   1.851  1.00  0.00     0.000 C 
BRANCH   4   5
ATOM      5  C   UNL     1      28.704  18.425   0.880  1.00  0.00     0.000 C 
BRANCH   5   6
ATOM      6  C   UNL     1      28.767  17.248  -0.107  1.00  0.00     0.006 C 
BRANCH   6   7
ATOM      7  C   UNL     1      30.206  16.862  -0.475  1.00  0.00     0.053 C 
BRANCH   7   8
ATOM      8  C   UNL     1      30.209  15.871  -1.596  1.00  0.00     0.041 C 
ATOM      9  O   UNL     1      29.151  15.266  -1.910  1.00  0.00    -0.550 OA
ATOM     10  O   UNL     1      31.371  15.650  -2.325  1.00  0.00    -0.550 OA
ENDBRANCH   7   8
ENDBRANCH   6   7
ENDBRANCH   5   6
ENDBRANCH   4   5
ENDBRANCH   3   4
ENDBRANCH   2   3
ENDBRANCH   1   2
BRANCH   1  11
ATOM     11  C   UNL     1      31.403  17.334   6.255  1.00  0.00    -0.031 C 
ATOM     12  C   UNL     1      30.775  16.223   6.669  1.00  0.00    -0.027 C 
BRANCH  12  13
ATOM     13  C   UNL     1      30.690  15.859   8.124  1.00  0.00     0.054 C 
BRANCH  13  14
ATOM     14  C   UNL     1      30.437  14.381   8.284  1.00  0.00    -0.027 C 
ATOM     15  C   UNL     1      29.313  13.825   8.778  1.00  0.00    -0.031 C 
BRANCH  15  16
ATOM     16  C   UNL     1      28.123  14.580   9.321  1.00  0.00     0.027 C 
BRANCH  16  17
ATOM     17  C   UNL     1      28.522  15.525  10.461  1.00  0.00     0.004 C 
BRANCH  17  18
ATOM     18  C   UNL     1      28.889  16.931   9.956  1.00  0.00     0.000 C 
BRANCH  18  19
ATOM     19  C   UNL     1      28.816  17.994  11.063  1.00  0.00    -0.003 C 
ATOM     20  C   UNL     1      27.750  19.055  10.795  1.00  0.00     0.004 C 
ENDBRANCH  18  19
ENDBRANCH  17  18
ENDBRANCH  16  17
ENDBRANCH  15  16
ENDBRANCH  13  14
ENDBRANCH  12  13
ENDBRANCH   1  11
TORSDOF 14
ENDMDL
MODEL 3
REMARK VINA RESULT:     4.899      4.057      8.947
REMARK INTER + INTRA:           8.790
REMARK INTER:                   9.712
REMARK INTRA:                  -0.922
REMARK UNBOUND:                -0.118
REMARK SMILES CCCCCC=CCC=CCCCCCCCC(=O)[O-]
REMARK SMILES IDX 11 1 12 2 13 3 14 4 15 5 16 6 17 7 18 8 19 9 20 10 10 11
REMARK SMILES IDX 9 12 8 13 7 14 6 15 5 16 4 17 3 18 2 19 1 20
REMARK H PARENT
REMARK Flexibility Score: inf
ROOT
ATOM      1  C   UNL     1      31.394  18.228   4.717  1.00  0.00     0.027 C 
ENDROOT
BRANCH   1   2
ATOM      2  C   UNL     1      29.895  18.445   4.459  1.00  0.00     0.004 C 
BRANCH   2   3
ATOM      3  C   UNL     1      29.410  17.754   3.175  1.00  0.00     0.000 C 
BRANCH   3   4
ATOM      4  C   UNL     1      29.885  18.471   1.902  1.00  0.00     0.000 C 
BRANCH   4   5
ATOM      5  C   UNL     1      28.768  18.519   0.850  1.00  0.00     0.000 C 
BRANCH   5   6
ATOM      6  C   UNL     1      28.808  17.321  -0.113  1.00  0.00     0.006 C 
BRANCH   6   7
ATOM      7  C   UNL     1      30.235  16.955  -0.542  1.00  0.00     0.053 C 
BRANCH   7   8
ATOM      8  C   UNL     1      30.207  15.879  -1.581  1.00  0.00     0.041 C 
ATOM      9  O   UNL     1      29.113  15.364  -1.932  1.00  0.00    -0.550 OA
ATOM     10  O   UNL     1      31.386  15.477  -2.198  1.00  0.00    -0.550 OA
ENDBRANCH   7   8
ENDBRANCH   6   7
ENDBRANCH   5   6
ENDBRANCH   4   5
ENDBRANCH   3   4
ENDBRANCH   2   3
ENDBRANCH   1   2
BRANCH   1  11
ATOM     11  C   UNL     1      31.613  17.203   5.796  1.00  0.00    -0.031 C 
ATOM     12  C   UNL     1      30.584  16.579   6.389  1.00  0.00    -0.027 C 
BRANCH  12  13
ATOM     13  C   UNL     1      30.796  15.549   7.461  1.00  0.00     0.054 C 
BRANCH  13  14
ATOM     14  C   UNL     1      31.016  16.214   8.796  1.00  0.00    -0.027 C 
ATOM     15  C   UNL     1      30.090  16.356   9.765  1.00  0.00    -0.031 C 
BRANCH  15  16
ATOM     16  C   UNL     1      28.644  15.930   9.669  1.00  0.00     0.027 C 
BRANCH  16  17
ATOM     17  C   UNL     1      28.471  14.434   9.963  1.00  0.00     0.004 C 
BRANCH  17  18
ATOM     18  C   UNL     1      28.023  13.642   8.724  1.00  0.00     0.000 C 
BRANCH  18  19
ATOM     19  C   UNL     1      26.526  13.297   8.753  1.00  0.00    -0.003 C 
ATOM     20  C   UNL     1      26.155  12.191   7.766  1.00  0.00     0.004 C 
ENDBRANCH  18  19
ENDBRANCH  17  18
ENDBRANCH  16  17
ENDBRANCH  15  16
ENDBRANCH  13  14
ENDBRANCH  12  13
ENDBRANCH   1  11
TORSDOF 14
ENDMDL
MODEL 4
REMARK VINA RESULT:     4.983      4.166      9.515
REMARK INTER + INTRA:           8.942
REMARK INTER:                   9.185
REMARK INTRA:                  -0.242
REMARK UNBOUND:                -0.118
REMARK SMILES CCCCCC=CCC=CCCCCCCCC(=O)[O-]
REMARK SMILES IDX 11 1 12 2 13 3 14 4 15 5 16 6 17 7 18 8 19 9 20 10 10 11
REMARK SMILES IDX 9 12 8 13 7 14 6 15 5 16 4 17 3 18 2 19 1 20
REMARK H PARENT
REMARK Flexibility Score: inf
ROOT
ATOM      1  C   UNL     1      30.399  18.768   3.913  1.00  0.00     0.027 C 
ENDROOT
BRANCH   1   2
ATOM      2  C   UNL     1      29.458  18.145   2.870  1.00  0.00     0.004 C 
BRANCH   2   3
ATOM      3  C   UNL     1      29.889  18.451   1.427  1.00  0.00     0.000 C 
BRANCH   3   4
ATOM      4  C   UNL     1      28.704  18.810   0.518  1.00  0.00     0.000 C 
BRANCH   4   5
ATOM      5  C   UNL     1      28.324  17.625  -0.381  1.00  0.00     0.000 C 
BRANCH   5   6
ATOM      6  C   UNL     1      29.434  16.565  -0.465  1.00  0.00     0.006 C 
BRANCH   6   7
ATOM      7  C   UNL     1      29.386  15.761  -1.771  1.00  0.00     0.053 C 
BRANCH   7   8
ATOM      8  C   UNL     1      30.762  15.600  -2.335  1.00  0.00     0.041 C 
ATOM      9  O   UNL     1      30.925  15.437  -3.573  1.00  0.00    -0.550 OA
ATOM     10  O   UNL     1      31.870  15.677  -1.499  1.00  0.00    -0.550 OA
ENDBRANCH   7   8
ENDBRANCH   6   7
ENDBRANCH   5   6
ENDBRANCH   4   5
ENDBRANCH   3   4
ENDBRANCH   2   3
ENDBRANCH   1   2
BRANCH   1  11
ATOM     11  C   UNL     1      30.279  18.062   5.236  1.00  0.00    -0.031 C 
ATOM     12  C   UNL     1      31.221  17.207   5.662  1.00  0.00    -0.027 C 
BRANCH  12  13
ATOM     13  C   UNL     1      31.112  16.505   6.986  1.00  0.00     0.054 C 
BRANCH  13  14
ATOM     14  C   UNL     1      30.188  15.318   6.878  1.00  0.00    -0.027 C 
ATOM     15  C   UNL     1      29.792  14.537   7.903  1.00  0.00    -0.031 C 
BRANCH  15  16
ATOM     16  C   UNL     1      30.250  14.665   9.336  1.00  0.00     0.027 C 
BRANCH  16  17
ATOM     17  C   UNL     1      30.305  16.131   9.786  1.00  0.00     0.004 C 
BRANCH  17  18
ATOM     18  C   UNL     1      28.909  16.709  10.072  1.00  0.00     0.000 C 
BRANCH  18  19
ATOM     19  C   UNL     1      28.944  17.861  11.088  1.00  0.00    -0.003 C 
ATOM     20  C   UNL     1      27.853  18.901  10.839  1.00  0.00     0.004 C 
ENDBRANCH  18  19
ENDBRANCH  17  18
ENDBRANCH  16  17
ENDBRANCH  15  16
ENDBRANCH  13  14
ENDBRANCH  12  13
ENDBRANCH   1  11
TORSDOF 14
ENDMDL
MODEL 5
REMARK VINA RESULT:     4.985      1.795      2.179
REMARK INTER + INTRA:           8.946
REMARK INTER:                   9.888
REMARK INTRA:                  -0.942
REMARK UNBOUND:                -0.118
REMARK SMILES CCCCCC=CCC=CCCCCCCCC(=O)[O-]
REMARK SMILES IDX 11 1 12 2 13 3 14 4 15 5 16 6 17 7 18 8 19 9 20 10 10 11
REMARK SMILES IDX 9 12 8 13 7 14 6 15 5 16 4 17 3 18 2 19 1 20
REMARK H PARENT
REMARK Flexibility Score: inf
ROOT
ATOM      1  C   UNL     1      31.785  17.932   5.891  1.00  0.00     0.027 C 
ENDROOT
BRANCH   1   2
ATOM      2  C   UNL     1      31.216  16.669   6.556  1.00  0.00     0.004 C 
BRANCH   2   3
ATOM      3  C   UNL     1      31.318  16.711   8.089  1.00  0.00     0.000 C 
BRANCH   3   4
ATOM      4  C   UNL     1      30.540  15.571   8.765  1.00  0.00     0.000 C 
BRANCH   4   5
ATOM      5  C   UNL     1      29.379  16.122   9.605  1.00  0.00     0.000 C 
BRANCH   5   6
ATOM      6  C   UNL     1      28.302  15.063   9.892  1.00  0.00     0.006 C 
BRANCH   6   7
ATOM      7  C   UNL     1      28.334  13.900   8.893  1.00  0.00     0.053 C 
BRANCH   7   8
ATOM      8  C   UNL     1      26.964  13.326   8.717  1.00  0.00     0.041 C 
ATOM      9  O   UNL     1      25.968  13.889   9.242  1.00  0.00    -0.550 OA
ATOM     10  O   UNL     1      26.780  12.194   7.932  1.00  0.00    -0.550 OA
ENDBRANCH   7   8
ENDBRANCH   6   7
ENDBRANCH   5   6
ENDBRANCH   4   5
ENDBRANCH   3   4
ENDBRANCH   2   3
ENDBRANCH   1   2
BRANCH   1  11
ATOM     11  C   UNL     1      30.955  18.338   4.705  1.00  0.00    -0.031 C 
ATOM     12  C   UNL     1      29.895  17.616   4.310  1.00  0.00    -0.027 C 
BRANCH  12  13
ATOM     13  C   UNL     1      29.057  18.020   3.132  1.00  0.00     0.054 C 
BRANCH  13  14
ATOM     14  C   UNL     1      29.877  18.823   2.153  1.00  0.00    -0.027 C 
ATOM     15  C   UNL     1      29.755  18.786   0.811  1.00  0.00    -0.031 C 
BRANCH  15  16
ATOM     16  C   UNL     1      28.820  17.888   0.036  1.00  0.00     0.027 C 
BRANCH  16  17
ATOM     17  C   UNL     1      29.459  16.527  -0.267  1.00  0.00     0.004 C 
BRANCH  17  18
ATOM     18  C   UNL     1      28.983  15.943  -1.607  1.00  0.00     0.000 C 
BRANCH  18  19
ATOM     19  C   UNL     1      30.118  15.269  -2.393  1.00  0.00    -0.003 C 
ATOM     20  C   UNL     1      31.505  15.688  -1.906  1.00  0.00     0.004 C 
ENDBRANCH  18  19
ENDBRANCH  17  18
ENDBRANCH  16  17
ENDBRANCH  15  16
ENDBRANCH  13  14
ENDBRANCH  12  13
ENDBRANCH   1  11
TORSDOF 14
ENDMDL
MODEL 6
REMARK VINA RESULT:     6.113      4.810      9.391
REMARK INTER + INTRA:          10.997
REMARK INTER:                  11.592
REMARK INTRA:                  -0.595
REMARK UNBOUND:                -0.118
REMARK SMILES CCCCCC=CCC=CCCCCCCCC(=O)[O-]
REMARK SMILES IDX 11 1 12 2 13 3 14 4 15 5 16 6 17 7 18 8 19 9 20 10 10 11
REMARK SMILES IDX 9 12 8 13 7 14 6 15 5 16 4 17 3 18 2 19 1 20
REMARK H PARENT
REMARK Flexibility Score: inf
ROOT
ATOM      1  C   UNL     1      30.369  16.097   8.977  1.00  0.00     0.027 C 
ENDROOT
BRANCH   1   2
ATOM      2  C   UNL     1      30.570  16.113   7.453  1.00  0.00     0.004 C 
BRANCH   2   3
ATOM      3  C   UNL     1      31.741  17.009   7.020  1.00  0.00     0.000 C 
BRANCH   3   4
ATOM      4  C   UNL     1      31.655  17.423   5.543  1.00  0.00     0.000 C 
BRANCH   4   5
ATOM      5  C   UNL     1      30.198  17.674   5.129  1.00  0.00     0.000 C 
BRANCH   5   6
ATOM      6  C   UNL     1      30.083  18.511   3.844  1.00  0.00     0.006 C 
BRANCH   6   7
ATOM      7  C   UNL     1      29.212  17.839   2.776  1.00  0.00     0.053 C 
BRANCH   7   8
ATOM      8  C   UNL     1      29.540  18.380   1.420  1.00  0.00     0.041 C 
ATOM      9  O   UNL     1      30.481  19.204   1.276  1.00  0.00    -0.550 OA
ATOM     10  O   UNL     1      28.837  17.936   0.306  1.00  0.00    -0.550 OA
ENDBRANCH   7   8
ENDBRANCH   6   7
ENDBRANCH   5   6
ENDBRANCH   4   5
ENDBRANCH   3   4
ENDBRANCH   2   3
ENDBRANCH   1   2
BRANCH   1  11
ATOM     11  C   UNL     1      29.062  15.449   9.342  1.00  0.00    -0.031 C 
ATOM     12  C   UNL     1      28.704  14.259   8.836  1.00  0.00    -0.027 C 
BRANCH  12  13
ATOM     13  C   UNL     1      27.404  13.603   9.203  1.00  0.00     0.054 C 
BRANCH  13  14
ATOM     14  C   UNL     1      26.892  12.769   8.056  1.00  0.00    -0.027 C 
ATOM     15  C   UNL     1      25.709  12.123   8.022  1.00  0.00    -0.031 C 
BRANCH  15  16
ATOM     16  C   UNL     1      24.705  12.064   9.149  1.00  0.00     0.027 C 
BRANCH  16  17
ATOM     17  C   UNL     1      23.479  11.221   8.774  1.00  0.00     0.004 C 
BRANCH  17  18
ATOM     18  C   UNL     1      23.140  10.172   9.846  1.00  0.00     0.000 C 
BRANCH  18  19
ATOM     19  C   UNL     1      22.246   9.045   9.307  1.00  0.00    -0.003 C 
ATOM     20  C   UNL     1      22.380   7.750  10.107  1.00  0.00     0.004 C 
ENDBRANCH  18  19
ENDBRANCH  17  18
ENDBRANCH  16  17
ENDBRANCH  15  16
ENDBRANCH  13  14
ENDBRANCH  12  13
ENDBRANCH   1  11
TORSDOF 14
ENDMDL
MODEL 7
REMARK VINA RESULT:     6.903      4.878      6.698
REMARK INTER + INTRA:          12.435
REMARK INTER:                  12.969
REMARK INTRA:                  -0.534
REMARK UNBOUND:                -0.118
REMARK SMILES CCCCCC=CCC=CCCCCCCCC(=O)[O-]
REMARK SMILES IDX 11 1 12 2 13 3 14 4 15 5 16 6 17 7 18 8 19 9 20 10 10 11
REMARK SMILES IDX 9 12 8 13 7 14 6 15 5 16 4 17 3 18 2 19 1 20
REMARK H PARENT
REMARK Flexibility Score: inf
ROOT
ATOM      1  C   UNL     1      28.982  13.888   8.985  1.00  0.00     0.027 C 
ENDROOT
BRANCH   1   2
ATOM      2  C   UNL     1      27.470  14.035   9.219  1.00  0.00     0.004 C 
BRANCH   2   3
ATOM      3  C   UNL     1      26.660  12.889   8.594  1.00  0.00     0.000 C 
BRANCH   3   4
ATOM      4  C   UNL     1      25.212  12.842   9.103  1.00  0.00     0.000 C 
BRANCH   4   5
ATOM      5  C   UNL     1      24.477  11.611   8.554  1.00  0.00     0.000 C 
BRANCH   5   6
ATOM      6  C   UNL     1      23.706  10.846   9.642  1.00  0.00     0.006 C 
BRANCH   6   7
ATOM      7  C   UNL     1      22.440  10.167   9.103  1.00  0.00     0.053 C 
BRANCH   7   8
ATOM      8  C   UNL     1      22.348   8.761   9.605  1.00  0.00     0.041 C 
ATOM      9  O   UNL     1      21.981   8.532  10.787  1.00  0.00    -0.550 OA
ATOM     10  O   UNL     1      22.623   7.699   8.751  1.00  0.00    -0.550 OA
ENDBRANCH   7   8
ENDBRANCH   6   7
ENDBRANCH   5   6
ENDBRANCH   4   5
ENDBRANCH   3   4
ENDBRANCH   2   3
ENDBRANCH   1   2
BRANCH   1  11
ATOM     11  C   UNL     1      29.627  15.229   8.766  1.00  0.00    -0.031 C 
ATOM     12  C   UNL     1      30.320  15.500   7.650  1.00  0.00    -0.027 C 
BRANCH  12  13
ATOM     13  C   UNL     1      30.960  16.839   7.422  1.00  0.00     0.054 C 
BRANCH  13  14
ATOM     14  C   UNL     1      31.803  16.815   6.171  1.00  0.00    -0.027 C 
ATOM     15  C   UNL     1      31.556  17.513   5.045  1.00  0.00    -0.031 C 
BRANCH  15  16
ATOM     16  C   UNL     1      30.357  18.399   4.803  1.00  0.00     0.027 C 
BRANCH  16  17
ATOM     17  C   UNL     1      29.525  17.916   3.608  1.00  0.00     0.004 C 
BRANCH  17  18
ATOM     18  C   UNL     1      30.059  18.450   2.269  1.00  0.00     0.000 C 
BRANCH  18  19
ATOM     19  C   UNL     1      28.968  18.534   1.190  1.00  0.00    -0.003 C 
ATOM     20  C   UNL     1      29.102  17.444   0.127  1.00  0.00     0.004 C 
ENDBRANCH  18  19
ENDBRANCH  17  18
ENDBRANCH  16  17
ENDBRANCH  15  16
ENDBRANCH  13  14
ENDBRANCH  12  13
ENDBRANCH   1  11
TORSDOF 14
ENDMDL
MODEL 8
REMARK VINA RESULT:     7.047      5.107      7.238
REMARK INTER + INTRA:          12.695
REMARK INTER:                  13.345
REMARK INTRA:                  -0.649
REMARK UNBOUND:                -0.118
REMARK SMILES CCCCCC=CCC=CCCCCCCCC(=O)[O-]
REMARK SMILES IDX 11 1 12 2 13 3 14 4 15 5 16 6 17 7 18 8 19 9 20 10 10 11
REMARK SMILES IDX 9 12 8 13 7 14 6 15 5 16 4 17 3 18 2 19 1 20
REMARK H PARENT
REMARK Flexibility Score: inf
ROOT
ATOM      1  C   UNL     1      28.146  13.795   9.598  1.00  0.00     0.027 C 
ENDROOT
BRANCH   1   2
ATOM      2  C   UNL     1      26.801  13.746   8.856  1.00  0.00     0.004 C 
BRANCH   2   3
ATOM      3  C   UNL     1      26.492  12.355   8.281  1.00  0.00     0.000 C 
BRANCH   3   4
ATOM      4  C   UNL     1      24.992  12.134   8.040  1.00  0.00     0.000 C 
BRANCH   4   5
ATOM      5  C   UNL     1      24.322  11.517   9.276  1.00  0.00     0.000 C 
BRANCH   5   6
ATOM      6  C   UNL     1      23.096  10.660   8.920  1.00  0.00     0.006 C 
BRANCH   6   7
ATOM      7  C   UNL     1      22.560   9.868  10.120  1.00  0.00     0.053 C 
BRANCH   7   8
ATOM      8  C   UNL     1      22.251   8.460   9.720  1.00  0.00     0.041 C 
ATOM      9  O   UNL     1      22.654   8.012   8.614  1.00  0.00    -0.550 OA
ATOM     10  O   UNL     1      21.556   7.627  10.588  1.00  0.00    -0.550 OA
ENDBRANCH   7   8
ENDBRANCH   6   7
ENDBRANCH   5   6
ENDBRANCH   4   5
ENDBRANCH   3   4
ENDBRANCH   2   3
ENDBRANCH   1   2
BRANCH   1  11
ATOM     11  C   UNL     1      29.173  14.552   8.801  1.00  0.00    -0.031 C 
ATOM     12  C   UNL     1      29.708  15.696   9.254  1.00  0.00    -0.027 C 
BRANCH  12  13
ATOM     13  C   UNL     1      30.740  16.452   8.468  1.00  0.00     0.054 C 
BRANCH  13  14
ATOM     14  C   UNL     1      30.912  15.841   7.099  1.00  0.00    -0.027 C 
ATOM     15  C   UNL     1      30.966  16.522   5.937  1.00  0.00    -0.031 C 
BRANCH  15  16
ATOM     16  C   UNL     1      30.803  18.016   5.784  1.00  0.00     0.027 C 
BRANCH  16  17
ATOM     17  C   UNL     1      30.923  18.453   4.318  1.00  0.00     0.004 C 
BRANCH  17  18
ATOM     18  C   UNL     1      29.664  18.117   3.502  1.00  0.00     0.000 C 
BRANCH  18  19
ATOM     19  C   UNL     1      29.672  18.767   2.109  1.00  0.00    -0.003 C 
ATOM     20  C   UNL     1      29.250  17.800   1.004  1.00  0.00     0.004 C 
ENDBRANCH  18  19
ENDBRANCH  17  18
ENDBRANCH  16  17
ENDBRANCH  15  16
ENDBRANCH  13  14
ENDBRANCH  12  13
ENDBRANCH   1  11
TORSDOF 14
ENDMDL
