MODEL 1
REMARK VINA RESULT:    -4.648      0.000      0.000
REMARK INTER + INTRA:          -7.038
REMARK INTER:                  -7.093
REMARK INTRA:                   0.055
REMARK UNBOUND:                 0.055
REMARK SMILES CC1=CCC[C@@H](C)C(=O)C[C@H](C(C)C)C(=O)C1
REMARK SMILES IDX 8 1 9 2 6 3 7 4 5 5 4 6 3 7 2 8 1 9 10 11 11 12 15 13 16 14
REMARK SMILES IDX 17 15 12 17 13 18 14 19
REMARK H PARENT
REMARK Flexibility Score: 70.00
ROOT
ATOM      1  C   UNL     1     -13.145 -16.174  27.698  1.00  0.00     0.136 C 
ATOM      2  O   UNL     1     -13.947 -15.800  26.853  1.00  0.00    -0.299 OA
ENDROOT
BRANCH   1   3
ATOM      3  C   UNL     1     -12.489 -17.540  27.579  1.00  0.00     0.053 C 
ATOM      4  C   UNL     1     -11.635 -17.671  26.307  1.00  0.00     0.016 C 
BRANCH   3   5
ATOM      5  C   UNL     1     -13.528 -18.676  27.682  1.00  0.00     0.015 C 
BRANCH   5   6
ATOM      6  C   UNL     1     -13.374 -19.546  28.945  1.00  0.00     0.028 C 
BRANCH   6   7
ATOM      7  C   UNL     1     -11.933 -19.607  29.378  1.00  0.00    -0.028 C 
ATOM      8  C   UNL     1     -11.408 -18.903  30.408  1.00  0.00    -0.070 CG0
ATOM      9  C   UNL     1      -9.928 -19.027  30.668  1.00  0.00     0.039 C 
ATOM     10  G   UNL     1     -12.245 -18.016  31.319  1.00  0.00     0.000 G0
ENDBRANCH   6   7
ENDBRANCH   5   6
ENDBRANCH   3   5
ENDBRANCH   1   3
BRANCH   1  11
ATOM     11  C   UNL     1     -12.825 -15.260  28.856  1.00  0.00     0.087 C 
BRANCH  11  12
ATOM     12  C   UNL     1     -13.285 -15.853  30.214  1.00  0.00     0.066 C 
BRANCH  12  13
ATOM     13  C   UNL     1     -12.138 -16.552  30.932  1.00  0.00     0.140 C 
ATOM     14  O   UNL     1     -11.145 -15.918  31.258  1.00  0.00    -0.299 OA
BRANCH  13  15
ATOM     15  C   UNL     1     -12.238 -18.011  31.311  1.00  0.00     0.106 CG0
ATOM     16  G   UNL     1     -11.418 -18.907  30.395  1.00  0.00     0.000 G0
ENDBRANCH  13  15
ENDBRANCH  12  13
BRANCH  12  17
ATOM     17  C   UNL     1     -13.989 -14.787  31.109  1.00  0.00    -0.006 C 
ATOM     18  C   UNL     1     -14.825 -15.377  32.257  1.00  0.00     0.008 C 
ATOM     19  C   UNL     1     -14.846 -13.826  30.269  1.00  0.00     0.008 C 
ENDBRANCH  12  17
ENDBRANCH  11  12
ENDBRANCH   1  11
TORSDOF 1
ENDMDL
MODEL 2
REMARK VINA RESULT:    -3.732      1.938      3.553
REMARK INTER + INTRA:          -5.640
REMARK INTER:                  -6.211
REMARK INTRA:                   0.570
REMARK UNBOUND:                 0.055
REMARK SMILES CC1=CCC[C@@H](C)C(=O)C[C@H](C(C)C)C(=O)C1
REMARK SMILES IDX 8 1 9 2 6 3 7 4 5 5 4 6 3 7 2 8 1 9 10 11 11 12 15 13 16 14
REMARK SMILES IDX 17 15 12 17 13 18 14 19
REMARK H PARENT
REMARK Flexibility Score: 70.00
ROOT
ATOM      1  C   UNL     1     -11.321 -18.302  30.756  1.00  0.00     0.136 C 
ATOM      2  O   UNL     1     -10.399 -18.760  30.096  1.00  0.00    -0.299 OA
ENDROOT
BRANCH   1   3
ATOM      3  C   UNL     1     -12.610 -19.090  30.919  1.00  0.00     0.053 C 
ATOM      4  C   UNL     1     -12.516 -20.145  32.034  1.00  0.00     0.016 C 
BRANCH   3   5
ATOM      5  C   UNL     1     -13.061 -19.718  29.584  1.00  0.00     0.015 C 
BRANCH   5   6
ATOM      6  C   UNL     1     -13.549 -18.689  28.545  1.00  0.00     0.028 C 
BRANCH   6   7
ATOM      7  C   UNL     1     -12.525 -18.505  27.456  1.00  0.00    -0.028 C 
ATOM      8  C   UNL     1     -11.935 -17.327  27.143  1.00  0.00    -0.070 CG0
ATOM      9  C   UNL     1     -10.979 -17.301  25.979  1.00  0.00     0.039 C 
ATOM     10  G   UNL     1     -12.181 -16.044  27.924  1.00  0.00     0.000 G0
ENDBRANCH   6   7
ENDBRANCH   5   6
ENDBRANCH   3   5
ENDBRANCH   1   3
BRANCH   1  11
ATOM     11  C   UNL     1     -11.157 -16.946  31.398  1.00  0.00     0.087 C 
BRANCH  11  12
ATOM     12  C   UNL     1     -11.759 -15.810  30.530  1.00  0.00     0.066 C 
BRANCH  12  13
ATOM     13  C   UNL     1     -11.236 -15.867  29.101  1.00  0.00     0.140 C 
ATOM     14  O   UNL     1     -10.033 -15.827  28.890  1.00  0.00    -0.299 OA
BRANCH  13  15
ATOM     15  C   UNL     1     -12.183 -16.043  27.937  1.00  0.00     0.106 CG0
ATOM     16  G   UNL     1     -11.921 -17.327  27.165  1.00  0.00     0.000 G0
ENDBRANCH  13  15
ENDBRANCH  12  13
BRANCH  12  17
ATOM     17  C   UNL     1     -13.318 -15.789  30.596  1.00  0.00    -0.006 C 
ATOM     18  C   UNL     1     -13.969 -14.637  29.812  1.00  0.00     0.008 C 
ATOM     19  C   UNL     1     -13.819 -15.791  32.049  1.00  0.00     0.008 C 
ENDBRANCH  12  17
ENDBRANCH  11  12
ENDBRANCH   1  11
TORSDOF 1
ENDMDL
MODEL 3
REMARK VINA RESULT:    -3.494      1.781      3.365
REMARK INTER + INTRA:          -5.276
REMARK INTER:                  -6.284
REMARK INTRA:                   1.008
REMARK UNBOUND:                 0.055
REMARK SMILES CC1=CCC[C@@H](C)C(=O)C[C@H](C(C)C)C(=O)C1
REMARK SMILES IDX 8 1 9 2 6 3 7 4 5 5 4 6 3 7 2 8 1 9 10 11 11 12 15 13 16 14
REMARK SMILES IDX 17 15 12 17 13 18 14 19
REMARK H PARENT
REMARK Flexibility Score: 70.00
ROOT
ATOM      1  C   UNL     1     -12.541 -18.344  31.046  1.00  0.00     0.136 C 
ATOM      2  O   UNL     1     -11.361 -18.074  31.229  1.00  0.00    -0.299 OA
ENDROOT
BRANCH   1   3
ATOM      3  C   UNL     1     -12.996 -19.793  31.002  1.00  0.00     0.053 C 
ATOM      4  C   UNL     1     -12.153 -20.701  31.913  1.00  0.00     0.016 C 
BRANCH   3   5
ATOM      5  C   UNL     1     -13.039 -20.327  29.555  1.00  0.00     0.015 C 
BRANCH   5   6
ATOM      6  C   UNL     1     -13.672 -19.345  28.548  1.00  0.00     0.028 C 
BRANCH   6   7
ATOM      7  C   UNL     1     -12.644 -18.863  27.559  1.00  0.00    -0.028 C 
ATOM      8  C   UNL     1     -12.410 -17.562  27.264  1.00  0.00    -0.070 CG0
ATOM      9  C   UNL     1     -11.391 -17.251  26.197  1.00  0.00     0.039 C 
ATOM     10  G   UNL     1     -13.111 -16.412  27.972  1.00  0.00     0.000 G0
ENDBRANCH   6   7
ENDBRANCH   5   6
ENDBRANCH   3   5
ENDBRANCH   1   3
BRANCH   1  11
ATOM     11  C   UNL     1     -13.528 -17.216  30.865  1.00  0.00     0.087 C 
BRANCH  11  12
ATOM     12  C   UNL     1     -12.825 -15.870  30.544  1.00  0.00     0.066 C 
BRANCH  12  13
ATOM     13  C   UNL     1     -12.280 -15.853  29.123  1.00  0.00     0.140 C 
ATOM     14  O   UNL     1     -11.149 -15.440  28.909  1.00  0.00    -0.299 OA
BRANCH  13  15
ATOM     15  C   UNL     1     -13.092 -16.405  27.976  1.00  0.00     0.106 CG0
ATOM     16  G   UNL     1     -12.401 -17.570  27.282  1.00  0.00     0.000 G0
ENDBRANCH  13  15
ENDBRANCH  12  13
BRANCH  12  17
ATOM     17  C   UNL     1     -13.743 -14.646  30.848  1.00  0.00    -0.006 C 
ATOM     18  C   UNL     1     -14.770 -14.888  31.969  1.00  0.00     0.008 C 
ATOM     19  C   UNL     1     -14.452 -14.145  29.580  1.00  0.00     0.008 C 
ENDBRANCH  12  17
ENDBRANCH  11  12
ENDBRANCH   1  11
TORSDOF 1
ENDMDL
MODEL 4
REMARK VINA RESULT:    -3.397      2.058      4.038
REMARK INTER + INTRA:          -5.129
REMARK INTER:                  -6.748
REMARK INTRA:                   1.619
REMARK UNBOUND:                 0.055
REMARK SMILES CC1=CCC[C@@H](C)C(=O)C[C@H](C(C)C)C(=O)C1
REMARK SMILES IDX 8 1 9 2 6 3 7 4 5 5 4 6 3 7 2 8 1 9 10 11 11 12 15 13 16 14
REMARK SMILES IDX 17 15 12 17 13 18 14 19
REMARK H PARENT
REMARK Flexibility Score: 70.00
ROOT
ATOM      1  C   UNL     1     -10.298 -16.247  30.112  1.00  0.00     0.136 C 
ATOM      2  O   UNL     1     -10.159 -15.038  29.985  1.00  0.00    -0.299 OA
ENDROOT
BRANCH   1   3
ATOM      3  C   UNL     1     -10.490 -16.853  31.492  1.00  0.00     0.053 C 
ATOM      4  C   UNL     1      -9.877 -15.986  32.605  1.00  0.00     0.016 C 
BRANCH   3   5
ATOM      5  C   UNL     1      -9.963 -18.302  31.550  1.00  0.00     0.015 C 
BRANCH   5   6
ATOM      6  C   UNL     1     -11.012 -19.327  32.026  1.00  0.00     0.028 C 
BRANCH   6   7
ATOM      7  C   UNL     1     -11.608 -20.062  30.855  1.00  0.00    -0.028 C 
ATOM      8  C   UNL     1     -12.660 -19.623  30.124  1.00  0.00    -0.070 CG0
ATOM      9  C   UNL     1     -13.178 -20.514  29.023  1.00  0.00     0.039 C 
ATOM     10  G   UNL     1     -13.322 -18.272  30.352  1.00  0.00     0.000 G0
ENDBRANCH   6   7
ENDBRANCH   5   6
ENDBRANCH   3   5
ENDBRANCH   1   3
BRANCH   1  11
ATOM     11  C   UNL     1     -10.274 -17.119  28.880  1.00  0.00     0.087 C 
BRANCH  11  12
ATOM     12  C   UNL     1     -11.701 -17.501  28.406  1.00  0.00     0.066 C 
BRANCH  12  13
ATOM     13  C   UNL     1     -12.743 -17.180  29.469  1.00  0.00     0.140 C 
ATOM     14  O   UNL     1     -13.160 -16.037  29.588  1.00  0.00    -0.299 OA
BRANCH  13  15
ATOM     15  C   UNL     1     -13.325 -18.271  30.336  1.00  0.00     0.106 CG0
ATOM     16  G   UNL     1     -12.637 -19.612  30.124  1.00  0.00     0.000 G0
ENDBRANCH  13  15
ENDBRANCH  12  13
BRANCH  12  17
ATOM     17  C   UNL     1     -12.044 -16.872  27.021  1.00  0.00    -0.006 C 
ATOM     18  C   UNL     1     -13.460 -17.196  26.512  1.00  0.00     0.008 C 
ATOM     19  C   UNL     1     -11.000 -17.247  25.958  1.00  0.00     0.008 C 
ENDBRANCH  12  17
ENDBRANCH  11  12
ENDBRANCH   1  11
TORSDOF 1
ENDMDL
MODEL 5
REMARK VINA RESULT:    -3.230      2.108      4.646
REMARK INTER + INTRA:          -4.875
REMARK INTER:                  -4.877
REMARK INTRA:                   0.002
REMARK UNBOUND:                 0.055
REMARK SMILES CC1=CCC[C@@H](C)C(=O)C[C@H](C(C)C)C(=O)C1
REMARK SMILES IDX 8 1 9 2 6 3 7 4 5 5 4 6 3 7 2 8 1 9 10 11 11 12 15 13 16 14
REMARK SMILES IDX 17 15 12 17 13 18 14 19
REMARK H PARENT
REMARK Flexibility Score: 70.00
ROOT
ATOM      1  C   UNL     1     -13.300 -16.319  31.343  1.00  0.00     0.136 C 
ATOM      2  O   UNL     1     -14.061 -17.254  31.556  1.00  0.00    -0.299 OA
ENDROOT
BRANCH   1   3
ATOM      3  C   UNL     1     -13.831 -14.896  31.296  1.00  0.00     0.053 C 
ATOM      4  C   UNL     1     -14.900 -14.633  32.370  1.00  0.00     0.016 C 
BRANCH   3   5
ATOM      5  C   UNL     1     -14.344 -14.532  29.887  1.00  0.00     0.015 C 
BRANCH   5   6
ATOM      6  C   UNL     1     -13.234 -14.470  28.819  1.00  0.00     0.028 C 
BRANCH   6   7
ATOM      7  C   UNL     1     -13.367 -15.613  27.847  1.00  0.00    -0.028 C 
ATOM      8  C   UNL     1     -12.376 -16.484  27.542  1.00  0.00    -0.070 CG0
ATOM      9  C   UNL     1     -12.653 -17.533  26.496  1.00  0.00     0.039 C 
ATOM     10  G   UNL     1     -11.013 -16.460  28.220  1.00  0.00     0.000 G0
ENDBRANCH   6   7
ENDBRANCH   5   6
ENDBRANCH   3   5
ENDBRANCH   1   3
BRANCH   1  11
ATOM     11  C   UNL     1     -11.833 -16.606  31.128  1.00  0.00     0.087 C 
BRANCH  11  12
ATOM     12  C   UNL     1     -11.605 -17.926  30.346  1.00  0.00     0.066 C 
BRANCH  12  13
ATOM     13  C   UNL     1     -10.778 -17.691  29.089  1.00  0.00     0.140 C 
ATOM     14  O   UNL     1      -9.960 -18.527  28.731  1.00  0.00    -0.299 OA
BRANCH  13  15
ATOM     15  C   UNL     1     -11.003 -16.468  28.233  1.00  0.00     0.106 CG0
ATOM     16  G   UNL     1     -12.361 -16.480  27.546  1.00  0.00     0.000 G0
ENDBRANCH  13  15
ENDBRANCH  12  13
BRANCH  12  17
ATOM     17  C   UNL     1     -11.009 -19.046  31.254  1.00  0.00    -0.006 C 
ATOM     18  C   UNL     1     -12.057 -20.006  31.844  1.00  0.00     0.008 C 
ATOM     19  C   UNL     1     -10.138 -18.458  32.375  1.00  0.00     0.008 C 
ENDBRANCH  12  17
ENDBRANCH  11  12
ENDBRANCH   1  11
TORSDOF 1
ENDMDL
MODEL 6
REMARK VINA RESULT:    -3.077      2.143      4.645
REMARK INTER + INTRA:          -4.641
REMARK INTER:                  -5.354
REMARK INTRA:                   0.713
REMARK UNBOUND:                 0.055
REMARK SMILES CC1=CCC[C@@H](C)C(=O)C[C@H](C(C)C)C(=O)C1
REMARK SMILES IDX 8 1 9 2 6 3 7 4 5 5 4 6 3 7 2 8 1 9 10 11 11 12 15 13 16 14
REMARK SMILES IDX 17 15 12 17 13 18 14 19
REMARK H PARENT
REMARK Flexibility Score: 70.00
ROOT
ATOM      1  C   UNL     1     -12.917 -19.585  29.584  1.00  0.00     0.136 C 
ATOM      2  O   UNL     1     -13.982 -20.161  29.405  1.00  0.00    -0.299 OA
ENDROOT
BRANCH   1   3
ATOM      3  C   UNL     1     -12.471 -19.221  30.991  1.00  0.00     0.053 C 
ATOM      4  C   UNL     1     -12.494 -20.428  31.944  1.00  0.00     0.016 C 
BRANCH   3   5
ATOM      5  C   UNL     1     -13.289 -18.041  31.555  1.00  0.00     0.015 C 
BRANCH   5   6
ATOM      6  C   UNL     1     -12.589 -16.675  31.411  1.00  0.00     0.028 C 
BRANCH   6   7
ATOM      7  C   UNL     1     -13.356 -15.779  30.475  1.00  0.00    -0.028 C 
ATOM      8  C   UNL     1     -12.838 -15.195  29.369  1.00  0.00    -0.070 CG0
ATOM      9  C   UNL     1     -13.725 -14.270  28.575  1.00  0.00     0.039 C 
ATOM     10  G   UNL     1     -11.416 -15.447  28.887  1.00  0.00     0.000 G0
ENDBRANCH   6   7
ENDBRANCH   5   6
ENDBRANCH   3   5
ENDBRANCH   1   3
BRANCH   1  11
ATOM     11  C   UNL     1     -12.062 -19.243  28.388  1.00  0.00     0.087 C 
BRANCH  11  12
ATOM     12  C   UNL     1     -12.231 -17.763  27.953  1.00  0.00     0.066 C 
BRANCH  12  13
ATOM     13  C   UNL     1     -11.136 -16.883  28.541  1.00  0.00     0.140 C 
ATOM     14  O   UNL     1     -10.007 -17.329  28.687  1.00  0.00    -0.299 OA
BRANCH  13  15
ATOM     15  C   UNL     1     -11.406 -15.437  28.883  1.00  0.00     0.106 CG0
ATOM     16  G   UNL     1     -12.830 -15.212  29.372  1.00  0.00     0.000 G0
ENDBRANCH  13  15
ENDBRANCH  12  13
BRANCH  12  17
ATOM     17  C   UNL     1     -12.347 -17.620  26.404  1.00  0.00    -0.006 C 
ATOM     18  C   UNL     1     -11.034 -17.226  25.705  1.00  0.00     0.008 C 
ATOM     19  C   UNL     1     -13.469 -16.647  26.011  1.00  0.00     0.008 C 
ENDBRANCH  12  17
ENDBRANCH  11  12
ENDBRANCH   1  11
TORSDOF 1
ENDMDL
MODEL 7
REMARK VINA RESULT:    -2.895      1.537      3.689
REMARK INTER + INTRA:          -4.362
REMARK INTER:                  -4.992
REMARK INTRA:                   0.630
REMARK UNBOUND:                 0.055
REMARK SMILES CC1=CCC[C@@H](C)C(=O)C[C@H](C(C)C)C(=O)C1
REMARK SMILES IDX 8 1 9 2 6 3 7 4 5 5 4 6 3 7 2 8 1 9 10 11 11 12 15 13 16 14
REMARK SMILES IDX 17 15 12 17 13 18 14 19
REMARK H PARENT
REMARK Flexibility Score: 70.00
ROOT
ATOM      1  C   UNL     1     -11.462 -16.364  30.776  1.00  0.00     0.136 C 
ATOM      2  O   UNL     1     -10.762 -15.469  30.322  1.00  0.00    -0.299 OA
ENDROOT
BRANCH   1   3
ATOM      3  C   UNL     1     -10.849 -17.448  31.646  1.00  0.00     0.053 C 
ATOM      4  C   UNL     1      -9.875 -16.880  32.692  1.00  0.00     0.016 C 
BRANCH   3   5
ATOM      5  C   UNL     1     -10.182 -18.548  30.793  1.00  0.00     0.015 C 
BRANCH   5   6
ATOM      6  C   UNL     1     -11.076 -19.077  29.652  1.00  0.00     0.028 C 
BRANCH   6   7
ATOM      7  C   UNL     1     -10.699 -18.438  28.342  1.00  0.00    -0.028 C 
ATOM      8  C   UNL     1     -11.567 -17.811  27.513  1.00  0.00    -0.070 CG0
ATOM      9  C   UNL     1     -11.038 -17.283  26.203  1.00  0.00     0.039 C 
ATOM     10  G   UNL     1     -13.035 -17.602  27.854  1.00  0.00     0.000 G0
ENDBRANCH   6   7
ENDBRANCH   5   6
ENDBRANCH   3   5
ENDBRANCH   1   3
BRANCH   1  11
ATOM     11  C   UNL     1     -12.937 -16.372  30.454  1.00  0.00     0.087 C 
BRANCH  11  12
ATOM     12  C   UNL     1     -13.289 -15.392  29.304  1.00  0.00     0.066 C 
BRANCH  12  13
ATOM     13  C   UNL     1     -13.388 -16.116  27.969  1.00  0.00     0.140 C 
ATOM     14  O   UNL     1     -13.700 -15.497  26.960  1.00  0.00    -0.299 OA
BRANCH  13  15
ATOM     15  C   UNL     1     -13.038 -17.581  27.855  1.00  0.00     0.106 CG0
ATOM     16  G   UNL     1     -11.571 -17.803  27.518  1.00  0.00     0.000 G0
ENDBRANCH  13  15
ENDBRANCH  12  13
BRANCH  12  17
ATOM     17  C   UNL     1     -14.563 -14.550  29.624  1.00  0.00    -0.006 C 
ATOM     18  C   UNL     1     -14.652 -13.220  28.855  1.00  0.00     0.008 C 
ATOM     19  C   UNL     1     -14.707 -14.299  31.134  1.00  0.00     0.008 C 
ENDBRANCH  12  17
ENDBRANCH  11  12
ENDBRANCH   1  11
TORSDOF 1
ENDMDL
MODEL 8
REMARK VINA RESULT:    -2.702      2.137      4.987
REMARK INTER + INTRA:          -4.069
REMARK INTER:                  -5.224
REMARK INTRA:                   1.156
REMARK UNBOUND:                 0.055
REMARK SMILES CC1=CCC[C@@H](C)C(=O)C[C@H](C(C)C)C(=O)C1
REMARK SMILES IDX 8 1 9 2 6 3 7 4 5 5 4 6 3 7 2 8 1 9 10 11 11 12 15 13 16 14
REMARK SMILES IDX 17 15 12 17 13 18 14 19
REMARK H PARENT
REMARK Flexibility Score: 70.00
ROOT
ATOM      1  C   UNL     1     -10.175 -17.814  30.953  1.00  0.00     0.136 C 
ATOM      2  O   UNL     1      -9.912 -18.292  32.048  1.00  0.00    -0.299 OA
ENDROOT
BRANCH   1   3
ATOM      3  C   UNL     1      -9.883 -16.351  30.668  1.00  0.00     0.053 C 
ATOM      4  C   UNL     1     -10.085 -15.460  31.905  1.00  0.00     0.016 C 
BRANCH   3   5
ATOM      5  C   UNL     1     -10.698 -15.837  29.463  1.00  0.00     0.015 C 
BRANCH   5   6
ATOM      6  C   UNL     1     -12.124 -15.378  29.827  1.00  0.00     0.028 C 
BRANCH   6   7
ATOM      7  C   UNL     1     -12.967 -15.224  28.588  1.00  0.00    -0.028 C 
ATOM      8  C   UNL     1     -13.024 -16.124  27.579  1.00  0.00    -0.070 CG0
ATOM      9  C   UNL     1     -13.867 -15.786  26.376  1.00  0.00     0.039 C 
ATOM     10  G   UNL     1     -12.295 -17.460  27.616  1.00  0.00     0.000 G0
ENDBRANCH   6   7
ENDBRANCH   5   6
ENDBRANCH   3   5
ENDBRANCH   1   3
BRANCH   1  11
ATOM     11  C   UNL     1     -10.793 -18.700  29.898  1.00  0.00     0.087 C 
BRANCH  11  12
ATOM     12  C   UNL     1     -12.344 -18.665  29.941  1.00  0.00     0.066 C 
BRANCH  12  13
ATOM     13  C   UNL     1     -12.932 -18.440  28.555  1.00  0.00     0.140 C 
ATOM     14  O   UNL     1     -13.960 -19.016  28.228  1.00  0.00    -0.299 OA
BRANCH  13  15
ATOM     15  C   UNL     1     -12.302 -17.456  27.598  1.00  0.00     0.106 CG0
ATOM     16  G   UNL     1     -13.037 -16.124  27.566  1.00  0.00     0.000 G0
ENDBRANCH  13  15
ENDBRANCH  12  13
BRANCH  12  17
ATOM     17  C   UNL     1     -12.937 -19.925  30.646  1.00  0.00    -0.006 C 
ATOM     18  C   UNL     1     -12.875 -19.876  32.183  1.00  0.00     0.008 C 
ATOM     19  C   UNL     1     -12.286 -21.217  30.130  1.00  0.00     0.008 C 
ENDBRANCH  12  17
ENDBRANCH  11  12
ENDBRANCH   1  11
TORSDOF 1
ENDMDL
MODEL 9
REMARK VINA RESULT:    -2.683      1.967      4.032
REMARK INTER + INTRA:          -4.040
REMARK INTER:                  -5.332
REMARK INTRA:                   1.292
REMARK UNBOUND:                 0.055
REMARK SMILES CC1=CCC[C@@H](C)C(=O)C[C@H](C(C)C)C(=O)C1
REMARK SMILES IDX 8 1 9 2 6 3 7 4 5 5 4 6 3 7 2 8 1 9 10 11 11 12 15 13 16 14
REMARK SMILES IDX 17 15 12 17 13 18 14 19
REMARK H PARENT
REMARK Flexibility Score: 70.00
ROOT
ATOM      1  C   UNL     1     -13.580 -15.401  30.842  1.00  0.00     0.136 C 
ATOM      2  O   UNL     1     -13.723 -15.195  32.039  1.00  0.00    -0.299 OA
ENDROOT
BRANCH   1   3
ATOM      3  C   UNL     1     -13.732 -14.263  29.846  1.00  0.00     0.053 C 
ATOM      4  C   UNL     1     -15.199 -13.845  29.652  1.00  0.00     0.016 C 
BRANCH   3   5
ATOM      5  C   UNL     1     -13.056 -14.596  28.500  1.00  0.00     0.015 C 
BRANCH   5   6
ATOM      6  C   UNL     1     -13.645 -15.837  27.799  1.00  0.00     0.028 C 
BRANCH   6   7
ATOM      7  C   UNL     1     -12.647 -16.430  26.840  1.00  0.00    -0.028 C 
ATOM      8  C   UNL     1     -11.936 -17.560  27.067  1.00  0.00    -0.070 CG0
ATOM      9  C   UNL     1     -10.926 -17.982  26.031  1.00  0.00     0.039 C 
ATOM     10  G   UNL     1     -12.128 -18.425  28.305  1.00  0.00     0.000 G0
ENDBRANCH   6   7
ENDBRANCH   5   6
ENDBRANCH   3   5
ENDBRANCH   1   3
BRANCH   1  11
ATOM     11  C   UNL     1     -13.255 -16.800  30.375  1.00  0.00     0.087 C 
BRANCH  11  12
ATOM     12  C   UNL     1     -11.762 -17.158  30.596  1.00  0.00     0.066 C 
BRANCH  12  13
ATOM     13  C   UNL     1     -11.214 -17.991  29.447  1.00  0.00     0.140 C 
ATOM     14  O   UNL     1     -10.052 -18.370  29.467  1.00  0.00    -0.299 OA
BRANCH  13  15
ATOM     15  C   UNL     1     -12.108 -18.421  28.307  1.00  0.00     0.106 CG0
ATOM     16  G   UNL     1     -11.937 -17.547  27.073  1.00  0.00     0.000 G0
ENDBRANCH  13  15
ENDBRANCH  12  13
BRANCH  12  17
ATOM     17  C   UNL     1     -10.895 -15.893  30.885  1.00  0.00    -0.006 C 
ATOM     18  C   UNL     1     -10.014 -15.447  29.704  1.00  0.00     0.008 C 
ATOM     19  C   UNL     1     -10.037 -16.074  32.147  1.00  0.00     0.008 C 
ENDBRANCH  12  17
ENDBRANCH  11  12
ENDBRANCH   1  11
TORSDOF 1
ENDMDL
