MODEL 1
REMARK VINA RESULT:    35.488      0.000      0.000
REMARK INTER + INTRA:          64.870
REMARK INTER:                  61.421
REMARK INTRA:                   3.450
REMARK UNBOUND:                 3.450
REMARK SMILES OC[C@@H]1O[C@@H](O[C@H]2[C@H](O)[C@H](O)[C@@H](O[C@@H]3[C@@H](O)[C@@H](O)[C@@H](O)O[C@H]3CO)O[C@H]2CO)[C@H](O)[C@@H](O)[C@H]1O
REMARK SMILES IDX 7 1 26 2 25 3 12 4 10 5 8 6 6 7 5 8 3 9 33 10 4 11 31 12
REMARK SMILES IDX 29 13 2 14 1 15 34 17 32 19 30 21 27 23 28 24 9 26 11 28
REMARK SMILES IDX 13 30 14 31 22 32 15 33 21 34 17 35 19 36 23 37 24 38 16 40
REMARK SMILES IDX 18 42 20 44
REMARK H PARENT 1 16 34 18 32 20 30 22 28 25 9 27 11 29 24 39 16 41 18 43
REMARK H PARENT 20 45
REMARK Flexibility Score: inf
ROOT
ATOM      1  C   UNL     1      18.107  27.101  11.989  1.00  0.00     0.184 C 
ATOM      2  C   UNL     1      18.853  26.521  10.760  1.00  0.00     0.178 C 
ATOM      3  O   UNL     1      20.186  26.226  11.120  1.00  0.00    -0.341 OA
ATOM      4  C   UNL     1      20.975  27.386  11.402  1.00  0.00     0.282 C 
ATOM      5  C   UNL     1      20.160  28.660  11.773  1.00  0.00     0.202 C 
ATOM      6  C   UNL     1      18.920  28.272  12.616  1.00  0.00     0.180 C 
ENDROOT
BRANCH   1   7
ATOM      7  O   UNL     1      17.977  26.086  12.976  1.00  0.00    -0.341 OA
BRANCH   7   8
ATOM      8  C   UNL     1      16.650  25.597  13.085  1.00  0.00     0.282 C 
ATOM      9  C   UNL     1      15.700  27.523  12.111  1.00  0.00     0.178 C 
ATOM     10  C   UNL     1      15.047  27.976  13.439  1.00  0.00     0.177 C 
ATOM     11  O   UNL     1      15.816  26.108  12.052  1.00  0.00    -0.341 OA
ATOM     12  C   UNL     1      15.863  27.446  14.634  1.00  0.00     0.179 C 
ATOM     13  C   UNL     1      16.087  25.931  14.482  1.00  0.00     0.202 C 
BRANCH   9  14
ATOM     14  C   UNL     1      14.883  27.995  10.898  1.00  0.00     0.191 C 
BRANCH  14  15
ATOM     15  O   UNL     1      15.503  27.614   9.697  1.00  0.00    -0.394 OA
ATOM     16  H   UNL     1      16.280  28.218   9.568  1.00  0.00     0.210 HD
ENDBRANCH  14  15
ENDBRANCH   9  14
BRANCH  10  17
ATOM     17  O   UNL     1      14.972  29.378  13.483  1.00  0.00    -0.387 OA
ATOM     18  H   UNL     1      14.612  29.617  14.377  1.00  0.00     0.211 HD
ENDBRANCH  10  17
BRANCH  12  19
ATOM     19  O   UNL     1      17.105  28.100  14.715  1.00  0.00    -0.387 OA
ATOM     20  H   UNL     1      17.228  28.379  15.659  1.00  0.00     0.211 HD
ENDBRANCH  12  19
BRANCH  13  21
ATOM     21  O   UNL     1      14.876  25.243  14.666  1.00  0.00    -0.385 OA
ATOM     22  H   UNL     1      14.680  24.776  13.812  1.00  0.00     0.211 HD
ENDBRANCH  13  21
ENDBRANCH   7   8
ENDBRANCH   1   7
BRANCH   2  23
ATOM     23  C   UNL     1      18.196  25.248  10.211  1.00  0.00     0.191 C 
BRANCH  23  24
ATOM     24  O   UNL     1      16.802  25.384  10.224  1.00  0.00    -0.394 OA
ATOM     25  H   UNL     1      16.617  26.353  10.121  1.00  0.00     0.210 HD
ENDBRANCH  23  24
ENDBRANCH   2  23
BRANCH   6  26
ATOM     26  O   UNL     1      18.105  29.399  12.813  1.00  0.00    -0.387 OA
ATOM     27  H   UNL     1      18.691  30.118  13.171  1.00  0.00     0.211 HD
ENDBRANCH   6  26
BRANCH   5  28
ATOM     28  O   UNL     1      19.858  29.397  10.605  1.00  0.00    -0.385 OA
ATOM     29  H   UNL     1      20.587  29.303   9.940  1.00  0.00     0.211 HD
ENDBRANCH   5  28
BRANCH   4  30
ATOM     30  O   UNL     1      21.847  27.110  12.485  1.00  0.00    -0.341 OA
BRANCH  30  31
ATOM     31  C   UNL     1      22.589  28.255  12.881  1.00  0.00     0.184 C 
ATOM     32  C   UNL     1      23.884  27.777  13.588  1.00  0.00     0.178 C 
ATOM     33  C   UNL     1      22.933  29.109  11.625  1.00  0.00     0.180 C 
ATOM     34  O   UNL     1      24.861  28.798  13.549  1.00  0.00    -0.342 OA
ATOM     35  C   UNL     1      24.350  28.810  11.107  1.00  0.00     0.201 C 
ATOM     36  C   UNL     1      25.411  28.944  12.246  1.00  0.00     0.279 C 
BRANCH  32  37
ATOM     37  C   UNL     1      23.619  27.374  15.048  1.00  0.00     0.191 C 
BRANCH  37  38
ATOM     38  O   UNL     1      22.745  26.279  15.125  1.00  0.00    -0.394 OA
ATOM     39  H   UNL     1      22.989  25.665  14.385  1.00  0.00     0.210 HD
ENDBRANCH  37  38
ENDBRANCH  32  37
BRANCH  33  40
ATOM     40  O   UNL     1      22.768  30.484  11.879  1.00  0.00    -0.387 OA
ATOM     41  H   UNL     1      21.909  30.773  11.474  1.00  0.00     0.211 HD
ENDBRANCH  33  40
BRANCH  35  42
ATOM     42  O   UNL     1      24.648  29.646  10.017  1.00  0.00    -0.385 OA
ATOM     43  H   UNL     1      24.151  30.493  10.164  1.00  0.00     0.211 HD
ENDBRANCH  35  42
BRANCH  36  44
ATOM     44  O   UNL     1      26.029  30.206  12.184  1.00  0.00    -0.366 OA
ATOM     45  H   UNL     1      25.720  30.643  11.349  1.00  0.00     0.213 HD
ENDBRANCH  36  44
ENDBRANCH  30  31
ENDBRANCH   4  30
TORSDOF 18
ENDMDL
MODEL 2
REMARK VINA RESULT:    35.969      3.618      7.960
REMARK INTER + INTRA:          65.703
REMARK INTER:                  67.183
REMARK INTRA:                  -1.480
REMARK UNBOUND:                 3.450
REMARK SMILES OC[C@@H]1O[C@@H](O[C@H]2[C@H](O)[C@H](O)[C@@H](O[C@@H]3[C@@H](O)[C@@H](O)[C@@H](O)O[C@H]3CO)O[C@H]2CO)[C@H](O)[C@@H](O)[C@H]1O
REMARK SMILES IDX 7 1 26 2 25 3 12 4 10 5 8 6 6 7 5 8 3 9 33 10 4 11 31 12
REMARK SMILES IDX 29 13 2 14 1 15 34 17 32 19 30 21 27 23 28 24 9 26 11 28
REMARK SMILES IDX 13 30 14 31 22 32 15 33 21 34 17 35 19 36 23 37 24 38 16 40
REMARK SMILES IDX 18 42 20 44
REMARK H PARENT 1 16 34 18 32 20 30 22 28 25 9 27 11 29 24 39 16 41 18 43
REMARK H PARENT 20 45
REMARK Flexibility Score: inf
ROOT
ATOM      1  C   UNL     1      21.240  28.196   8.510  1.00  0.00     0.184 C 
ATOM      2  C   UNL     1      21.893  27.913   9.888  1.00  0.00     0.178 C 
ATOM      3  O   UNL     1      21.098  26.988  10.600  1.00  0.00    -0.341 OA
ATOM      4  C   UNL     1      19.826  27.510  10.997  1.00  0.00     0.282 C 
ATOM      5  C   UNL     1      19.333  28.736  10.174  1.00  0.00     0.202 C 
ATOM      6  C   UNL     1      19.740  28.577   8.687  1.00  0.00     0.180 C 
ENDROOT
BRANCH   1   7
ATOM      7  O   UNL     1      21.296  27.015   7.718  1.00  0.00    -0.341 OA
BRANCH   7   8
ATOM      8  C   UNL     1      21.933  27.227   6.469  1.00  0.00     0.282 C 
ATOM      9  C   UNL     1      20.241  26.128   5.248  1.00  0.00     0.178 C 
ATOM     10  C   UNL     1      21.160  24.938   4.882  1.00  0.00     0.177 C 
ATOM     11  O   UNL     1      20.990  27.325   5.409  1.00  0.00    -0.341 OA
ATOM     12  C   UNL     1      22.245  24.761   5.961  1.00  0.00     0.179 C 
ATOM     13  C   UNL     1      22.957  26.101   6.211  1.00  0.00     0.202 C 
BRANCH   9  14
ATOM     14  C   UNL     1      19.174  26.364   4.166  1.00  0.00     0.191 C 
BRANCH  14  15
ATOM     15  O   UNL     1      17.882  26.296   4.713  1.00  0.00    -0.394 OA
ATOM     16  H   UNL     1      17.886  25.556   5.374  1.00  0.00     0.210 HD
ENDBRANCH  14  15
ENDBRANCH   9  14
BRANCH  10  17
ATOM     17  O   UNL     1      20.398  23.765   4.760  1.00  0.00    -0.387 OA
ATOM     18  H   UNL     1      19.577  23.899   5.301  1.00  0.00     0.211 HD
ENDBRANCH  10  17
BRANCH  12  19
ATOM     19  O   UNL     1      21.679  24.298   7.162  1.00  0.00    -0.387 OA
ATOM     20  H   UNL     1      20.730  24.587   7.170  1.00  0.00     0.211 HD
ENDBRANCH  12  19
BRANCH  13  21
ATOM     21  O   UNL     1      23.746  26.444   5.100  1.00  0.00    -0.385 OA
ATOM     22  H   UNL     1      24.224  27.282   5.337  1.00  0.00     0.211 HD
ENDBRANCH  13  21
ENDBRANCH   7   8
ENDBRANCH   1   7
BRANCH   2  23
ATOM     23  C   UNL     1      23.316  27.352   9.768  1.00  0.00     0.191 C 
BRANCH  23  24
ATOM     24  O   UNL     1      24.150  27.955  10.717  1.00  0.00    -0.394 OA
ATOM     25  H   UNL     1      24.959  27.385  10.777  1.00  0.00     0.210 HD
ENDBRANCH  23  24
ENDBRANCH   2  23
BRANCH   6  26
ATOM     26  O   UNL     1      19.436  29.752   7.981  1.00  0.00    -0.387 OA
ATOM     27  H   UNL     1      19.373  30.483   8.652  1.00  0.00     0.211 HD
ENDBRANCH   6  26
BRANCH   5  28
ATOM     28  O   UNL     1      19.786  29.934  10.772  1.00  0.00    -0.385 OA
ATOM     29  H   UNL     1      19.682  29.887  11.757  1.00  0.00     0.211 HD
ENDBRANCH   5  28
BRANCH   4  30
ATOM     30  O   UNL     1      18.843  26.495  10.877  1.00  0.00    -0.341 OA
BRANCH  30  31
ATOM     31  C   UNL     1      17.591  26.898  11.412  1.00  0.00     0.184 C 
ATOM     32  C   UNL     1      16.554  25.782  11.120  1.00  0.00     0.178 C 
ATOM     33  C   UNL     1      17.731  27.128  12.946  1.00  0.00     0.180 C 
ATOM     34  O   UNL     1      15.472  25.878  12.024  1.00  0.00    -0.342 OA
ATOM     35  C   UNL     1      17.276  25.896  13.747  1.00  0.00     0.201 C 
ATOM     36  C   UNL     1      15.840  25.444  13.327  1.00  0.00     0.279 C 
BRANCH  32  37
ATOM     37  C   UNL     1      16.027  25.859   9.677  1.00  0.00     0.191 C 
BRANCH  37  38
ATOM     38  O   UNL     1      14.985  26.792   9.564  1.00  0.00    -0.394 OA
ATOM     39  H   UNL     1      14.235  26.452  10.118  1.00  0.00     0.210 HD
ENDBRANCH  37  38
ENDBRANCH  32  37
BRANCH  33  40
ATOM     40  O   UNL     1      17.039  28.283  13.357  1.00  0.00    -0.387 OA
ATOM     41  H   UNL     1      16.277  28.001  13.928  1.00  0.00     0.211 HD
ENDBRANCH  33  40
BRANCH  35  42
ATOM     42  O   UNL     1      17.353  26.166  15.125  1.00  0.00    -0.385 OA
ATOM     43  H   UNL     1      17.013  27.090  15.253  1.00  0.00     0.211 HD
ENDBRANCH  35  42
BRANCH  36  44
ATOM     44  O   UNL     1      14.890  25.953  14.230  1.00  0.00    -0.366 OA
ATOM     45  H   UNL     1      14.485  25.177  14.699  1.00  0.00     0.213 HD
ENDBRANCH  36  44
ENDBRANCH  30  31
ENDBRANCH   4  30
TORSDOF 18
ENDMDL
MODEL 3
REMARK VINA RESULT:    36.019      1.001      1.947
REMARK INTER + INTRA:          65.790
REMARK INTER:                  62.698
REMARK INTRA:                   3.092
REMARK UNBOUND:                 3.450
REMARK SMILES OC[C@@H]1O[C@@H](O[C@H]2[C@H](O)[C@H](O)[C@@H](O[C@@H]3[C@@H](O)[C@@H](O)[C@@H](O)O[C@H]3CO)O[C@H]2CO)[C@H](O)[C@@H](O)[C@H]1O
REMARK SMILES IDX 7 1 26 2 25 3 12 4 10 5 8 6 6 7 5 8 3 9 33 10 4 11 31 12
REMARK SMILES IDX 29 13 2 14 1 15 34 17 32 19 30 21 27 23 28 24 9 26 11 28
REMARK SMILES IDX 13 30 14 31 22 32 15 33 21 34 17 35 19 36 23 37 24 38 16 40
REMARK SMILES IDX 18 42 20 44
REMARK H PARENT 1 16 34 18 32 20 30 22 28 25 9 27 11 29 24 39 16 41 18 43
REMARK H PARENT 20 45
REMARK Flexibility Score: inf
ROOT
ATOM      1  C   UNL     1      18.141  27.157  11.981  1.00  0.00     0.184 C 
ATOM      2  C   UNL     1      18.977  26.557  10.820  1.00  0.00     0.178 C 
ATOM      3  O   UNL     1      20.307  26.365  11.255  1.00  0.00    -0.341 OA
ATOM      4  C   UNL     1      21.011  27.585  11.503  1.00  0.00     0.282 C 
ATOM      5  C   UNL     1      20.107  28.825  11.764  1.00  0.00     0.202 C 
ATOM      6  C   UNL     1      18.854  28.408  12.574  1.00  0.00     0.180 C 
ENDROOT
BRANCH   1   7
ATOM      7  O   UNL     1      18.026  26.191  13.018  1.00  0.00    -0.341 OA
BRANCH   7   8
ATOM      8  C   UNL     1      16.718  25.651  13.118  1.00  0.00     0.282 C 
ATOM      9  C   UNL     1      15.712  27.496  12.048  1.00  0.00     0.178 C 
ATOM     10  C   UNL     1      15.009  27.971  13.342  1.00  0.00     0.177 C 
ATOM     11  O   UNL     1      15.888  26.085  12.048  1.00  0.00    -0.341 OA
ATOM     12  C   UNL     1      15.818  27.523  14.574  1.00  0.00     0.179 C 
ATOM     13  C   UNL     1      16.109  26.015  14.488  1.00  0.00     0.202 C 
BRANCH   9  14
ATOM     14  C   UNL     1      14.904  27.884  10.799  1.00  0.00     0.191 C 
BRANCH  14  15
ATOM     15  O   UNL     1      14.903  26.842   9.857  1.00  0.00    -0.394 OA
ATOM     16  H   UNL     1      13.977  26.769   9.507  1.00  0.00     0.210 HD
ENDBRANCH  14  15
ENDBRANCH   9  14
BRANCH  10  17
ATOM     17  O   UNL     1      14.875  29.369  13.329  1.00  0.00    -0.387 OA
ATOM     18  H   UNL     1      15.493  29.709  12.630  1.00  0.00     0.211 HD
ENDBRANCH  10  17
BRANCH  12  19
ATOM     19  O   UNL     1      17.030  28.232  14.656  1.00  0.00    -0.387 OA
ATOM     20  H   UNL     1      17.213  28.389  15.619  1.00  0.00     0.211 HD
ENDBRANCH  12  19
BRANCH  13  21
ATOM     21  O   UNL     1      14.924  25.283  14.673  1.00  0.00    -0.385 OA
ATOM     22  H   UNL     1      14.508  25.620  15.509  1.00  0.00     0.211 HD
ENDBRANCH  13  21
ENDBRANCH   7   8
ENDBRANCH   1   7
BRANCH   2  23
ATOM     23  C   UNL     1      18.423  25.218  10.318  1.00  0.00     0.191 C 
BRANCH  23  24
ATOM     24  O   UNL     1      17.045  25.326  10.087  1.00  0.00    -0.394 OA
ATOM     25  H   UNL     1      16.848  24.744   9.309  1.00  0.00     0.210 HD
ENDBRANCH  23  24
ENDBRANCH   2  23
BRANCH   6  26
ATOM     26  O   UNL     1      17.966  29.492  12.671  1.00  0.00    -0.387 OA
ATOM     27  H   UNL     1      18.098  29.892  13.571  1.00  0.00     0.211 HD
ENDBRANCH   6  26
BRANCH   5  28
ATOM     28  O   UNL     1      19.817  29.477  10.544  1.00  0.00    -0.385 OA
ATOM     29  H   UNL     1      19.942  28.855   9.783  1.00  0.00     0.211 HD
ENDBRANCH   5  28
BRANCH   4  30
ATOM     30  O   UNL     1      21.848  27.423  12.637  1.00  0.00    -0.341 OA
BRANCH  30  31
ATOM     31  C   UNL     1      23.199  27.760  12.359  1.00  0.00     0.184 C 
ATOM     32  C   UNL     1      23.271  28.342  10.923  1.00  0.00     0.178 C 
ATOM     33  C   UNL     1      23.697  28.806  13.400  1.00  0.00     0.180 C 
ATOM     34  O   UNL     1      24.434  29.133  10.779  1.00  0.00    -0.342 OA
ATOM     35  C   UNL     1      23.599  30.240  12.853  1.00  0.00     0.201 C 
ATOM     36  C   UNL     1      24.311  30.371  11.468  1.00  0.00     0.279 C 
BRANCH  32  37
ATOM     37  C   UNL     1      23.269  27.232   9.859  1.00  0.00     0.191 C 
BRANCH  37  38
ATOM     38  O   UNL     1      22.219  27.402   8.944  1.00  0.00    -0.394 OA
ATOM     39  H   UNL     1      21.642  28.126   9.302  1.00  0.00     0.210 HD
ENDBRANCH  37  38
ENDBRANCH  32  37
BRANCH  33  40
ATOM     40  O   UNL     1      25.006  28.517  13.830  1.00  0.00    -0.387 OA
ATOM     41  H   UNL     1      25.608  29.230  13.491  1.00  0.00     0.211 HD
ENDBRANCH  33  40
BRANCH  35  42
ATOM     42  O   UNL     1      24.120  31.147  13.793  1.00  0.00    -0.385 OA
ATOM     43  H   UNL     1      23.611  31.993  13.683  1.00  0.00     0.211 HD
ENDBRANCH  35  42
BRANCH  36  44
ATOM     44  O   UNL     1      25.606  30.893  11.638  1.00  0.00    -0.366 OA
ATOM     45  H   UNL     1      26.063  30.836  10.759  1.00  0.00     0.213 HD
ENDBRANCH  36  44
ENDBRANCH  30  31
ENDBRANCH   4  30
TORSDOF 18
ENDMDL
MODEL 4
REMARK VINA RESULT:    36.780      3.721      5.576
REMARK INTER + INTRA:          67.106
REMARK INTER:                  67.788
REMARK INTRA:                  -0.682
REMARK UNBOUND:                 3.450
REMARK SMILES OC[C@@H]1O[C@@H](O[C@H]2[C@H](O)[C@H](O)[C@@H](O[C@@H]3[C@@H](O)[C@@H](O)[C@@H](O)O[C@H]3CO)O[C@H]2CO)[C@H](O)[C@@H](O)[C@H]1O
REMARK SMILES IDX 7 1 26 2 25 3 12 4 10 5 8 6 6 7 5 8 3 9 33 10 4 11 31 12
REMARK SMILES IDX 29 13 2 14 1 15 34 17 32 19 30 21 27 23 28 24 9 26 11 28
REMARK SMILES IDX 13 30 14 31 22 32 15 33 21 34 17 35 19 36 23 37 24 38 16 40
REMARK SMILES IDX 18 42 20 44
REMARK H PARENT 1 16 34 18 32 20 30 22 28 25 9 27 11 29 24 39 16 41 18 43
REMARK H PARENT 20 45
REMARK Flexibility Score: inf
ROOT
ATOM      1  C   UNL     1      19.561  28.117  10.663  1.00  0.00     0.184 C 
ATOM      2  C   UNL     1      20.064  28.926   9.439  1.00  0.00     0.178 C 
ATOM      3  O   UNL     1      20.675  28.047   8.518  1.00  0.00    -0.341 OA
ATOM      4  C   UNL     1      21.897  27.474   8.995  1.00  0.00     0.282 C 
ATOM      5  C   UNL     1      22.067  27.481  10.542  1.00  0.00     0.202 C 
ATOM      6  C   UNL     1      20.702  27.219  11.228  1.00  0.00     0.180 C 
ENDROOT
BRANCH   1   7
ATOM      7  O   UNL     1      18.502  27.262  10.251  1.00  0.00    -0.341 OA
BRANCH   7   8
ATOM      8  C   UNL     1      17.222  27.830  10.483  1.00  0.00     0.282 C 
ATOM      9  C   UNL     1      17.236  27.302  12.781  1.00  0.00     0.178 C 
ATOM     10  C   UNL     1      16.120  26.241  12.630  1.00  0.00     0.177 C 
ATOM     11  O   UNL     1      17.102  28.330  11.809  1.00  0.00    -0.341 OA
ATOM     12  C   UNL     1      16.143  25.652  11.207  1.00  0.00     0.179 C 
ATOM     13  C   UNL     1      16.127  26.788  10.171  1.00  0.00     0.202 C 
BRANCH   9  14
ATOM     14  C   UNL     1      17.210  27.946  14.177  1.00  0.00     0.191 C 
BRANCH  14  15
ATOM     15  O   UNL     1      17.827  27.113  15.125  1.00  0.00    -0.394 OA
ATOM     16  H   UNL     1      18.764  27.428  15.221  1.00  0.00     0.210 HD
ENDBRANCH  14  15
ENDBRANCH   9  14
BRANCH  10  17
ATOM     17  O   UNL     1      16.294  25.223  13.582  1.00  0.00    -0.387 OA
ATOM     18  H   UNL     1      17.163  25.396  14.030  1.00  0.00     0.211 HD
ENDBRANCH  10  17
BRANCH  12  19
ATOM     19  O   UNL     1      17.288  24.857  11.018  1.00  0.00    -0.387 OA
ATOM     20  H   UNL     1      16.990  24.009  10.598  1.00  0.00     0.211 HD
ENDBRANCH  12  19
BRANCH  13  21
ATOM     21  O   UNL     1      14.875  27.424  10.170  1.00  0.00    -0.385 OA
ATOM     22  H   UNL     1      14.866  28.037   9.388  1.00  0.00     0.211 HD
ENDBRANCH  13  21
ENDBRANCH   7   8
ENDBRANCH   1   7
BRANCH   2  23
ATOM     23  C   UNL     1      18.939  29.686   8.726  1.00  0.00     0.191 C 
BRANCH  23  24
ATOM     24  O   UNL     1      19.158  29.679   7.342  1.00  0.00    -0.394 OA
ATOM     25  H   UNL     1      18.511  29.031   6.962  1.00  0.00     0.210 HD
ENDBRANCH  23  24
ENDBRANCH   2  23
BRANCH   6  26
ATOM     26  O   UNL     1      20.828  27.383  12.617  1.00  0.00    -0.387 OA
ATOM     27  H   UNL     1      21.437  26.667  12.937  1.00  0.00     0.211 HD
ENDBRANCH   6  26
BRANCH   5  28
ATOM     28  O   UNL     1      22.701  28.676  10.953  1.00  0.00    -0.385 OA
ATOM     29  H   UNL     1      22.028  29.386  11.111  1.00  0.00     0.211 HD
ENDBRANCH   5  28
BRANCH   4  30
ATOM     30  O   UNL     1      21.984  26.126   8.564  1.00  0.00    -0.341 OA
BRANCH  30  31
ATOM     31  C   UNL     1      22.429  26.022   7.219  1.00  0.00     0.184 C 
ATOM     32  C   UNL     1      22.356  24.532   6.796  1.00  0.00     0.178 C 
ATOM     33  C   UNL     1      21.523  26.897   6.303  1.00  0.00     0.180 C 
ATOM     34  O   UNL     1      22.296  24.431   5.387  1.00  0.00    -0.342 OA
ATOM     35  C   UNL     1      20.422  26.061   5.630  1.00  0.00     0.201 C 
ATOM     36  C   UNL     1      21.022  24.822   4.890  1.00  0.00     0.279 C 
BRANCH  32  37
ATOM     37  C   UNL     1      23.562  23.733   7.316  1.00  0.00     0.191 C 
BRANCH  37  38
ATOM     38  O   UNL     1      24.473  24.563   7.989  1.00  0.00    -0.394 OA
ATOM     39  H   UNL     1      25.168  24.819   7.329  1.00  0.00     0.210 HD
ENDBRANCH  37  38
ENDBRANCH  32  37
BRANCH  33  40
ATOM     40  O   UNL     1      22.284  27.596   5.346  1.00  0.00    -0.387 OA
ATOM     41  H   UNL     1      22.510  26.968   4.612  1.00  0.00     0.211 HD
ENDBRANCH  33  40
BRANCH  35  42
ATOM     42  O   UNL     1      19.669  26.870   4.761  1.00  0.00    -0.385 OA
ATOM     43  H   UNL     1      19.020  26.272   4.306  1.00  0.00     0.211 HD
ENDBRANCH  35  42
BRANCH  36  44
ATOM     44  O   UNL     1      21.167  25.101   3.519  1.00  0.00    -0.366 OA
ATOM     45  H   UNL     1      21.487  24.269   3.082  1.00  0.00     0.213 HD
ENDBRANCH  36  44
ENDBRANCH  30  31
ENDBRANCH   4  30
TORSDOF 18
ENDMDL
MODEL 5
REMARK VINA RESULT:    38.143      1.575      3.310
REMARK INTER + INTRA:          69.466
REMARK INTER:                  64.390
REMARK INTRA:                   5.076
REMARK UNBOUND:                 3.450
REMARK SMILES OC[C@@H]1O[C@@H](O[C@H]2[C@H](O)[C@H](O)[C@@H](O[C@@H]3[C@@H](O)[C@@H](O)[C@@H](O)O[C@H]3CO)O[C@H]2CO)[C@H](O)[C@@H](O)[C@H]1O
REMARK SMILES IDX 7 1 26 2 25 3 12 4 10 5 8 6 6 7 5 8 3 9 33 10 4 11 31 12
REMARK SMILES IDX 29 13 2 14 1 15 34 17 32 19 30 21 27 23 28 24 9 26 11 28
REMARK SMILES IDX 13 30 14 31 22 32 15 33 21 34 17 35 19 36 23 37 24 38 16 40
REMARK SMILES IDX 18 42 20 44
REMARK H PARENT 1 16 34 18 32 20 30 22 28 25 9 27 11 29 24 39 16 41 18 43
REMARK H PARENT 20 45
REMARK Flexibility Score: inf
ROOT
ATOM      1  C   UNL     1      18.414  27.351  12.687  1.00  0.00     0.184 C 
ATOM      2  C   UNL     1      19.511  26.547  13.433  1.00  0.00     0.178 C 
ATOM      3  O   UNL     1      20.755  27.196  13.271  1.00  0.00    -0.341 OA
ATOM      4  C   UNL     1      21.249  27.163  11.929  1.00  0.00     0.282 C 
ATOM      5  C   UNL     1      20.168  26.916  10.836  1.00  0.00     0.202 C 
ATOM      6  C   UNL     1      18.851  27.635  11.220  1.00  0.00     0.180 C 
ENDROOT
BRANCH   1   7
ATOM      7  O   UNL     1      18.234  28.603  13.337  1.00  0.00    -0.341 OA
BRANCH   7   8
ATOM      8  C   UNL     1      17.000  28.684  14.032  1.00  0.00     0.282 C 
ATOM      9  C   UNL     1      16.191  26.656  13.141  1.00  0.00     0.178 C 
ATOM     10  C   UNL     1      15.114  27.364  12.285  1.00  0.00     0.177 C 
ATOM     11  O   UNL     1      16.476  27.395  14.322  1.00  0.00    -0.341 OA
ATOM     12  C   UNL     1      15.574  28.793  11.937  1.00  0.00     0.179 C 
ATOM     13  C   UNL     1      15.999  29.531  13.218  1.00  0.00     0.202 C 
BRANCH   9  14
ATOM     14  C   UNL     1      15.742  25.243  13.548  1.00  0.00     0.191 C 
BRANCH  14  15
ATOM     15  O   UNL     1      15.175  25.248  14.833  1.00  0.00    -0.394 OA
ATOM     16  H   UNL     1      14.454  24.565  14.833  1.00  0.00     0.210 HD
ENDBRANCH  14  15
ENDBRANCH   9  14
BRANCH  10  17
ATOM     17  O   UNL     1      14.875  26.630  11.112  1.00  0.00    -0.387 OA
ATOM     18  H   UNL     1      13.896  26.657  10.952  1.00  0.00     0.211 HD
ENDBRANCH  10  17
BRANCH  12  19
ATOM     19  O   UNL     1      16.650  28.761  11.033  1.00  0.00    -0.387 OA
ATOM     20  H   UNL     1      16.322  29.133  10.173  1.00  0.00     0.211 HD
ENDBRANCH  12  19
BRANCH  13  21
ATOM     21  O   UNL     1      14.875  29.805  14.014  1.00  0.00    -0.385 OA
ATOM     22  H   UNL     1      14.638  30.756  13.856  1.00  0.00     0.211 HD
ENDBRANCH  13  21
ENDBRANCH   7   8
ENDBRANCH   1   7
BRANCH   2  23
ATOM     23  C   UNL     1      19.224  26.396  14.932  1.00  0.00     0.191 C 
BRANCH  23  24
ATOM     24  O   UNL     1      18.104  25.578  15.125  1.00  0.00    -0.394 OA
ATOM     25  H   UNL     1      17.424  25.877  14.468  1.00  0.00     0.210 HD
ENDBRANCH  23  24
ENDBRANCH   2  23
BRANCH   6  26
ATOM     26  O   UNL     1      17.835  27.283  10.318  1.00  0.00    -0.387 OA
ATOM     27  H   UNL     1      17.846  27.962   9.592  1.00  0.00     0.211 HD
ENDBRANCH   6  26
BRANCH   5  28
ATOM     28  O   UNL     1      20.024  25.530  10.603  1.00  0.00    -0.385 OA
ATOM     29  H   UNL     1      19.712  25.368   9.676  1.00  0.00     0.211 HD
ENDBRANCH   5  28
BRANCH   4  30
ATOM     30  O   UNL     1      21.882  28.396  11.630  1.00  0.00    -0.341 OA
BRANCH  30  31
ATOM     31  C   UNL     1      23.295  28.316  11.751  1.00  0.00     0.184 C 
ATOM     32  C   UNL     1      23.922  28.626  10.367  1.00  0.00     0.178 C 
ATOM     33  C   UNL     1      23.783  29.343  12.816  1.00  0.00     0.180 C 
ATOM     34  O   UNL     1      25.261  29.048  10.525  1.00  0.00    -0.342 OA
ATOM     35  C   UNL     1      24.269  30.648  12.163  1.00  0.00     0.201 C 
ATOM     36  C   UNL     1      25.333  30.367  11.054  1.00  0.00     0.279 C 
BRANCH  32  37
ATOM     37  C   UNL     1      23.876  27.403   9.436  1.00  0.00     0.191 C 
BRANCH  37  38
ATOM     38  O   UNL     1      22.557  27.078   9.083  1.00  0.00    -0.394 OA
ATOM     39  H   UNL     1      22.178  26.558   9.838  1.00  0.00     0.210 HD
ENDBRANCH  37  38
ENDBRANCH  32  37
BRANCH  33  40
ATOM     40  O   UNL     1      24.780  28.790  13.643  1.00  0.00    -0.387 OA
ATOM     41  H   UNL     1      25.246  29.534  14.105  1.00  0.00     0.211 HD
ENDBRANCH  33  40
BRANCH  35  42
ATOM     42  O   UNL     1      24.763  31.521  13.148  1.00  0.00    -0.385 OA
ATOM     43  H   UNL     1      24.372  31.226  14.012  1.00  0.00     0.211 HD
ENDBRANCH  35  42
BRANCH  36  44
ATOM     44  O   UNL     1      26.628  30.549  11.570  1.00  0.00    -0.366 OA
ATOM     45  H   UNL     1      27.250  30.586  10.797  1.00  0.00     0.213 HD
ENDBRANCH  36  44
ENDBRANCH  30  31
ENDBRANCH   4  30
TORSDOF 18
ENDMDL
MODEL 6
REMARK VINA RESULT:    38.204      3.737      5.334
REMARK INTER + INTRA:          69.570
REMARK INTER:                  69.469
REMARK INTRA:                   0.101
REMARK UNBOUND:                 3.450
REMARK SMILES OC[C@@H]1O[C@@H](O[C@H]2[C@H](O)[C@H](O)[C@@H](O[C@@H]3[C@@H](O)[C@@H](O)[C@@H](O)O[C@H]3CO)O[C@H]2CO)[C@H](O)[C@@H](O)[C@H]1O
REMARK SMILES IDX 7 1 26 2 25 3 12 4 10 5 8 6 6 7 5 8 3 9 33 10 4 11 31 12
REMARK SMILES IDX 29 13 2 14 1 15 34 17 32 19 30 21 27 23 28 24 9 26 11 28
REMARK SMILES IDX 13 30 14 31 22 32 15 33 21 34 17 35 19 36 23 37 24 38 16 40
REMARK SMILES IDX 18 42 20 44
REMARK H PARENT 1 16 34 18 32 20 30 22 28 25 9 27 11 29 24 39 16 41 18 43
REMARK H PARENT 20 45
REMARK Flexibility Score: inf
ROOT
ATOM      1  C   UNL     1      19.886  28.116  10.835  1.00  0.00     0.184 C 
ATOM      2  C   UNL     1      20.267  28.920   9.565  1.00  0.00     0.178 C 
ATOM      3  O   UNL     1      20.743  28.031   8.576  1.00  0.00    -0.341 OA
ATOM      4  C   UNL     1      21.995  27.423   8.906  1.00  0.00     0.282 C 
ATOM      5  C   UNL     1      22.342  27.415  10.424  1.00  0.00     0.202 C 
ATOM      6  C   UNL     1      21.059  27.185  11.261  1.00  0.00     0.180 C 
ENDROOT
BRANCH   1   7
ATOM      7  O   UNL     1      18.763  27.294  10.545  1.00  0.00    -0.341 OA
BRANCH   7   8
ATOM      8  C   UNL     1      18.521  26.326  11.554  1.00  0.00     0.282 C 
ATOM      9  C   UNL     1      16.177  26.452  11.325  1.00  0.00     0.178 C 
ATOM     10  C   UNL     1      15.993  27.121  12.708  1.00  0.00     0.177 C 
ATOM     11  O   UNL     1      17.319  25.605  11.312  1.00  0.00    -0.341 OA
ATOM     12  C   UNL     1      17.261  27.911  13.082  1.00  0.00     0.179 C 
ATOM     13  C   UNL     1      18.500  27.010  12.937  1.00  0.00     0.202 C 
BRANCH   9  14
ATOM     14  C   UNL     1      14.947  25.614  10.941  1.00  0.00     0.191 C 
BRANCH  14  15
ATOM     15  O   UNL     1      14.875  25.435   9.550  1.00  0.00    -0.394 OA
ATOM     16  H   UNL     1      14.172  24.755   9.381  1.00  0.00     0.210 HD
ENDBRANCH  14  15
ENDBRANCH   9  14
BRANCH  10  17
ATOM     17  O   UNL     1      14.877  27.973  12.683  1.00  0.00    -0.387 OA
ATOM     18  H   UNL     1      14.125  27.448  12.304  1.00  0.00     0.211 HD
ENDBRANCH  10  17
BRANCH  12  19
ATOM     19  O   UNL     1      17.402  29.042  12.258  1.00  0.00    -0.387 OA
ATOM     20  H   UNL     1      16.489  29.326  11.992  1.00  0.00     0.211 HD
ENDBRANCH  12  19
BRANCH  13  21
ATOM     21  O   UNL     1      18.501  26.024  13.937  1.00  0.00    -0.385 OA
ATOM     22  H   UNL     1      19.294  26.199  14.510  1.00  0.00     0.211 HD
ENDBRANCH  13  21
ENDBRANCH   7   8
ENDBRANCH   1   7
BRANCH   2  23
ATOM     23  C   UNL     1      19.088  29.715   8.988  1.00  0.00     0.191 C 
BRANCH  23  24
ATOM     24  O   UNL     1      19.185  29.770   7.592  1.00  0.00    -0.394 OA
ATOM     25  H   UNL     1      20.134  29.587   7.372  1.00  0.00     0.210 HD
ENDBRANCH  23  24
ENDBRANCH   2  23
BRANCH   6  26
ATOM     26  O   UNL     1      21.348  27.336  12.627  1.00  0.00    -0.387 OA
ATOM     27  H   UNL     1      21.020  28.236  12.893  1.00  0.00     0.211 HD
ENDBRANCH   6  26
BRANCH   5  28
ATOM     28  O   UNL     1      23.052  28.589  10.764  1.00  0.00    -0.385 OA
ATOM     29  H   UNL     1      22.518  29.392  10.538  1.00  0.00     0.211 HD
ENDBRANCH   5  28
BRANCH   4  30
ATOM     30  O   UNL     1      21.995  26.076   8.463  1.00  0.00    -0.341 OA
BRANCH  30  31
ATOM     31  C   UNL     1      22.427  25.955   7.116  1.00  0.00     0.184 C 
ATOM     32  C   UNL     1      22.363  24.459   6.715  1.00  0.00     0.178 C 
ATOM     33  C   UNL     1      21.503  26.809   6.197  1.00  0.00     0.180 C 
ATOM     34  O   UNL     1      22.288  24.337   5.308  1.00  0.00    -0.342 OA
ATOM     35  C   UNL     1      20.403  25.954   5.548  1.00  0.00     0.201 C 
ATOM     36  C   UNL     1      21.006  24.709   4.820  1.00  0.00     0.279 C 
BRANCH  32  37
ATOM     37  C   UNL     1      23.581  23.678   7.234  1.00  0.00     0.191 C 
BRANCH  37  38
ATOM     38  O   UNL     1      24.425  24.498   7.999  1.00  0.00    -0.394 OA
ATOM     39  H   UNL     1      24.921  25.073   7.361  1.00  0.00     0.210 HD
ENDBRANCH  37  38
ENDBRANCH  32  37
BRANCH  33  40
ATOM     40  O   UNL     1      22.248  27.501   5.222  1.00  0.00    -0.387 OA
ATOM     41  H   UNL     1      22.107  27.050   4.349  1.00  0.00     0.211 HD
ENDBRANCH  33  40
BRANCH  35  42
ATOM     42  O   UNL     1      19.634  26.744   4.676  1.00  0.00    -0.385 OA
ATOM     43  H   UNL     1      18.874  26.179   4.376  1.00  0.00     0.211 HD
ENDBRANCH  35  42
BRANCH  36  44
ATOM     44  O   UNL     1      21.134  24.970   3.444  1.00  0.00    -0.366 OA
ATOM     45  H   UNL     1      20.938  24.122   2.965  1.00  0.00     0.213 HD
ENDBRANCH  36  44
ENDBRANCH  30  31
ENDBRANCH   4  30
TORSDOF 18
ENDMDL
