MODEL 1
REMARK VINA RESULT:    -1.639      0.000      0.000
REMARK INTER + INTRA:          -4.693
REMARK INTER:                  -4.321
REMARK INTRA:                  -0.372
REMARK UNBOUND:                -0.372
REMARK SMILES CCCCCCCCCCCCCCCCCCCCCCCCCCCCCC(=O)[O-]
REMARK SMILES IDX 16 1 17 2 18 3 19 4 20 5 21 6 22 7 23 8 24 9 25 10 26 11
REMARK SMILES IDX 27 12 28 13 29 14 30 15 31 16 32 17 15 18 14 19 13 20 12 21
REMARK SMILES IDX 11 22 10 23 9 24 8 25 7 26 6 27 5 28 4 29 3 30 2 31 1 32
REMARK H PARENT
REMARK Flexibility Score: inf
ROOT
ATOM      1  C   UNL     1       0.415  -0.843   9.004  1.00  0.00     0.000 C 
ENDROOT
BRANCH   1   2
ATOM      2  C   UNL     1       1.142   0.185   9.890  1.00  0.00     0.000 C 
BRANCH   2   3
ATOM      3  C   UNL     1       1.116   1.608   9.308  1.00  0.00     0.000 C 
BRANCH   3   4
ATOM      4  C   UNL     1       1.958   2.605  10.125  1.00  0.00     0.000 C 
BRANCH   4   5
ATOM      5  C   UNL     1       3.460   2.620   9.788  1.00  0.00     0.000 C 
BRANCH   5   6
ATOM      6  C   UNL     1       4.134   3.962  10.125  1.00  0.00     0.000 C 
BRANCH   6   7
ATOM      7  C   UNL     1       4.231   4.897   8.909  1.00  0.00     0.000 C 
BRANCH   7   8
ATOM      8  C   UNL     1       4.802   6.280   9.268  1.00  0.00     0.000 C 
BRANCH   8   9
ATOM      9  C   UNL     1       3.898   7.435   8.788  1.00  0.00     0.000 C 
BRANCH   9  10
ATOM     10  C   UNL     1       4.246   8.801   9.413  1.00  0.00     0.000 C 
BRANCH  10  11
ATOM     11  C   UNL     1       5.618   8.869  10.109  1.00  0.00     0.000 C 
BRANCH  11  12
ATOM     12  C   UNL     1       6.545  10.002   9.621  1.00  0.00     0.000 C 
BRANCH  12  13
ATOM     13  C   UNL     1       8.017   9.597   9.407  1.00  0.00     0.006 C 
BRANCH  13  14
ATOM     14  C   UNL     1       8.246   8.618   8.245  1.00  0.00     0.053 C 
BRANCH  14  15
ATOM     15  C   UNL     1       8.298   7.193   8.708  1.00  0.00     0.041 C 
ATOM     16  O   UNL     1       7.423   6.370   8.330  1.00  0.00    -0.550 OA
ATOM     17  O   UNL     1       9.313   6.776   9.559  1.00  0.00    -0.550 OA
ENDBRANCH  14  15
ENDBRANCH  13  14
ENDBRANCH  12  13
ENDBRANCH  11  12
ENDBRANCH  10  11
ENDBRANCH   9  10
ENDBRANCH   8   9
ENDBRANCH   7   8
ENDBRANCH   6   7
ENDBRANCH   5   6
ENDBRANCH   4   5
ENDBRANCH   3   4
ENDBRANCH   2   3
ENDBRANCH   1   2
BRANCH   1  18
ATOM     18  C   UNL     1      -0.036  -2.132   9.717  1.00  0.00     0.000 C 
BRANCH  18  19
ATOM     19  C   UNL     1      -1.520  -2.107  10.124  1.00  0.00     0.000 C 
BRANCH  19  20
ATOM     20  C   UNL     1      -2.462  -1.983   8.916  1.00  0.00     0.000 C 
BRANCH  20  21
ATOM     21  C   UNL     1      -3.861  -1.476   9.301  1.00  0.00     0.000 C 
BRANCH  21  22
ATOM     22  C   UNL     1      -4.681  -2.586   9.975  1.00  0.00     0.000 C 
BRANCH  22  23
ATOM     23  C   UNL     1      -3.898  -3.902  10.125  1.00  0.00     0.000 C 
BRANCH  23  24
ATOM     24  C   UNL     1      -4.479  -5.102   9.349  1.00  0.00    -0.000 C 
BRANCH  24  25
ATOM     25  C   UNL     1      -5.574  -5.894  10.086  1.00  0.00    -0.000 C 
BRANCH  25  26
ATOM     26  C   UNL     1      -5.895  -7.237   9.410  1.00  0.00    -0.000 C 
BRANCH  26  27
ATOM     27  C   UNL     1      -7.100  -7.155   8.455  1.00  0.00    -0.000 C 
BRANCH  27  28
ATOM     28  C   UNL     1      -7.907  -5.842   8.525  1.00  0.00    -0.000 C 
BRANCH  28  29
ATOM     29  C   UNL     1      -9.186  -5.905   9.383  1.00  0.00    -0.000 C 
BRANCH  29  30
ATOM     30  C   UNL     1      -9.412  -7.241  10.119  1.00  0.00    -0.000 C 
BRANCH  30  31
ATOM     31  C   UNL     1      -9.966  -8.377   9.240  1.00  0.00    -0.003 C 
ATOM     32  C   UNL     1      -9.933  -9.738   9.934  1.00  0.00     0.004 C 
ENDBRANCH  30  31
ENDBRANCH  29  30
ENDBRANCH  28  29
ENDBRANCH  27  28
ENDBRANCH  26  27
ENDBRANCH  25  26
ENDBRANCH  24  25
ENDBRANCH  23  24
ENDBRANCH  22  23
ENDBRANCH  21  22
ENDBRANCH  20  21
ENDBRANCH  19  20
ENDBRANCH  18  19
ENDBRANCH   1  18
TORSDOF 28
ENDMDL
MODEL 2
REMARK VINA RESULT:    -0.560     19.966     22.223
REMARK INTER + INTRA:          -1.849
REMARK INTER:                  -0.851
REMARK INTRA:                  -0.998
REMARK UNBOUND:                -0.372
REMARK SMILES CCCCCCCCCCCCCCCCCCCCCCCCCCCCCC(=O)[O-]
REMARK SMILES IDX 16 1 17 2 18 3 19 4 20 5 21 6 22 7 23 8 24 9 25 10 26 11
REMARK SMILES IDX 27 12 28 13 29 14 30 15 31 16 32 17 15 18 14 19 13 20 12 21
REMARK SMILES IDX 11 22 10 23 9 24 8 25 7 26 6 27 5 28 4 29 3 30 2 31 1 32
REMARK H PARENT
REMARK Flexibility Score: inf
ROOT
ATOM      1  C   UNL     1       0.797  -0.713  -9.436  1.00  0.00     0.000 C 
ENDROOT
BRANCH   1   2
ATOM      2  C   UNL     1       2.130  -1.378  -9.048  1.00  0.00     0.000 C 
BRANCH   2   3
ATOM      3  C   UNL     1       2.661  -2.339 -10.125  1.00  0.00     0.000 C 
BRANCH   3   4
ATOM      4  C   UNL     1       4.191  -2.506 -10.077  1.00  0.00     0.000 C 
BRANCH   4   5
ATOM      5  C   UNL     1       4.685  -3.956  -9.915  1.00  0.00     0.000 C 
BRANCH   5   6
ATOM      6  C   UNL     1       3.552  -4.935  -9.559  1.00  0.00     0.000 C 
BRANCH   6   7
ATOM      7  C   UNL     1       4.072  -6.228  -8.909  1.00  0.00     0.000 C 
BRANCH   7   8
ATOM      8  C   UNL     1       5.098  -6.964  -9.788  1.00  0.00     0.000 C 
BRANCH   8   9
ATOM      9  C   UNL     1       4.855  -8.487  -9.831  1.00  0.00     0.000 C 
BRANCH   9  10
ATOM     10  C   UNL     1       6.139  -9.320 -10.009  1.00  0.00     0.000 C 
BRANCH  10  11
ATOM     11  C   UNL     1       7.149  -9.218  -8.850  1.00  0.00     0.000 C 
BRANCH  11  12
ATOM     12  C   UNL     1       7.419  -7.787  -8.340  1.00  0.00     0.000 C 
BRANCH  12  13
ATOM     13  C   UNL     1       8.670  -7.106  -8.930  1.00  0.00     0.006 C 
BRANCH  13  14
ATOM     14  C   UNL     1       8.387  -6.179 -10.123  1.00  0.00     0.053 C 
BRANCH  14  15
ATOM     15  C   UNL     1       8.742  -4.753  -9.827  1.00  0.00     0.041 C 
ATOM     16  O   UNL     1       7.863  -3.953  -9.412  1.00  0.00    -0.550 OA
ATOM     17  O   UNL     1      10.045  -4.308 -10.014  1.00  0.00    -0.550 OA
ENDBRANCH  14  15
ENDBRANCH  13  14
ENDBRANCH  12  13
ENDBRANCH  11  12
ENDBRANCH  10  11
ENDBRANCH   9  10
ENDBRANCH   8   9
ENDBRANCH   7   8
ENDBRANCH   6   7
ENDBRANCH   5   6
ENDBRANCH   4   5
ENDBRANCH   3   4
ENDBRANCH   2   3
ENDBRANCH   1   2
BRANCH   1  18
ATOM     18  C   UNL     1       0.909   0.716 -10.000  1.00  0.00     0.000 C 
BRANCH  18  19
ATOM     19  C   UNL     1      -0.451   1.426 -10.114  1.00  0.00     0.000 C 
BRANCH  19  20
ATOM     20  C   UNL     1      -1.296   1.295  -8.836  1.00  0.00     0.000 C 
BRANCH  20  21
ATOM     21  C   UNL     1      -1.983   2.611  -8.439  1.00  0.00     0.000 C 
BRANCH  21  22
ATOM     22  C   UNL     1      -3.505   2.429  -8.343  1.00  0.00     0.000 C 
BRANCH  22  23
ATOM     23  C   UNL     1      -4.147   2.034  -9.685  1.00  0.00     0.000 C 
BRANCH  23  24
ATOM     24  C   UNL     1      -5.339   2.908 -10.123  1.00  0.00    -0.000 C 
BRANCH  24  25
ATOM     25  C   UNL     1      -5.415   4.296  -9.462  1.00  0.00    -0.000 C 
BRANCH  25  26
ATOM     26  C   UNL     1      -4.429   5.304 -10.078  1.00  0.00    -0.000 C 
BRANCH  26  27
ATOM     27  C   UNL     1      -4.704   6.754  -9.641  1.00  0.00    -0.000 C 
BRANCH  27  28
ATOM     28  C   UNL     1      -6.102   7.007  -9.039  1.00  0.00    -0.000 C 
BRANCH  28  29
ATOM     29  C   UNL     1      -6.460   8.489  -8.817  1.00  0.00    -0.000 C 
BRANCH  29  30
ATOM     30  C   UNL     1      -7.972   8.797  -8.786  1.00  0.00    -0.000 C 
BRANCH  30  31
ATOM     31  C   UNL     1      -8.878   7.567  -8.595  1.00  0.00    -0.003 C 
ATOM     32  C   UNL     1      -9.964   7.455  -9.664  1.00  0.00     0.004 C 
ENDBRANCH  30  31
ENDBRANCH  29  30
ENDBRANCH  28  29
ENDBRANCH  27  28
ENDBRANCH  26  27
ENDBRANCH  25  26
ENDBRANCH  24  25
ENDBRANCH  23  24
ENDBRANCH  22  23
ENDBRANCH  21  22
ENDBRANCH  20  21
ENDBRANCH  19  20
ENDBRANCH  18  19
ENDBRANCH   1  18
TORSDOF 28
ENDMDL
MODEL 3
REMARK VINA RESULT:     0.745      1.663      2.976
REMARK INTER + INTRA:           1.592
REMARK INTER:                   0.613
REMARK INTRA:                   0.979
REMARK UNBOUND:                -0.372
REMARK SMILES CCCCCCCCCCCCCCCCCCCCCCCCCCCCCC(=O)[O-]
REMARK SMILES IDX 16 1 17 2 18 3 19 4 20 5 21 6 22 7 23 8 24 9 25 10 26 11
REMARK SMILES IDX 27 12 28 13 29 14 30 15 31 16 32 17 15 18 14 19 13 20 12 21
REMARK SMILES IDX 11 22 10 23 9 24 8 25 7 26 6 27 5 28 4 29 3 30 2 31 1 32
REMARK H PARENT
REMARK Flexibility Score: inf
ROOT
ATOM      1  C   UNL     1       0.992   1.115   8.545  1.00  0.00     0.000 C 
ENDROOT
BRANCH   1   2
ATOM      2  C   UNL     1       1.793   2.421   8.701  1.00  0.00     0.000 C 
BRANCH   2   3
ATOM      3  C   UNL     1       3.311   2.218   8.565  1.00  0.00     0.000 C 
BRANCH   3   4
ATOM      4  C   UNL     1       4.078   2.545   9.859  1.00  0.00     0.000 C 
BRANCH   4   5
ATOM      5  C   UNL     1       4.414   4.033  10.061  1.00  0.00     0.000 C 
BRANCH   5   6
ATOM      6  C   UNL     1       4.707   4.764   8.738  1.00  0.00     0.000 C 
BRANCH   6   7
ATOM      7  C   UNL     1       5.268   6.178   8.955  1.00  0.00     0.000 C 
BRANCH   7   8
ATOM      8  C   UNL     1       6.523   6.188   9.846  1.00  0.00     0.000 C 
BRANCH   8   9
ATOM      9  C   UNL     1       7.763   5.615   9.127  1.00  0.00     0.000 C 
BRANCH   9  10
ATOM     10  C   UNL     1       8.206   6.435   7.898  1.00  0.00     0.000 C 
BRANCH  10  11
ATOM     11  C   UNL     1       7.765   7.910   7.905  1.00  0.00     0.000 C 
BRANCH  11  12
ATOM     12  C   UNL     1       8.284   8.745   9.094  1.00  0.00     0.000 C 
BRANCH  12  13
ATOM     13  C   UNL     1       7.213   9.153  10.125  1.00  0.00     0.006 C 
BRANCH  13  14
ATOM     14  C   UNL     1       6.089  10.035   9.559  1.00  0.00     0.053 C 
BRANCH  14  15
ATOM     15  C   UNL     1       4.743   9.388   9.689  1.00  0.00     0.041 C 
ATOM     16  O   UNL     1       4.647   8.200  10.095  1.00  0.00    -0.550 OA
ATOM     17  O   UNL     1       3.595  10.098   9.359  1.00  0.00    -0.550 OA
ENDBRANCH  14  15
ENDBRANCH  13  14
ENDBRANCH  12  13
ENDBRANCH  11  12
ENDBRANCH  10  11
ENDBRANCH   9  10
ENDBRANCH   8   9
ENDBRANCH   7   8
ENDBRANCH   6   7
ENDBRANCH   5   6
ENDBRANCH   4   5
ENDBRANCH   3   4
ENDBRANCH   2   3
ENDBRANCH   1   2
BRANCH   1  18
ATOM     18  C   UNL     1       0.526   0.462   9.860  1.00  0.00     0.000 C 
BRANCH  18  19
ATOM     19  C   UNL     1       0.873  -1.034   9.946  1.00  0.00     0.000 C 
BRANCH  19  20
ATOM     20  C   UNL     1      -0.184  -1.926   9.273  1.00  0.00     0.000 C 
BRANCH  20  21
ATOM     21  C   UNL     1      -1.453  -2.091  10.125  1.00  0.00     0.000 C 
BRANCH  21  22
ATOM     22  C   UNL     1      -2.711  -1.774   9.303  1.00  0.00     0.000 C 
BRANCH  22  23
ATOM     23  C   UNL     1      -3.861  -2.763   9.562  1.00  0.00     0.000 C 
BRANCH  23  24
ATOM     24  C   UNL     1      -3.459  -4.252   9.550  1.00  0.00    -0.000 C 
BRANCH  24  25
ATOM     25  C   UNL     1      -4.536  -5.228  10.056  1.00  0.00    -0.000 C 
BRANCH  25  26
ATOM     26  C   UNL     1      -4.334  -6.661   9.535  1.00  0.00    -0.000 C 
BRANCH  26  27
ATOM     27  C   UNL     1      -5.415  -7.637  10.031  1.00  0.00    -0.000 C 
BRANCH  27  28
ATOM     28  C   UNL     1      -5.093  -9.133   9.831  1.00  0.00    -0.000 C 
BRANCH  28  29
ATOM     29  C   UNL     1      -6.132  -9.922   9.011  1.00  0.00    -0.000 C 
BRANCH  29  30
ATOM     30  C   UNL     1      -7.555  -9.941   9.606  1.00  0.00    -0.000 C 
BRANCH  30  31
ATOM     31  C   UNL     1      -8.528  -8.922   8.987  1.00  0.00    -0.003 C 
ATOM     32  C   UNL     1      -9.378  -8.200  10.032  1.00  0.00     0.004 C 
ENDBRANCH  30  31
ENDBRANCH  29  30
ENDBRANCH  28  29
ENDBRANCH  27  28
ENDBRANCH  26  27
ENDBRANCH  25  26
ENDBRANCH  24  25
ENDBRANCH  23  24
ENDBRANCH  22  23
ENDBRANCH  21  22
ENDBRANCH  20  21
ENDBRANCH  19  20
ENDBRANCH  18  19
ENDBRANCH   1  18
TORSDOF 28
ENDMDL
MODEL 4
REMARK VINA RESULT:     1.340      5.681     16.722
REMARK INTER + INTRA:           3.160
REMARK INTER:                   2.114
REMARK INTRA:                   1.046
REMARK UNBOUND:                -0.372
REMARK SMILES CCCCCCCCCCCCCCCCCCCCCCCCCCCCCC(=O)[O-]
REMARK SMILES IDX 16 1 17 2 18 3 19 4 20 5 21 6 22 7 23 8 24 9 25 10 26 11
REMARK SMILES IDX 27 12 28 13 29 14 30 15 31 16 32 17 15 18 14 19 13 20 12 21
REMARK SMILES IDX 11 22 10 23 9 24 8 25 7 26 6 27 5 28 4 29 3 30 2 31 1 32
REMARK H PARENT
REMARK Flexibility Score: inf
ROOT
ATOM      1  C   UNL     1       2.619   1.625   9.185  1.00  0.00     0.000 C 
ENDROOT
BRANCH   1   2
ATOM      2  C   UNL     1       1.844   0.295   9.210  1.00  0.00     0.000 C 
BRANCH   2   3
ATOM      3  C   UNL     1       0.328   0.476   9.026  1.00  0.00     0.000 C 
BRANCH   3   4
ATOM      4  C   UNL     1      -0.496  -0.220  10.125  1.00  0.00     0.000 C 
BRANCH   4   5
ATOM      5  C   UNL     1      -1.790  -0.897   9.640  1.00  0.00     0.000 C 
BRANCH   5   6
ATOM      6  C   UNL     1      -1.710  -2.434   9.679  1.00  0.00     0.000 C 
BRANCH   6   7
ATOM      7  C   UNL     1      -3.064  -3.104   9.397  1.00  0.00     0.000 C 
BRANCH   7   8
ATOM      8  C   UNL     1      -4.223  -2.094   9.328  1.00  0.00     0.000 C 
BRANCH   8   9
ATOM      9  C   UNL     1      -5.488  -2.596  10.056  1.00  0.00     0.000 C 
BRANCH   9  10
ATOM     10  C   UNL     1      -5.836  -4.068   9.760  1.00  0.00     0.000 C 
BRANCH  10  11
ATOM     11  C   UNL     1      -7.011  -4.278   8.786  1.00  0.00     0.000 C 
BRANCH  11  12
ATOM     12  C   UNL     1      -8.210  -5.058   9.364  1.00  0.00     0.000 C 
BRANCH  12  13
ATOM     13  C   UNL     1      -7.903  -6.504   9.802  1.00  0.00     0.006 C 
BRANCH  13  14
ATOM     14  C   UNL     1      -7.296  -7.387   8.699  1.00  0.00     0.053 C 
BRANCH  14  15
ATOM     15  C   UNL     1      -7.433  -8.847   9.005  1.00  0.00     0.041 C 
ATOM     16  O   UNL     1      -6.577  -9.668   8.582  1.00  0.00    -0.550 OA
ATOM     17  O   UNL     1      -8.509  -9.303   9.758  1.00  0.00    -0.550 OA
ENDBRANCH  14  15
ENDBRANCH  13  14
ENDBRANCH  12  13
ENDBRANCH  11  12
ENDBRANCH  10  11
ENDBRANCH   9  10
ENDBRANCH   8   9
ENDBRANCH   7   8
ENDBRANCH   6   7
ENDBRANCH   5   6
ENDBRANCH   4   5
ENDBRANCH   3   4
ENDBRANCH   2   3
ENDBRANCH   1   2
BRANCH   1  18
ATOM     18  C   UNL     1       4.025   1.586   9.815  1.00  0.00     0.000 C 
BRANCH  18  19
ATOM     19  C   UNL     1       4.590   2.985  10.113  1.00  0.00     0.000 C 
BRANCH  19  20
ATOM     20  C   UNL     1       5.586   3.461   9.043  1.00  0.00     0.000 C 
BRANCH  20  21
ATOM     21  C   UNL     1       7.034   3.050   9.352  1.00  0.00     0.000 C 
BRANCH  21  22
ATOM     22  C   UNL     1       7.886   4.274   9.718  1.00  0.00     0.000 C 
BRANCH  22  23
ATOM     23  C   UNL     1       7.454   5.550   8.973  1.00  0.00     0.000 C 
BRANCH  23  24
ATOM     24  C   UNL     1       5.933   5.711   8.780  1.00  0.00    -0.000 C 
BRANCH  24  25
ATOM     25  C   UNL     1       5.170   6.266   9.996  1.00  0.00    -0.000 C 
BRANCH  25  26
ATOM     26  C   UNL     1       4.007   7.192   9.598  1.00  0.00    -0.000 C 
BRANCH  26  27
ATOM     27  C   UNL     1       4.483   8.520   8.982  1.00  0.00    -0.000 C 
BRANCH  27  28
ATOM     28  C   UNL     1       5.419   9.362   9.874  1.00  0.00    -0.000 C 
BRANCH  28  29
ATOM     29  C   UNL     1       6.581  10.053   9.134  1.00  0.00    -0.000 C 
BRANCH  29  30
ATOM     30  C   UNL     1       7.954   9.945   9.830  1.00  0.00    -0.000 C 
BRANCH  30  31
ATOM     31  C   UNL     1       8.635   8.570   9.704  1.00  0.00    -0.003 C 
ATOM     32  C   UNL     1       8.992   8.212   8.262  1.00  0.00     0.004 C 
ENDBRANCH  30  31
ENDBRANCH  29  30
ENDBRANCH  28  29
ENDBRANCH  27  28
ENDBRANCH  26  27
ENDBRANCH  25  26
ENDBRANCH  24  25
ENDBRANCH  23  24
ENDBRANCH  22  23
ENDBRANCH  21  22
ENDBRANCH  20  21
ENDBRANCH  19  20
ENDBRANCH  18  19
ENDBRANCH   1  18
TORSDOF 28
ENDMDL
