MODEL 1
REMARK VINA RESULT:    -8.569      0.000      0.000
REMARK INTER + INTRA:          -9.070
REMARK INTER:                  -9.070
REMARK INTRA:                   0.000
REMARK UNBOUND:                 0.000
REMARK SMILES C[C@H]1CC[C@H]2[N@@H+](C1)C[C@@H]1[C@@H]3C[C@H]4[C@H](CC(=O)[C@H]5C[C@@H](O)CC[C@@]54C)[C@@H]3CC[C@@H]1[C@@]2(C)O
REMARK SMILES IDX 5 1 6 2 8 3 7 4 4 5 29 6 3 7 28 8 30 9 2 10 27 11 9 12 1 13
REMARK SMILES IDX 26 14 10 15 25 16 11 17 13 18 12 19 14 20 23 21 15 22 17 23
REMARK SMILES IDX 22 24 24 25 16 26 18 27 21 28 19 29 31 31 20 33
REMARK H PARENT 6 30 31 32 20 34
REMARK Flexibility Score: inf
ROOT
ATOM      1  C   UNL     1      51.385 -34.961  -8.253  1.00  0.00     0.216 C 
ATOM      2  N   UNL     1      51.732 -35.409  -6.854  1.00  0.00    -0.330 N 
ATOM      3  C   UNL     1      52.648 -34.516  -6.091  1.00  0.00     0.266 C 
ATOM      4  C   UNL     1      52.217 -36.813  -6.762  1.00  0.00     0.265 C 
ATOM      5  C   UNL     1      51.987 -35.910  -9.328  1.00  0.00     0.069 C 
ATOM      6  C   UNL     1      51.703 -33.450  -8.546  1.00  0.00     0.117 C 
ATOM      7  C   UNL     1      51.474 -37.345  -9.146  1.00  0.00     0.015 C 
ATOM      8  C   UNL     1      53.218 -33.182  -8.260  1.00  0.00     0.036 C 
ATOM      9  C   UNL     1      50.779 -32.514  -7.723  1.00  0.00     0.049 C 
ATOM     10  C   UNL     1      51.434 -37.787  -7.666  1.00  0.00     0.041 C 
ATOM     11  C   UNL     1      53.630 -31.711  -8.435  1.00  0.00     0.007 C 
ATOM     12  C   UNL     1      53.750 -33.830  -6.941  1.00  0.00     0.054 C 
ATOM     13  C   UNL     1      49.994 -37.986  -7.166  1.00  0.00     0.013 C 
ATOM     14  C   UNL     1      55.144 -31.599  -8.271  1.00  0.00     0.004 C 
ATOM     15  C   UNL     1      54.678 -32.910  -6.065  1.00  0.00     0.002 C 
ATOM     16  C   UNL     1      55.599 -31.910  -6.821  1.00  0.00    -0.004 C 
ATOM     17  C   UNL     1      53.954 -32.067  -5.013  1.00  0.00     0.009 C 
ATOM     18  C   UNL     1      55.775 -30.678  -5.869  1.00  0.00     0.003 C 
ATOM     19  C   UNL     1      54.982 -31.021  -4.582  1.00  0.00    -0.000 C 
ATOM     20  C   UNL     1      55.440 -29.282  -6.454  1.00  0.00     0.080 C 
ATOM     21  C   UNL     1      54.440 -29.799  -3.730  1.00  0.00    -0.020 C 
ATOM     22  C   UNL     1      55.439 -28.211  -5.396  1.00  0.00     0.136 C 
ATOM     23  C   UNL     1      55.424 -28.603  -3.935  1.00  0.00     0.065 C 
ATOM     24  C   UNL     1      54.442 -30.195  -2.222  1.00  0.00     0.010 C 
ATOM     25  C   UNL     1      52.986 -29.407  -4.142  1.00  0.00     0.012 C 
ATOM     26  O   UNL     1      55.445 -27.037  -5.735  1.00  0.00    -0.299 OA
ATOM     27  C   UNL     1      55.138 -27.408  -2.992  1.00  0.00     0.043 C 
ATOM     28  C   UNL     1      54.148 -29.013  -1.283  1.00  0.00     0.032 C 
ATOM     29  C   UNL     1      55.134 -27.856  -1.521  1.00  0.00     0.115 C 
ATOM     30  H   UNL     1      50.833 -35.396  -6.315  1.00  0.00     0.348 HD
ENDROOT
BRANCH   6  31
ATOM     31  O   UNL     1      51.388 -33.164  -9.897  1.00  0.00    -0.384 OA
ATOM     32  H   UNL     1      50.783 -32.378  -9.949  1.00  0.00     0.211 HD
ENDBRANCH   6  31
BRANCH  29  33
ATOM     33  O   UNL     1      54.843 -26.773  -0.672  1.00  0.00    -0.393 OA
ATOM     34  H   UNL     1      54.050 -27.022  -0.125  1.00  0.00     0.210 HD
ENDBRANCH  29  33
TORSDOF 2
ENDMDL
MODEL 2
REMARK VINA RESULT:    -8.441      2.411      3.174
REMARK INTER + INTRA:          -8.935
REMARK INTER:                  -8.935
REMARK INTRA:                   0.000
REMARK UNBOUND:                 0.000
REMARK SMILES C[C@H]1CC[C@H]2[N@@H+](C1)C[C@@H]1[C@@H]3C[C@H]4[C@H](CC(=O)[C@H]5C[C@@H](O)CC[C@@]54C)[C@@H]3CC[C@@H]1[C@@]2(C)O
REMARK SMILES IDX 5 1 6 2 8 3 7 4 4 5 29 6 3 7 28 8 30 9 2 10 27 11 9 12 1 13
REMARK SMILES IDX 26 14 10 15 25 16 11 17 13 18 12 19 14 20 23 21 15 22 17 23
REMARK SMILES IDX 22 24 24 25 16 26 18 27 21 28 19 29 31 31 20 33
REMARK H PARENT 6 30 31 32 20 34
REMARK Flexibility Score: inf
ROOT
ATOM      1  C   UNL     1      51.332 -35.048  -7.607  1.00  0.00     0.216 C 
ATOM      2  N   UNL     1      51.906 -36.103  -6.695  1.00  0.00    -0.330 N 
ATOM      3  C   UNL     1      52.782 -35.610  -5.596  1.00  0.00     0.266 C 
ATOM      4  C   UNL     1      52.581 -37.225  -7.403  1.00  0.00     0.265 C 
ATOM      5  C   UNL     1      51.916 -35.148  -9.044  1.00  0.00     0.069 C 
ATOM      6  C   UNL     1      51.407 -33.586  -7.033  1.00  0.00     0.117 C 
ATOM      7  C   UNL     1      51.625 -36.521  -9.663  1.00  0.00     0.015 C 
ATOM      8  C   UNL     1      52.897 -33.247  -6.695  1.00  0.00     0.036 C 
ATOM      9  C   UNL     1      50.476 -33.419  -5.803  1.00  0.00     0.049 C 
ATOM     10  C   UNL     1      51.828 -37.686  -8.668  1.00  0.00     0.041 C 
ATOM     11  C   UNL     1      53.085 -31.865  -6.047  1.00  0.00     0.007 C 
ATOM     12  C   UNL     1      53.670 -34.391  -5.965  1.00  0.00     0.054 C 
ATOM     13  C   UNL     1      50.500 -38.375  -8.314  1.00  0.00     0.013 C 
ATOM     14  C   UNL     1      54.579 -31.588  -5.896  1.00  0.00     0.004 C 
ATOM     15  C   UNL     1      54.569 -33.935  -4.757  1.00  0.00     0.002 C 
ATOM     16  C   UNL     1      55.248 -32.539  -4.870  1.00  0.00    -0.004 C 
ATOM     17  C   UNL     1      53.876 -33.932  -3.393  1.00  0.00     0.009 C 
ATOM     18  C   UNL     1      55.375 -32.001  -3.403  1.00  0.00     0.003 C 
ATOM     19  C   UNL     1      54.800 -33.115  -2.492  1.00  0.00    -0.000 C 
ATOM     20  C   UNL     1      54.788 -30.594  -3.117  1.00  0.00     0.080 C 
ATOM     21  C   UNL     1      54.211 -32.659  -1.092  1.00  0.00    -0.020 C 
ATOM     22  C   UNL     1      54.776 -30.277  -1.645  1.00  0.00     0.136 C 
ATOM     23  C   UNL     1      54.994 -31.385  -0.638  1.00  0.00     0.065 C 
ATOM     24  C   UNL     1      54.453 -33.792  -0.049  1.00  0.00     0.010 C 
ATOM     25  C   UNL     1      52.678 -32.375  -1.176  1.00  0.00     0.012 C 
ATOM     26  O   UNL     1      54.584 -29.126  -1.284  1.00  0.00    -0.299 OA
ATOM     27  C   UNL     1      54.671 -30.955   0.814  1.00  0.00     0.043 C 
ATOM     28  C   UNL     1      54.123 -33.371   1.393  1.00  0.00     0.032 C 
ATOM     29  C   UNL     1      54.909 -32.112   1.797  1.00  0.00     0.115 C 
ATOM     30  H   UNL     1      51.087 -36.542  -6.209  1.00  0.00     0.348 HD
ENDROOT
BRANCH   6  31
ATOM     31  O   UNL     1      50.892 -32.683  -7.995  1.00  0.00    -0.384 OA
ATOM     32  H   UNL     1      49.947 -32.907  -8.204  1.00  0.00     0.211 HD
ENDBRANCH   6  31
BRANCH  29  33
ATOM     33  O   UNL     1      54.584 -31.725   3.109  1.00  0.00    -0.393 OA
ATOM     34  H   UNL     1      55.396 -31.317   3.515  1.00  0.00     0.210 HD
ENDBRANCH  29  33
TORSDOF 2
ENDMDL
MODEL 3
REMARK VINA RESULT:    -8.312      8.567     13.229
REMARK INTER + INTRA:          -8.798
REMARK INTER:                  -8.798
REMARK INTRA:                   0.000
REMARK UNBOUND:                 0.000
REMARK SMILES C[C@H]1CC[C@H]2[N@@H+](C1)C[C@@H]1[C@@H]3C[C@H]4[C@H](CC(=O)[C@H]5C[C@@H](O)CC[C@@]54C)[C@@H]3CC[C@@H]1[C@@]2(C)O
REMARK SMILES IDX 5 1 6 2 8 3 7 4 4 5 29 6 3 7 28 8 30 9 2 10 27 11 9 12 1 13
REMARK SMILES IDX 26 14 10 15 25 16 11 17 13 18 12 19 14 20 23 21 15 22 17 23
REMARK SMILES IDX 22 24 24 25 16 26 18 27 21 28 19 29 31 31 20 33
REMARK H PARENT 6 30 31 32 20 34
REMARK Flexibility Score: inf
ROOT
ATOM      1  C   UNL     1      52.419 -26.504   0.872  1.00  0.00     0.216 C 
ATOM      2  N   UNL     1      51.663 -27.809   0.820  1.00  0.00    -0.330 N 
ATOM      3  C   UNL     1      51.002 -28.232   2.085  1.00  0.00     0.266 C 
ATOM      4  C   UNL     1      52.443 -28.947   0.262  1.00  0.00     0.265 C 
ATOM      5  C   UNL     1      53.951 -26.719   0.719  1.00  0.00     0.069 C 
ATOM      6  C   UNL     1      52.064 -25.600   2.109  1.00  0.00     0.117 C 
ATOM      7  C   UNL     1      54.281 -27.406  -0.612  1.00  0.00     0.015 C 
ATOM      8  C   UNL     1      52.311 -26.414   3.423  1.00  0.00     0.036 C 
ATOM      9  C   UNL     1      50.609 -25.070   2.015  1.00  0.00     0.049 C 
ATOM     10  C   UNL     1      53.305 -28.555  -0.955  1.00  0.00     0.041 C 
ATOM     11  C   UNL     1      51.919 -25.656   4.702  1.00  0.00     0.007 C 
ATOM     12  C   UNL     1      51.785 -27.885   3.380  1.00  0.00     0.054 C 
ATOM     13  C   UNL     1      52.436 -28.223  -2.179  1.00  0.00     0.013 C 
ATOM     14  C   UNL     1      52.334 -26.485   5.916  1.00  0.00     0.004 C 
ATOM     15  C   UNL     1      51.027 -28.368   4.670  1.00  0.00     0.002 C 
ATOM     16  C   UNL     1      51.517 -27.798   6.033  1.00  0.00    -0.004 C 
ATOM     17  C   UNL     1      49.514 -28.138   4.663  1.00  0.00     0.009 C 
ATOM     18  C   UNL     1      50.254 -27.750   6.960  1.00  0.00     0.003 C 
ATOM     19  C   UNL     1      49.088 -28.325   6.118  1.00  0.00    -0.000 C 
ATOM     20  C   UNL     1      49.927 -26.391   7.634  1.00  0.00     0.080 C 
ATOM     21  C   UNL     1      47.626 -27.844   6.500  1.00  0.00    -0.020 C 
ATOM     22  C   UNL     1      48.588 -26.410   8.321  1.00  0.00     0.136 C 
ATOM     23  C   UNL     1      47.613 -27.531   8.030  1.00  0.00     0.065 C 
ATOM     24  C   UNL     1      46.623 -29.005   6.220  1.00  0.00     0.010 C 
ATOM     25  C   UNL     1      47.193 -26.597   5.667  1.00  0.00     0.012 C 
ATOM     26  O   UNL     1      48.305 -25.514   9.101  1.00  0.00    -0.299 OA
ATOM     27  C   UNL     1      46.194 -27.256   8.586  1.00  0.00     0.043 C 
ATOM     28  C   UNL     1      45.210 -28.731   6.761  1.00  0.00     0.032 C 
ATOM     29  C   UNL     1      45.242 -28.421   8.267  1.00  0.00     0.115 C 
ATOM     30  H   UNL     1      50.877 -27.660   0.142  1.00  0.00     0.348 HD
ENDROOT
BRANCH   6  31
ATOM     31  O   UNL     1      52.871 -24.437   2.080  1.00  0.00    -0.384 OA
ATOM     32  H   UNL     1      53.412 -24.416   1.247  1.00  0.00     0.211 HD
ENDBRANCH   6  31
BRANCH  29  33
ATOM     33  O   UNL     1      43.948 -28.152   8.746  1.00  0.00    -0.393 OA
ATOM     34  H   UNL     1      43.920 -27.196   9.022  1.00  0.00     0.210 HD
ENDBRANCH  29  33
TORSDOF 2
ENDMDL
MODEL 4
REMARK VINA RESULT:    -8.259      6.299      9.641
REMARK INTER + INTRA:          -8.742
REMARK INTER:                  -8.742
REMARK INTRA:                   0.000
REMARK UNBOUND:                 0.000
REMARK SMILES C[C@H]1CC[C@H]2[N@@H+](C1)C[C@@H]1[C@@H]3C[C@H]4[C@H](CC(=O)[C@H]5C[C@@H](O)CC[C@@]54C)[C@@H]3CC[C@@H]1[C@@]2(C)O
REMARK SMILES IDX 5 1 6 2 8 3 7 4 4 5 29 6 3 7 28 8 30 9 2 10 27 11 9 12 1 13
REMARK SMILES IDX 26 14 10 15 25 16 11 17 13 18 12 19 14 20 23 21 15 22 17 23
REMARK SMILES IDX 22 24 24 25 16 26 18 27 21 28 19 29 31 31 20 33
REMARK H PARENT 6 30 31 32 20 34
REMARK Flexibility Score: inf
ROOT
ATOM      1  C   UNL     1      51.621 -29.681   3.558  1.00  0.00     0.216 C 
ATOM      2  N   UNL     1      51.771 -28.187   3.409  1.00  0.00    -0.330 N 
ATOM      3  C   UNL     1      52.680 -27.727   2.323  1.00  0.00     0.266 C 
ATOM      4  C   UNL     1      52.107 -27.475   4.673  1.00  0.00     0.265 C 
ATOM      5  C   UNL     1      52.243 -30.193   4.888  1.00  0.00     0.069 C 
ATOM      6  C   UNL     1      52.111 -30.508   2.314  1.00  0.00     0.117 C 
ATOM      7  C   UNL     1      51.578 -29.525   6.100  1.00  0.00     0.015 C 
ATOM      8  C   UNL     1      53.606 -30.147   2.019  1.00  0.00     0.036 C 
ATOM      9  C   UNL     1      51.198 -30.263   1.084  1.00  0.00     0.049 C 
ATOM     10  C   UNL     1      51.336 -28.012   5.896  1.00  0.00     0.041 C 
ATOM     11  C   UNL     1      54.173 -30.837   0.767  1.00  0.00     0.007 C 
ATOM     12  C   UNL     1      53.928 -28.620   2.093  1.00  0.00     0.054 C 
ATOM     13  C   UNL     1      49.838 -27.678   5.810  1.00  0.00     0.013 C 
ATOM     14  C   UNL     1      55.664 -30.526   0.663  1.00  0.00     0.004 C 
ATOM     15  C   UNL     1      54.839 -28.066   0.936  1.00  0.00     0.002 C 
ATOM     16  C   UNL     1      55.928 -29.025   0.374  1.00  0.00    -0.004 C 
ATOM     17  C   UNL     1      54.090 -27.550  -0.294  1.00  0.00     0.009 C 
ATOM     18  C   UNL     1      56.116 -28.631  -1.131  1.00  0.00     0.003 C 
ATOM     19  C   UNL     1      55.160 -27.437  -1.379  1.00  0.00    -0.000 C 
ATOM     20  C   UNL     1      55.982 -29.766  -2.179  1.00  0.00     0.080 C 
ATOM     21  C   UNL     1      54.648 -27.228  -2.865  1.00  0.00    -0.020 C 
ATOM     22  C   UNL     1      55.969 -29.236  -3.588  1.00  0.00     0.136 C 
ATOM     23  C   UNL     1      55.758 -27.757  -3.829  1.00  0.00     0.065 C 
ATOM     24  C   UNL     1      54.450 -25.702  -3.121  1.00  0.00     0.010 C 
ATOM     25  C   UNL     1      53.292 -27.958  -3.116  1.00  0.00     0.012 C 
ATOM     26  O   UNL     1      56.124 -30.011  -4.519  1.00  0.00    -0.299 OA
ATOM     27  C   UNL     1      55.488 -27.419  -5.316  1.00  0.00     0.043 C 
ATOM     28  C   UNL     1      54.171 -25.365  -4.595  1.00  0.00     0.032 C 
ATOM     29  C   UNL     1      55.282 -25.908  -5.509  1.00  0.00     0.115 C 
ATOM     30  H   UNL     1      50.824 -27.827   3.138  1.00  0.00     0.348 HD
ENDROOT
BRANCH   6  31
ATOM     31  O   UNL     1      51.973 -31.889   2.592  1.00  0.00    -0.384 OA
ATOM     32  H   UNL     1      52.066 -32.418   1.756  1.00  0.00     0.211 HD
ENDBRANCH   6  31
BRANCH  29  33
ATOM     33  O   UNL     1      55.006 -25.612  -6.856  1.00  0.00    -0.393 OA
ATOM     34  H   UNL     1      54.886 -26.474  -7.337  1.00  0.00     0.210 HD
ENDBRANCH  29  33
TORSDOF 2
ENDMDL
MODEL 5
REMARK VINA RESULT:    -8.228      8.708     14.281
REMARK INTER + INTRA:          -8.709
REMARK INTER:                  -8.709
REMARK INTRA:                   0.000
REMARK UNBOUND:                 0.000
REMARK SMILES C[C@H]1CC[C@H]2[N@@H+](C1)C[C@@H]1[C@@H]3C[C@H]4[C@H](CC(=O)[C@H]5C[C@@H](O)CC[C@@]54C)[C@@H]3CC[C@@H]1[C@@]2(C)O
REMARK SMILES IDX 5 1 6 2 8 3 7 4 4 5 29 6 3 7 28 8 30 9 2 10 27 11 9 12 1 13
REMARK SMILES IDX 26 14 10 15 25 16 11 17 13 18 12 19 14 20 23 21 15 22 17 23
REMARK SMILES IDX 22 24 24 25 16 26 18 27 21 28 19 29 31 31 20 33
REMARK H PARENT 6 30 31 32 20 34
REMARK Flexibility Score: inf
ROOT
ATOM      1  C   UNL     1      48.627 -25.631   7.939  1.00  0.00     0.216 C 
ATOM      2  N   UNL     1      49.484 -24.642   7.189  1.00  0.00    -0.330 N 
ATOM      3  C   UNL     1      50.406 -25.216   6.171  1.00  0.00     0.266 C 
ATOM      4  C   UNL     1      50.234 -23.696   8.061  1.00  0.00     0.265 C 
ATOM      5  C   UNL     1      49.023 -25.715   9.441  1.00  0.00     0.069 C 
ATOM      6  C   UNL     1      48.537 -27.049   7.266  1.00  0.00     0.117 C 
ATOM      7  C   UNL     1      48.882 -24.349  10.125  1.00  0.00     0.015 C 
ATOM      8  C   UNL     1      49.982 -27.622   7.087  1.00  0.00     0.036 C 
ATOM      9  C   UNL     1      47.764 -26.983   5.922  1.00  0.00     0.049 C 
ATOM     10  C   UNL     1      49.405 -23.183   9.256  1.00  0.00     0.041 C 
ATOM     11  C   UNL     1      50.025 -28.977   6.361  1.00  0.00     0.007 C 
ATOM     12  C   UNL     1      51.024 -26.589   6.549  1.00  0.00     0.054 C 
ATOM     13  C   UNL     1      48.268 -22.255   8.797  1.00  0.00     0.013 C 
ATOM     14  C   UNL     1      51.460 -29.499   6.373  1.00  0.00     0.004 C 
ATOM     15  C   UNL     1      51.988 -27.126   5.428  1.00  0.00     0.002 C 
ATOM     16  C   UNL     1      52.407 -28.622   5.513  1.00  0.00    -0.004 C 
ATOM     17  C   UNL     1      51.493 -26.932   3.993  1.00  0.00     0.009 C 
ATOM     18  C   UNL     1      52.639 -29.091   4.036  1.00  0.00     0.003 C 
ATOM     19  C   UNL     1      52.382 -27.845   3.151  1.00  0.00    -0.000 C 
ATOM     20  C   UNL     1      51.872 -30.356   3.570  1.00  0.00     0.080 C 
ATOM     21  C   UNL     1      51.918 -28.113   1.658  1.00  0.00    -0.020 C 
ATOM     22  C   UNL     1      52.004 -30.584   2.088  1.00  0.00     0.136 C 
ATOM     23  C   UNL     1      52.535 -29.475   1.205  1.00  0.00     0.065 C 
ATOM     24  C   UNL     1      52.481 -26.981   0.744  1.00  0.00     0.010 C 
ATOM     25  C   UNL     1      50.362 -28.131   1.532  1.00  0.00     0.012 C 
ATOM     26  O   UNL     1      51.676 -31.662   1.618  1.00  0.00    -0.299 OA
ATOM     27  C   UNL     1      52.343 -29.761  -0.304  1.00  0.00     0.043 C 
ATOM     28  C   UNL     1      52.282 -27.257  -0.755  1.00  0.00     0.032 C 
ATOM     29  C   UNL     1      52.897 -28.608  -1.158  1.00  0.00     0.115 C 
ATOM     30  H   UNL     1      48.821 -24.041   6.643  1.00  0.00     0.348 HD
ENDROOT
BRANCH   6  31
ATOM     31  O   UNL     1      47.756 -27.902   8.085  1.00  0.00    -0.384 OA
ATOM     32  H   UNL     1      47.991 -27.768   9.041  1.00  0.00     0.211 HD
ENDBRANCH   6  31
BRANCH  29  33
ATOM     33  O   UNL     1      52.691 -28.859  -2.526  1.00  0.00    -0.393 OA
ATOM     34  H   UNL     1      52.352 -28.020  -2.941  1.00  0.00     0.210 HD
ENDBRANCH  29  33
TORSDOF 2
ENDMDL
MODEL 6
REMARK VINA RESULT:    -8.168      4.230      7.302
REMARK INTER + INTRA:          -8.645
REMARK INTER:                  -8.645
REMARK INTRA:                   0.000
REMARK UNBOUND:                 0.000
REMARK SMILES C[C@H]1CC[C@H]2[N@@H+](C1)C[C@@H]1[C@@H]3C[C@H]4[C@H](CC(=O)[C@H]5C[C@@H](O)CC[C@@]54C)[C@@H]3CC[C@@H]1[C@@]2(C)O
REMARK SMILES IDX 5 1 6 2 8 3 7 4 4 5 29 6 3 7 28 8 30 9 2 10 27 11 9 12 1 13
REMARK SMILES IDX 26 14 10 15 25 16 11 17 13 18 12 19 14 20 23 21 15 22 17 23
REMARK SMILES IDX 22 24 24 25 16 26 18 27 21 28 19 29 31 31 20 33
REMARK H PARENT 6 30 31 32 20 34
REMARK Flexibility Score: inf
ROOT
ATOM      1  C   UNL     1      54.215 -32.232  -3.724  1.00  0.00     0.216 C 
ATOM      2  N   UNL     1      52.769 -31.897  -3.994  1.00  0.00    -0.330 N 
ATOM      3  C   UNL     1      51.991 -31.375  -2.837  1.00  0.00     0.266 C 
ATOM      4  C   UNL     1      52.001 -32.987  -4.658  1.00  0.00     0.265 C 
ATOM      5  C   UNL     1      54.480 -33.762  -3.819  1.00  0.00     0.069 C 
ATOM      6  C   UNL     1      54.785 -31.610  -2.398  1.00  0.00     0.117 C 
ATOM      7  C   UNL     1      54.120 -34.297  -5.211  1.00  0.00     0.015 C 
ATOM      8  C   UNL     1      53.896 -32.069  -1.194  1.00  0.00     0.036 C 
ATOM      9  C   UNL     1      54.877 -30.064  -2.500  1.00  0.00     0.049 C 
ATOM     10  C   UNL     1      52.800 -33.710  -5.761  1.00  0.00     0.041 C 
ATOM     11  C   UNL     1      54.311 -31.453   0.152  1.00  0.00     0.007 C 
ATOM     12  C   UNL     1      52.358 -32.003  -1.466  1.00  0.00     0.054 C 
ATOM     13  C   UNL     1      53.040 -32.797  -6.974  1.00  0.00     0.013 C 
ATOM     14  C   UNL     1      53.471 -32.080   1.263  1.00  0.00     0.004 C 
ATOM     15  C   UNL     1      51.492 -31.405  -0.297  1.00  0.00     0.002 C 
ATOM     16  C   UNL     1      51.975 -31.686   1.156  1.00  0.00    -0.004 C 
ATOM     17  C   UNL     1      51.271 -29.892  -0.357  1.00  0.00     0.009 C 
ATOM     18  C   UNL     1      51.518 -30.453   2.009  1.00  0.00     0.003 C 
ATOM     19  C   UNL     1      50.757 -29.521   1.033  1.00  0.00    -0.000 C 
ATOM     20  C   UNL     1      52.609 -29.730   2.841  1.00  0.00     0.080 C 
ATOM     21  C   UNL     1      50.731 -27.977   1.395  1.00  0.00    -0.020 C 
ATOM     22  C   UNL     1      52.101 -28.447   3.444  1.00  0.00     0.136 C 
ATOM     23  C   UNL     1      50.800 -27.852   2.950  1.00  0.00     0.065 C 
ATOM     24  C   UNL     1      49.382 -27.367   0.904  1.00  0.00     0.010 C 
ATOM     25  C   UNL     1      51.906 -27.206   0.716  1.00  0.00     0.012 C 
ATOM     26  O   UNL     1      52.752 -27.902   4.322  1.00  0.00    -0.299 OA
ATOM     27  C   UNL     1      50.566 -26.408   3.458  1.00  0.00     0.043 C 
ATOM     28  C   UNL     1      49.152 -25.929   1.398  1.00  0.00     0.032 C 
ATOM     29  C   UNL     1      49.234 -25.848   2.932  1.00  0.00     0.115 C 
ATOM     30  H   UNL     1      52.779 -31.111  -4.689  1.00  0.00     0.348 HD
ENDROOT
BRANCH   6  31
ATOM     31  O   UNL     1      56.125 -32.037  -2.224  1.00  0.00    -0.384 OA
ATOM     32  H   UNL     1      56.433 -32.533  -3.027  1.00  0.00     0.211 HD
ENDBRANCH   6  31
BRANCH  29  33
ATOM     33  O   UNL     1      49.042 -24.526   3.370  1.00  0.00    -0.393 OA
ATOM     34  H   UNL     1      48.153 -24.480   3.814  1.00  0.00     0.210 HD
ENDBRANCH  29  33
TORSDOF 2
ENDMDL
MODEL 7
REMARK VINA RESULT:    -8.114      8.424     13.468
REMARK INTER + INTRA:          -8.588
REMARK INTER:                  -8.588
REMARK INTRA:                   0.000
REMARK UNBOUND:                 0.000
REMARK SMILES C[C@H]1CC[C@H]2[N@@H+](C1)C[C@@H]1[C@@H]3C[C@H]4[C@H](CC(=O)[C@H]5C[C@@H](O)CC[C@@]54C)[C@@H]3CC[C@@H]1[C@@]2(C)O
REMARK SMILES IDX 5 1 6 2 8 3 7 4 4 5 29 6 3 7 28 8 30 9 2 10 27 11 9 12 1 13
REMARK SMILES IDX 26 14 10 15 25 16 11 17 13 18 12 19 14 20 23 21 15 22 17 23
REMARK SMILES IDX 22 24 24 25 16 26 18 27 21 28 19 29 31 31 20 33
REMARK H PARENT 6 30 31 32 20 34
REMARK Flexibility Score: inf
ROOT
ATOM      1  C   UNL     1      48.173 -27.865   7.599  1.00  0.00     0.216 C 
ATOM      2  N   UNL     1      47.392 -28.188   6.350  1.00  0.00    -0.330 N 
ATOM      3  C   UNL     1      47.946 -27.652   5.076  1.00  0.00     0.266 C 
ATOM      4  C   UNL     1      45.940 -27.867   6.435  1.00  0.00     0.265 C 
ATOM      5  C   UNL     1      47.389 -26.905   8.538  1.00  0.00     0.069 C 
ATOM      6  C   UNL     1      49.642 -27.371   7.334  1.00  0.00     0.117 C 
ATOM      7  C   UNL     1      46.049 -27.522   8.961  1.00  0.00     0.015 C 
ATOM      8  C   UNL     1      49.598 -26.121   6.393  1.00  0.00     0.036 C 
ATOM      9  C   UNL     1      50.519 -28.511   6.750  1.00  0.00     0.049 C 
ATOM     10  C   UNL     1      45.317 -28.228   7.798  1.00  0.00     0.041 C 
ATOM     11  C   UNL     1      50.988 -25.596   5.996  1.00  0.00     0.007 C 
ATOM     12  C   UNL     1      48.611 -26.253   5.189  1.00  0.00     0.054 C 
ATOM     13  C   UNL     1      45.250 -29.750   8.003  1.00  0.00     0.013 C 
ATOM     14  C   UNL     1      50.820 -24.302   5.203  1.00  0.00     0.004 C 
ATOM     15  C   UNL     1      49.165 -25.754   3.804  1.00  0.00     0.002 C 
ATOM     16  C   UNL     1      50.142 -24.543   3.829  1.00  0.00    -0.004 C 
ATOM     17  C   UNL     1      49.872 -26.819   2.963  1.00  0.00     0.009 C 
ATOM     18  C   UNL     1      51.101 -24.736   2.605  1.00  0.00     0.003 C 
ATOM     19  C   UNL     1      50.625 -26.028   1.894  1.00  0.00    -0.000 C 
ATOM     20  C   UNL     1      52.624 -24.707   2.893  1.00  0.00     0.080 C 
ATOM     21  C   UNL     1      51.711 -26.822   1.054  1.00  0.00    -0.020 C 
ATOM     22  C   UNL     1      53.434 -25.113   1.690  1.00  0.00     0.136 C 
ATOM     23  C   UNL     1      52.751 -25.786   0.520  1.00  0.00     0.065 C 
ATOM     24  C   UNL     1      51.011 -27.500  -0.163  1.00  0.00     0.010 C 
ATOM     25  C   UNL     1      52.408 -27.927   1.909  1.00  0.00     0.012 C 
ATOM     26  O   UNL     1      54.637 -24.897   1.680  1.00  0.00    -0.299 OA
ATOM     27  C   UNL     1      53.749 -26.390  -0.497  1.00  0.00     0.043 C 
ATOM     28  C   UNL     1      52.000 -28.111  -1.170  1.00  0.00     0.032 C 
ATOM     29  C   UNL     1      53.008 -27.060  -1.665  1.00  0.00     0.115 C 
ATOM     30  H   UNL     1      47.434 -29.230   6.244  1.00  0.00     0.348 HD
ENDROOT
BRANCH   6  31
ATOM     31  O   UNL     1      50.253 -27.048   8.570  1.00  0.00    -0.384 OA
ATOM     32  H   UNL     1      49.569 -27.004   9.289  1.00  0.00     0.211 HD
ENDBRANCH   6  31
BRANCH  29  33
ATOM     33  O   UNL     1      53.920 -27.635  -2.569  1.00  0.00    -0.393 OA
ATOM     34  H   UNL     1      54.496 -28.265  -2.058  1.00  0.00     0.210 HD
ENDBRANCH  29  33
TORSDOF 2
ENDMDL
MODEL 8
REMARK VINA RESULT:    -8.084      3.016      8.475
REMARK INTER + INTRA:          -8.557
REMARK INTER:                  -8.557
REMARK INTRA:                   0.000
REMARK UNBOUND:                 0.000
REMARK SMILES C[C@H]1CC[C@H]2[N@@H+](C1)C[C@@H]1[C@@H]3C[C@H]4[C@H](CC(=O)[C@H]5C[C@@H](O)CC[C@@]54C)[C@@H]3CC[C@@H]1[C@@]2(C)O
REMARK SMILES IDX 5 1 6 2 8 3 7 4 4 5 29 6 3 7 28 8 30 9 2 10 27 11 9 12 1 13
REMARK SMILES IDX 26 14 10 15 25 16 11 17 13 18 12 19 14 20 23 21 15 22 17 23
REMARK SMILES IDX 22 24 24 25 16 26 18 27 21 28 19 29 31 31 20 33
REMARK H PARENT 6 30 31 32 20 34
REMARK Flexibility Score: inf
ROOT
ATOM      1  C   UNL     1      53.868 -30.042   0.699  1.00  0.00     0.216 C 
ATOM      2  N   UNL     1      52.660 -30.943   0.636  1.00  0.00    -0.330 N 
ATOM      3  C   UNL     1      52.346 -31.522  -0.699  1.00  0.00     0.266 C 
ATOM      4  C   UNL     1      51.426 -30.357   1.227  1.00  0.00     0.265 C 
ATOM      5  C   UNL     1      53.472 -28.566   0.989  1.00  0.00     0.069 C 
ATOM      6  C   UNL     1      54.835 -30.168  -0.534  1.00  0.00     0.117 C 
ATOM      7  C   UNL     1      52.721 -28.449   2.323  1.00  0.00     0.015 C 
ATOM      8  C   UNL     1      54.027 -29.889  -1.846  1.00  0.00     0.036 C 
ATOM      9  C   UNL     1      55.530 -31.555  -0.561  1.00  0.00     0.049 C 
ATOM     10  C   UNL     1      51.687 -29.579   2.533  1.00  0.00     0.041 C 
ATOM     11  C   UNL     1      54.854 -30.065  -3.130  1.00  0.00     0.007 C 
ATOM     12  C   UNL     1      52.627 -30.581  -1.902  1.00  0.00     0.054 C 
ATOM     13  C   UNL     1      52.092 -30.520   3.679  1.00  0.00     0.013 C 
ATOM     14  C   UNL     1      54.009 -29.630  -4.326  1.00  0.00     0.004 C 
ATOM     15  C   UNL     1      52.265 -31.260  -3.273  1.00  0.00     0.002 C 
ATOM     16  C   UNL     1      52.804 -30.577  -4.564  1.00  0.00    -0.004 C 
ATOM     17  C   UNL     1      52.671 -32.730  -3.402  1.00  0.00     0.009 C 
ATOM     18  C   UNL     1      53.020 -31.729  -5.604  1.00  0.00     0.003 C 
ATOM     19  C   UNL     1      52.567 -33.031  -4.896  1.00  0.00    -0.000 C 
ATOM     20  C   UNL     1      54.422 -31.831  -6.260  1.00  0.00     0.080 C 
ATOM     21  C   UNL     1      53.224 -34.383  -5.398  1.00  0.00    -0.020 C 
ATOM     22  C   UNL     1      54.576 -33.090  -7.071  1.00  0.00     0.136 C 
ATOM     23  C   UNL     1      53.571 -34.211  -6.911  1.00  0.00     0.065 C 
ATOM     24  C   UNL     1      52.183 -35.535  -5.252  1.00  0.00     0.010 C 
ATOM     25  C   UNL     1      54.495 -34.750  -4.568  1.00  0.00     0.012 C 
ATOM     26  O   UNL     1      55.516 -33.191  -7.844  1.00  0.00    -0.299 OA
ATOM     27  C   UNL     1      54.023 -35.528  -7.589  1.00  0.00     0.043 C 
ATOM     28  C   UNL     1      52.633 -36.848  -5.915  1.00  0.00     0.032 C 
ATOM     29  C   UNL     1      52.970 -36.633  -7.400  1.00  0.00     0.115 C 
ATOM     30  H   UNL     1      52.885 -31.770   1.241  1.00  0.00     0.348 HD
ENDROOT
BRANCH   6  31
ATOM     31  O   UNL     1      55.894 -29.240  -0.390  1.00  0.00    -0.384 OA
ATOM     32  H   UNL     1      56.527 -29.320  -1.152  1.00  0.00     0.211 HD
ENDBRANCH   6  31
BRANCH  29  33
ATOM     33  O   UNL     1      53.400 -37.835  -7.990  1.00  0.00    -0.393 OA
ATOM     34  H   UNL     1      52.736 -38.539  -7.762  1.00  0.00     0.210 HD
ENDBRANCH  29  33
TORSDOF 2
ENDMDL
MODEL 9
REMARK VINA RESULT:    -7.857      7.463     11.757
REMARK INTER + INTRA:          -8.317
REMARK INTER:                  -8.317
REMARK INTRA:                   0.000
REMARK UNBOUND:                 0.000
REMARK SMILES C[C@H]1CC[C@H]2[N@@H+](C1)C[C@@H]1[C@@H]3C[C@H]4[C@H](CC(=O)[C@H]5C[C@@H](O)CC[C@@]54C)[C@@H]3CC[C@@H]1[C@@]2(C)O
REMARK SMILES IDX 5 1 6 2 8 3 7 4 4 5 29 6 3 7 28 8 30 9 2 10 27 11 9 12 1 13
REMARK SMILES IDX 26 14 10 15 25 16 11 17 13 18 12 19 14 20 23 21 15 22 17 23
REMARK SMILES IDX 22 24 24 25 16 26 18 27 21 28 19 29 31 31 20 33
REMARK H PARENT 6 30 31 32 20 34
REMARK Flexibility Score: inf
ROOT
ATOM      1  C   UNL     1      53.076 -27.726  -0.934  1.00  0.00     0.216 C 
ATOM      2  N   UNL     1      53.633 -26.574  -0.135  1.00  0.00    -0.330 N 
ATOM      3  C   UNL     1      52.812 -26.124   1.023  1.00  0.00     0.266 C 
ATOM      4  C   UNL     1      54.028 -25.394  -0.953  1.00  0.00     0.265 C 
ATOM      5  C   UNL     1      52.658 -27.285  -2.366  1.00  0.00     0.069 C 
ATOM      6  C   UNL     1      51.940 -28.531  -0.203  1.00  0.00     0.117 C 
ATOM      7  C   UNL     1      53.853 -26.707  -3.135  1.00  0.00     0.015 C 
ATOM      8  C   UNL     1      50.789 -27.546   0.191  1.00  0.00     0.036 C 
ATOM      9  C   UNL     1      52.499 -29.296   1.025  1.00  0.00     0.049 C 
ATOM     10  C   UNL     1      54.733 -25.776  -2.270  1.00  0.00     0.041 C 
ATOM     11  C   UNL     1      49.654 -28.209   0.988  1.00  0.00     0.007 C 
ATOM     12  C   UNL     1      51.277 -26.193   0.802  1.00  0.00     0.054 C 
ATOM     13  C   UNL     1      56.124 -26.379  -2.012  1.00  0.00     0.013 C 
ATOM     14  C   UNL     1      48.532 -27.193   1.189  1.00  0.00     0.004 C 
ATOM     15  C   UNL     1      50.481 -25.697   2.064  1.00  0.00     0.002 C 
ATOM     16  C   UNL     1      48.960 -26.025   2.114  1.00  0.00    -0.004 C 
ATOM     17  C   UNL     1      51.034 -26.168   3.411  1.00  0.00     0.009 C 
ATOM     18  C   UNL     1      48.599 -26.172   3.632  1.00  0.00     0.003 C 
ATOM     19  C   UNL     1      49.910 -25.890   4.409  1.00  0.00    -0.000 C 
ATOM     20  C   UNL     1      47.888 -27.481   4.063  1.00  0.00     0.080 C 
ATOM     21  C   UNL     1      50.049 -26.555   5.841  1.00  0.00    -0.020 C 
ATOM     22  C   UNL     1      47.786 -27.602   5.560  1.00  0.00     0.136 C 
ATOM     23  C   UNL     1      48.614 -26.693   6.442  1.00  0.00     0.065 C 
ATOM     24  C   UNL     1      50.885 -25.610   6.758  1.00  0.00     0.010 C 
ATOM     25  C   UNL     1      50.763 -27.941   5.768  1.00  0.00     0.012 C 
ATOM     26  O   UNL     1      47.038 -28.439   6.041  1.00  0.00    -0.299 OA
ATOM     27  C   UNL     1      48.613 -27.129   7.928  1.00  0.00     0.043 C 
ATOM     28  C   UNL     1      50.895 -26.046   8.232  1.00  0.00     0.032 C 
ATOM     29  C   UNL     1      49.465 -26.176   8.782  1.00  0.00     0.115 C 
ATOM     30  H   UNL     1      54.527 -26.922   0.289  1.00  0.00     0.348 HD
ENDROOT
BRANCH   6  31
ATOM     31  O   UNL     1      51.460 -29.545  -1.068  1.00  0.00    -0.384 OA
ATOM     32  H   UNL     1      52.212 -30.115  -1.377  1.00  0.00     0.211 HD
ENDBRANCH   6  31
BRANCH  29  33
ATOM     33  O   UNL     1      49.486 -26.595  10.124  1.00  0.00    -0.393 OA
ATOM     34  H   UNL     1      49.679 -25.799  10.688  1.00  0.00     0.210 HD
ENDBRANCH  29  33
TORSDOF 2
ENDMDL
