MODEL 1
REMARK VINA RESULT:    -6.403      0.000      0.000
REMARK INTER + INTRA:          -6.590
REMARK INTER:                  -6.590
REMARK INTRA:                   0.000
REMARK UNBOUND:                 0.000
REMARK SMILES C=C1[C@H]2C[C@]3(C[C@@H]1O)[C@@H](C)CC[C@H]3C2(C)C
REMARK SMILES IDX 10 1 9 2 11 3 12 4 13 5 5 6 4 7 3 8 14 9 15 10 16 11 2 12
REMARK SMILES IDX 1 13 7 14 6 15 8 16
REMARK H PARENT 8 17
REMARK Flexibility Score: inf
ROOT
ATOM      1  C   UNL     1     178.646 182.332 182.603  1.00  0.00     0.008 C 
ATOM      2  C   UNL     1     179.203 180.903 182.535  1.00  0.00    -0.008 C 
ATOM      3  C   UNL     1     180.112 180.654 181.292  1.00  0.00     0.004 C 
ATOM      4  C   UNL     1     181.166 179.596 181.710  1.00  0.00     0.005 C 
ATOM      5  C   UNL     1     180.666 179.175 183.080  1.00  0.00     0.002 C 
ATOM      6  C   UNL     1     180.093 180.440 183.711  1.00  0.00    -0.020 C 
ATOM      7  C   UNL     1     179.505 179.832 184.974  1.00  0.00     0.016 C 
ATOM      8  C   UNL     1     180.743 179.039 185.482  1.00  0.00     0.023 C 
ATOM      9  C   UNL     1     181.422 178.425 184.193  1.00  0.00    -0.025 C 
ATOM     10  C   UNL     1     181.128 176.907 184.135  1.00  0.00     0.012 C 
ATOM     11  C   UNL     1     182.957 178.604 184.079  1.00  0.00     0.012 C 
ATOM     12  C   UNL     1     181.644 180.043 186.165  1.00  0.00    -0.045 C 
ATOM     13  C   UNL     1     182.257 179.736 187.319  1.00  0.00     0.011 C 
ATOM     14  C   UNL     1     181.810 181.415 185.541  1.00  0.00     0.140 C 
ATOM     15  C   UNL     1     181.177 181.534 184.115  1.00  0.00     0.044 C 
ENDROOT
BRANCH  14  16
ATOM     16  O   UNL     1     183.173 181.751 185.487  1.00  0.00    -0.389 OA
ATOM     17  H   UNL     1     183.234 182.728 185.652  1.00  0.00     0.211 HD
ENDBRANCH  14  16
TORSDOF 1
ENDMDL
MODEL 2
REMARK VINA RESULT:    -5.785      1.575      3.704
REMARK INTER + INTRA:          -5.954
REMARK INTER:                  -5.954
REMARK INTRA:                   0.000
REMARK UNBOUND:                 0.000
REMARK SMILES C=C1[C@H]2C[C@]3(C[C@@H]1O)[C@@H](C)CC[C@H]3C2(C)C
REMARK SMILES IDX 10 1 9 2 11 3 12 4 13 5 5 6 4 7 3 8 14 9 15 10 16 11 2 12
REMARK SMILES IDX 1 13 7 14 6 15 8 16
REMARK H PARENT 8 17
REMARK Flexibility Score: inf
ROOT
ATOM      1  C   UNL     1     180.832 177.223 183.018  1.00  0.00     0.008 C 
ATOM      2  C   UNL     1     181.489 177.898 184.231  1.00  0.00    -0.008 C 
ATOM      3  C   UNL     1     183.020 178.131 184.052  1.00  0.00     0.004 C 
ATOM      4  C   UNL     1     183.377 179.410 184.855  1.00  0.00     0.005 C 
ATOM      5  C   UNL     1     182.078 179.696 185.587  1.00  0.00     0.002 C 
ATOM      6  C   UNL     1     180.969 179.301 184.618  1.00  0.00    -0.020 C 
ATOM      7  C   UNL     1     179.772 179.490 185.536  1.00  0.00     0.016 C 
ATOM      8  C   UNL     1     180.064 180.929 186.053  1.00  0.00     0.023 C 
ATOM      9  C   UNL     1     181.628 180.999 186.275  1.00  0.00    -0.025 C 
ATOM     10  C   UNL     1     181.929 180.957 187.791  1.00  0.00     0.012 C 
ATOM     11  C   UNL     1     182.345 182.244 185.695  1.00  0.00     0.012 C 
ATOM     12  C   UNL     1     179.611 181.874 184.964  1.00  0.00    -0.045 C 
ATOM     13  C   UNL     1     178.952 183.003 185.270  1.00  0.00     0.011 C 
ATOM     14  C   UNL     1     179.881 181.504 183.518  1.00  0.00     0.140 C 
ATOM     15  C   UNL     1     180.814 180.258 183.356  1.00  0.00     0.044 C 
ENDROOT
BRANCH  14  16
ATOM     16  O   UNL     1     180.433 182.605 182.841  1.00  0.00    -0.389 OA
ATOM     17  H   UNL     1     180.313 183.393 183.433  1.00  0.00     0.211 HD
ENDBRANCH  14  16
TORSDOF 1
ENDMDL
MODEL 3
REMARK VINA RESULT:    -5.753      1.683      2.705
REMARK INTER + INTRA:          -5.921
REMARK INTER:                  -5.921
REMARK INTRA:                   0.000
REMARK UNBOUND:                 0.000
REMARK SMILES C=C1[C@H]2C[C@]3(C[C@@H]1O)[C@@H](C)CC[C@H]3C2(C)C
REMARK SMILES IDX 10 1 9 2 11 3 12 4 13 5 5 6 4 7 3 8 14 9 15 10 16 11 2 12
REMARK SMILES IDX 1 13 7 14 6 15 8 16
REMARK H PARENT 8 17
REMARK Flexibility Score: inf
ROOT
ATOM      1  C   UNL     1     177.533 184.021 183.003  1.00  0.00     0.008 C 
ATOM      2  C   UNL     1     178.743 183.342 182.345  1.00  0.00    -0.008 C 
ATOM      3  C   UNL     1     179.923 184.322 182.066  1.00  0.00     0.004 C 
ATOM      4  C   UNL     1     181.230 183.494 182.175  1.00  0.00     0.005 C 
ATOM      5  C   UNL     1     180.698 182.079 182.309  1.00  0.00     0.002 C 
ATOM      6  C   UNL     1     179.421 182.200 183.135  1.00  0.00    -0.020 C 
ATOM      7  C   UNL     1     178.940 180.761 183.042  1.00  0.00     0.016 C 
ATOM      8  C   UNL     1     180.239 180.023 183.474  1.00  0.00     0.023 C 
ATOM      9  C   UNL     1     181.431 180.817 182.803  1.00  0.00    -0.025 C 
ATOM     10  C   UNL     1     181.983 179.997 181.614  1.00  0.00     0.012 C 
ATOM     11  C   UNL     1     182.628 181.159 183.725  1.00  0.00     0.012 C 
ATOM     12  C   UNL     1     180.295 180.101 184.983  1.00  0.00    -0.045 C 
ATOM     13  C   UNL     1     180.671 179.036 185.708  1.00  0.00     0.011 C 
ATOM     14  C   UNL     1     179.879 181.392 185.662  1.00  0.00     0.140 C 
ATOM     15  C   UNL     1     179.650 182.576 184.664  1.00  0.00     0.044 C 
ENDROOT
BRANCH  14  16
ATOM     16  O   UNL     1     180.840 181.755 186.620  1.00  0.00    -0.389 OA
ATOM     17  H   UNL     1     180.929 182.743 186.575  1.00  0.00     0.211 HD
ENDBRANCH  14  16
TORSDOF 1
ENDMDL
MODEL 4
REMARK VINA RESULT:    -5.718      1.550      4.105
REMARK INTER + INTRA:          -5.885
REMARK INTER:                  -5.885
REMARK INTRA:                   0.000
REMARK UNBOUND:                 0.000
REMARK SMILES C=C1[C@H]2C[C@]3(C[C@@H]1O)[C@@H](C)CC[C@H]3C2(C)C
REMARK SMILES IDX 10 1 9 2 11 3 12 4 13 5 5 6 4 7 3 8 14 9 15 10 16 11 2 12
REMARK SMILES IDX 1 13 7 14 6 15 8 16
REMARK H PARENT 8 17
REMARK Flexibility Score: inf
ROOT
ATOM      1  C   UNL     1     182.794 179.826 187.856  1.00  0.00     0.008 C 
ATOM      2  C   UNL     1     181.865 180.465 186.813  1.00  0.00    -0.008 C 
ATOM      3  C   UNL     1     182.383 181.839 186.288  1.00  0.00     0.004 C 
ATOM      4  C   UNL     1     181.889 181.975 184.824  1.00  0.00     0.005 C 
ATOM      5  C   UNL     1     180.969 180.775 184.687  1.00  0.00     0.002 C 
ATOM      6  C   UNL     1     181.618 179.669 185.512  1.00  0.00    -0.020 C 
ATOM      7  C   UNL     1     180.523 178.620 185.407  1.00  0.00     0.016 C 
ATOM      8  C   UNL     1     180.319 178.608 183.864  1.00  0.00     0.023 C 
ATOM      9  C   UNL     1     180.429 180.117 183.403  1.00  0.00    -0.025 C 
ATOM     10  C   UNL     1     179.018 180.649 183.060  1.00  0.00     0.012 C 
ATOM     11  C   UNL     1     181.338 180.391 182.179  1.00  0.00     0.012 C 
ATOM     12  C   UNL     1     181.436 177.766 183.292  1.00  0.00    -0.045 C 
ATOM     13  C   UNL     1     181.194 176.894 182.300  1.00  0.00     0.011 C 
ATOM     14  C   UNL     1     182.826 177.895 183.886  1.00  0.00     0.140 C 
ATOM     15  C   UNL     1     182.963 179.081 184.898  1.00  0.00     0.044 C 
ENDROOT
BRANCH  14  16
ATOM     16  O   UNL     1     183.771 178.035 182.856  1.00  0.00    -0.389 OA
ATOM     17  H   UNL     1     183.262 178.078 182.005  1.00  0.00     0.211 HD
ENDBRANCH  14  16
TORSDOF 1
ENDMDL
MODEL 5
REMARK VINA RESULT:    -5.652      1.669      4.091
REMARK INTER + INTRA:          -5.817
REMARK INTER:                  -5.817
REMARK INTRA:                   0.000
REMARK UNBOUND:                 0.000
REMARK SMILES C=C1[C@H]2C[C@]3(C[C@@H]1O)[C@@H](C)CC[C@H]3C2(C)C
REMARK SMILES IDX 10 1 9 2 11 3 12 4 13 5 5 6 4 7 3 8 14 9 15 10 16 11 2 12
REMARK SMILES IDX 1 13 7 14 6 15 8 16
REMARK H PARENT 8 17
REMARK Flexibility Score: inf
ROOT
ATOM      1  C   UNL     1     181.310 176.438 182.543  1.00  0.00     0.008 C 
ATOM      2  C   UNL     1     181.587 177.463 183.651  1.00  0.00    -0.008 C 
ATOM      3  C   UNL     1     183.095 177.840 183.778  1.00  0.00     0.004 C 
ATOM      4  C   UNL     1     183.151 179.308 184.276  1.00  0.00     0.005 C 
ATOM      5  C   UNL     1     181.692 179.594 184.584  1.00  0.00     0.002 C 
ATOM      6  C   UNL     1     180.897 178.839 183.523  1.00  0.00    -0.020 C 
ATOM      7  C   UNL     1     179.495 179.089 184.055  1.00  0.00     0.016 C 
ATOM      8  C   UNL     1     179.551 180.634 184.226  1.00  0.00     0.023 C 
ATOM      9  C   UNL     1     180.997 180.955 184.779  1.00  0.00    -0.025 C 
ATOM     10  C   UNL     1     180.900 181.317 186.279  1.00  0.00     0.012 C 
ATOM     11  C   UNL     1     181.758 182.106 184.073  1.00  0.00     0.012 C 
ATOM     12  C   UNL     1     179.334 181.225 182.851  1.00  0.00    -0.045 C 
ATOM     13  C   UNL     1     178.548 182.300 182.687  1.00  0.00     0.011 C 
ATOM     14  C   UNL     1     179.990 180.556 181.658  1.00  0.00     0.140 C 
ATOM     15  C   UNL     1     181.011 179.438 182.053  1.00  0.00     0.044 C 
ENDROOT
BRANCH  14  16
ATOM     16  O   UNL     1     180.626 181.523 180.862  1.00  0.00    -0.389 OA
ATOM     17  H   UNL     1     181.158 181.030 180.184  1.00  0.00     0.211 HD
ENDBRANCH  14  16
TORSDOF 1
ENDMDL
MODEL 6
REMARK VINA RESULT:    -5.631      2.075      4.315
REMARK INTER + INTRA:          -5.796
REMARK INTER:                  -5.796
REMARK INTRA:                   0.000
REMARK UNBOUND:                 0.000
REMARK SMILES C=C1[C@H]2C[C@]3(C[C@@H]1O)[C@@H](C)CC[C@H]3C2(C)C
REMARK SMILES IDX 10 1 9 2 11 3 12 4 13 5 5 6 4 7 3 8 14 9 15 10 16 11 2 12
REMARK SMILES IDX 1 13 7 14 6 15 8 16
REMARK H PARENT 8 17
REMARK Flexibility Score: inf
ROOT
ATOM      1  C   UNL     1     180.484 178.745 185.592  1.00  0.00     0.008 C 
ATOM      2  C   UNL     1     181.295 179.078 184.332  1.00  0.00    -0.008 C 
ATOM      3  C   UNL     1     181.146 178.011 183.204  1.00  0.00     0.004 C 
ATOM      4  C   UNL     1     181.294 178.761 181.854  1.00  0.00     0.005 C 
ATOM      5  C   UNL     1     181.711 180.148 182.307  1.00  0.00     0.002 C 
ATOM      6  C   UNL     1     180.952 180.398 183.605  1.00  0.00    -0.020 C 
ATOM      7  C   UNL     1     181.585 181.722 184.001  1.00  0.00     0.016 C 
ATOM      8  C   UNL     1     181.401 182.508 182.671  1.00  0.00     0.023 C 
ATOM      9  C   UNL     1     181.685 181.469 181.513  1.00  0.00    -0.025 C 
ATOM     10  C   UNL     1     183.068 181.766 180.888  1.00  0.00     0.012 C 
ATOM     11  C   UNL     1     180.652 181.436 180.358  1.00  0.00     0.012 C 
ATOM     12  C   UNL     1     179.968 182.988 182.652  1.00  0.00    -0.045 C 
ATOM     13  C   UNL     1     179.669 184.227 182.231  1.00  0.00     0.011 C 
ATOM     14  C   UNL     1     178.881 182.059 183.156  1.00  0.00     0.140 C 
ATOM     15  C   UNL     1     179.383 180.602 183.432  1.00  0.00     0.044 C 
ENDROOT
BRANCH  14  16
ATOM     16  O   UNL     1     177.817 182.031 182.239  1.00  0.00    -0.389 OA
ATOM     17  H   UNL     1     176.996 182.266 182.746  1.00  0.00     0.211 HD
ENDBRANCH  14  16
TORSDOF 1
ENDMDL
MODEL 7
REMARK VINA RESULT:    -5.615      1.714      4.656
REMARK INTER + INTRA:          -5.779
REMARK INTER:                  -5.779
REMARK INTRA:                   0.000
REMARK UNBOUND:                 0.000
REMARK SMILES C=C1[C@H]2C[C@]3(C[C@@H]1O)[C@@H](C)CC[C@H]3C2(C)C
REMARK SMILES IDX 10 1 9 2 11 3 12 4 13 5 5 6 4 7 3 8 14 9 15 10 16 11 2 12
REMARK SMILES IDX 1 13 7 14 6 15 8 16
REMARK H PARENT 8 17
REMARK Flexibility Score: inf
ROOT
ATOM      1  C   UNL     1     180.718 178.396 184.906  1.00  0.00     0.008 C 
ATOM      2  C   UNL     1     179.838 179.644 184.750  1.00  0.00    -0.008 C 
ATOM      3  C   UNL     1     179.865 180.576 186.000  1.00  0.00     0.004 C 
ATOM      4  C   UNL     1     179.656 182.024 185.485  1.00  0.00     0.005 C 
ATOM      5  C   UNL     1     179.330 181.796 184.020  1.00  0.00     0.002 C 
ATOM      6  C   UNL     1     180.186 180.608 183.593  1.00  0.00    -0.020 C 
ATOM      7  C   UNL     1     179.637 180.411 182.190  1.00  0.00     0.016 C 
ATOM      8  C   UNL     1     179.762 181.866 181.653  1.00  0.00     0.023 C 
ATOM      9  C   UNL     1     179.357 182.806 182.858  1.00  0.00    -0.025 C 
ATOM     10  C   UNL     1     177.948 183.389 182.598  1.00  0.00     0.012 C 
ATOM     11  C   UNL     1     180.306 183.998 183.142  1.00  0.00     0.012 C 
ATOM     12  C   UNL     1     181.210 182.053 181.259  1.00  0.00    -0.045 C 
ATOM     13  C   UNL     1     181.531 182.701 180.128  1.00  0.00     0.011 C 
ATOM     14  C   UNL     1     182.289 181.462 182.146  1.00  0.00     0.140 C 
ATOM     15  C   UNL     1     181.746 180.908 183.505  1.00  0.00     0.044 C 
ENDROOT
BRANCH  14  16
ATOM     16  O   UNL     1     183.286 182.423 182.386  1.00  0.00    -0.389 OA
ATOM     17  H   UNL     1     183.937 182.009 183.011  1.00  0.00     0.211 HD
ENDBRANCH  14  16
TORSDOF 1
ENDMDL
MODEL 8
REMARK VINA RESULT:    -5.598      1.844      4.197
REMARK INTER + INTRA:          -5.761
REMARK INTER:                  -5.761
REMARK INTRA:                   0.000
REMARK UNBOUND:                 0.000
REMARK SMILES C=C1[C@H]2C[C@]3(C[C@@H]1O)[C@@H](C)CC[C@H]3C2(C)C
REMARK SMILES IDX 10 1 9 2 11 3 12 4 13 5 5 6 4 7 3 8 14 9 15 10 16 11 2 12
REMARK SMILES IDX 1 13 7 14 6 15 8 16
REMARK H PARENT 8 17
REMARK Flexibility Score: inf
ROOT
ATOM      1  C   UNL     1     182.199 179.791 186.878  1.00  0.00     0.008 C 
ATOM      2  C   UNL     1     181.805 179.597 185.406  1.00  0.00    -0.008 C 
ATOM      3  C   UNL     1     180.716 178.502 185.199  1.00  0.00     0.004 C 
ATOM      4  C   UNL     1     179.886 178.922 183.957  1.00  0.00     0.005 C 
ATOM      5  C   UNL     1     180.678 180.107 183.434  1.00  0.00     0.002 C 
ATOM      6  C   UNL     1     181.210 180.820 184.673  1.00  0.00    -0.020 C 
ATOM      7  C   UNL     1     182.089 181.857 183.992  1.00  0.00     0.016 C 
ATOM      8  C   UNL     1     181.066 182.437 182.973  1.00  0.00     0.023 C 
ATOM      9  C   UNL     1     180.234 181.201 182.445  1.00  0.00    -0.025 C 
ATOM     10  C   UNL     1     180.684 180.861 181.005  1.00  0.00     0.012 C 
ATOM     11  C   UNL     1     178.694 181.376 182.420  1.00  0.00     0.012 C 
ATOM     12  C   UNL     1     180.200 183.408 183.742  1.00  0.00    -0.045 C 
ATOM     13  C   UNL     1     179.852 184.587 183.203  1.00  0.00     0.011 C 
ATOM     14  C   UNL     1     179.764 183.041 185.148  1.00  0.00     0.140 C 
ATOM     15  C   UNL     1     180.102 181.564 185.540  1.00  0.00     0.044 C 
ENDROOT
BRANCH  14  16
ATOM     16  O   UNL     1     178.385 183.269 185.292  1.00  0.00    -0.389 OA
ATOM     17  H   UNL     1     178.048 182.584 185.928  1.00  0.00     0.211 HD
ENDBRANCH  14  16
TORSDOF 1
ENDMDL
MODEL 9
REMARK VINA RESULT:    -5.574      1.797      3.621
REMARK INTER + INTRA:          -5.737
REMARK INTER:                  -5.737
REMARK INTRA:                   0.000
REMARK UNBOUND:                 0.000
REMARK SMILES C=C1[C@H]2C[C@]3(C[C@@H]1O)[C@@H](C)CC[C@H]3C2(C)C
REMARK SMILES IDX 10 1 9 2 11 3 12 4 13 5 5 6 4 7 3 8 14 9 15 10 16 11 2 12
REMARK SMILES IDX 1 13 7 14 6 15 8 16
REMARK H PARENT 8 17
REMARK Flexibility Score: inf
ROOT
ATOM      1  C   UNL     1     181.897 175.892 183.358  1.00  0.00     0.008 C 
ATOM      2  C   UNL     1     182.291 177.297 182.879  1.00  0.00    -0.008 C 
ATOM      3  C   UNL     1     181.590 177.713 181.550  1.00  0.00     0.004 C 
ATOM      4  C   UNL     1     181.415 179.254 181.598  1.00  0.00     0.005 C 
ATOM      5  C   UNL     1     182.198 179.623 182.845  1.00  0.00     0.002 C 
ATOM      6  C   UNL     1     181.969 178.476 183.824  1.00  0.00    -0.020 C 
ATOM      7  C   UNL     1     182.923 178.909 184.925  1.00  0.00     0.016 C 
ATOM      8  C   UNL     1     182.453 180.380 185.116  1.00  0.00     0.023 C 
ATOM      9  C   UNL     1     182.147 180.926 183.664  1.00  0.00    -0.025 C 
ATOM     10  C   UNL     1     183.275 181.894 183.235  1.00  0.00     0.012 C 
ATOM     11  C   UNL     1     180.802 181.676 183.486  1.00  0.00     0.012 C 
ATOM     12  C   UNL     1     181.205 180.323 185.966  1.00  0.00    -0.045 C 
ATOM     13  C   UNL     1     181.009 181.213 186.952  1.00  0.00     0.011 C 
ATOM     14  C   UNL     1     180.198 179.218 185.711  1.00  0.00     0.140 C 
ATOM     15  C   UNL     1     180.494 178.390 184.416  1.00  0.00     0.044 C 
ENDROOT
BRANCH  14  16
ATOM     16  O   UNL     1     178.904 179.761 185.644  1.00  0.00    -0.389 OA
ATOM     17  H   UNL     1     178.969 180.589 185.100  1.00  0.00     0.211 HD
ENDBRANCH  14  16
TORSDOF 1
ENDMDL
