MODEL 1
REMARK VINA RESULT:    -3.232      0.000      0.000
REMARK INTER + INTRA:          -3.595
REMARK INTER:                  -3.421
REMARK INTRA:                  -0.174
REMARK UNBOUND:                -0.174
REMARK SMILES CC(C)[C@@H]1CC[C@@H](C)CC1=O
REMARK SMILES IDX 8 1 7 2 6 3 5 4 4 5 10 6 11 7 9 8 2 9 1 10 3 11
REMARK H PARENT
REMARK Flexibility Score: inf
ROOT
ATOM      1  C   UNL     1     233.295 232.879 233.767  1.00  0.00     0.008 C 
ATOM      2  C   UNL     1     231.772 232.930 233.930  1.00  0.00    -0.007 C 
ATOM      3  C   UNL     1     231.302 231.893 234.968  1.00  0.00     0.004 C 
ATOM      4  C   UNL     1     229.783 231.972 235.168  1.00  0.00     0.012 C 
ATOM      5  C   UNL     1     229.023 231.718 233.844  1.00  0.00     0.058 C 
ATOM      6  C   UNL     1     229.586 232.612 232.751  1.00  0.00     0.136 C 
ATOM      7  O   UNL     1     228.853 233.166 231.944  1.00  0.00    -0.299 OA
ATOM      8  C   UNL     1     231.078 232.699 232.576  1.00  0.00     0.079 C 
ENDROOT
BRANCH   5   9
ATOM      9  C   UNL     1     227.472 231.827 233.990  1.00  0.00    -0.007 C 
ATOM     10  C   UNL     1     226.785 230.464 233.820  1.00  0.00     0.008 C 
ATOM     11  C   UNL     1     227.021 232.486 235.305  1.00  0.00     0.008 C 
ENDBRANCH   5   9
TORSDOF 1
ENDMDL
MODEL 2
REMARK VINA RESULT:    -3.225      6.306      7.598
REMARK INTER + INTRA:          -3.587
REMARK INTER:                  -3.413
REMARK INTRA:                  -0.174
REMARK UNBOUND:                -0.174
REMARK SMILES CC(C)[C@@H]1CC[C@@H](C)CC1=O
REMARK SMILES IDX 8 1 7 2 6 3 5 4 4 5 10 6 11 7 9 8 2 9 1 10 3 11
REMARK H PARENT
REMARK Flexibility Score: inf
ROOT
ATOM      1  C   UNL     1     233.298 235.138 233.188  1.00  0.00     0.008 C 
ATOM      2  C   UNL     1     233.239 236.633 233.521  1.00  0.00    -0.007 C 
ATOM      3  C   UNL     1     232.186 236.904 234.613  1.00  0.00     0.004 C 
ATOM      4  C   UNL     1     232.155 238.394 234.983  1.00  0.00     0.012 C 
ATOM      5  C   UNL     1     231.824 239.275 233.754  1.00  0.00     0.058 C 
ATOM      6  C   UNL     1     232.740 238.907 232.598  1.00  0.00     0.136 C 
ATOM      7  O   UNL     1     233.226 239.765 231.875  1.00  0.00    -0.299 OA
ATOM      8  C   UNL     1     232.935 237.455 232.255  1.00  0.00     0.079 C 
ENDROOT
BRANCH   5   9
ATOM      9  C   UNL     1     231.821 240.804 234.073  1.00  0.00    -0.007 C 
ATOM     10  C   UNL     1     230.406 241.398 234.006  1.00  0.00     0.008 C 
ATOM     11  C   UNL     1     232.478 241.155 235.419  1.00  0.00     0.008 C 
ENDBRANCH   5   9
TORSDOF 1
ENDMDL
MODEL 3
REMARK VINA RESULT:    -3.217      6.404      7.666
REMARK INTER + INTRA:          -3.579
REMARK INTER:                  -3.406
REMARK INTRA:                  -0.173
REMARK UNBOUND:                -0.174
REMARK SMILES CC(C)[C@@H]1CC[C@@H](C)CC1=O
REMARK SMILES IDX 8 1 7 2 6 3 5 4 4 5 10 6 11 7 9 8 2 9 1 10 3 11
REMARK H PARENT
REMARK Flexibility Score: inf
ROOT
ATOM      1  C   UNL     1     235.567 233.320 233.812  1.00  0.00     0.008 C 
ATOM      2  C   UNL     1     235.506 231.795 233.958  1.00  0.00    -0.007 C 
ATOM      3  C   UNL     1     236.506 231.312 235.026  1.00  0.00     0.004 C 
ATOM      4  C   UNL     1     236.417 229.791 235.208  1.00  0.00     0.012 C 
ATOM      5  C   UNL     1     236.714 229.044 233.886  1.00  0.00     0.058 C 
ATOM      6  C   UNL     1     235.860 229.620 232.768  1.00  0.00     0.136 C 
ATOM      7  O   UNL     1     235.331 228.897 231.936  1.00  0.00    -0.299 OA
ATOM      8  C   UNL     1     235.782 231.114 232.605  1.00  0.00     0.079 C 
ENDROOT
BRANCH   5   9
ATOM      9  C   UNL     1     236.597 227.492 234.012  1.00  0.00    -0.007 C 
ATOM     10  C   UNL     1     237.947 226.796 233.785  1.00  0.00     0.008 C 
ATOM     11  C   UNL     1     235.980 227.026 235.342  1.00  0.00     0.008 C 
ENDBRANCH   5   9
TORSDOF 1
ENDMDL
MODEL 4
REMARK VINA RESULT:    -3.168      7.412     10.914
REMARK INTER + INTRA:          -3.526
REMARK INTER:                  -3.356
REMARK INTRA:                  -0.171
REMARK UNBOUND:                -0.174
REMARK SMILES CC(C)[C@@H]1CC[C@@H](C)CC1=O
REMARK SMILES IDX 8 1 7 2 6 3 5 4 4 5 10 6 11 7 9 8 2 9 1 10 3 11
REMARK H PARENT
REMARK Flexibility Score: inf
ROOT
ATOM      1  C   UNL     1     235.155 235.809 234.047  1.00  0.00     0.008 C 
ATOM      2  C   UNL     1     236.679 235.676 234.144  1.00  0.00    -0.007 C 
ATOM      3  C   UNL     1     237.240 236.636 235.211  1.00  0.00     0.004 C 
ATOM      4  C   UNL     1     238.761 236.474 235.345  1.00  0.00     0.012 C 
ATOM      5  C   UNL     1     239.481 236.757 234.005  1.00  0.00     0.058 C 
ATOM      6  C   UNL     1     238.832 235.948 232.894  1.00  0.00     0.136 C 
ATOM      7  O   UNL     1     239.504 235.400 232.032  1.00  0.00    -0.299 OA
ATOM      8  C   UNL     1     237.331 235.941 232.776  1.00  0.00     0.079 C 
ENDROOT
BRANCH   5   9
ATOM      9  C   UNL     1     241.028 236.566 234.081  1.00  0.00    -0.007 C 
ATOM     10  C   UNL     1     241.781 237.869 233.773  1.00  0.00     0.008 C 
ATOM     11  C   UNL     1     241.512 235.981 235.420  1.00  0.00     0.008 C 
ENDBRANCH   5   9
TORSDOF 1
ENDMDL
MODEL 5
REMARK VINA RESULT:    -3.048      7.563     10.465
REMARK INTER + INTRA:          -3.400
REMARK INTER:                  -3.260
REMARK INTRA:                  -0.140
REMARK UNBOUND:                -0.174
REMARK SMILES CC(C)[C@@H]1CC[C@@H](C)CC1=O
REMARK SMILES IDX 8 1 7 2 6 3 5 4 4 5 10 6 11 7 9 8 2 9 1 10 3 11
REMARK H PARENT
REMARK Flexibility Score: inf
ROOT
ATOM      1  C   UNL     1     235.128 235.757 232.032  1.00  0.00     0.008 C 
ATOM      2  C   UNL     1     236.450 236.233 232.643  1.00  0.00    -0.007 C 
ATOM      3  C   UNL     1     237.618 235.351 232.162  1.00  0.00     0.004 C 
ATOM      4  C   UNL     1     238.952 235.851 232.735  1.00  0.00     0.012 C 
ATOM      5  C   UNL     1     238.940 235.846 234.283  1.00  0.00     0.058 C 
ATOM      6  C   UNL     1     237.700 236.565 234.788  1.00  0.00     0.136 C 
ATOM      7  O   UNL     1     237.751 237.319 235.749  1.00  0.00    -0.299 OA
ATOM      8  C   UNL     1     236.364 236.232 234.180  1.00  0.00     0.079 C 
ENDROOT
BRANCH   5   9
ATOM      9  C   UNL     1     240.263 236.385 234.913  1.00  0.00    -0.007 C 
ATOM     10  C   UNL     1     240.707 235.543 236.118  1.00  0.00     0.008 C 
ATOM     11  C   UNL     1     241.419 236.514 233.905  1.00  0.00     0.008 C 
ENDBRANCH   5   9
TORSDOF 1
ENDMDL
MODEL 6
REMARK VINA RESULT:    -3.046      5.922      7.557
REMARK INTER + INTRA:          -3.398
REMARK INTER:                  -3.272
REMARK INTRA:                  -0.125
REMARK UNBOUND:                -0.174
REMARK SMILES CC(C)[C@@H]1CC[C@@H](C)CC1=O
REMARK SMILES IDX 8 1 7 2 6 3 5 4 4 5 10 6 11 7 9 8 2 9 1 10 3 11
REMARK H PARENT
REMARK Flexibility Score: inf
ROOT
ATOM      1  C   UNL     1     232.665 234.981 232.141  1.00  0.00     0.008 C 
ATOM      2  C   UNL     1     232.200 236.328 232.705  1.00  0.00    -0.007 C 
ATOM      3  C   UNL     1     233.063 237.476 232.149  1.00  0.00     0.004 C 
ATOM      4  C   UNL     1     232.573 238.832 232.675  1.00  0.00     0.012 C 
ATOM      5  C   UNL     1     232.618 238.890 234.221  1.00  0.00     0.058 C 
ATOM      6  C   UNL     1     231.918 237.672 234.800  1.00  0.00     0.136 C 
ATOM      7  O   UNL     1     231.190 237.763 235.778  1.00  0.00    -0.299 OA
ATOM      8  C   UNL     1     232.241 236.311 234.244  1.00  0.00     0.079 C 
ENDROOT
BRANCH   5   9
ATOM      9  C   UNL     1     232.090 240.238 234.806  1.00  0.00    -0.007 C 
ATOM     10  C   UNL     1     232.925 240.706 236.007  1.00  0.00     0.008 C 
ATOM     11  C   UNL     1     231.988 241.365 233.763  1.00  0.00     0.008 C 
ENDBRANCH   5   9
TORSDOF 1
ENDMDL
MODEL 7
REMARK VINA RESULT:    -3.034      7.247      9.415
REMARK INTER + INTRA:          -3.385
REMARK INTER:                  -3.213
REMARK INTRA:                  -0.171
REMARK UNBOUND:                -0.174
REMARK SMILES CC(C)[C@@H]1CC[C@@H](C)CC1=O
REMARK SMILES IDX 8 1 7 2 6 3 5 4 4 5 10 6 11 7 9 8 2 9 1 10 3 11
REMARK H PARENT
REMARK Flexibility Score: inf
ROOT
ATOM      1  C   UNL     1     240.521 225.816 235.105  1.00  0.00     0.008 C 
ATOM      2  C   UNL     1     239.513 226.846 234.583  1.00  0.00    -0.007 C 
ATOM      3  C   UNL     1     239.469 228.077 235.507  1.00  0.00     0.004 C 
ATOM      4  C   UNL     1     238.495 229.133 234.964  1.00  0.00     0.012 C 
ATOM      5  C   UNL     1     237.061 228.566 234.834  1.00  0.00     0.058 C 
ATOM      6  C   UNL     1     237.096 227.253 234.069  1.00  0.00     0.136 C 
ATOM      7  O   UNL     1     236.245 226.982 233.235  1.00  0.00    -0.299 OA
ATOM      8  C   UNL     1     238.116 226.214 234.449  1.00  0.00     0.079 C 
ENDROOT
BRANCH   5   9
ATOM      9  C   UNL     1     236.041 229.593 234.247  1.00  0.00    -0.007 C 
ATOM     10  C   UNL     1     235.404 230.457 235.345  1.00  0.00     0.008 C 
ATOM     11  C   UNL     1     236.633 230.490 233.146  1.00  0.00     0.008 C 
ENDBRANCH   5   9
TORSDOF 1
ENDMDL
MODEL 8
REMARK VINA RESULT:    -3.014      8.224     10.753
REMARK INTER + INTRA:          -3.364
REMARK INTER:                  -3.187
REMARK INTRA:                  -0.176
REMARK UNBOUND:                -0.174
REMARK SMILES CC(C)[C@@H]1CC[C@@H](C)CC1=O
REMARK SMILES IDX 8 1 7 2 6 3 5 4 4 5 10 6 11 7 9 8 2 9 1 10 3 11
REMARK H PARENT
REMARK Flexibility Score: inf
ROOT
ATOM      1  C   UNL     1     235.709 229.941 233.553  1.00  0.00     0.008 C 
ATOM      2  C   UNL     1     237.006 229.146 233.735  1.00  0.00    -0.007 C 
ATOM      3  C   UNL     1     236.714 227.633 233.776  1.00  0.00     0.004 C 
ATOM      4  C   UNL     1     238.015 226.830 233.912  1.00  0.00     0.012 C 
ATOM      5  C   UNL     1     238.786 227.214 235.198  1.00  0.00     0.058 C 
ATOM      6  C   UNL     1     238.940 228.725 235.271  1.00  0.00     0.136 C 
ATOM      7  O   UNL     1     239.983 229.240 235.645  1.00  0.00    -0.299 OA
ATOM      8  C   UNL     1     237.738 229.594 235.013  1.00  0.00     0.079 C 
ENDROOT
BRANCH   5   9
ATOM      9  C   UNL     1     240.138 226.451 235.360  1.00  0.00    -0.007 C 
ATOM     10  C   UNL     1     239.969 225.153 236.165  1.00  0.00     0.008 C 
ATOM     11  C   UNL     1     240.844 226.156 234.025  1.00  0.00     0.008 C 
ENDBRANCH   5   9
TORSDOF 1
ENDMDL
MODEL 9
REMARK VINA RESULT:    -3.001     10.036     13.384
REMARK INTER + INTRA:          -3.350
REMARK INTER:                  -3.174
REMARK INTRA:                  -0.176
REMARK UNBOUND:                -0.174
REMARK SMILES CC(C)[C@@H]1CC[C@@H](C)CC1=O
REMARK SMILES IDX 8 1 7 2 6 3 5 4 4 5 10 6 11 7 9 8 2 9 1 10 3 11
REMARK H PARENT
REMARK Flexibility Score: inf
ROOT
ATOM      1  C   UNL     1     238.377 235.745 233.625  1.00  0.00     0.008 C 
ATOM      2  C   UNL     1     239.245 236.999 233.772  1.00  0.00    -0.007 C 
ATOM      3  C   UNL     1     240.740 236.625 233.786  1.00  0.00     0.004 C 
ATOM      4  C   UNL     1     241.616 237.881 233.886  1.00  0.00     0.012 C 
ATOM      5  C   UNL     1     241.302 238.689 235.168  1.00  0.00     0.058 C 
ATOM      6  C   UNL     1     239.804 238.926 235.270  1.00  0.00     0.136 C 
ATOM      7  O   UNL     1     239.355 240.002 235.639  1.00  0.00    -0.299 OA
ATOM      8  C   UNL     1     238.865 237.771 235.047  1.00  0.00     0.079 C 
ENDROOT
BRANCH   5   9
ATOM      9  C   UNL     1     242.142 239.999 235.295  1.00  0.00    -0.007 C 
ATOM     10  C   UNL     1     243.446 239.769 236.073  1.00  0.00     0.008 C 
ATOM     11  C   UNL     1     242.444 240.671 233.944  1.00  0.00     0.008 C 
ENDBRANCH   5   9
TORSDOF 1
ENDMDL
