MODEL 1
REMARK VINA RESULT:    -3.369      0.000      0.000
REMARK INTER + INTRA:          -3.571
REMARK INTER:                  -3.665
REMARK INTRA:                   0.093
REMARK UNBOUND:                 0.093
REMARK SMILES CC1(C)CC[C@@]2(C(=O)[O-])CC[C@@]3(C)C(=CC[C@H]4[C@@]5(C)CC[C@@H](O)C(C)(C)[C@@H]5CC[C@@]43C)[C@H]2C1
REMARK SMILES IDX 6 1 5 2 10 3 32 4 4 5 11 6 14 7 33 8 2 9 12 10 15 11 1 12
REMARK SMILES IDX 3 13 13 14 30 15 16 16 17 17 29 18 31 19 18 20 28 21 27 22
REMARK SMILES IDX 20 23 19 24 24 25 21 26 22 27 25 28 26 29 7 30 8 31 9 32
REMARK SMILES IDX 23 33
REMARK H PARENT 23 34
REMARK Flexibility Score: inf
ROOT
ATOM      1  C   UNL     1      12.243  40.413  19.719  1.00  0.00     0.017 C 
ATOM      2  C   UNL     1      12.452  41.933  19.996  1.00  0.00     0.014 C 
ATOM      3  C   UNL     1      13.446  39.607  20.316  1.00  0.00     0.014 C 
ATOM      4  C   UNL     1      10.854  39.975  20.319  1.00  0.00     0.028 C 
ATOM      5  C   UNL     1      11.336  42.815  19.416  1.00  0.00     0.007 C 
ATOM      6  C   UNL     1      13.085  38.642  21.453  1.00  0.00     0.013 C 
ATOM      7  C   UNL     1      10.865  39.769  21.856  1.00  0.00    -0.064 C 
ATOM      8  C   UNL     1       9.718  40.882  19.738  1.00  0.00     0.015 C 
ATOM      9  C   UNL     1       9.926  42.413  19.915  1.00  0.00    -0.035 C 
ATOM     10  C   UNL     1      12.144  39.239  22.545  1.00  0.00    -0.006 C 
ATOM     11  C   UNL     1       9.702  39.829  22.565  1.00  0.00    -0.027 C 
ATOM     12  C   UNL     1       9.721  42.859  21.380  1.00  0.00     0.011 C 
ATOM     13  C   UNL     1       8.875  43.151  19.056  1.00  0.00     0.011 C 
ATOM     14  C   UNL     1      12.846  40.467  23.235  1.00  0.00     0.017 C 
ATOM     15  C   UNL     1      11.767  38.106  23.627  1.00  0.00    -0.020 C 
ATOM     16  C   UNL     1       9.472  39.228  23.931  1.00  0.00     0.032 C 
ATOM     17  C   UNL     1      10.750  38.749  24.652  1.00  0.00     0.006 C 
ATOM     18  C   UNL     1      13.072  37.573  24.360  1.00  0.00     0.008 C 
ATOM     19  C   UNL     1      11.074  36.896  22.903  1.00  0.00     0.012 C 
ATOM     20  C   UNL     1      10.483  37.992  26.047  1.00  0.00    -0.025 C 
ATOM     21  C   UNL     1      12.969  37.448  25.890  1.00  0.00     0.005 C 
ATOM     22  C   UNL     1      11.585  36.896  26.273  1.00  0.00     0.003 C 
ATOM     23  C   UNL     1       9.104  37.267  26.117  1.00  0.00     0.010 C 
ATOM     24  C   UNL     1      10.486  39.109  27.146  1.00  0.00     0.012 C 
ATOM     25  C   UNL     1      11.486  36.046  27.599  1.00  0.00    -0.006 C 
ATOM     26  C   UNL     1       8.898  36.450  27.414  1.00  0.00     0.033 C 
ATOM     27  C   UNL     1      10.034  35.447  27.721  1.00  0.00     0.120 C 
ATOM     28  C   UNL     1      12.491  34.857  27.541  1.00  0.00     0.014 C 
ATOM     29  C   UNL     1      11.842  36.861  28.873  1.00  0.00     0.014 C 
ENDROOT
BRANCH   1  30
ATOM     30  C   UNL     1      12.271  40.172  18.208  1.00  0.00     0.048 C 
ATOM     31  O   UNL     1      12.997  40.877  17.457  1.00  0.00    -0.550 OA
ATOM     32  O   UNL     1      11.399  39.260  17.623  1.00  0.00    -0.550 OA
ENDBRANCH   1  30
BRANCH  27  33
ATOM     33  O   UNL     1       9.871  34.283  26.942  1.00  0.00    -0.393 OA
ATOM     34  H   UNL     1       9.738  33.513  27.550  1.00  0.00     0.210 HD
ENDBRANCH  27  33
TORSDOF 2
ENDMDL
MODEL 2
REMARK VINA RESULT:    -2.074      1.271      8.310
REMARK INTER + INTRA:          -2.162
REMARK INTER:                  -2.253
REMARK INTRA:                   0.091
REMARK UNBOUND:                 0.093
REMARK SMILES CC1(C)CC[C@@]2(C(=O)[O-])CC[C@@]3(C)C(=CC[C@H]4[C@@]5(C)CC[C@@H](O)C(C)(C)[C@@H]5CC[C@@]43C)[C@H]2C1
REMARK SMILES IDX 6 1 5 2 10 3 32 4 4 5 11 6 14 7 33 8 2 9 12 10 15 11 1 12
REMARK SMILES IDX 3 13 13 14 30 15 16 16 17 17 29 18 31 19 18 20 28 21 27 22
REMARK SMILES IDX 20 23 19 24 24 25 21 26 22 27 25 28 26 29 7 30 8 31 9 32
REMARK SMILES IDX 23 33
REMARK H PARENT 23 34
REMARK Flexibility Score: inf
ROOT
ATOM      1  C   UNL     1       9.941  36.877  27.076  1.00  0.00     0.017 C 
ATOM      2  C   UNL     1      10.890  37.507  28.140  1.00  0.00     0.014 C 
ATOM      3  C   UNL     1       8.875  37.937  26.640  1.00  0.00     0.014 C 
ATOM      4  C   UNL     1      10.809  36.348  25.872  1.00  0.00     0.028 C 
ATOM      5  C   UNL     1      11.955  36.529  28.660  1.00  0.00     0.007 C 
ATOM      6  C   UNL     1       8.947  38.366  25.168  1.00  0.00     0.013 C 
ATOM      7  C   UNL     1      11.284  37.457  24.899  1.00  0.00    -0.064 C 
ATOM      8  C   UNL     1      11.902  35.360  26.403  1.00  0.00     0.015 C 
ATOM      9  C   UNL     1      12.819  35.919  27.529  1.00  0.00    -0.035 C 
ATOM     10  C   UNL     1      10.382  38.688  24.648  1.00  0.00    -0.006 C 
ATOM     11  C   UNL     1      12.367  37.249  24.097  1.00  0.00    -0.027 C 
ATOM     12  C   UNL     1      13.825  36.961  26.991  1.00  0.00     0.011 C 
ATOM     13  C   UNL     1      13.637  34.748  28.118  1.00  0.00     0.011 C 
ATOM     14  C   UNL     1      10.986  39.886  25.471  1.00  0.00     0.017 C 
ATOM     15  C   UNL     1      10.334  39.034  23.075  1.00  0.00    -0.020 C 
ATOM     16  C   UNL     1      12.677  38.002  22.826  1.00  0.00     0.032 C 
ATOM     17  C   UNL     1      11.822  39.266  22.595  1.00  0.00     0.006 C 
ATOM     18  C   UNL     1       9.431  40.312  22.807  1.00  0.00     0.008 C 
ATOM     19  C   UNL     1       9.721  37.820  22.287  1.00  0.00     0.012 C 
ATOM     20  C   UNL     1      12.069  39.986  21.176  1.00  0.00    -0.025 C 
ATOM     21  C   UNL     1      10.030  41.360  21.852  1.00  0.00     0.005 C 
ATOM     22  C   UNL     1      10.734  40.651  20.682  1.00  0.00     0.003 C 
ATOM     23  C   UNL     1      12.534  39.015  20.049  1.00  0.00     0.010 C 
ATOM     24  C   UNL     1      13.222  41.018  21.417  1.00  0.00     0.012 C 
ATOM     25  C   UNL     1      10.783  41.410  19.300  1.00  0.00    -0.006 C 
ATOM     26  C   UNL     1      12.663  39.690  18.663  1.00  0.00     0.033 C 
ATOM     27  C   UNL     1      11.398  40.455  18.208  1.00  0.00     0.120 C 
ATOM     28  C   UNL     1       9.339  41.784  18.850  1.00  0.00     0.014 C 
ATOM     29  C   UNL     1      11.583  42.740  19.364  1.00  0.00     0.014 C 
ENDROOT
BRANCH   1  30
ATOM     30  C   UNL     1       9.163  35.726  27.720  1.00  0.00     0.048 C 
ATOM     31  O   UNL     1       8.876  35.750  28.947  1.00  0.00    -0.550 OA
ATOM     32  O   UNL     1       8.877  34.575  26.993  1.00  0.00    -0.550 OA
ENDBRANCH   1  30
BRANCH  27  33
ATOM     33  O   UNL     1      10.446  39.549  17.697  1.00  0.00    -0.393 OA
ATOM     34  H   UNL     1       9.547  39.957  17.777  1.00  0.00     0.210 HD
ENDBRANCH  27  33
TORSDOF 2
ENDMDL
