MODEL 1
REMARK VINA RESULT:    -2.876      0.000      0.000
REMARK INTER + INTRA:          -5.548
REMARK INTER:                  -5.062
REMARK INTRA:                  -0.485
REMARK UNBOUND:                -0.485
REMARK SMILES CCCCCCCCCCCCCCC(=O)[O-]
REMARK SMILES IDX 9 1 10 2 11 3 12 4 13 5 14 6 15 7 16 8 17 9 8 10 7 11 6 12
REMARK SMILES IDX 5 13 4 14 3 15 2 16 1 17
REMARK H PARENT
REMARK Flexibility Score: inf
ROOT
ATOM      1  C   UNL     1       1.888 -37.892  19.339  1.00  0.00     0.000 C 
ENDROOT
BRANCH   1   2
ATOM      2  C   UNL     1       3.409 -37.658  19.351  1.00  0.00     0.000 C 
BRANCH   2   3
ATOM      3  C   UNL     1       3.790 -36.257  19.858  1.00  0.00     0.000 C 
BRANCH   3   4
ATOM      4  C   UNL     1       5.116 -36.253  20.637  1.00  0.00     0.000 C 
BRANCH   4   5
ATOM      5  C   UNL     1       5.062 -37.121  21.909  1.00  0.00     0.006 C 
BRANCH   5   6
ATOM      6  C   UNL     1       4.976 -36.322  23.219  1.00  0.00     0.053 C 
BRANCH   6   7
ATOM      7  C   UNL     1       4.923 -37.215  24.419  1.00  0.00     0.041 C 
ATOM      8  O   UNL     1       5.025 -38.463  24.286  1.00  0.00    -0.550 OA
ATOM      9  O   UNL     1       4.727 -36.672  25.682  1.00  0.00    -0.550 OA
ENDBRANCH   6   7
ENDBRANCH   5   6
ENDBRANCH   4   5
ENDBRANCH   3   4
ENDBRANCH   2   3
ENDBRANCH   1   2
BRANCH   1  10
ATOM     10  C   UNL     1       1.238 -37.482  18.008  1.00  0.00     0.000 C 
BRANCH  10  11
ATOM     11  C   UNL     1       2.195 -36.690  17.104  1.00  0.00    -0.000 C 
BRANCH  11  12
ATOM     12  C   UNL     1       1.418 -35.868  16.068  1.00  0.00    -0.000 C 
BRANCH  12  13
ATOM     13  C   UNL     1       1.942 -36.133  14.649  1.00  0.00    -0.000 C 
BRANCH  13  14
ATOM     14  C   UNL     1       3.460 -35.928  14.531  1.00  0.00    -0.000 C 
BRANCH  14  15
ATOM     15  C   UNL     1       4.171 -37.129  13.883  1.00  0.00    -0.000 C 
BRANCH  15  16
ATOM     16  C   UNL     1       4.173 -38.370  14.788  1.00  0.00    -0.003 C 
ATOM     17  C   UNL     1       4.782 -39.596  14.109  1.00  0.00     0.004 C 
ENDBRANCH  15  16
ENDBRANCH  14  15
ENDBRANCH  13  14
ENDBRANCH  12  13
ENDBRANCH  11  12
ENDBRANCH  10  11
ENDBRANCH   1  10
TORSDOF 13
ENDMDL
MODEL 2
REMARK VINA RESULT:    -2.638      1.197      2.179
REMARK INTER + INTRA:          -5.128
REMARK INTER:                  -4.653
REMARK INTRA:                  -0.475
REMARK UNBOUND:                -0.485
REMARK SMILES CCCCCCCCCCCCCCC(=O)[O-]
REMARK SMILES IDX 9 1 10 2 11 3 12 4 13 5 14 6 15 7 16 8 17 9 8 10 7 11 6 12
REMARK SMILES IDX 5 13 4 14 3 15 2 16 1 17
REMARK H PARENT
REMARK Flexibility Score: inf
ROOT
ATOM      1  C   UNL     1       3.817 -36.912  20.653  1.00  0.00     0.000 C 
ENDROOT
BRANCH   1   2
ATOM      2  C   UNL     1       3.742 -35.459  21.157  1.00  0.00     0.000 C 
BRANCH   2   3
ATOM      3  C   UNL     1       5.081 -34.958  21.722  1.00  0.00     0.000 C 
BRANCH   3   4
ATOM      4  C   UNL     1       5.125 -35.000  23.259  1.00  0.00     0.000 C 
BRANCH   4   5
ATOM      5  C   UNL     1       5.024 -36.433  23.818  1.00  0.00     0.006 C 
BRANCH   5   6
ATOM      6  C   UNL     1       5.000 -36.514  25.353  1.00  0.00     0.053 C 
BRANCH   6   7
ATOM      7  C   UNL     1       4.933 -37.928  25.839  1.00  0.00     0.041 C 
ATOM      8  O   UNL     1       4.889 -38.174  27.073  1.00  0.00    -0.550 OA
ATOM      9  O   UNL     1       4.953 -38.978  24.929  1.00  0.00    -0.550 OA
ENDBRANCH   6   7
ENDBRANCH   5   6
ENDBRANCH   4   5
ENDBRANCH   3   4
ENDBRANCH   2   3
ENDBRANCH   1   2
BRANCH   1  10
ATOM     10  C   UNL     1       4.256 -37.003  19.183  1.00  0.00     0.000 C 
BRANCH  10  11
ATOM     11  C   UNL     1       3.073 -37.215  18.226  1.00  0.00    -0.000 C 
BRANCH  11  12
ATOM     12  C   UNL     1       3.139 -36.238  17.046  1.00  0.00    -0.000 C 
BRANCH  12  13
ATOM     13  C   UNL     1       1.878 -36.340  16.175  1.00  0.00    -0.000 C 
BRANCH  13  14
ATOM     14  C   UNL     1       2.191 -36.278  14.672  1.00  0.00    -0.000 C 
BRANCH  14  15
ATOM     15  C   UNL     1       3.702 -36.242  14.384  1.00  0.00    -0.000 C 
BRANCH  15  16
ATOM     16  C   UNL     1       4.236 -37.589  13.875  1.00  0.00    -0.003 C 
ATOM     17  C   UNL     1       4.219 -38.675  14.951  1.00  0.00     0.004 C 
ENDBRANCH  15  16
ENDBRANCH  14  15
ENDBRANCH  13  14
ENDBRANCH  12  13
ENDBRANCH  11  12
ENDBRANCH  10  11
ENDBRANCH   1  10
TORSDOF 13
ENDMDL
MODEL 3
REMARK VINA RESULT:    -2.385      1.374      3.144
REMARK INTER + INTRA:          -4.683
REMARK INTER:                  -4.640
REMARK INTRA:                  -0.043
REMARK UNBOUND:                -0.485
REMARK SMILES CCCCCCCCCCCCCCC(=O)[O-]
REMARK SMILES IDX 9 1 10 2 11 3 12 4 13 5 14 6 15 7 16 8 17 9 8 10 7 11 6 12
REMARK SMILES IDX 5 13 4 14 3 15 2 16 1 17
REMARK H PARENT
REMARK Flexibility Score: inf
ROOT
ATOM      1  C   UNL     1       4.632 -36.312  22.054  1.00  0.00     0.000 C 
ENDROOT
BRANCH   1   2
ATOM      2  C   UNL     1       4.975 -37.766  21.682  1.00  0.00     0.000 C 
BRANCH   2   3
ATOM      3  C   UNL     1       3.824 -38.741  21.976  1.00  0.00     0.000 C 
BRANCH   3   4
ATOM      4  C   UNL     1       3.950 -39.401  23.360  1.00  0.00     0.000 C 
BRANCH   4   5
ATOM      5  C   UNL     1       5.124 -38.838  24.183  1.00  0.00     0.006 C 
BRANCH   5   6
ATOM      6  C   UNL     1       4.784 -38.545  25.653  1.00  0.00     0.053 C 
BRANCH   6   7
ATOM      7  C   UNL     1       4.341 -37.129  25.855  1.00  0.00     0.041 C 
ATOM      8  O   UNL     1       3.266 -36.881  26.462  1.00  0.00    -0.550 OA
ATOM      9  O   UNL     1       5.101 -36.083  25.346  1.00  0.00    -0.550 OA
ENDBRANCH   6   7
ENDBRANCH   5   6
ENDBRANCH   4   5
ENDBRANCH   3   4
ENDBRANCH   2   3
ENDBRANCH   1   2
BRANCH   1  10
ATOM     10  C   UNL     1       4.485 -35.407  20.820  1.00  0.00     0.000 C 
BRANCH  10  11
ATOM     11  C   UNL     1       4.497 -36.197  19.503  1.00  0.00    -0.000 C 
BRANCH  11  12
ATOM     12  C   UNL     1       3.187 -36.970  19.313  1.00  0.00    -0.000 C 
BRANCH  12  13
ATOM     13  C   UNL     1       2.973 -37.339  17.838  1.00  0.00    -0.000 C 
BRANCH  13  14
ATOM     14  C   UNL     1       3.441 -36.234  16.878  1.00  0.00    -0.000 C 
BRANCH  14  15
ATOM     15  C   UNL     1       2.660 -36.231  15.553  1.00  0.00    -0.000 C 
BRANCH  15  16
ATOM     16  C   UNL     1       3.574 -36.414  14.332  1.00  0.00    -0.003 C 
ATOM     17  C   UNL     1       4.078 -37.849  14.180  1.00  0.00     0.004 C 
ENDBRANCH  15  16
ENDBRANCH  14  15
ENDBRANCH  13  14
ENDBRANCH  12  13
ENDBRANCH  11  12
ENDBRANCH  10  11
ENDBRANCH   1  10
TORSDOF 13
ENDMDL
MODEL 4
REMARK VINA RESULT:    -2.342      3.739      8.147
REMARK INTER + INTRA:          -4.607
REMARK INTER:                  -4.862
REMARK INTRA:                   0.255
REMARK UNBOUND:                -0.485
REMARK SMILES CCCCCCCCCCCCCCC(=O)[O-]
REMARK SMILES IDX 9 1 10 2 11 3 12 4 13 5 14 6 15 7 16 8 17 9 8 10 7 11 6 12
REMARK SMILES IDX 5 13 4 14 3 15 2 16 1 17
REMARK H PARENT
REMARK Flexibility Score: inf
ROOT
ATOM      1  C   UNL     1       3.480 -37.395  19.831  1.00  0.00     0.000 C 
ENDROOT
BRANCH   1   2
ATOM      2  C   UNL     1       2.073 -37.464  19.210  1.00  0.00     0.000 C 
BRANCH   2   3
ATOM      3  C   UNL     1       2.104 -37.801  17.710  1.00  0.00     0.000 C 
BRANCH   3   4
ATOM      4  C   UNL     1       2.736 -36.681  16.867  1.00  0.00     0.000 C 
BRANCH   4   5
ATOM      5  C   UNL     1       1.789 -36.151  15.774  1.00  0.00     0.006 C 
BRANCH   5   6
ATOM      6  C   UNL     1       2.269 -36.412  14.337  1.00  0.00     0.053 C 
BRANCH   6   7
ATOM      7  C   UNL     1       3.657 -36.973  14.303  1.00  0.00     0.041 C 
ATOM      8  O   UNL     1       4.619 -36.260  13.913  1.00  0.00    -0.550 OA
ATOM      9  O   UNL     1       3.883 -38.293  14.671  1.00  0.00    -0.550 OA
ENDBRANCH   6   7
ENDBRANCH   5   6
ENDBRANCH   4   5
ENDBRANCH   3   4
ENDBRANCH   2   3
ENDBRANCH   1   2
BRANCH   1  10
ATOM     10  C   UNL     1       4.352 -36.300  19.197  1.00  0.00     0.000 C 
BRANCH  10  11
ATOM     11  C   UNL     1       4.893 -35.302  20.232  1.00  0.00    -0.000 C 
BRANCH  11  12
ATOM     12  C   UNL     1       5.124 -35.985  21.585  1.00  0.00    -0.000 C 
BRANCH  12  13
ATOM     13  C   UNL     1       5.071 -34.966  22.733  1.00  0.00    -0.000 C 
BRANCH  13  14
ATOM     14  C   UNL     1       5.125 -35.630  24.117  1.00  0.00    -0.000 C 
BRANCH  14  15
ATOM     15  C   UNL     1       5.122 -37.167  24.036  1.00  0.00    -0.000 C 
BRANCH  15  16
ATOM     16  C   UNL     1       4.334 -37.815  25.184  1.00  0.00    -0.003 C 
ATOM     17  C   UNL     1       5.076 -37.753  26.519  1.00  0.00     0.004 C 
ENDBRANCH  15  16
ENDBRANCH  14  15
ENDBRANCH  13  14
ENDBRANCH  12  13
ENDBRANCH  11  12
ENDBRANCH  10  11
ENDBRANCH   1  10
TORSDOF 13
ENDMDL
MODEL 5
REMARK VINA RESULT:    -1.922      3.814      8.329
REMARK INTER + INTRA:          -3.868
REMARK INTER:                  -4.437
REMARK INTRA:                   0.569
REMARK UNBOUND:                -0.485
REMARK SMILES CCCCCCCCCCCCCCC(=O)[O-]
REMARK SMILES IDX 9 1 10 2 11 3 12 4 13 5 14 6 15 7 16 8 17 9 8 10 7 11 6 12
REMARK SMILES IDX 5 13 4 14 3 15 2 16 1 17
REMARK H PARENT
REMARK Flexibility Score: inf
ROOT
ATOM      1  C   UNL     1       3.973 -36.126  21.166  1.00  0.00     0.000 C 
ENDROOT
BRANCH   1   2
ATOM      2  C   UNL     1       4.696 -35.250  20.128  1.00  0.00     0.000 C 
BRANCH   2   3
ATOM      3  C   UNL     1       4.485 -35.742  18.686  1.00  0.00     0.000 C 
BRANCH   3   4
ATOM      4  C   UNL     1       3.797 -37.116  18.629  1.00  0.00     0.000 C 
BRANCH   4   5
ATOM      5  C   UNL     1       2.587 -37.137  17.674  1.00  0.00     0.006 C 
BRANCH   5   6
ATOM      6  C   UNL     1       2.943 -37.422  16.206  1.00  0.00     0.053 C 
BRANCH   6   7
ATOM      7  C   UNL     1       2.548 -36.294  15.304  1.00  0.00     0.041 C 
ATOM      8  O   UNL     1       3.118 -36.142  14.191  1.00  0.00    -0.550 OA
ATOM      9  O   UNL     1       1.572 -35.391  15.706  1.00  0.00    -0.550 OA
ENDBRANCH   6   7
ENDBRANCH   5   6
ENDBRANCH   4   5
ENDBRANCH   3   4
ENDBRANCH   2   3
ENDBRANCH   1   2
BRANCH   1  10
ATOM     10  C   UNL     1       4.949 -36.868  22.094  1.00  0.00     0.000 C 
BRANCH  10  11
ATOM     11  C   UNL     1       5.107 -38.349  21.721  1.00  0.00    -0.000 C 
BRANCH  11  12
ATOM     12  C   UNL     1       4.718 -39.256  22.894  1.00  0.00    -0.000 C 
BRANCH  12  13
ATOM     13  C   UNL     1       5.109 -38.620  24.236  1.00  0.00    -0.000 C 
BRANCH  13  14
ATOM     14  C   UNL     1       3.889 -38.176  25.058  1.00  0.00    -0.000 C 
BRANCH  14  15
ATOM     15  C   UNL     1       4.274 -37.305  26.266  1.00  0.00    -0.000 C 
BRANCH  15  16
ATOM     16  C   UNL     1       5.125 -36.090  25.867  1.00  0.00    -0.003 C 
ATOM     17  C   UNL     1       4.825 -35.597  24.452  1.00  0.00     0.004 C 
ENDBRANCH  15  16
ENDBRANCH  14  15
ENDBRANCH  13  14
ENDBRANCH  12  13
ENDBRANCH  11  12
ENDBRANCH  10  11
ENDBRANCH   1  10
TORSDOF 13
ENDMDL
MODEL 6
REMARK VINA RESULT:    -1.694      1.533      2.666
REMARK INTER + INTRA:          -3.466
REMARK INTER:                  -3.503
REMARK INTRA:                   0.037
REMARK UNBOUND:                -0.485
REMARK SMILES CCCCCCCCCCCCCCC(=O)[O-]
REMARK SMILES IDX 9 1 10 2 11 3 12 4 13 5 14 6 15 7 16 8 17 9 8 10 7 11 6 12
REMARK SMILES IDX 5 13 4 14 3 15 2 16 1 17
REMARK H PARENT
REMARK Flexibility Score: inf
ROOT
ATOM      1  C   UNL     1       3.285 -37.658  20.787  1.00  0.00     0.000 C 
ENDROOT
BRANCH   1   2
ATOM      2  C   UNL     1       4.581 -37.966  21.560  1.00  0.00     0.000 C 
BRANCH   2   3
ATOM      3  C   UNL     1       4.431 -39.159  22.518  1.00  0.00     0.000 C 
BRANCH   3   4
ATOM      4  C   UNL     1       4.869 -38.821  23.952  1.00  0.00     0.000 C 
BRANCH   4   5
ATOM      5  C   UNL     1       4.171 -37.565  24.508  1.00  0.00     0.006 C 
BRANCH   5   6
ATOM      6  C   UNL     1       5.125 -36.412  24.859  1.00  0.00     0.053 C 
BRANCH   6   7
ATOM      7  C   UNL     1       5.081 -35.317  23.840  1.00  0.00     0.041 C 
ATOM      8  O   UNL     1       5.124 -35.592  22.612  1.00  0.00    -0.550 OA
ATOM      9  O   UNL     1       5.026 -33.990  24.247  1.00  0.00    -0.550 OA
ENDBRANCH   6   7
ENDBRANCH   5   6
ENDBRANCH   4   5
ENDBRANCH   3   4
ENDBRANCH   2   3
ENDBRANCH   1   2
BRANCH   1  10
ATOM     10  C   UNL     1       3.495 -37.648  19.264  1.00  0.00     0.000 C 
BRANCH  10  11
ATOM     11  C   UNL     1       4.211 -36.380  18.775  1.00  0.00    -0.000 C 
BRANCH  11  12
ATOM     12  C   UNL     1       3.633 -35.904  17.437  1.00  0.00    -0.000 C 
BRANCH  12  13
ATOM     13  C   UNL     1       2.233 -36.491  17.202  1.00  0.00    -0.000 C 
BRANCH  13  14
ATOM     14  C   UNL     1       1.796 -36.407  15.731  1.00  0.00    -0.000 C 
BRANCH  14  15
ATOM     15  C   UNL     1       2.902 -35.851  14.817  1.00  0.00    -0.000 C 
BRANCH  15  16
ATOM     16  C   UNL     1       3.554 -36.941  13.953  1.00  0.00    -0.003 C 
ATOM     17  C   UNL     1       4.101 -38.104  14.781  1.00  0.00     0.004 C 
ENDBRANCH  15  16
ENDBRANCH  14  15
ENDBRANCH  13  14
ENDBRANCH  12  13
ENDBRANCH  11  12
ENDBRANCH  10  11
ENDBRANCH   1  10
TORSDOF 13
ENDMDL
MODEL 7
REMARK VINA RESULT:    -1.485      2.047      3.826
REMARK INTER + INTRA:          -3.098
REMARK INTER:                  -2.102
REMARK INTRA:                  -0.996
REMARK UNBOUND:                -0.485
REMARK SMILES CCCCCCCCCCCCCCC(=O)[O-]
REMARK SMILES IDX 9 1 10 2 11 3 12 4 13 5 14 6 15 7 16 8 17 9 8 10 7 11 6 12
REMARK SMILES IDX 5 13 4 14 3 15 2 16 1 17
REMARK H PARENT
REMARK Flexibility Score: inf
ROOT
ATOM      1  C   UNL     1       4.643 -35.076  22.038  1.00  0.00     0.000 C 
ENDROOT
BRANCH   1   2
ATOM      2  C   UNL     1       5.077 -36.384  22.723  1.00  0.00     0.000 C 
BRANCH   2   3
ATOM      3  C   UNL     1       4.565 -37.635  21.991  1.00  0.00     0.000 C 
BRANCH   3   4
ATOM      4  C   UNL     1       4.464 -38.859  22.917  1.00  0.00     0.000 C 
BRANCH   4   5
ATOM      5  C   UNL     1       5.125 -38.624  24.289  1.00  0.00     0.006 C 
BRANCH   5   6
ATOM      6  C   UNL     1       4.153 -38.680  25.478  1.00  0.00     0.053 C 
BRANCH   6   7
ATOM      7  C   UNL     1       4.033 -37.357  26.167  1.00  0.00     0.041 C 
ATOM      8  O   UNL     1       4.926 -36.481  26.021  1.00  0.00    -0.550 OA
ATOM      9  O   UNL     1       2.949 -37.101  26.998  1.00  0.00    -0.550 OA
ENDBRANCH   6   7
ENDBRANCH   5   6
ENDBRANCH   4   5
ENDBRANCH   3   4
ENDBRANCH   2   3
ENDBRANCH   1   2
BRANCH   1  10
ATOM     10  C   UNL     1       4.361 -35.261  20.538  1.00  0.00     0.000 C 
BRANCH  10  11
ATOM     11  C   UNL     1       5.051 -34.197  19.672  1.00  0.00    -0.000 C 
BRANCH  11  12
ATOM     12  C   UNL     1       4.971 -34.562  18.185  1.00  0.00    -0.000 C 
BRANCH  12  13
ATOM     13  C   UNL     1       4.319 -35.939  17.989  1.00  0.00    -0.000 C 
BRANCH  13  14
ATOM     14  C   UNL     1       3.486 -36.021  16.702  1.00  0.00    -0.000 C 
BRANCH  14  15
ATOM     15  C   UNL     1       2.097 -36.642  16.935  1.00  0.00    -0.000 C 
BRANCH  15  16
ATOM     16  C   UNL     1       2.047 -37.513  18.199  1.00  0.00    -0.003 C 
ATOM     17  C   UNL     1       0.631 -37.669  18.753  1.00  0.00     0.004 C 
ENDBRANCH  15  16
ENDBRANCH  14  15
ENDBRANCH  13  14
ENDBRANCH  12  13
ENDBRANCH  11  12
ENDBRANCH  10  11
ENDBRANCH   1  10
TORSDOF 13
ENDMDL
MODEL 8
REMARK VINA RESULT:    -1.436      3.840      7.884
REMARK INTER + INTRA:          -3.012
REMARK INTER:                  -4.128
REMARK INTRA:                   1.115
REMARK UNBOUND:                -0.485
REMARK SMILES CCCCCCCCCCCCCCC(=O)[O-]
REMARK SMILES IDX 9 1 10 2 11 3 12 4 13 5 14 6 15 7 16 8 17 9 8 10 7 11 6 12
REMARK SMILES IDX 5 13 4 14 3 15 2 16 1 17
REMARK H PARENT
REMARK Flexibility Score: inf
ROOT
ATOM      1  C   UNL     1       4.001 -35.678  21.237  1.00  0.00     0.000 C 
ENDROOT
BRANCH   1   2
ATOM      2  C   UNL     1       4.718 -35.121  19.994  1.00  0.00     0.000 C 
BRANCH   2   3
ATOM      3  C   UNL     1       4.554 -36.024  18.761  1.00  0.00     0.000 C 
BRANCH   3   4
ATOM      4  C   UNL     1       3.503 -37.127  18.974  1.00  0.00     0.000 C 
BRANCH   4   5
ATOM      5  C   UNL     1       2.414 -37.130  17.885  1.00  0.00     0.006 C 
BRANCH   5   6
ATOM      6  C   UNL     1       2.910 -37.552  16.492  1.00  0.00     0.053 C 
BRANCH   6   7
ATOM      7  C   UNL     1       2.678 -36.486  15.467  1.00  0.00     0.041 C 
ATOM      8  O   UNL     1       3.470 -36.355  14.497  1.00  0.00    -0.550 OA
ATOM      9  O   UNL     1       1.603 -35.615  15.600  1.00  0.00    -0.550 OA
ENDBRANCH   6   7
ENDBRANCH   5   6
ENDBRANCH   4   5
ENDBRANCH   3   4
ENDBRANCH   2   3
ENDBRANCH   1   2
BRANCH   1  10
ATOM     10  C   UNL     1       3.667 -34.584  22.264  1.00  0.00     0.000 C 
BRANCH  10  11
ATOM     11  C   UNL     1       4.884 -34.172  23.106  1.00  0.00    -0.000 C 
BRANCH  11  12
ATOM     12  C   UNL     1       5.125 -35.167  24.247  1.00  0.00    -0.000 C 
BRANCH  12  13
ATOM     13  C   UNL     1       4.805 -36.602  23.803  1.00  0.00    -0.000 C 
BRANCH  13  14
ATOM     14  C   UNL     1       4.324 -37.487  24.964  1.00  0.00    -0.000 C 
BRANCH  14  15
ATOM     15  C   UNL     1       5.124 -38.796  25.081  1.00  0.00    -0.000 C 
BRANCH  15  16
ATOM     16  C   UNL     1       5.079 -39.630  23.791  1.00  0.00    -0.003 C 
ATOM     17  C   UNL     1       4.743 -38.793  22.558  1.00  0.00     0.004 C 
ENDBRANCH  15  16
ENDBRANCH  14  15
ENDBRANCH  13  14
ENDBRANCH  12  13
ENDBRANCH  11  12
ENDBRANCH  10  11
ENDBRANCH   1  10
TORSDOF 13
ENDMDL
MODEL 9
REMARK VINA RESULT:    -0.703      3.028      7.477
REMARK INTER + INTRA:          -1.724
REMARK INTER:                  -0.600
REMARK INTRA:                  -1.124
REMARK UNBOUND:                -0.485
REMARK SMILES CCCCCCCCCCCCCCC(=O)[O-]
REMARK SMILES IDX 9 1 10 2 11 3 12 4 13 5 14 6 15 7 16 8 17 9 8 10 7 11 6 12
REMARK SMILES IDX 5 13 4 14 3 15 2 16 1 17
REMARK H PARENT
REMARK Flexibility Score: inf
ROOT
ATOM      1  C   UNL     1       4.132 -35.691  20.468  1.00  0.00     0.000 C 
ENDROOT
BRANCH   1   2
ATOM      2  C   UNL     1       4.257 -34.387  19.661  1.00  0.00     0.000 C 
BRANCH   2   3
ATOM      3  C   UNL     1       4.784 -34.620  18.235  1.00  0.00     0.000 C 
BRANCH   3   4
ATOM      4  C   UNL     1       3.657 -34.912  17.231  1.00  0.00     0.000 C 
BRANCH   4   5
ATOM      5  C   UNL     1       3.965 -36.119  16.324  1.00  0.00     0.006 C 
BRANCH   5   6
ATOM      6  C   UNL     1       2.795 -37.101  16.155  1.00  0.00     0.053 C 
BRANCH   6   7
ATOM      7  C   UNL     1       1.925 -37.153  17.372  1.00  0.00     0.041 C 
ATOM      8  O   UNL     1       2.269 -37.842  18.368  1.00  0.00    -0.550 OA
ATOM      9  O   UNL     1       0.718 -36.466  17.394  1.00  0.00    -0.550 OA
ENDBRANCH   6   7
ENDBRANCH   5   6
ENDBRANCH   4   5
ENDBRANCH   3   4
ENDBRANCH   2   3
ENDBRANCH   1   2
BRANCH   1  10
ATOM     10  C   UNL     1       5.005 -36.822  19.900  1.00  0.00     0.000 C 
BRANCH  10  11
ATOM     11  C   UNL     1       4.981 -38.084  20.776  1.00  0.00    -0.000 C 
BRANCH  11  12
ATOM     12  C   UNL     1       3.694 -38.153  21.605  1.00  0.00    -0.000 C 
BRANCH  12  13
ATOM     13  C   UNL     1       3.939 -38.864  22.944  1.00  0.00    -0.000 C 
BRANCH  13  14
ATOM     14  C   UNL     1       5.125 -38.270  23.721  1.00  0.00    -0.000 C 
BRANCH  14  15
ATOM     15  C   UNL     1       4.967 -36.761  23.978  1.00  0.00    -0.000 C 
BRANCH  15  16
ATOM     16  C   UNL     1       4.986 -36.414  25.474  1.00  0.00    -0.003 C 
ATOM     17  C   UNL     1       4.620 -37.604  26.361  1.00  0.00     0.004 C 
ENDBRANCH  15  16
ENDBRANCH  14  15
ENDBRANCH  13  14
ENDBRANCH  12  13
ENDBRANCH  11  12
ENDBRANCH  10  11
ENDBRANCH   1  10
TORSDOF 13
ENDMDL
