MODEL 1
REMARK VINA RESULT:    -5.264      0.000      0.000
REMARK INTER + INTRA:          -5.967
REMARK INTER:                  -5.879
REMARK INTRA:                  -0.088
REMARK UNBOUND:                -0.088
REMARK SMILES CCc1ccc(O)cc1O
REMARK SMILES IDX 3 1 9 2 8 3 6 4 5 5 4 6 2 7 1 8 10 9 7 11
REMARK H PARENT 10 10 7 12
REMARK Flexibility Score: inf
ROOT
ATOM      1  C   UNL     1       2.680  10.654   9.185  1.00  0.00    -0.006 A 
ATOM      2  C   UNL     1       3.912  10.234   9.745  1.00  0.00     0.122 A 
ATOM      3  C   UNL     1       4.969   9.869   8.902  1.00  0.00     0.092 A 
ATOM      4  C   UNL     1       4.826   9.932   7.511  1.00  0.00     0.119 A 
ATOM      5  C   UNL     1       3.621  10.364   6.957  1.00  0.00     0.047 A 
ATOM      6  C   UNL     1       2.557  10.726   7.785  1.00  0.00     0.011 A 
ENDROOT
BRANCH   1   7
ATOM      7  C   UNL     1       1.507  11.071  10.039  1.00  0.00     0.036 C 
ATOM      8  C   UNL     1       0.929  12.401   9.563  1.00  0.00     0.009 C 
ENDBRANCH   1   7
BRANCH   2   9
ATOM      9  O   UNL     1       4.124  10.170  11.125  1.00  0.00    -0.508 OA
ATOM     10  H   UNL     1       4.954   9.775  11.545  1.00  0.00     0.293 HD
ENDBRANCH   2   9
BRANCH   4  11
ATOM     11  O   UNL     1       5.879   9.571   6.672  1.00  0.00    -0.508 OA
ATOM     12  H   UNL     1       6.838   9.813   6.891  1.00  0.00     0.293 HD
ENDBRANCH   4  11
TORSDOF 3
ENDMDL
MODEL 2
REMARK VINA RESULT:    -4.879      1.894      4.009
REMARK INTER + INTRA:          -5.537
REMARK INTER:                  -5.453
REMARK INTRA:                  -0.084
REMARK UNBOUND:                -0.088
REMARK SMILES CCc1ccc(O)cc1O
REMARK SMILES IDX 3 1 9 2 8 3 6 4 5 5 4 6 2 7 1 8 10 9 7 11
REMARK H PARENT 10 10 7 12
REMARK Flexibility Score: inf
ROOT
ATOM      1  C   UNL     1       5.453  10.556   6.702  1.00  0.00    -0.006 A 
ATOM      2  C   UNL     1       5.825  10.415   8.062  1.00  0.00     0.122 A 
ATOM      3  C   UNL     1       4.836  10.223   9.035  1.00  0.00     0.092 A 
ATOM      4  C   UNL     1       3.485  10.152   8.675  1.00  0.00     0.119 A 
ATOM      5  C   UNL     1       3.118  10.271   7.334  1.00  0.00     0.047 A 
ATOM      6  C   UNL     1       4.093  10.468   6.354  1.00  0.00     0.011 A 
ENDROOT
BRANCH   1   7
ATOM      7  C   UNL     1       6.472  10.754   5.606  1.00  0.00     0.036 C 
ATOM      8  C   UNL     1       5.931  11.678   4.518  1.00  0.00     0.009 C 
ENDBRANCH   1   7
BRANCH   2   9
ATOM      9  O   UNL     1       7.156  10.455   8.484  1.00  0.00    -0.508 OA
ATOM     10  H   UNL     1       7.552   9.806   9.149  1.00  0.00     0.293 HD
ENDBRANCH   2   9
BRANCH   4  11
ATOM     11  O   UNL     1       2.501   9.959   9.643  1.00  0.00    -0.508 OA
ATOM     12  H   UNL     1       1.566   9.659   9.395  1.00  0.00     0.293 HD
ENDBRANCH   4  11
TORSDOF 3
ENDMDL
MODEL 3
REMARK VINA RESULT:    -4.838      1.738      2.227
REMARK INTER + INTRA:          -5.491
REMARK INTER:                  -5.396
REMARK INTRA:                  -0.095
REMARK UNBOUND:                -0.088
REMARK SMILES CCc1ccc(O)cc1O
REMARK SMILES IDX 3 1 9 2 8 3 6 4 5 5 4 6 2 7 1 8 10 9 7 11
REMARK H PARENT 10 10 7 12
REMARK Flexibility Score: inf
ROOT
ATOM      1  C   UNL     1       3.083  11.158   8.882  1.00  0.00    -0.006 A 
ATOM      2  C   UNL     1       3.057  10.503   7.626  1.00  0.00     0.122 A 
ATOM      3  C   UNL     1       4.260  10.199   6.976  1.00  0.00     0.092 A 
ATOM      4  C   UNL     1       5.489  10.519   7.564  1.00  0.00     0.119 A 
ATOM      5  C   UNL     1       5.519  11.147   8.809  1.00  0.00     0.047 A 
ATOM      6  C   UNL     1       4.327  11.460   9.467  1.00  0.00     0.011 A 
ENDROOT
BRANCH   1   7
ATOM      7  C   UNL     1       1.822  11.503   9.637  1.00  0.00     0.036 C 
ATOM      8  C   UNL     1       1.596  13.012   9.661  1.00  0.00     0.009 C 
ENDBRANCH   1   7
BRANCH   2   9
ATOM      9  O   UNL     1       1.864  10.137   6.996  1.00  0.00    -0.508 OA
ATOM     10  H   UNL     1       0.975  10.080   7.473  1.00  0.00     0.293 HD
ENDBRANCH   2   9
BRANCH   4  11
ATOM     11  O   UNL     1       6.686  10.215   6.918  1.00  0.00    -0.508 OA
ATOM     12  H   UNL     1       7.554  10.118   7.431  1.00  0.00     0.293 HD
ENDBRANCH   4  11
TORSDOF 3
ENDMDL
MODEL 4
REMARK VINA RESULT:    -4.763      2.484      3.472
REMARK INTER + INTRA:          -5.408
REMARK INTER:                  -5.303
REMARK INTRA:                  -0.105
REMARK UNBOUND:                -0.088
REMARK SMILES CCc1ccc(O)cc1O
REMARK SMILES IDX 3 1 9 2 8 3 6 4 5 5 4 6 2 7 1 8 10 9 7 11
REMARK H PARENT 10 10 7 12
REMARK Flexibility Score: inf
ROOT
ATOM      1  C   UNL     1       5.012  10.411   6.780  1.00  0.00    -0.006 A 
ATOM      2  C   UNL     1       6.340  10.520   7.263  1.00  0.00     0.122 A 
ATOM      3  C   UNL     1       7.346  11.011   6.421  1.00  0.00     0.092 A 
ATOM      4  C   UNL     1       7.050  11.411   5.113  1.00  0.00     0.119 A 
ATOM      5  C   UNL     1       5.740  11.323   4.641  1.00  0.00     0.047 A 
ATOM      6  C   UNL     1       4.727  10.831   5.467  1.00  0.00     0.011 A 
ENDROOT
BRANCH   1   7
ATOM      7  C   UNL     1       3.881   9.900   7.640  1.00  0.00     0.036 C 
ATOM      8  C   UNL     1       3.230  11.039   8.418  1.00  0.00     0.009 C 
ENDBRANCH   1   7
BRANCH   2   9
ATOM      9  O   UNL     1       6.696  10.157   8.564  1.00  0.00    -0.508 OA
ATOM     10  H   UNL     1       7.185   9.303   8.792  1.00  0.00     0.293 HD
ENDBRANCH   2   9
BRANCH   4  11
ATOM     11  O   UNL     1       8.051  11.902   4.277  1.00  0.00    -0.508 OA
ATOM     12  H   UNL     1       8.921  11.401   4.142  1.00  0.00     0.293 HD
ENDBRANCH   4  11
TORSDOF 3
ENDMDL
MODEL 5
REMARK VINA RESULT:    -4.673      2.376      4.704
REMARK INTER + INTRA:          -5.307
REMARK INTER:                  -5.210
REMARK INTRA:                  -0.096
REMARK UNBOUND:                -0.088
REMARK SMILES CCc1ccc(O)cc1O
REMARK SMILES IDX 3 1 9 2 8 3 6 4 5 5 4 6 2 7 1 8 10 9 7 11
REMARK H PARENT 10 10 7 12
REMARK Flexibility Score: inf
ROOT
ATOM      1  C   UNL     1       5.847  11.911   6.825  1.00  0.00    -0.006 A 
ATOM      2  C   UNL     1       4.970  10.798   6.855  1.00  0.00     0.122 A 
ATOM      3  C   UNL     1       4.441  10.364   8.077  1.00  0.00     0.092 A 
ATOM      4  C   UNL     1       4.755  11.030   9.267  1.00  0.00     0.119 A 
ATOM      5  C   UNL     1       5.602  12.138   9.238  1.00  0.00     0.047 A 
ATOM      6  C   UNL     1       6.141  12.579   8.028  1.00  0.00     0.011 A 
ENDROOT
BRANCH   1   7
ATOM      7  C   UNL     1       6.442  12.434   5.540  1.00  0.00     0.036 C 
ATOM      8  C   UNL     1       7.706  11.663   5.170  1.00  0.00     0.009 C 
ENDBRANCH   1   7
BRANCH   2   9
ATOM      9  O   UNL     1       4.602  10.104   5.699  1.00  0.00    -0.508 OA
ATOM     10  H   UNL     1       3.656   9.807   5.504  1.00  0.00     0.293 HD
ENDBRANCH   2   9
BRANCH   4  11
ATOM     11  O   UNL     1       4.226  10.600  10.483  1.00  0.00    -0.508 OA
ATOM     12  H   UNL     1       3.366  10.987  10.853  1.00  0.00     0.293 HD
ENDBRANCH   4  11
TORSDOF 3
ENDMDL
MODEL 6
REMARK VINA RESULT:    -4.580      2.132      4.135
REMARK INTER + INTRA:          -5.203
REMARK INTER:                  -5.103
REMARK INTRA:                  -0.100
REMARK UNBOUND:                -0.088
REMARK SMILES CCc1ccc(O)cc1O
REMARK SMILES IDX 3 1 9 2 8 3 6 4 5 5 4 6 2 7 1 8 10 9 7 11
REMARK H PARENT 10 10 7 12
REMARK Flexibility Score: inf
ROOT
ATOM      1  C   UNL     1       5.285  11.652   7.937  1.00  0.00    -0.006 A 
ATOM      2  C   UNL     1       4.734  10.363   7.729  1.00  0.00     0.122 A 
ATOM      3  C   UNL     1       3.483  10.047   8.274  1.00  0.00     0.092 A 
ATOM      4  C   UNL     1       2.764  10.998   9.008  1.00  0.00     0.119 A 
ATOM      5  C   UNL     1       3.296  12.273   9.199  1.00  0.00     0.047 A 
ATOM      6  C   UNL     1       4.544  12.601   8.665  1.00  0.00     0.011 A 
ENDROOT
BRANCH   1   7
ATOM      7  C   UNL     1       6.623  12.057   7.366  1.00  0.00     0.036 C 
ATOM      8  C   UNL     1       7.711  12.006   8.436  1.00  0.00     0.009 C 
ENDBRANCH   1   7
BRANCH   2   9
ATOM      9  O   UNL     1       5.391   9.377   6.988  1.00  0.00    -0.508 OA
ATOM     10  H   UNL     1       5.016   8.969   6.143  1.00  0.00     0.293 HD
ENDBRANCH   2   9
BRANCH   4  11
ATOM     11  O   UNL     1       1.519  10.684   9.550  1.00  0.00    -0.508 OA
ATOM     12  H   UNL     1       1.130  11.210  10.323  1.00  0.00     0.293 HD
ENDBRANCH   4  11
TORSDOF 3
ENDMDL
MODEL 7
REMARK VINA RESULT:    -4.580      2.283      2.980
REMARK INTER + INTRA:          -5.203
REMARK INTER:                  -5.115
REMARK INTRA:                  -0.088
REMARK UNBOUND:                -0.088
REMARK SMILES CCc1ccc(O)cc1O
REMARK SMILES IDX 3 1 9 2 8 3 6 4 5 5 4 6 2 7 1 8 10 9 7 11
REMARK H PARENT 10 10 7 12
REMARK Flexibility Score: inf
ROOT
ATOM      1  C   UNL     1       4.286  11.226   8.393  1.00  0.00    -0.006 A 
ATOM      2  C   UNL     1       5.303  10.322   7.997  1.00  0.00     0.122 A 
ATOM      3  C   UNL     1       6.648  10.685   8.139  1.00  0.00     0.092 A 
ATOM      4  C   UNL     1       6.998  11.924   8.687  1.00  0.00     0.119 A 
ATOM      5  C   UNL     1       5.999  12.808   9.096  1.00  0.00     0.047 A 
ATOM      6  C   UNL     1       4.654  12.462   8.955  1.00  0.00     0.011 A 
ENDROOT
BRANCH   1   7
ATOM      7  C   UNL     1       2.819  10.890   8.274  1.00  0.00     0.036 C 
ATOM      8  C   UNL     1       2.079  11.210   9.570  1.00  0.00     0.009 C 
ENDBRANCH   1   7
BRANCH   2   9
ATOM      9  O   UNL     1       5.019   9.062   7.463  1.00  0.00    -0.508 OA
ATOM     10  H   UNL     1       4.181   8.853   6.938  1.00  0.00     0.293 HD
ENDBRANCH   2   9
BRANCH   4  11
ATOM     11  O   UNL     1       8.337  12.284   8.832  1.00  0.00    -0.508 OA
ATOM     12  H   UNL     1       8.900  12.559   8.036  1.00  0.00     0.293 HD
ENDBRANCH   4  11
TORSDOF 3
ENDMDL
MODEL 8
REMARK VINA RESULT:    -4.510      3.044      5.126
REMARK INTER + INTRA:          -5.126
REMARK INTER:                  -5.041
REMARK INTRA:                  -0.084
REMARK UNBOUND:                -0.088
REMARK SMILES CCc1ccc(O)cc1O
REMARK SMILES IDX 3 1 9 2 8 3 6 4 5 5 4 6 2 7 1 8 10 9 7 11
REMARK H PARENT 10 10 7 12
REMARK Flexibility Score: inf
ROOT
ATOM      1  C   UNL     1       6.935  11.002   5.603  1.00  0.00    -0.006 A 
ATOM      2  C   UNL     1       6.844  10.561   6.947  1.00  0.00     0.122 A 
ATOM      3  C   UNL     1       5.588  10.292   7.505  1.00  0.00     0.092 A 
ATOM      4  C   UNL     1       4.423  10.437   6.744  1.00  0.00     0.119 A 
ATOM      5  C   UNL     1       4.510  10.852   5.414  1.00  0.00     0.047 A 
ATOM      6  C   UNL     1       5.755  11.129   4.846  1.00  0.00     0.011 A 
ENDROOT
BRANCH   1   7
ATOM      7  C   UNL     1       8.258  11.298   4.940  1.00  0.00     0.036 C 
ATOM      8  C   UNL     1       8.131  12.463   3.962  1.00  0.00     0.009 C 
ENDBRANCH   1   7
BRANCH   2   9
ATOM      9  O   UNL     1       7.970  10.376   7.752  1.00  0.00    -0.508 OA
ATOM     10  H   UNL     1       8.246  11.018   8.483  1.00  0.00     0.293 HD
ENDBRANCH   2   9
BRANCH   4  11
ATOM     11  O   UNL     1       3.173  10.167   7.299  1.00  0.00    -0.508 OA
ATOM     12  H   UNL     1       2.316  10.395   6.809  1.00  0.00     0.293 HD
ENDBRANCH   4  11
TORSDOF 3
ENDMDL
MODEL 9
REMARK VINA RESULT:    -4.384      3.132      4.617
REMARK INTER + INTRA:          -4.984
REMARK INTER:                  -4.881
REMARK INTRA:                  -0.103
REMARK UNBOUND:                -0.088
REMARK SMILES CCc1ccc(O)cc1O
REMARK SMILES IDX 3 1 9 2 8 3 6 4 5 5 4 6 2 7 1 8 10 9 7 11
REMARK H PARENT 10 10 7 12
REMARK Flexibility Score: inf
ROOT
ATOM      1  C   UNL     1       5.863  10.699   7.157  1.00  0.00    -0.006 A 
ATOM      2  C   UNL     1       6.184  10.719   5.776  1.00  0.00     0.122 A 
ATOM      3  C   UNL     1       7.510  10.927   5.375  1.00  0.00     0.092 A 
ATOM      4  C   UNL     1       8.524  11.097   6.325  1.00  0.00     0.119 A 
ATOM      5  C   UNL     1       8.214  11.058   7.684  1.00  0.00     0.047 A 
ATOM      6  C   UNL     1       6.896  10.856   8.099  1.00  0.00     0.011 A 
ENDROOT
BRANCH   1   7
ATOM      7  C   UNL     1       4.456  10.469   7.653  1.00  0.00     0.036 C 
ATOM      8  C   UNL     1       4.267   9.024   8.108  1.00  0.00     0.009 C 
ENDBRANCH   1   7
BRANCH   2   9
ATOM      9  O   UNL     1       5.221  10.535   4.780  1.00  0.00    -0.508 OA
ATOM     10  H   UNL     1       5.131   9.685   4.241  1.00  0.00     0.293 HD
ENDBRANCH   2   9
BRANCH   4  11
ATOM     11  O   UNL     1       9.844  11.302   5.926  1.00  0.00    -0.508 OA
ATOM     12  H   UNL     1      10.619  11.136   6.556  1.00  0.00     0.293 HD
ENDBRANCH   4  11
TORSDOF 3
ENDMDL
