MODEL 1
REMARK VINA RESULT:    -3.954      0.000      0.000
REMARK INTER + INTRA:          -4.730
REMARK INTER:                  -4.647
REMARK INTRA:                  -0.082
REMARK UNBOUND:                -0.082
REMARK SMILES O=C([O-])CCC(=O)[O-]
REMARK SMILES IDX 4 1 2 2 1 3 3 4 5 5 6 6 7 7 8 8
REMARK H PARENT
REMARK Flexibility Score: inf
ROOT
ATOM      1  C   UNL     1     -55.391 120.638 -11.172  1.00  0.00     0.059 C 
ENDROOT
BRANCH   1   2
ATOM      2  C   UNL     1     -56.681 119.880 -11.085  1.00  0.00     0.042 C 
ATOM      3  O   UNL     1     -56.682 118.672 -10.731  1.00  0.00    -0.550 OA
ATOM      4  O   UNL     1     -57.876 120.497 -11.432  1.00  0.00    -0.550 OA
ENDBRANCH   1   2
BRANCH   1   5
ATOM      5  C   UNL     1     -54.669 120.679  -9.821  1.00  0.00     0.059 C 
BRANCH   5   6
ATOM      6  C   UNL     1     -55.056 121.887  -9.023  1.00  0.00     0.042 C 
ATOM      7  O   UNL     1     -54.234 122.826  -8.858  1.00  0.00    -0.550 OA
ATOM      8  O   UNL     1     -56.310 121.956  -8.429  1.00  0.00    -0.550 OA
ENDBRANCH   5   6
ENDBRANCH   1   5
TORSDOF 3
ENDMDL
MODEL 2
REMARK VINA RESULT:    -3.945      0.064      3.660
REMARK INTER + INTRA:          -4.719
REMARK INTER:                  -4.637
REMARK INTRA:                  -0.082
REMARK UNBOUND:                -0.082
REMARK SMILES O=C([O-])CCC(=O)[O-]
REMARK SMILES IDX 4 1 2 2 1 3 3 4 5 5 6 6 7 7 8 8
REMARK H PARENT
REMARK Flexibility Score: inf
ROOT
ATOM      1  C   UNL     1     -54.632 120.663  -9.806  1.00  0.00     0.059 C 
ENDROOT
BRANCH   1   2
ATOM      2  C   UNL     1     -55.040 121.884  -9.037  1.00  0.00     0.042 C 
ATOM      3  O   UNL     1     -54.225 122.829  -8.872  1.00  0.00    -0.550 OA
ATOM      4  O   UNL     1     -56.307 121.959  -8.472  1.00  0.00    -0.550 OA
ENDBRANCH   1   2
BRANCH   1   5
ATOM      5  C   UNL     1     -55.314 120.607 -11.177  1.00  0.00     0.059 C 
BRANCH   5   6
ATOM      6  C   UNL     1     -56.616 119.867 -11.118  1.00  0.00     0.042 C 
ATOM      7  O   UNL     1     -56.645 118.666 -10.741  1.00  0.00    -0.550 OA
ATOM      8  O   UNL     1     -57.790 120.492 -11.517  1.00  0.00    -0.550 OA
ENDBRANCH   5   6
ENDBRANCH   1   5
TORSDOF 3
ENDMDL
MODEL 3
REMARK VINA RESULT:    -3.866      1.787      3.359
REMARK INTER + INTRA:          -4.626
REMARK INTER:                  -4.439
REMARK INTRA:                  -0.187
REMARK UNBOUND:                -0.082
REMARK SMILES O=C([O-])CCC(=O)[O-]
REMARK SMILES IDX 4 1 2 2 1 3 3 4 5 5 6 6 7 7 8 8
REMARK H PARENT
REMARK Flexibility Score: inf
ROOT
ATOM      1  C   UNL     1     -54.965 121.244  -9.767  1.00  0.00     0.059 C 
ENDROOT
BRANCH   1   2
ATOM      2  C   UNL     1     -54.775 121.898 -11.102  1.00  0.00     0.042 C 
ATOM      3  O   UNL     1     -54.048 121.354 -11.974  1.00  0.00    -0.550 OA
ATOM      4  O   UNL     1     -55.368 123.126 -11.367  1.00  0.00    -0.550 OA
ENDBRANCH   1   2
BRANCH   1   5
ATOM      5  C   UNL     1     -56.441 120.926  -9.500  1.00  0.00     0.059 C 
BRANCH   5   6
ATOM      6  C   UNL     1     -57.014 120.035 -10.559  1.00  0.00     0.042 C 
ATOM      7  O   UNL     1     -56.537 118.886 -10.746  1.00  0.00    -0.550 OA
ATOM      8  O   UNL     1     -58.049 120.491 -11.367  1.00  0.00    -0.550 OA
ENDBRANCH   5   6
ENDBRANCH   1   5
TORSDOF 3
ENDMDL
MODEL 4
REMARK VINA RESULT:    -3.857      1.837      2.057
REMARK INTER + INTRA:          -4.615
REMARK INTER:                  -4.426
REMARK INTRA:                  -0.189
REMARK UNBOUND:                -0.082
REMARK SMILES O=C([O-])CCC(=O)[O-]
REMARK SMILES IDX 4 1 2 2 1 3 3 4 5 5 6 6 7 7 8 8
REMARK H PARENT
REMARK Flexibility Score: inf
ROOT
ATOM      1  C   UNL     1     -56.376 120.952  -9.508  1.00  0.00     0.059 C 
ENDROOT
BRANCH   1   2
ATOM      2  C   UNL     1     -57.020 120.060 -10.526  1.00  0.00     0.042 C 
ATOM      3  O   UNL     1     -56.577 118.897 -10.718  1.00  0.00    -0.550 OA
ATOM      4  O   UNL     1     -58.084 120.527 -11.287  1.00  0.00    -0.550 OA
ENDBRANCH   1   2
BRANCH   1   5
ATOM      5  C   UNL     1     -54.920 121.265  -9.873  1.00  0.00     0.059 C 
BRANCH   5   6
ATOM      6  C   UNL     1     -54.814 121.906 -11.223  1.00  0.00     0.042 C 
ATOM      7  O   UNL     1     -54.110 121.375 -12.122  1.00  0.00    -0.550 OA
ATOM      8  O   UNL     1     -55.460 123.110 -11.475  1.00  0.00    -0.550 OA
ENDBRANCH   5   6
ENDBRANCH   1   5
TORSDOF 3
ENDMDL
MODEL 5
REMARK VINA RESULT:    -3.852      1.357      2.174
REMARK INTER + INTRA:          -4.610
REMARK INTER:                  -4.489
REMARK INTRA:                  -0.121
REMARK UNBOUND:                -0.082
REMARK SMILES O=C([O-])CCC(=O)[O-]
REMARK SMILES IDX 4 1 2 2 1 3 3 4 5 5 6 6 7 7 8 8
REMARK H PARENT
REMARK Flexibility Score: inf
ROOT
ATOM      1  C   UNL     1     -55.054 120.963 -11.348  1.00  0.00     0.059 C 
ENDROOT
BRANCH   1   2
ATOM      2  C   UNL     1     -56.206 121.791 -11.832  1.00  0.00     0.042 C 
ATOM      3  O   UNL     1     -56.086 123.039 -11.941  1.00  0.00    -0.550 OA
ATOM      4  O   UNL     1     -57.423 121.187 -12.125  1.00  0.00    -0.550 OA
ENDBRANCH   1   2
BRANCH   1   5
ATOM      5  C   UNL     1     -55.245 120.529  -9.890  1.00  0.00     0.059 C 
BRANCH   5   6
ATOM      6  C   UNL     1     -55.399 121.707  -8.978  1.00  0.00     0.042 C 
ATOM      7  O   UNL     1     -56.474 121.883  -8.347  1.00  0.00    -0.550 OA
ATOM      8  O   UNL     1     -54.371 122.633  -8.857  1.00  0.00    -0.550 OA
ENDBRANCH   5   6
ENDBRANCH   1   5
TORSDOF 3
ENDMDL
MODEL 6
REMARK VINA RESULT:    -3.731      1.883      3.638
REMARK INTER + INTRA:          -4.468
REMARK INTER:                  -4.287
REMARK INTRA:                  -0.180
REMARK UNBOUND:                -0.082
REMARK SMILES O=C([O-])CCC(=O)[O-]
REMARK SMILES IDX 4 1 2 2 1 3 3 4 5 5 6 6 7 7 8 8
REMARK H PARENT
REMARK Flexibility Score: inf
ROOT
ATOM      1  C   UNL     1     -53.653 120.709  -9.111  1.00  0.00     0.059 C 
ENDROOT
BRANCH   1   2
ATOM      2  C   UNL     1     -53.045 122.029  -9.474  1.00  0.00     0.042 C 
ATOM      3  O   UNL     1     -52.544 122.203 -10.616  1.00  0.00    -0.550 OA
ATOM      4  O   UNL     1     -52.997 123.055  -8.538  1.00  0.00    -0.550 OA
ENDBRANCH   1   2
BRANCH   1   5
ATOM      5  C   UNL     1     -54.933 120.438  -9.911  1.00  0.00     0.059 C 
BRANCH   5   6
ATOM      6  C   UNL     1     -55.929 121.546  -9.751  1.00  0.00     0.042 C 
ATOM      7  O   UNL     1     -56.304 122.209 -10.753  1.00  0.00    -0.550 OA
ATOM      8  O   UNL     1     -56.411 121.872  -8.490  1.00  0.00    -0.550 OA
ENDBRANCH   5   6
ENDBRANCH   1   5
TORSDOF 3
ENDMDL
MODEL 7
REMARK VINA RESULT:    -3.720      1.801      2.530
REMARK INTER + INTRA:          -4.455
REMARK INTER:                  -4.382
REMARK INTRA:                  -0.073
REMARK UNBOUND:                -0.082
REMARK SMILES O=C([O-])CCC(=O)[O-]
REMARK SMILES IDX 4 1 2 2 1 3 3 4 5 5 6 6 7 7 8 8
REMARK H PARENT
REMARK Flexibility Score: inf
ROOT
ATOM      1  C   UNL     1     -56.116 121.016  -9.757  1.00  0.00     0.059 C 
ENDROOT
BRANCH   1   2
ATOM      2  C   UNL     1     -56.972 120.146 -10.627  1.00  0.00     0.042 C 
ATOM      3  O   UNL     1     -57.958 120.636 -11.236  1.00  0.00    -0.550 OA
ATOM      4  O   UNL     1     -56.702 118.787 -10.733  1.00  0.00    -0.550 OA
ENDBRANCH   1   2
BRANCH   1   5
ATOM      5  C   UNL     1     -54.815 121.413 -10.463  1.00  0.00     0.059 C 
BRANCH   5   6
ATOM      6  C   UNL     1     -53.767 120.350 -10.331  1.00  0.00     0.042 C 
ATOM      7  O   UNL     1     -53.512 119.589 -11.301  1.00  0.00    -0.550 OA
ATOM      8  O   UNL     1     -53.103 120.174  -9.124  1.00  0.00    -0.550 OA
ENDBRANCH   5   6
ENDBRANCH   1   5
TORSDOF 3
ENDMDL
MODEL 8
REMARK VINA RESULT:    -3.685      1.983      2.894
REMARK INTER + INTRA:          -4.413
REMARK INTER:                  -4.255
REMARK INTRA:                  -0.159
REMARK UNBOUND:                -0.082
REMARK SMILES O=C([O-])CCC(=O)[O-]
REMARK SMILES IDX 4 1 2 2 1 3 3 4 5 5 6 6 7 7 8 8
REMARK H PARENT
REMARK Flexibility Score: inf
ROOT
ATOM      1  C   UNL     1     -54.717 121.032  -9.209  1.00  0.00     0.059 C 
ENDROOT
BRANCH   1   2
ATOM      2  C   UNL     1     -56.175 121.375  -9.170  1.00  0.00     0.042 C 
ATOM      3  O   UNL     1     -56.640 122.051  -8.216  1.00  0.00    -0.550 OA
ATOM      4  O   UNL     1     -57.026 120.915 -10.168  1.00  0.00    -0.550 OA
ENDBRANCH   1   2
BRANCH   1   5
ATOM      5  C   UNL     1     -53.867 122.228  -9.651  1.00  0.00     0.059 C 
BRANCH   5   6
ATOM      6  C   UNL     1     -54.086 122.558 -11.097  1.00  0.00     0.042 C 
ATOM      7  O   UNL     1     -54.609 123.655 -11.424  1.00  0.00    -0.550 OA
ATOM      8  O   UNL     1     -53.749 121.635 -12.080  1.00  0.00    -0.550 OA
ENDBRANCH   5   6
ENDBRANCH   1   5
TORSDOF 3
ENDMDL
MODEL 9
REMARK VINA RESULT:    -3.613      2.141      3.385
REMARK INTER + INTRA:          -4.329
REMARK INTER:                  -4.168
REMARK INTRA:                  -0.161
REMARK UNBOUND:                -0.082
REMARK SMILES O=C([O-])CCC(=O)[O-]
REMARK SMILES IDX 4 1 2 2 1 3 3 4 5 5 6 6 7 7 8 8
REMARK H PARENT
REMARK Flexibility Score: inf
ROOT
ATOM      1  C   UNL     1     -54.449 121.409  -9.070  1.00  0.00     0.059 C 
ENDROOT
BRANCH   1   2
ATOM      2  C   UNL     1     -53.491 120.449  -9.708  1.00  0.00     0.042 C 
ATOM      3  O   UNL     1     -53.710 119.210  -9.660  1.00  0.00    -0.550 OA
ATOM      4  O   UNL     1     -52.336 120.921 -10.320  1.00  0.00    -0.550 OA
ENDBRANCH   1   2
BRANCH   1   5
ATOM      5  C   UNL     1     -55.877 121.210  -9.593  1.00  0.00     0.059 C 
BRANCH   5   6
ATOM      6  C   UNL     1     -55.996 121.596 -11.036  1.00  0.00     0.042 C 
ATOM      7  O   UNL     1     -56.032 122.810 -11.365  1.00  0.00    -0.550 OA
ATOM      8  O   UNL     1     -56.109 120.614 -12.012  1.00  0.00    -0.550 OA
ENDBRANCH   5   6
ENDBRANCH   1   5
TORSDOF 3
ENDMDL
