MODEL 1
REMARK VINA RESULT:    -6.897      0.000      0.000
REMARK INTER + INTRA:          -8.587
REMARK INTER:                  -8.308
REMARK INTRA:                  -0.279
REMARK UNBOUND:                -0.279
REMARK SMILES O=c1c(O)c(-c2ccc(O)c(O)c2)oc2cc(O)cc(O)c12
REMARK SMILES IDX 5 1 3 2 2 3 1 4 22 5 20 6 19 7 17 8 16 9 15 10 14 11 6 12
REMARK SMILES IDX 7 13 8 14 9 15 13 16 11 17 10 18 12 20 4 22 21 24 18 26
REMARK H PARENT 10 19 12 21 4 23 21 25 18 27
REMARK Flexibility Score: inf
ROOT
ATOM      1  C   UNL     1       0.286 -42.972 -36.900  1.00  0.00     0.180 A 
ATOM      2  C   UNL     1      -0.427 -43.792 -36.008  1.00  0.00     0.208 A 
ATOM      3  C   UNL     1      -1.348 -43.202 -35.129  1.00  0.00     0.238 A 
ATOM      4  O   UNL     1      -2.023 -43.947 -34.371  1.00  0.00    -0.285 OA
ATOM      5  C   UNL     1      -1.535 -41.799 -35.141  1.00  0.00     0.111 A 
ATOM      6  C   UNL     1      -2.413 -41.090 -34.267  1.00  0.00     0.134 A 
ATOM      7  C   UNL     1      -2.615 -39.718 -34.455  1.00  0.00     0.093 A 
ATOM      8  C   UNL     1      -1.924 -39.017 -35.442  1.00  0.00     0.123 A 
ATOM      9  C   UNL     1      -1.018 -39.688 -36.264  1.00  0.00     0.094 A 
ATOM     10  C   UNL     1      -0.821 -41.064 -36.124  1.00  0.00     0.146 A 
ATOM     11  O   UNL     1       0.042 -41.668 -36.933  1.00  0.00    -0.452 OA
ENDROOT
BRANCH   1  12
ATOM     12  C   UNL     1       1.293 -43.518 -37.839  1.00  0.00     0.025 A 
ATOM     13  C   UNL     1       2.671 -43.376 -37.599  1.00  0.00     0.016 A 
ATOM     14  C   UNL     1       3.603 -43.878 -38.511  1.00  0.00     0.051 A 
ATOM     15  C   UNL     1       3.172 -44.516 -39.682  1.00  0.00     0.157 A 
ATOM     16  C   UNL     1       0.867 -44.141 -39.024  1.00  0.00     0.062 A 
ATOM     17  C   UNL     1       1.802 -44.645 -39.940  1.00  0.00     0.158 A 
BRANCH  15  18
ATOM     18  O   UNL     1       4.098 -45.020 -40.594  1.00  0.00    -0.504 OA
ATOM     19  H   UNL     1       3.855 -45.759 -41.242  1.00  0.00     0.293 HD
ENDBRANCH  15  18
BRANCH  17  20
ATOM     20  O   UNL     1       1.376 -45.275 -41.108  1.00  0.00    -0.504 OA
ATOM     21  H   UNL     1       1.735 -46.181 -41.384  1.00  0.00     0.293 HD
ENDBRANCH  17  20
ENDBRANCH   1  12
BRANCH   2  22
ATOM     22  O   UNL     1      -0.243 -45.178 -36.028  1.00  0.00    -0.502 OA
ATOM     23  H   UNL     1       0.675 -45.606 -36.043  1.00  0.00     0.293 HD
ENDBRANCH   2  22
BRANCH   6  24
ATOM     24  O   UNL     1      -3.083 -41.678 -33.190  1.00  0.00    -0.507 OA
ATOM     25  H   UNL     1      -3.997 -42.102 -33.243  1.00  0.00     0.293 HD
ENDBRANCH   6  24
BRANCH   8  26
ATOM     26  O   UNL     1      -2.137 -37.648 -35.592  1.00  0.00    -0.508 OA
ATOM     27  H   UNL     1      -2.148 -37.022 -34.796  1.00  0.00     0.293 HD
ENDBRANCH   8  26
TORSDOF 6
ENDMDL
MODEL 2
REMARK VINA RESULT:    -6.855      4.178      8.669
REMARK INTER + INTRA:          -8.536
REMARK INTER:                  -8.206
REMARK INTRA:                  -0.330
REMARK UNBOUND:                -0.279
REMARK SMILES O=c1c(O)c(-c2ccc(O)c(O)c2)oc2cc(O)cc(O)c12
REMARK SMILES IDX 5 1 3 2 2 3 1 4 22 5 20 6 19 7 17 8 16 9 15 10 14 11 6 12
REMARK SMILES IDX 7 13 8 14 9 15 13 16 11 17 10 18 12 20 4 22 21 24 18 26
REMARK H PARENT 10 19 12 21 4 23 21 25 18 27
REMARK Flexibility Score: inf
ROOT
ATOM      1  C   UNL     1      -5.055 -42.427 -33.393  1.00  0.00     0.180 A 
ATOM      2  C   UNL     1      -4.991 -41.111 -33.885  1.00  0.00     0.208 A 
ATOM      3  C   UNL     1      -3.829 -40.687 -34.548  1.00  0.00     0.238 A 
ATOM      4  O   UNL     1      -3.799 -39.526 -35.034  1.00  0.00    -0.285 OA
ATOM      5  C   UNL     1      -2.738 -41.577 -34.697  1.00  0.00     0.111 A 
ATOM      6  C   UNL     1      -1.497 -41.242 -35.316  1.00  0.00     0.134 A 
ATOM      7  C   UNL     1      -0.537 -42.239 -35.525  1.00  0.00     0.093 A 
ATOM      8  C   UNL     1      -0.746 -43.544 -35.080  1.00  0.00     0.123 A 
ATOM      9  C   UNL     1      -1.932 -43.870 -34.420  1.00  0.00     0.094 A 
ATOM     10  C   UNL     1      -2.923 -42.905 -34.229  1.00  0.00     0.146 A 
ATOM     11  O   UNL     1      -4.042 -43.258 -33.606  1.00  0.00    -0.452 OA
ENDROOT
BRANCH   1  12
ATOM     12  C   UNL     1      -6.236 -42.938 -32.662  1.00  0.00     0.025 A 
ATOM     13  C   UNL     1      -6.330 -42.840 -31.262  1.00  0.00     0.016 A 
ATOM     14  C   UNL     1      -7.444 -43.352 -30.591  1.00  0.00     0.051 A 
ATOM     15  C   UNL     1      -8.472 -43.981 -31.305  1.00  0.00     0.157 A 
ATOM     16  C   UNL     1      -7.260 -43.588 -33.371  1.00  0.00     0.062 A 
ATOM     17  C   UNL     1      -8.378 -44.102 -32.697  1.00  0.00     0.158 A 
BRANCH  15  18
ATOM     18  O   UNL     1      -9.585 -44.491 -30.640  1.00  0.00    -0.504 OA
ATOM     19  H   UNL     1      -9.501 -45.240 -29.964  1.00  0.00     0.293 HD
ENDBRANCH  15  18
BRANCH  17  20
ATOM     20  O   UNL     1      -9.399 -44.733 -33.406  1.00  0.00    -0.504 OA
ATOM     21  H   UNL     1     -10.328 -44.842 -33.015  1.00  0.00     0.293 HD
ENDBRANCH  17  20
ENDBRANCH   1  12
BRANCH   2  22
ATOM     22  O   UNL     1      -6.088 -40.256 -33.746  1.00  0.00    -0.502 OA
ATOM     23  H   UNL     1      -5.992 -39.292 -33.447  1.00  0.00     0.293 HD
ENDBRANCH   2  22
BRANCH   6  24
ATOM     24  O   UNL     1      -1.149 -39.948 -35.715  1.00  0.00    -0.507 OA
ATOM     25  H   UNL     1      -1.804 -39.195 -35.863  1.00  0.00     0.293 HD
ENDBRANCH   6  24
BRANCH   8  26
ATOM     26  O   UNL     1       0.237 -44.509 -35.290  1.00  0.00    -0.508 OA
ATOM     27  H   UNL     1       1.160 -44.423 -34.885  1.00  0.00     0.293 HD
ENDBRANCH   8  26
TORSDOF 6
ENDMDL
MODEL 3
REMARK VINA RESULT:    -6.593      2.636      3.878
REMARK INTER + INTRA:          -8.221
REMARK INTER:                  -7.900
REMARK INTRA:                  -0.320
REMARK UNBOUND:                -0.279
REMARK SMILES O=c1c(O)c(-c2ccc(O)c(O)c2)oc2cc(O)cc(O)c12
REMARK SMILES IDX 5 1 3 2 2 3 1 4 22 5 20 6 19 7 17 8 16 9 15 10 14 11 6 12
REMARK SMILES IDX 7 13 8 14 9 15 13 16 11 17 10 18 12 20 4 22 21 24 18 26
REMARK H PARENT 10 19 12 21 4 23 21 25 18 27
REMARK Flexibility Score: inf
ROOT
ATOM      1  C   UNL     1       1.309 -43.269 -37.314  1.00  0.00     0.180 A 
ATOM      2  C   UNL     1       0.180 -42.546 -36.889  1.00  0.00     0.208 A 
ATOM      3  C   UNL     1       0.018 -42.279 -35.521  1.00  0.00     0.238 A 
ATOM      4  O   UNL     1      -0.966 -41.585 -35.152  1.00  0.00    -0.285 OA
ATOM      5  C   UNL     1       0.976 -42.752 -34.592  1.00  0.00     0.111 A 
ATOM      6  C   UNL     1       0.892 -42.574 -33.178  1.00  0.00     0.134 A 
ATOM      7  C   UNL     1       1.962 -42.970 -32.367  1.00  0.00     0.093 A 
ATOM      8  C   UNL     1       3.084 -43.594 -32.910  1.00  0.00     0.123 A 
ATOM      9  C   UNL     1       3.152 -43.827 -34.284  1.00  0.00     0.094 A 
ATOM     10  C   UNL     1       2.116 -43.411 -35.123  1.00  0.00     0.146 A 
ATOM     11  O   UNL     1       2.223 -43.642 -36.427  1.00  0.00    -0.452 OA
ENDROOT
BRANCH   1  12
ATOM     12  C   UNL     1       1.535 -43.610 -38.737  1.00  0.00     0.025 A 
ATOM     13  C   UNL     1       2.285 -42.771 -39.581  1.00  0.00     0.016 A 
ATOM     14  C   UNL     1       2.465 -43.102 -40.927  1.00  0.00     0.051 A 
ATOM     15  C   UNL     1       1.889 -44.266 -41.451  1.00  0.00     0.157 A 
ATOM     16  C   UNL     1       0.943 -44.766 -39.273  1.00  0.00     0.062 A 
ATOM     17  C   UNL     1       1.124 -45.098 -40.624  1.00  0.00     0.158 A 
BRANCH  15  18
ATOM     18  O   UNL     1       2.068 -44.600 -42.793  1.00  0.00    -0.504 OA
ATOM     19  H   UNL     1       2.990 -44.634 -43.211  1.00  0.00     0.293 HD
ENDBRANCH  15  18
BRANCH  17  20
ATOM     20  O   UNL     1       0.547 -46.252 -41.150  1.00  0.00    -0.504 OA
ATOM     21  H   UNL     1       0.125 -46.954 -40.552  1.00  0.00     0.293 HD
ENDBRANCH  17  20
ENDBRANCH   1  12
BRANCH   2  22
ATOM     22  O   UNL     1      -0.743 -42.070 -37.824  1.00  0.00    -0.502 OA
ATOM     23  H   UNL     1      -1.704 -42.391 -37.854  1.00  0.00     0.293 HD
ENDBRANCH   2  22
BRANCH   6  24
ATOM     24  O   UNL     1      -0.225 -42.045 -32.524  1.00  0.00    -0.507 OA
ATOM     25  H   UNL     1      -0.472 -42.232 -31.564  1.00  0.00     0.293 HD
ENDBRANCH   6  24
BRANCH   8  26
ATOM     26  O   UNL     1       4.125 -43.989 -32.071  1.00  0.00    -0.508 OA
ATOM     27  H   UNL     1       5.087 -43.746 -32.270  1.00  0.00     0.293 HD
ENDBRANCH   8  26
TORSDOF 6
ENDMDL
MODEL 4
REMARK VINA RESULT:    -6.580      2.420      3.115
REMARK INTER + INTRA:          -8.205
REMARK INTER:                  -8.005
REMARK INTRA:                  -0.200
REMARK UNBOUND:                -0.279
REMARK SMILES O=c1c(O)c(-c2ccc(O)c(O)c2)oc2cc(O)cc(O)c12
REMARK SMILES IDX 5 1 3 2 2 3 1 4 22 5 20 6 19 7 17 8 16 9 15 10 14 11 6 12
REMARK SMILES IDX 7 13 8 14 9 15 13 16 11 17 10 18 12 20 4 22 21 24 18 26
REMARK H PARENT 10 19 12 21 4 23 21 25 18 27
REMARK Flexibility Score: inf
ROOT
ATOM      1  C   UNL     1       1.088 -43.670 -37.218  1.00  0.00     0.180 A 
ATOM      2  C   UNL     1       2.125 -43.643 -36.269  1.00  0.00     0.208 A 
ATOM      3  C   UNL     1       1.806 -43.428 -34.919  1.00  0.00     0.238 A 
ATOM      4  O   UNL     1       2.733 -43.460 -34.067  1.00  0.00    -0.285 OA
ATOM      5  C   UNL     1       0.459 -43.225 -34.536  1.00  0.00     0.111 A 
ATOM      6  C   UNL     1       0.026 -42.959 -33.202  1.00  0.00     0.134 A 
ATOM      7  C   UNL     1      -1.344 -42.904 -32.918  1.00  0.00     0.093 A 
ATOM      8  C   UNL     1      -2.294 -43.043 -33.928  1.00  0.00     0.123 A 
ATOM      9  C   UNL     1      -1.882 -43.245 -35.246  1.00  0.00     0.094 A 
ATOM     10  C   UNL     1      -0.523 -43.339 -35.555  1.00  0.00     0.146 A 
ATOM     11  O   UNL     1      -0.172 -43.543 -36.820  1.00  0.00    -0.452 OA
ENDROOT
BRANCH   1  12
ATOM     12  C   UNL     1       1.347 -43.867 -38.663  1.00  0.00     0.025 A 
ATOM     13  C   UNL     1       2.058 -42.915 -39.415  1.00  0.00     0.016 A 
ATOM     14  C   UNL     1       2.270 -43.111 -40.783  1.00  0.00     0.051 A 
ATOM     15  C   UNL     1       1.762 -44.251 -41.420  1.00  0.00     0.157 A 
ATOM     16  C   UNL     1       0.823 -44.998 -39.311  1.00  0.00     0.062 A 
ATOM     17  C   UNL     1       1.035 -45.194 -40.683  1.00  0.00     0.158 A 
BRANCH  15  18
ATOM     18  O   UNL     1       1.973 -44.451 -42.783  1.00  0.00    -0.504 OA
ATOM     19  H   UNL     1       2.047 -43.672 -43.427  1.00  0.00     0.293 HD
ENDBRANCH  15  18
BRANCH  17  20
ATOM     20  O   UNL     1       0.526 -46.324 -41.321  1.00  0.00    -0.504 OA
ATOM     21  H   UNL     1      -0.391 -46.693 -41.095  1.00  0.00     0.293 HD
ENDBRANCH  17  20
ENDBRANCH   1  12
BRANCH   2  22
ATOM     22  O   UNL     1       3.446 -43.867 -36.665  1.00  0.00    -0.502 OA
ATOM     23  H   UNL     1       3.863 -43.397 -37.460  1.00  0.00     0.293 HD
ENDBRANCH   2  22
BRANCH   6  24
ATOM     24  O   UNL     1       0.895 -42.713 -32.135  1.00  0.00    -0.507 OA
ATOM     25  H   UNL     1       1.830 -43.084 -32.056  1.00  0.00     0.293 HD
ENDBRANCH   6  24
BRANCH   8  26
ATOM     26  O   UNL     1      -3.650 -42.968 -33.613  1.00  0.00    -0.508 OA
ATOM     27  H   UNL     1      -4.302 -43.685 -33.904  1.00  0.00     0.293 HD
ENDBRANCH   8  26
TORSDOF 6
ENDMDL
MODEL 5
REMARK VINA RESULT:    -6.335      1.786      7.055
REMARK INTER + INTRA:          -7.910
REMARK INTER:                  -7.666
REMARK INTRA:                  -0.245
REMARK UNBOUND:                -0.279
REMARK SMILES O=c1c(O)c(-c2ccc(O)c(O)c2)oc2cc(O)cc(O)c12
REMARK SMILES IDX 5 1 3 2 2 3 1 4 22 5 20 6 19 7 17 8 16 9 15 10 14 11 6 12
REMARK SMILES IDX 7 13 8 14 9 15 13 16 11 17 10 18 12 20 4 22 21 24 18 26
REMARK H PARENT 10 19 12 21 4 23 21 25 18 27
REMARK Flexibility Score: inf
ROOT
ATOM      1  C   UNL     1      -0.074 -42.754 -36.377  1.00  0.00     0.180 A 
ATOM      2  C   UNL     1       1.047 -41.907 -36.361  1.00  0.00     0.208 A 
ATOM      3  C   UNL     1       2.035 -42.066 -37.345  1.00  0.00     0.238 A 
ATOM      4  O   UNL     1       3.010 -41.269 -37.358  1.00  0.00    -0.285 OA
ATOM      5  C   UNL     1       1.899 -43.080 -38.324  1.00  0.00     0.111 A 
ATOM      6  C   UNL     1       2.857 -43.356 -39.344  1.00  0.00     0.134 A 
ATOM      7  C   UNL     1       2.557 -44.296 -40.337  1.00  0.00     0.093 A 
ATOM      8  C   UNL     1       1.363 -45.015 -40.311  1.00  0.00     0.123 A 
ATOM      9  C   UNL     1       0.443 -44.795 -39.285  1.00  0.00     0.094 A 
ATOM     10  C   UNL     1       0.699 -43.838 -38.300  1.00  0.00     0.146 A 
ATOM     11  O   UNL     1      -0.207 -43.651 -37.346  1.00  0.00    -0.452 OA
ENDROOT
BRANCH   1  12
ATOM     12  C   UNL     1      -1.145 -42.663 -35.358  1.00  0.00     0.025 A 
ATOM     13  C   UNL     1      -2.066 -41.601 -35.355  1.00  0.00     0.016 A 
ATOM     14  C   UNL     1      -3.053 -41.523 -34.369  1.00  0.00     0.051 A 
ATOM     15  C   UNL     1      -3.125 -42.496 -33.364  1.00  0.00     0.157 A 
ATOM     16  C   UNL     1      -1.209 -43.625 -34.336  1.00  0.00     0.062 A 
ATOM     17  C   UNL     1      -2.199 -43.547 -33.346  1.00  0.00     0.158 A 
BRANCH  15  18
ATOM     18  O   UNL     1      -4.109 -42.423 -32.379  1.00  0.00    -0.504 OA
ATOM     19  H   UNL     1      -4.477 -43.256 -31.936  1.00  0.00     0.293 HD
ENDBRANCH  15  18
BRANCH  17  20
ATOM     20  O   UNL     1      -2.269 -44.511 -32.341  1.00  0.00    -0.504 OA
ATOM     21  H   UNL     1      -1.873 -44.350 -31.422  1.00  0.00     0.293 HD
ENDBRANCH  17  20
ENDBRANCH   1  12
BRANCH   2  22
ATOM     22  O   UNL     1       1.153 -40.898 -35.399  1.00  0.00    -0.502 OA
ATOM     23  H   UNL     1       0.691 -40.954 -34.498  1.00  0.00     0.293 HD
ENDBRANCH   2  22
BRANCH   6  24
ATOM     24  O   UNL     1       4.121 -42.761 -39.409  1.00  0.00    -0.507 OA
ATOM     25  H   UNL     1       4.956 -43.219 -39.739  1.00  0.00     0.293 HD
ENDBRANCH   6  24
BRANCH   8  26
ATOM     26  O   UNL     1       1.103 -45.954 -41.307  1.00  0.00    -0.508 OA
ATOM     27  H   UNL     1       0.843 -46.907 -41.083  1.00  0.00     0.293 HD
ENDBRANCH   8  26
TORSDOF 6
ENDMDL
MODEL 6
REMARK VINA RESULT:    -6.294      1.303      2.896
REMARK INTER + INTRA:          -7.860
REMARK INTER:                  -7.699
REMARK INTRA:                  -0.162
REMARK UNBOUND:                -0.279
REMARK SMILES O=c1c(O)c(-c2ccc(O)c(O)c2)oc2cc(O)cc(O)c12
REMARK SMILES IDX 5 1 3 2 2 3 1 4 22 5 20 6 19 7 17 8 16 9 15 10 14 11 6 12
REMARK SMILES IDX 7 13 8 14 9 15 13 16 11 17 10 18 12 20 4 22 21 24 18 26
REMARK H PARENT 10 19 12 21 4 23 21 25 18 27
REMARK Flexibility Score: inf
ROOT
ATOM      1  C   UNL     1       0.796 -42.530 -36.933  1.00  0.00     0.180 A 
ATOM      2  C   UNL     1       0.800 -41.130 -36.801  1.00  0.00     0.208 A 
ATOM      3  C   UNL     1      -0.074 -40.530 -35.882  1.00  0.00     0.238 A 
ATOM      4  O   UNL     1      -0.028 -39.281 -35.730  1.00  0.00    -0.285 OA
ATOM      5  C   UNL     1      -0.953 -41.334 -35.117  1.00  0.00     0.111 A 
ATOM      6  C   UNL     1      -1.909 -40.830 -34.184  1.00  0.00     0.134 A 
ATOM      7  C   UNL     1      -2.635 -41.724 -33.388  1.00  0.00     0.093 A 
ATOM      8  C   UNL     1      -2.487 -43.103 -33.535  1.00  0.00     0.123 A 
ATOM      9  C   UNL     1      -1.598 -43.608 -34.484  1.00  0.00     0.094 A 
ATOM     10  C   UNL     1      -0.834 -42.741 -35.269  1.00  0.00     0.146 A 
ATOM     11  O   UNL     1       0.008 -43.261 -36.154  1.00  0.00    -0.452 OA
ENDROOT
BRANCH   1  12
ATOM     12  C   UNL     1       1.672 -43.233 -37.898  1.00  0.00     0.025 A 
ATOM     13  C   UNL     1       3.072 -43.205 -37.772  1.00  0.00     0.016 A 
ATOM     14  C   UNL     1       3.879 -43.855 -38.710  1.00  0.00     0.051 A 
ATOM     15  C   UNL     1       3.300 -44.530 -39.793  1.00  0.00     0.157 A 
ATOM     16  C   UNL     1       1.098 -43.893 -38.998  1.00  0.00     0.062 A 
ATOM     17  C   UNL     1       1.908 -44.546 -39.939  1.00  0.00     0.158 A 
BRANCH  15  18
ATOM     18  O   UNL     1       4.102 -45.181 -40.729  1.00  0.00    -0.504 OA
ATOM     19  H   UNL     1       4.609 -44.669 -41.440  1.00  0.00     0.293 HD
ENDBRANCH  15  18
BRANCH  17  20
ATOM     20  O   UNL     1       1.335 -45.212 -41.020  1.00  0.00    -0.504 OA
ATOM     21  H   UNL     1       1.145 -44.738 -41.896  1.00  0.00     0.293 HD
ENDBRANCH  17  20
ENDBRANCH   1  12
BRANCH   2  22
ATOM     22  O   UNL     1       1.690 -40.356 -37.551  1.00  0.00    -0.502 OA
ATOM     23  H   UNL     1       1.470 -40.020 -38.481  1.00  0.00     0.293 HD
ENDBRANCH   2  22
BRANCH   6  24
ATOM     24  O   UNL     1      -2.201 -39.473 -34.024  1.00  0.00    -0.507 OA
ATOM     25  H   UNL     1      -2.989 -39.111 -33.508  1.00  0.00     0.293 HD
ENDBRANCH   6  24
BRANCH   8  26
ATOM     26  O   UNL     1      -3.237 -43.964 -32.736  1.00  0.00    -0.508 OA
ATOM     27  H   UNL     1      -3.524 -43.705 -31.801  1.00  0.00     0.293 HD
ENDBRANCH   8  26
TORSDOF 6
ENDMDL
MODEL 7
REMARK VINA RESULT:    -6.286      2.078      6.980
REMARK INTER + INTRA:          -7.851
REMARK INTER:                  -7.528
REMARK INTRA:                  -0.323
REMARK UNBOUND:                -0.279
REMARK SMILES O=c1c(O)c(-c2ccc(O)c(O)c2)oc2cc(O)cc(O)c12
REMARK SMILES IDX 5 1 3 2 2 3 1 4 22 5 20 6 19 7 17 8 16 9 15 10 14 11 6 12
REMARK SMILES IDX 7 13 8 14 9 15 13 16 11 17 10 18 12 20 4 22 21 24 18 26
REMARK H PARENT 10 19 12 21 4 23 21 25 18 27
REMARK Flexibility Score: inf
ROOT
ATOM      1  C   UNL     1      -0.838 -42.215 -35.446  1.00  0.00     0.180 A 
ATOM      2  C   UNL     1       0.304 -41.967 -34.664  1.00  0.00     0.208 A 
ATOM      3  C   UNL     1       1.561 -42.361 -35.150  1.00  0.00     0.238 A 
ATOM      4  O   UNL     1       2.585 -42.088 -34.470  1.00  0.00    -0.285 OA
ATOM      5  C   UNL     1       1.659 -43.013 -36.403  1.00  0.00     0.111 A 
ATOM      6  C   UNL     1       2.877 -43.491 -36.975  1.00  0.00     0.134 A 
ATOM      7  C   UNL     1       2.874 -44.003 -38.278  1.00  0.00     0.093 A 
ATOM      8  C   UNL     1       1.689 -44.113 -39.005  1.00  0.00     0.123 A 
ATOM      9  C   UNL     1       0.484 -43.703 -38.434  1.00  0.00     0.094 A 
ATOM     10  C   UNL     1       0.460 -43.155 -37.149  1.00  0.00     0.146 A 
ATOM     11  O   UNL     1      -0.706 -42.767 -36.646  1.00  0.00    -0.452 OA
ENDROOT
BRANCH   1  12
ATOM     12  C   UNL     1      -2.199 -41.851 -34.990  1.00  0.00     0.025 A 
ATOM     13  C   UNL     1      -2.756 -40.593 -35.280  1.00  0.00     0.016 A 
ATOM     14  C   UNL     1      -4.033 -40.263 -34.819  1.00  0.00     0.051 A 
ATOM     15  C   UNL     1      -4.765 -41.177 -34.049  1.00  0.00     0.157 A 
ATOM     16  C   UNL     1      -2.928 -42.756 -34.201  1.00  0.00     0.062 A 
ATOM     17  C   UNL     1      -4.210 -42.425 -33.737  1.00  0.00     0.158 A 
BRANCH  15  18
ATOM     18  O   UNL     1      -6.040 -40.852 -33.589  1.00  0.00    -0.504 OA
ATOM     19  H   UNL     1      -6.849 -40.895 -34.196  1.00  0.00     0.293 HD
ENDBRANCH  15  18
BRANCH  17  20
ATOM     20  O   UNL     1      -4.937 -43.330 -32.967  1.00  0.00    -0.504 OA
ATOM     21  H   UNL     1      -5.438 -43.038 -32.136  1.00  0.00     0.293 HD
ENDBRANCH  17  20
ENDBRANCH   1  12
BRANCH   2  22
ATOM     22  O   UNL     1       0.187 -41.304 -33.439  1.00  0.00    -0.502 OA
ATOM     23  H   UNL     1       0.891 -40.658 -33.100  1.00  0.00     0.293 HD
ENDBRANCH   2  22
BRANCH   6  24
ATOM     24  O   UNL     1       4.100 -43.512 -36.299  1.00  0.00    -0.507 OA
ATOM     25  H   UNL     1       4.278 -44.022 -35.447  1.00  0.00     0.293 HD
ENDBRANCH   6  24
BRANCH   8  26
ATOM     26  O   UNL     1       1.720 -44.641 -40.294  1.00  0.00    -0.508 OA
ATOM     27  H   UNL     1       1.492 -44.077 -41.104  1.00  0.00     0.293 HD
ENDBRANCH   8  26
TORSDOF 6
ENDMDL
MODEL 8
REMARK VINA RESULT:    -6.282      4.128      7.779
REMARK INTER + INTRA:          -7.846
REMARK INTER:                  -7.631
REMARK INTRA:                  -0.214
REMARK UNBOUND:                -0.279
REMARK SMILES O=c1c(O)c(-c2ccc(O)c(O)c2)oc2cc(O)cc(O)c12
REMARK SMILES IDX 5 1 3 2 2 3 1 4 22 5 20 6 19 7 17 8 16 9 15 10 14 11 6 12
REMARK SMILES IDX 7 13 8 14 9 15 13 16 11 17 10 18 12 20 4 22 21 24 18 26
REMARK H PARENT 10 19 12 21 4 23 21 25 18 27
REMARK Flexibility Score: inf
ROOT
ATOM      1  C   UNL     1      -4.243 -42.180 -33.793  1.00  0.00     0.180 A 
ATOM      2  C   UNL     1      -3.012 -42.806 -33.534  1.00  0.00     0.208 A 
ATOM      3  C   UNL     1      -1.834 -42.218 -34.020  1.00  0.00     0.238 A 
ATOM      4  O   UNL     1      -0.729 -42.754 -33.739  1.00  0.00    -0.285 OA
ATOM      5  C   UNL     1      -1.901 -41.022 -34.774  1.00  0.00     0.111 A 
ATOM      6  C   UNL     1      -0.775 -40.361 -35.349  1.00  0.00     0.134 A 
ATOM      7  C   UNL     1      -0.945 -39.114 -35.964  1.00  0.00     0.093 A 
ATOM      8  C   UNL     1      -2.208 -38.535 -36.080  1.00  0.00     0.123 A 
ATOM      9  C   UNL     1      -3.325 -39.200 -35.573  1.00  0.00     0.094 A 
ATOM     10  C   UNL     1      -3.183 -40.428 -34.924  1.00  0.00     0.146 A 
ATOM     11  O   UNL     1      -4.269 -41.024 -34.445  1.00  0.00    -0.452 OA
ENDROOT
BRANCH   1  12
ATOM     12  C   UNL     1      -5.530 -42.752 -33.334  1.00  0.00     0.025 A 
ATOM     13  C   UNL     1      -6.463 -43.279 -34.245  1.00  0.00     0.016 A 
ATOM     14  C   UNL     1      -7.682 -43.791 -33.792  1.00  0.00     0.051 A 
ATOM     15  C   UNL     1      -7.991 -43.772 -32.425  1.00  0.00     0.157 A 
ATOM     16  C   UNL     1      -5.854 -42.717 -31.968  1.00  0.00     0.062 A 
ATOM     17  C   UNL     1      -7.077 -43.231 -31.512  1.00  0.00     0.158 A 
BRANCH  15  18
ATOM     18  O   UNL     1      -9.204 -44.284 -31.968  1.00  0.00    -0.504 OA
ATOM     19  H   UNL     1      -9.365 -44.467 -30.985  1.00  0.00     0.293 HD
ENDBRANCH  15  18
BRANCH  17  20
ATOM     20  O   UNL     1      -7.389 -43.208 -30.154  1.00  0.00    -0.504 OA
ATOM     21  H   UNL     1      -7.988 -43.910 -29.735  1.00  0.00     0.293 HD
ENDBRANCH  17  20
ENDBRANCH   1  12
BRANCH   2  22
ATOM     22  O   UNL     1      -2.965 -43.975 -32.770  1.00  0.00    -0.502 OA
ATOM     23  H   UNL     1      -3.677 -44.209 -32.087  1.00  0.00     0.293 HD
ENDBRANCH   2  22
BRANCH   6  24
ATOM     24  O   UNL     1       0.517 -40.896 -35.370  1.00  0.00    -0.507 OA
ATOM     25  H   UNL     1       0.817 -41.651 -35.968  1.00  0.00     0.293 HD
ENDBRANCH   6  24
BRANCH   8  26
ATOM     26  O   UNL     1      -2.343 -37.300 -36.711  1.00  0.00    -0.508 OA
ATOM     27  H   UNL     1      -1.888 -37.102 -37.593  1.00  0.00     0.293 HD
ENDBRANCH   8  26
TORSDOF 6
ENDMDL
MODEL 9
REMARK VINA RESULT:    -6.202      2.466      3.286
REMARK INTER + INTRA:          -7.749
REMARK INTER:                  -7.500
REMARK INTRA:                  -0.250
REMARK UNBOUND:                -0.279
REMARK SMILES O=c1c(O)c(-c2ccc(O)c(O)c2)oc2cc(O)cc(O)c12
REMARK SMILES IDX 5 1 3 2 2 3 1 4 22 5 20 6 19 7 17 8 16 9 15 10 14 11 6 12
REMARK SMILES IDX 7 13 8 14 9 15 13 16 11 17 10 18 12 20 4 22 21 24 18 26
REMARK H PARENT 10 19 12 21 4 23 21 25 18 27
REMARK Flexibility Score: inf
ROOT
ATOM      1  C   UNL     1       1.020 -43.611 -37.315  1.00  0.00     0.180 A 
ATOM      2  C   UNL     1       2.058 -43.605 -36.366  1.00  0.00     0.208 A 
ATOM      3  C   UNL     1       1.740 -43.423 -35.011  1.00  0.00     0.238 A 
ATOM      4  O   UNL     1       2.668 -43.473 -34.161  1.00  0.00    -0.285 OA
ATOM      5  C   UNL     1       0.392 -43.233 -34.622  1.00  0.00     0.111 A 
ATOM      6  C   UNL     1      -0.040 -43.000 -33.282  1.00  0.00     0.134 A 
ATOM      7  C   UNL     1      -1.409 -42.955 -32.996  1.00  0.00     0.093 A 
ATOM      8  C   UNL     1      -2.361 -43.071 -34.008  1.00  0.00     0.123 A 
ATOM      9  C   UNL     1      -1.949 -43.241 -35.331  1.00  0.00     0.094 A 
ATOM     10  C   UNL     1      -0.590 -43.324 -35.643  1.00  0.00     0.146 A 
ATOM     11  O   UNL     1      -0.240 -43.497 -36.912  1.00  0.00    -0.452 OA
ENDROOT
BRANCH   1  12
ATOM     12  C   UNL     1       1.279 -43.773 -38.764  1.00  0.00     0.025 A 
ATOM     13  C   UNL     1       1.014 -44.986 -39.424  1.00  0.00     0.016 A 
ATOM     14  C   UNL     1       1.289 -45.124 -40.787  1.00  0.00     0.051 A 
ATOM     15  C   UNL     1       1.845 -44.057 -41.507  1.00  0.00     0.157 A 
ATOM     16  C   UNL     1       1.854 -42.714 -39.486  1.00  0.00     0.062 A 
ATOM     17  C   UNL     1       2.130 -42.852 -40.854  1.00  0.00     0.158 A 
BRANCH  15  18
ATOM     18  O   UNL     1       2.118 -44.189 -42.867  1.00  0.00    -0.504 OA
ATOM     19  H   UNL     1       2.802 -44.854 -43.208  1.00  0.00     0.293 HD
ENDBRANCH  15  18
BRANCH  17  20
ATOM     20  O   UNL     1       2.688 -41.794 -41.570  1.00  0.00    -0.504 OA
ATOM     21  H   UNL     1       3.553 -41.902 -42.089  1.00  0.00     0.293 HD
ENDBRANCH  17  20
ENDBRANCH   1  12
BRANCH   2  22
ATOM     22  O   UNL     1       3.379 -43.817 -36.769  1.00  0.00    -0.502 OA
ATOM     23  H   UNL     1       3.666 -43.774 -37.740  1.00  0.00     0.293 HD
ENDBRANCH   2  22
BRANCH   6  24
ATOM     24  O   UNL     1       0.830 -42.778 -32.210  1.00  0.00    -0.507 OA
ATOM     25  H   UNL     1       1.465 -43.464 -31.832  1.00  0.00     0.293 HD
ENDBRANCH   6  24
BRANCH   8  26
ATOM     26  O   UNL     1      -3.716 -43.008 -33.690  1.00  0.00    -0.508 OA
ATOM     27  H   UNL     1      -4.187 -43.771 -33.221  1.00  0.00     0.293 HD
ENDBRANCH   8  26
TORSDOF 6
ENDMDL
