MODEL 1
REMARK VINA RESULT:    -7.955      0.000      0.000
REMARK INTER + INTRA:          -8.677
REMARK INTER:                  -8.653
REMARK INTRA:                  -0.024
REMARK UNBOUND:                -0.024
REMARK SMILES CC1(C)[C@@H]2CC=C(CO)[C@H]1C2
REMARK SMILES IDX 8 1 7 2 1 3 2 4 4 5 3 6 10 7 5 8 11 9 6 10 9 11
REMARK H PARENT 9 12
REMARK Flexibility Score: inf
ROOT
ATOM      1  C   UNL     1      -9.080  -8.968 -10.377  1.00  0.00     0.187 C 
ENDROOT
BRANCH   1   2
ATOM      2  C   UNL     1      -9.438  -9.562  -9.045  1.00  0.00    -0.045 C 
ATOM      3  C   UNL     1     -10.304  -7.871  -5.638  1.00  0.00     0.012 C 
ATOM      4  C   UNL     1      -9.658  -8.867  -6.634  1.00  0.00    -0.026 C 
ATOM      5  C   UNL     1     -10.275 -10.288  -6.528  1.00  0.00    -0.000 C 
ATOM      6  C   UNL     1      -8.113  -8.716  -6.540  1.00  0.00     0.012 C 
ATOM      7  C   UNL     1     -10.319  -8.809  -8.037  1.00  0.00     0.023 C 
ATOM      8  C   UNL     1      -9.375 -11.332  -7.276  1.00  0.00     0.031 C 
ATOM      9  C   UNL     1     -11.345  -9.851  -7.550  1.00  0.00     0.013 C 
ATOM     10  C   UNL     1      -9.000 -10.801  -8.673  1.00  0.00    -0.025 C 
ENDBRANCH   1   2
BRANCH   1  11
ATOM     11  O   UNL     1      -9.423  -9.863 -11.397  1.00  0.00    -0.392 OA
ATOM     12  H   UNL     1     -10.179  -9.444 -11.885  1.00  0.00     0.211 HD
ENDBRANCH   1  11
TORSDOF 2
ENDMDL
MODEL 2
REMARK VINA RESULT:    -7.578      2.247      3.691
REMARK INTER + INTRA:          -8.267
REMARK INTER:                  -8.243
REMARK INTRA:                  -0.023
REMARK UNBOUND:                -0.024
REMARK SMILES CC1(C)[C@@H]2CC=C(CO)[C@H]1C2
REMARK SMILES IDX 8 1 7 2 1 3 2 4 4 5 3 6 10 7 5 8 11 9 6 10 9 11
REMARK H PARENT 9 12
REMARK Flexibility Score: inf
ROOT
ATOM      1  C   UNL     1     -13.232  -9.533  -7.376  1.00  0.00     0.187 C 
ENDROOT
BRANCH   1   2
ATOM      2  C   UNL     1     -11.770  -9.257  -7.175  1.00  0.00    -0.045 C 
ATOM      3  C   UNL     1      -8.608 -11.070  -8.565  1.00  0.00     0.012 C 
ATOM      4  C   UNL     1      -9.541 -10.371  -7.544  1.00  0.00    -0.026 C 
ATOM      5  C   UNL     1      -9.036  -8.953  -7.162  1.00  0.00    -0.000 C 
ATOM      6  C   UNL     1      -9.861 -11.381  -6.406  1.00  0.00     0.012 C 
ATOM      7  C   UNL     1     -10.724  -9.639  -8.233  1.00  0.00     0.023 C 
ATOM      8  C   UNL     1      -9.787  -8.431  -5.888  1.00  0.00     0.031 C 
ATOM      9  C   UNL     1      -9.822  -8.397  -8.367  1.00  0.00     0.013 C 
ATOM     10  C   UNL     1     -11.306  -8.649  -6.044  1.00  0.00    -0.025 C 
ENDBRANCH   1   2
BRANCH   1  11
ATOM     11  O   UNL     1     -13.978  -8.411  -6.997  1.00  0.00    -0.392 OA
ATOM     12  H   UNL     1     -14.567  -8.201  -7.767  1.00  0.00     0.211 HD
ENDBRANCH   1  11
TORSDOF 2
ENDMDL
MODEL 3
REMARK VINA RESULT:    -7.462      0.997      2.577
REMARK INTER + INTRA:          -8.141
REMARK INTER:                  -8.094
REMARK INTRA:                  -0.047
REMARK UNBOUND:                -0.024
REMARK SMILES CC1(C)[C@@H]2CC=C(CO)[C@H]1C2
REMARK SMILES IDX 8 1 7 2 1 3 2 4 4 5 3 6 10 7 5 8 11 9 6 10 9 11
REMARK H PARENT 9 12
REMARK Flexibility Score: inf
ROOT
ATOM      1  C   UNL     1      -9.516  -9.580 -10.762  1.00  0.00     0.187 C 
ENDROOT
BRANCH   1   2
ATOM      2  C   UNL     1      -9.390  -9.451  -9.272  1.00  0.00    -0.045 C 
ATOM      3  C   UNL     1     -10.133 -11.996  -6.411  1.00  0.00     0.012 C 
ATOM      4  C   UNL     1     -10.111 -10.650  -7.177  1.00  0.00    -0.026 C 
ATOM      5  C   UNL     1      -9.133  -9.626  -6.539  1.00  0.00    -0.000 C 
ATOM      6  C   UNL     1     -11.581 -10.214  -7.437  1.00  0.00     0.012 C 
ATOM      7  C   UNL     1      -9.126 -10.670  -8.376  1.00  0.00     0.023 C 
ATOM      8  C   UNL     1      -9.397  -8.189  -7.109  1.00  0.00     0.031 C 
ATOM      9  C   UNL     1      -8.010 -10.222  -7.412  1.00  0.00     0.013 C 
ATOM     10  C   UNL     1      -9.499  -8.242  -8.646  1.00  0.00    -0.025 C 
ENDBRANCH   1   2
BRANCH   1  11
ATOM     11  O   UNL     1      -9.196 -10.887 -11.149  1.00  0.00    -0.392 OA
ATOM     12  H   UNL     1      -8.772 -10.812 -12.042  1.00  0.00     0.211 HD
ENDBRANCH   1  11
TORSDOF 2
ENDMDL
MODEL 4
REMARK VINA RESULT:    -7.284      1.940      3.580
REMARK INTER + INTRA:          -7.947
REMARK INTER:                  -7.892
REMARK INTRA:                  -0.055
REMARK UNBOUND:                -0.024
REMARK SMILES CC1(C)[C@@H]2CC=C(CO)[C@H]1C2
REMARK SMILES IDX 8 1 7 2 1 3 2 4 4 5 3 6 10 7 5 8 11 9 6 10 9 11
REMARK H PARENT 9 12
REMARK Flexibility Score: inf
ROOT
ATOM      1  C   UNL     1     -10.190  -7.693  -5.798  1.00  0.00     0.187 C 
ENDROOT
BRANCH   1   2
ATOM      2  C   UNL     1      -9.802  -8.914  -6.581  1.00  0.00    -0.045 C 
ATOM      3  C   UNL     1      -9.361  -9.462 -10.418  1.00  0.00     0.012 C 
ATOM      4  C   UNL     1      -9.800  -9.745  -8.959  1.00  0.00    -0.026 C 
ATOM      5  C   UNL     1      -8.973 -10.888  -8.308  1.00  0.00    -0.000 C 
ATOM      6  C   UNL     1     -11.352  -9.835  -8.926  1.00  0.00     0.012 C 
ATOM      7  C   UNL     1      -9.094  -8.810  -7.940  1.00  0.00     0.023 C 
ATOM      8  C   UNL     1      -9.666 -11.381  -6.991  1.00  0.00     0.031 C 
ATOM      9  C   UNL     1      -7.941  -9.830  -7.867  1.00  0.00     0.013 C 
ATOM     10  C   UNL     1     -10.057 -10.173  -6.116  1.00  0.00    -0.025 C 
ENDBRANCH   1   2
BRANCH   1  11
ATOM     11  O   UNL     1     -10.212  -6.580  -6.646  1.00  0.00    -0.392 OA
ATOM     12  H   UNL     1      -9.907  -5.811  -6.098  1.00  0.00     0.211 HD
ENDBRANCH   1  11
TORSDOF 2
ENDMDL
MODEL 5
REMARK VINA RESULT:    -7.225      2.242      3.264
REMARK INTER + INTRA:          -7.883
REMARK INTER:                  -7.860
REMARK INTRA:                  -0.023
REMARK UNBOUND:                -0.024
REMARK SMILES CC1(C)[C@@H]2CC=C(CO)[C@H]1C2
REMARK SMILES IDX 8 1 7 2 1 3 2 4 4 5 3 6 10 7 5 8 11 9 6 10 9 11
REMARK H PARENT 9 12
REMARK Flexibility Score: inf
ROOT
ATOM      1  C   UNL     1      -7.899  -8.112  -5.844  1.00  0.00     0.187 C 
ENDROOT
BRANCH   1   2
ATOM      2  C   UNL     1      -8.454  -8.976  -6.941  1.00  0.00    -0.045 C 
ATOM      3  C   UNL     1     -12.134  -9.718  -8.001  1.00  0.00     0.012 C 
ATOM      4  C   UNL     1     -10.646  -9.986  -7.660  1.00  0.00    -0.026 C 
ATOM      5  C   UNL     1      -9.806 -10.320  -8.923  1.00  0.00    -0.000 C 
ATOM      6  C   UNL     1     -10.591 -10.960  -6.450  1.00  0.00     0.012 C 
ATOM      7  C   UNL     1      -9.812  -8.679  -7.592  1.00  0.00     0.023 C 
ATOM      8  C   UNL     1      -8.418 -10.925  -8.512  1.00  0.00     0.031 C 
ATOM      9  C   UNL     1      -9.564  -8.808  -9.108  1.00  0.00     0.013 C 
ATOM     10  C   UNL     1      -7.771 -10.061  -7.411  1.00  0.00    -0.025 C 
ENDBRANCH   1   2
BRANCH   1  11
ATOM     11  O   UNL     1      -6.509  -8.269  -5.781  1.00  0.00    -0.392 OA
ATOM     12  H   UNL     1      -6.137  -7.358  -5.659  1.00  0.00     0.211 HD
ENDBRANCH   1  11
TORSDOF 2
ENDMDL
MODEL 6
REMARK VINA RESULT:    -7.042      1.977      3.324
REMARK INTER + INTRA:          -7.684
REMARK INTER:                  -7.661
REMARK INTRA:                  -0.023
REMARK UNBOUND:                -0.024
REMARK SMILES CC1(C)[C@@H]2CC=C(CO)[C@H]1C2
REMARK SMILES IDX 8 1 7 2 1 3 2 4 4 5 3 6 10 7 5 8 11 9 6 10 9 11
REMARK H PARENT 9 12
REMARK Flexibility Score: inf
ROOT
ATOM      1  C   UNL     1      -8.957 -11.343  -6.882  1.00  0.00     0.187 C 
ENDROOT
BRANCH   1   2
ATOM      2  C   UNL     1      -9.693 -10.037  -6.976  1.00  0.00    -0.045 C 
ATOM      3  C   UNL     1     -13.455  -9.173  -6.416  1.00  0.00     0.012 C 
ATOM      4  C   UNL     1     -12.057  -9.173  -7.082  1.00  0.00    -0.026 C 
ATOM      5  C   UNL     1     -11.318  -7.819  -6.898  1.00  0.00    -0.000 C 
ATOM      6  C   UNL     1     -12.201  -9.754  -8.517  1.00  0.00     0.012 C 
ATOM      7  C   UNL     1     -10.962  -9.766  -6.155  1.00  0.00     0.023 C 
ATOM      8  C   UNL     1     -10.089  -7.731  -7.868  1.00  0.00     0.031 C 
ATOM      9  C   UNL     1     -10.760  -8.356  -5.564  1.00  0.00     0.013 C 
ATOM     10  C   UNL     1      -9.262  -9.031  -7.792  1.00  0.00    -0.025 C 
ENDBRANCH   1   2
BRANCH   1  11
ATOM     11  O   UNL     1      -7.607 -11.144  -7.193  1.00  0.00    -0.392 OA
ATOM     12  H   UNL     1      -7.206 -10.702  -6.401  1.00  0.00     0.211 HD
ENDBRANCH   1  11
TORSDOF 2
ENDMDL
MODEL 7
REMARK VINA RESULT:    -6.914      1.756      2.219
REMARK INTER + INTRA:          -7.545
REMARK INTER:                  -7.499
REMARK INTRA:                  -0.046
REMARK UNBOUND:                -0.024
REMARK SMILES CC1(C)[C@@H]2CC=C(CO)[C@H]1C2
REMARK SMILES IDX 8 1 7 2 1 3 2 4 4 5 3 6 10 7 5 8 11 9 6 10 9 11
REMARK H PARENT 9 12
REMARK Flexibility Score: inf
ROOT
ATOM      1  C   UNL     1      -8.551 -11.043  -8.486  1.00  0.00     0.187 C 
ENDROOT
BRANCH   1   2
ATOM      2  C   UNL     1      -9.524 -10.289  -7.626  1.00  0.00    -0.045 C 
ATOM      3  C   UNL     1     -10.072  -6.458  -7.135  1.00  0.00     0.012 C 
ATOM      4  C   UNL     1      -9.910  -7.954  -6.764  1.00  0.00    -0.026 C 
ATOM      5  C   UNL     1     -11.251  -8.596  -6.315  1.00  0.00    -0.000 C 
ATOM      6  C   UNL     1      -8.669  -8.094  -5.838  1.00  0.00     0.012 C 
ATOM      7  C   UNL     1     -10.013  -8.883  -8.003  1.00  0.00     0.023 C 
ATOM      8  C   UNL     1     -10.989  -9.977  -5.619  1.00  0.00     0.031 C 
ATOM      9  C   UNL     1     -11.539  -8.922  -7.794  1.00  0.00     0.013 C 
ATOM     10  C   UNL     1     -10.023 -10.823  -6.472  1.00  0.00    -0.025 C 
ENDBRANCH   1   2
BRANCH   1  11
ATOM     11  O   UNL     1      -7.341 -11.198  -7.799  1.00  0.00    -0.392 OA
ATOM     12  H   UNL     1      -7.105 -10.297  -7.455  1.00  0.00     0.211 HD
ENDBRANCH   1  11
TORSDOF 2
ENDMDL
MODEL 8
REMARK VINA RESULT:    -6.886      1.705      3.219
REMARK INTER + INTRA:          -7.515
REMARK INTER:                  -7.449
REMARK INTRA:                  -0.065
REMARK UNBOUND:                -0.024
REMARK SMILES CC1(C)[C@@H]2CC=C(CO)[C@H]1C2
REMARK SMILES IDX 8 1 7 2 1 3 2 4 4 5 3 6 10 7 5 8 11 9 6 10 9 11
REMARK H PARENT 9 12
REMARK Flexibility Score: inf
ROOT
ATOM      1  C   UNL     1     -12.360 -10.308  -7.254  1.00  0.00     0.187 C 
ENDROOT
BRANCH   1   2
ATOM      2  C   UNL     1     -10.874 -10.150  -7.397  1.00  0.00    -0.045 C 
ATOM      3  C   UNL     1      -8.743  -8.299 -10.090  1.00  0.00     0.012 C 
ATOM      4  C   UNL     1      -9.180  -9.419  -9.113  1.00  0.00    -0.026 C 
ATOM      5  C   UNL     1      -8.239  -9.525  -7.881  1.00  0.00    -0.000 C 
ATOM      6  C   UNL     1      -9.470 -10.703  -9.941  1.00  0.00     0.012 C 
ATOM      7  C   UNL     1     -10.256  -8.934  -8.104  1.00  0.00     0.023 C 
ATOM      8  C   UNL     1      -8.492 -10.869  -7.114  1.00  0.00     0.031 C 
ATOM      9  C   UNL     1      -9.116  -8.470  -7.176  1.00  0.00     0.013 C 
ATOM     10  C   UNL     1     -10.004 -11.077  -6.898  1.00  0.00    -0.025 C 
ENDBRANCH   1   2
BRANCH   1  11
ATOM     11  O   UNL     1     -12.983 -10.005  -8.471  1.00  0.00    -0.392 OA
ATOM     12  H   UNL     1     -12.320 -10.217  -9.178  1.00  0.00     0.211 HD
ENDBRANCH   1  11
TORSDOF 2
ENDMDL
MODEL 9
REMARK VINA RESULT:    -6.822      2.119      3.192
REMARK INTER + INTRA:          -7.444
REMARK INTER:                  -7.421
REMARK INTRA:                  -0.023
REMARK UNBOUND:                -0.024
REMARK SMILES CC1(C)[C@@H]2CC=C(CO)[C@H]1C2
REMARK SMILES IDX 8 1 7 2 1 3 2 4 4 5 3 6 10 7 5 8 11 9 6 10 9 11
REMARK H PARENT 9 12
REMARK Flexibility Score: inf
ROOT
ATOM      1  C   UNL     1      -9.920  -6.747  -6.296  1.00  0.00     0.187 C 
ENDROOT
BRANCH   1   2
ATOM      2  C   UNL     1      -9.952  -7.927  -7.224  1.00  0.00    -0.045 C 
ATOM      3  C   UNL     1      -9.808 -11.757  -6.499  1.00  0.00     0.012 C 
ATOM      4  C   UNL     1      -9.499 -10.404  -7.189  1.00  0.00    -0.026 C 
ATOM      5  C   UNL     1     -10.145 -10.302  -8.598  1.00  0.00    -0.000 C 
ATOM      6  C   UNL     1      -7.977 -10.121  -7.045  1.00  0.00     0.012 C 
ATOM      7  C   UNL     1     -10.498  -9.291  -6.776  1.00  0.00     0.023 C 
ATOM      8  C   UNL     1      -9.529  -9.100  -9.395  1.00  0.00     0.031 C 
ATOM      9  C   UNL     1     -11.418  -9.748  -7.925  1.00  0.00     0.013 C 
ATOM     10  C   UNL     1      -9.502  -7.838  -8.510  1.00  0.00    -0.025 C 
ENDBRANCH   1   2
BRANCH   1  11
ATOM     11  O   UNL     1      -9.882  -5.563  -7.043  1.00  0.00    -0.392 OA
ATOM     12  H   UNL     1     -10.763  -5.496  -7.494  1.00  0.00     0.211 HD
ENDBRANCH   1  11
TORSDOF 2
ENDMDL
