MODEL 1
REMARK VINA RESULT:    -4.427      0.000      0.000
REMARK INTER + INTRA:          -6.306
REMARK INTER:                  -6.238
REMARK INTRA:                  -0.068
REMARK UNBOUND:                -0.068
REMARK SMILES CC1=CCC(=C(C)C)C(=O)CC(C)=CCC1
REMARK SMILES IDX 12 1 14 2 13 3 15 4 16 5 2 6 1 7 3 8 11 10 9 11 10 12 5 13
REMARK SMILES IDX 6 14 7 15 8 16 4 17
REMARK H PARENT
REMARK Flexibility Score: 60.00
ROOT
ATOM      1  C   UNL     1      20.672  27.855  36.744  1.00  0.00    -0.070 C 
ATOM      2  C   UNL     1      19.506  28.439  36.382  1.00  0.00    -0.027 C 
ATOM      3  C   UNL     1      20.656  26.390  37.099  1.00  0.00     0.039 C 
ENDROOT
BRANCH   2   4
ATOM      4  C   UNL     1      19.353  29.853  35.876  1.00  0.00     0.032 C 
BRANCH   4   5
ATOM      5  C   UNL     1      19.257  30.933  36.965  1.00  0.00     0.034 C 
BRANCH   5   6
ATOM      6  C   UNL     1      20.153  32.133  36.722  1.00  0.00    -0.077 C 
ATOM      7  C   UNL     1      19.795  33.059  35.585  1.00  0.00     0.039 C 
ATOM      8  C   UNL     1      21.295  32.396  37.407  1.00  0.00    -0.023 CG0
ATOM      9  G   UNL     1      21.816  31.729  38.665  1.00  0.00     0.000 G0
ENDBRANCH   5   6
ENDBRANCH   4   5
ENDBRANCH   2   4
BRANCH   1  10
ATOM     10  C   UNL     1      21.973  28.614  36.893  1.00  0.00     0.111 C 
BRANCH  10  11
ATOM     11  C   UNL     1      22.094  29.219  38.268  1.00  0.00     0.163 C 
ATOM     12  O   UNL     1      21.630  28.588  39.256  1.00  0.00    -0.294 OA
BRANCH  11  13
ATOM     13  C   UNL     1      22.737  30.540  38.499  1.00  0.00    -0.002 C 
ATOM     14  C   UNL     1      24.079  30.625  38.703  1.00  0.00    -0.069 C 
ATOM     15  C   UNL     1      24.962  29.408  38.543  1.00  0.00     0.039 C 
ATOM     16  C   UNL     1      24.742  31.933  39.069  1.00  0.00     0.039 C 
BRANCH  13  17
ATOM     17  C   UNL     1      21.813  31.732  38.668  1.00  0.00     0.066 CG0
ATOM     18  G   UNL     1      21.311  32.404  37.404  1.00  0.00     0.000 G0
ENDBRANCH  13  17
ENDBRANCH  11  13
ENDBRANCH  10  11
ENDBRANCH   1  10
TORSDOF 0
ENDMDL
MODEL 2
REMARK VINA RESULT:    -4.368      1.508      4.281
REMARK INTER + INTRA:          -6.223
REMARK INTER:                  -6.360
REMARK INTRA:                   0.138
REMARK UNBOUND:                -0.068
REMARK SMILES CC1=CCC(=C(C)C)C(=O)CC(C)=CCC1
REMARK SMILES IDX 12 1 14 2 13 3 15 4 16 5 2 6 1 7 3 8 11 10 9 11 10 12 5 13
REMARK SMILES IDX 6 14 7 15 8 16 4 17
REMARK H PARENT
REMARK Flexibility Score: 60.00
ROOT
ATOM      1  C   UNL     1      24.900  28.650  39.958  1.00  0.00    -0.070 C 
ATOM      2  C   UNL     1      25.676  29.759  39.988  1.00  0.00    -0.027 C 
ATOM      3  C   UNL     1      25.032  27.656  41.083  1.00  0.00     0.039 C 
ENDROOT
BRANCH   2   4
ATOM      4  C   UNL     1      25.592  30.915  39.022  1.00  0.00     0.032 C 
BRANCH   4   5
ATOM      5  C   UNL     1      24.328  31.780  39.142  1.00  0.00     0.034 C 
BRANCH   5   6
ATOM      6  C   UNL     1      23.597  31.989  37.829  1.00  0.00    -0.077 C 
ATOM      7  C   UNL     1      24.310  32.755  36.741  1.00  0.00     0.039 C 
ATOM      8  C   UNL     1      22.319  31.601  37.585  1.00  0.00    -0.023 CG0
ATOM      9  G   UNL     1      21.427  30.710  38.428  1.00  0.00     0.000 G0
ENDBRANCH   5   6
ENDBRANCH   4   5
ENDBRANCH   2   4
BRANCH   1  10
ATOM     10  C   UNL     1      23.970  28.316  38.812  1.00  0.00     0.111 C 
BRANCH  10  11
ATOM     11  C   UNL     1      22.530  28.546  39.197  1.00  0.00     0.163 C 
ATOM     12  O   UNL     1      22.133  28.164  40.330  1.00  0.00    -0.294 OA
BRANCH  11  13
ATOM     13  C   UNL     1      21.560  29.201  38.279  1.00  0.00    -0.002 C 
ATOM     14  C   UNL     1      20.980  28.493  37.273  1.00  0.00    -0.069 C 
ATOM     15  C   UNL     1      21.186  26.999  37.164  1.00  0.00     0.039 C 
ATOM     16  C   UNL     1      20.093  29.159  36.247  1.00  0.00     0.039 C 
BRANCH  13  17
ATOM     17  C   UNL     1      21.396  30.704  38.414  1.00  0.00     0.066 CG0
ATOM     18  G   UNL     1      22.326  31.578  37.595  1.00  0.00     0.000 G0
ENDBRANCH  13  17
ENDBRANCH  11  13
ENDBRANCH  10  11
ENDBRANCH   1  10
TORSDOF 0
ENDMDL
MODEL 3
REMARK VINA RESULT:    -4.127      1.804      3.996
REMARK INTER + INTRA:          -5.883
REMARK INTER:                  -6.051
REMARK INTRA:                   0.168
REMARK UNBOUND:                -0.068
REMARK SMILES CC1=CCC(=C(C)C)C(=O)CC(C)=CCC1
REMARK SMILES IDX 12 1 14 2 13 3 15 4 16 5 2 6 1 7 3 8 11 10 9 11 10 12 5 13
REMARK SMILES IDX 6 14 7 15 8 16 4 17
REMARK H PARENT
REMARK Flexibility Score: 60.00
ROOT
ATOM      1  C   UNL     1      18.843  29.204  36.180  1.00  0.00    -0.070 C 
ATOM      2  C   UNL     1      19.722  28.184  36.045  1.00  0.00    -0.027 C 
ATOM      3  C   UNL     1      17.704  29.299  35.197  1.00  0.00     0.039 C 
ENDROOT
BRANCH   2   4
ATOM      4  C   UNL     1      20.842  27.858  37.003  1.00  0.00     0.032 C 
BRANCH   4   5
ATOM      5  C   UNL     1      22.104  28.722  36.856  1.00  0.00     0.034 C 
BRANCH   5   6
ATOM      6  C   UNL     1      22.515  29.434  38.130  1.00  0.00    -0.077 C 
ATOM      7  C   UNL     1      23.019  28.591  39.276  1.00  0.00     0.039 C 
ATOM      8  C   UNL     1      22.395  30.770  38.343  1.00  0.00    -0.023 CG0
ATOM      9  G   UNL     1      22.056  31.858  37.342  1.00  0.00     0.000 G0
ENDBRANCH   5   6
ENDBRANCH   4   5
ENDBRANCH   2   4
BRANCH   1  10
ATOM     10  C   UNL     1      18.991  30.300  37.213  1.00  0.00     0.111 C 
BRANCH  10  11
ATOM     11  C   UNL     1      19.614  31.533  36.610  1.00  0.00     0.163 C 
ATOM     12  O   UNL     1      19.286  31.875  35.442  1.00  0.00    -0.294 OA
BRANCH  11  13
ATOM     13  C   UNL     1      20.612  32.356  37.344  1.00  0.00    -0.002 C 
ATOM     14  C   UNL     1      20.266  33.574  37.842  1.00  0.00    -0.069 C 
ATOM     15  C   UNL     1      18.830  34.043  37.800  1.00  0.00     0.039 C 
ATOM     16  C   UNL     1      21.288  34.489  38.477  1.00  0.00     0.039 C 
BRANCH  13  17
ATOM     17  C   UNL     1      22.045  31.855  37.348  1.00  0.00     0.066 CG0
ATOM     18  G   UNL     1      22.396  30.769  38.347  1.00  0.00     0.000 G0
ENDBRANCH  13  17
ENDBRANCH  11  13
ENDBRANCH  10  11
ENDBRANCH   1  10
TORSDOF 0
ENDMDL
MODEL 4
REMARK VINA RESULT:    -4.027      1.609      4.146
REMARK INTER + INTRA:          -5.742
REMARK INTER:                  -5.937
REMARK INTRA:                   0.194
REMARK UNBOUND:                -0.068
REMARK SMILES CC1=CCC(=C(C)C)C(=O)CC(C)=CCC1
REMARK SMILES IDX 12 1 14 2 13 3 15 4 16 5 2 6 1 7 3 8 11 10 9 11 10 12 5 13
REMARK SMILES IDX 6 14 7 15 8 16 4 17
REMARK H PARENT
REMARK Flexibility Score: 60.00
ROOT
ATOM      1  C   UNL     1      23.858  30.285  38.863  1.00  0.00    -0.070 C 
ATOM      2  C   UNL     1      23.754  31.632  38.786  1.00  0.00    -0.027 C 
ATOM      3  C   UNL     1      25.232  29.683  39.014  1.00  0.00     0.039 C 
ENDROOT
BRANCH   2   4
ATOM      4  C   UNL     1      22.463  32.413  38.760  1.00  0.00     0.032 C 
BRANCH   4   5
ATOM      5  C   UNL     1      22.258  33.302  37.524  1.00  0.00     0.034 C 
BRANCH   5   6
ATOM      6  C   UNL     1      22.567  32.611  36.210  1.00  0.00    -0.077 C 
ATOM      7  C   UNL     1      23.744  33.115  35.410  1.00  0.00     0.039 C 
ATOM      8  C   UNL     1      21.820  31.618  35.664  1.00  0.00    -0.023 CG0
ATOM      9  G   UNL     1      20.686  30.834  36.297  1.00  0.00     0.000 G0
ENDBRANCH   5   6
ENDBRANCH   4   5
ENDBRANCH   2   4
BRANCH   1  10
ATOM     10  C   UNL     1      22.678  29.349  38.722  1.00  0.00     0.111 C 
BRANCH  10  11
ATOM     11  C   UNL     1      22.320  29.142  37.273  1.00  0.00     0.163 C 
ATOM     12  O   UNL     1      23.206  28.728  36.478  1.00  0.00    -0.294 OA
BRANCH  11  13
ATOM     13  C   UNL     1      20.957  29.419  36.746  1.00  0.00    -0.002 C 
ATOM     14  C   UNL     1      20.078  28.400  36.542  1.00  0.00    -0.069 C 
ATOM     15  C   UNL     1      20.410  26.996  36.992  1.00  0.00     0.039 C 
ATOM     16  C   UNL     1      18.736  28.632  35.887  1.00  0.00     0.039 C 
BRANCH  13  17
ATOM     17  C   UNL     1      20.672  30.839  36.291  1.00  0.00     0.066 CG0
ATOM     18  G   UNL     1      21.825  31.616  35.684  1.00  0.00     0.000 G0
ENDBRANCH  13  17
ENDBRANCH  11  13
ENDBRANCH  10  11
ENDBRANCH   1  10
TORSDOF 0
ENDMDL
MODEL 5
REMARK VINA RESULT:    -4.020      1.758      4.933
REMARK INTER + INTRA:          -5.733
REMARK INTER:                  -5.656
REMARK INTRA:                  -0.076
REMARK UNBOUND:                -0.068
REMARK SMILES CC1=CCC(=C(C)C)C(=O)CC(C)=CCC1
REMARK SMILES IDX 12 1 14 2 13 3 15 4 16 5 2 6 1 7 3 8 11 10 9 11 10 12 5 13
REMARK SMILES IDX 6 14 7 15 8 16 4 17
REMARK H PARENT
REMARK Flexibility Score: 60.00
ROOT
ATOM      1  C   UNL     1      21.106  32.957  37.694  1.00  0.00    -0.070 C 
ATOM      2  C   UNL     1      22.217  33.353  38.357  1.00  0.00    -0.027 C 
ATOM      3  C   UNL     1      19.883  33.836  37.763  1.00  0.00     0.039 C 
ENDROOT
BRANCH   2   4
ATOM      4  C   UNL     1      23.563  32.672  38.300  1.00  0.00     0.032 C 
BRANCH   4   5
ATOM      5  C   UNL     1      23.732  31.473  39.245  1.00  0.00     0.034 C 
BRANCH   5   6
ATOM      6  C   UNL     1      24.280  30.230  38.571  1.00  0.00    -0.077 C 
ATOM      7  C   UNL     1      25.719  30.252  38.115  1.00  0.00     0.039 C 
ATOM      8  C   UNL     1      23.550  29.122  38.281  1.00  0.00    -0.023 CG0
ATOM      9  G   UNL     1      22.146  28.772  38.735  1.00  0.00     0.000 G0
ENDBRANCH   5   6
ENDBRANCH   4   5
ENDBRANCH   2   4
BRANCH   1  10
ATOM     10  C   UNL     1      21.000  31.639  36.958  1.00  0.00     0.111 C 
BRANCH  10  11
ATOM     11  C   UNL     1      20.503  30.547  37.870  1.00  0.00     0.163 C 
ATOM     12  O   UNL     1      19.637  30.825  38.741  1.00  0.00    -0.294 OA
BRANCH  11  13
ATOM     13  C   UNL     1      21.009  29.151  37.782  1.00  0.00    -0.002 C 
ATOM     14  C   UNL     1      20.366  28.234  37.009  1.00  0.00    -0.069 C 
ATOM     15  C   UNL     1      19.228  28.651  36.106  1.00  0.00     0.039 C 
ATOM     16  C   UNL     1      20.776  26.780  37.000  1.00  0.00     0.039 C 
BRANCH  13  17
ATOM     17  C   UNL     1      22.143  28.771  38.717  1.00  0.00     0.066 CG0
ATOM     18  G   UNL     1      23.552  29.106  38.268  1.00  0.00     0.000 G0
ENDBRANCH  13  17
ENDBRANCH  11  13
ENDBRANCH  10  11
ENDBRANCH   1  10
TORSDOF 0
ENDMDL
MODEL 6
REMARK VINA RESULT:    -3.787      2.792      5.272
REMARK INTER + INTRA:          -5.405
REMARK INTER:                  -5.320
REMARK INTRA:                  -0.085
REMARK UNBOUND:                -0.068
REMARK SMILES CC1=CCC(=C(C)C)C(=O)CC(C)=CCC1
REMARK SMILES IDX 12 1 14 2 13 3 15 4 16 5 2 6 1 7 3 8 11 10 9 11 10 12 5 13
REMARK SMILES IDX 6 14 7 15 8 16 4 17
REMARK H PARENT
REMARK Flexibility Score: 60.00
ROOT
ATOM      1  C   UNL     1      23.366  28.814  39.520  1.00  0.00    -0.070 C 
ATOM      2  C   UNL     1      24.568  28.402  39.985  1.00  0.00    -0.027 C 
ATOM      3  C   UNL     1      22.165  27.937  39.769  1.00  0.00     0.039 C 
ENDROOT
BRANCH   2   4
ATOM      4  C   UNL     1      25.847  29.202  39.941  1.00  0.00     0.032 C 
BRANCH   4   5
ATOM      5  C   UNL     1      26.637  29.105  38.627  1.00  0.00     0.034 C 
BRANCH   5   6
ATOM      6  C   UNL     1      27.016  30.450  38.036  1.00  0.00    -0.077 C 
ATOM      7  C   UNL     1      28.093  31.246  38.733  1.00  0.00     0.039 C 
ATOM      8  C   UNL     1      26.408  31.025  36.967  1.00  0.00    -0.023 CG0
ATOM      9  G   UNL     1      25.410  30.408  36.006  1.00  0.00     0.000 G0
ENDBRANCH   5   6
ENDBRANCH   4   5
ENDBRANCH   2   4
BRANCH   1  10
ATOM     10  C   UNL     1      23.178  30.066  38.691  1.00  0.00     0.111 C 
BRANCH  10  11
ATOM     11  C   UNL     1      23.248  29.756  37.217  1.00  0.00     0.163 C 
ATOM     12  O   UNL     1      22.717  28.696  36.790  1.00  0.00    -0.294 OA
BRANCH  11  13
ATOM     13  C   UNL     1      23.929  30.657  36.249  1.00  0.00    -0.002 C 
ATOM     14  C   UNL     1      23.211  31.553  35.520  1.00  0.00    -0.069 C 
ATOM     15  C   UNL     1      21.738  31.761  35.790  1.00  0.00     0.039 C 
ATOM     16  C   UNL     1      23.853  32.389  34.438  1.00  0.00     0.039 C 
BRANCH  13  17
ATOM     17  C   UNL     1      25.404  30.403  35.998  1.00  0.00     0.066 CG0
ATOM     18  G   UNL     1      26.389  31.013  36.977  1.00  0.00     0.000 G0
ENDBRANCH  13  17
ENDBRANCH  11  13
ENDBRANCH  10  11
ENDBRANCH   1  10
TORSDOF 0
ENDMDL
MODEL 7
REMARK VINA RESULT:    -3.756      1.328      1.485
REMARK INTER + INTRA:          -5.361
REMARK INTER:                  -5.588
REMARK INTRA:                   0.227
REMARK UNBOUND:                -0.068
REMARK SMILES CC1=CCC(=C(C)C)C(=O)CC(C)=CCC1
REMARK SMILES IDX 12 1 14 2 13 3 15 4 16 5 2 6 1 7 3 8 11 10 9 11 10 12 5 13
REMARK SMILES IDX 6 14 7 15 8 16 4 17
REMARK H PARENT
REMARK Flexibility Score: 60.00
ROOT
ATOM      1  C   UNL     1      20.210  28.543  37.030  1.00  0.00    -0.070 C 
ATOM      2  C   UNL     1      19.174  29.287  36.578  1.00  0.00    -0.027 C 
ATOM      3  C   UNL     1      20.279  27.093  36.624  1.00  0.00     0.039 C 
ENDROOT
BRANCH   2   4
ATOM      4  C   UNL     1      19.010  30.774  36.776  1.00  0.00     0.032 C 
BRANCH   4   5
ATOM      5  C   UNL     1      20.065  31.649  36.082  1.00  0.00     0.034 C 
BRANCH   5   6
ATOM      6  C   UNL     1      20.696  32.689  36.989  1.00  0.00    -0.077 C 
ATOM      7  C   UNL     1      19.785  33.706  37.632  1.00  0.00     0.039 C 
ATOM      8  C   UNL     1      22.029  32.817  37.208  1.00  0.00    -0.023 CG0
ATOM      9  G   UNL     1      23.146  31.870  36.812  1.00  0.00     0.000 G0
ENDBRANCH   5   6
ENDBRANCH   4   5
ENDBRANCH   2   4
BRANCH   1  10
ATOM     10  C   UNL     1      21.257  29.067  37.989  1.00  0.00     0.111 C 
BRANCH  10  11
ATOM     11  C   UNL     1      22.528  29.427  37.263  1.00  0.00     0.163 C 
ATOM     12  O   UNL     1      22.913  28.698  36.310  1.00  0.00    -0.294 OA
BRANCH  11  13
ATOM     13  C   UNL     1      23.349  30.608  37.640  1.00  0.00    -0.002 C 
ATOM     14  C   UNL     1      24.106  30.586  38.770  1.00  0.00    -0.069 C 
ATOM     15  C   UNL     1      24.252  29.315  39.576  1.00  0.00     0.039 C 
ATOM     16  C   UNL     1      24.848  31.813  39.249  1.00  0.00     0.039 C 
BRANCH  13  17
ATOM     17  C   UNL     1      23.159  31.867  36.814  1.00  0.00     0.066 CG0
ATOM     18  G   UNL     1      22.028  32.794  37.215  1.00  0.00     0.000 G0
ENDBRANCH  13  17
ENDBRANCH  11  13
ENDBRANCH  10  11
ENDBRANCH   1  10
TORSDOF 0
ENDMDL
MODEL 8
REMARK VINA RESULT:    -3.744      2.508      4.056
REMARK INTER + INTRA:          -5.344
REMARK INTER:                  -5.226
REMARK INTRA:                  -0.118
REMARK UNBOUND:                -0.068
REMARK SMILES CC1=CCC(=C(C)C)C(=O)CC(C)=CCC1
REMARK SMILES IDX 12 1 14 2 13 3 15 4 16 5 2 6 1 7 3 8 11 10 9 11 10 12 5 13
REMARK SMILES IDX 6 14 7 15 8 16 4 17
REMARK H PARENT
REMARK Flexibility Score: 60.00
ROOT
ATOM      1  C   UNL     1      24.634  28.279  40.193  1.00  0.00    -0.070 C 
ATOM      2  C   UNL     1      23.287  28.257  40.324  1.00  0.00    -0.027 C 
ATOM      3  C   UNL     1      25.474  28.157  41.438  1.00  0.00     0.039 C 
ENDROOT
BRANCH   2   4
ATOM      4  C   UNL     1      22.295  28.240  39.187  1.00  0.00     0.032 C 
BRANCH   4   5
ATOM      5  C   UNL     1      21.912  29.619  38.629  1.00  0.00     0.034 C 
BRANCH   5   6
ATOM      6  C   UNL     1      21.912  29.693  37.114  1.00  0.00    -0.077 C 
ATOM      7  C   UNL     1      20.803  28.984  36.375  1.00  0.00     0.039 C 
ATOM      8  C   UNL     1      22.877  30.289  36.369  1.00  0.00    -0.023 CG0
ATOM      9  G   UNL     1      24.013  31.180  36.835  1.00  0.00     0.000 G0
ENDBRANCH   5   6
ENDBRANCH   4   5
ENDBRANCH   2   4
BRANCH   1  10
ATOM     10  C   UNL     1      25.339  28.503  38.872  1.00  0.00     0.111 C 
BRANCH  10  11
ATOM     11  C   UNL     1      25.476  29.974  38.573  1.00  0.00     0.163 C 
ATOM     12  O   UNL     1      25.697  30.772  39.523  1.00  0.00    -0.294 OA
BRANCH  11  13
ATOM     13  C   UNL     1      25.350  30.518  37.195  1.00  0.00    -0.002 C 
ATOM     14  C   UNL     1      26.429  30.549  36.367  1.00  0.00    -0.069 C 
ATOM     15  C   UNL     1      27.729  29.892  36.771  1.00  0.00     0.039 C 
ATOM     16  C   UNL     1      26.367  31.212  35.011  1.00  0.00     0.039 C 
BRANCH  13  17
ATOM     17  C   UNL     1      24.033  31.182  36.837  1.00  0.00     0.066 CG0
ATOM     18  G   UNL     1      22.910  30.280  36.363  1.00  0.00     0.000 G0
ENDBRANCH  13  17
ENDBRANCH  11  13
ENDBRANCH  10  11
ENDBRANCH   1  10
TORSDOF 0
ENDMDL
MODEL 9
REMARK VINA RESULT:    -3.545      1.745      2.270
REMARK INTER + INTRA:          -5.063
REMARK INTER:                  -5.282
REMARK INTRA:                   0.219
REMARK UNBOUND:                -0.068
REMARK SMILES CC1=CCC(=C(C)C)C(=O)CC(C)=CCC1
REMARK SMILES IDX 12 1 14 2 13 3 15 4 16 5 2 6 1 7 3 8 11 10 9 11 10 12 5 13
REMARK SMILES IDX 6 14 7 15 8 16 4 17
REMARK H PARENT
REMARK Flexibility Score: 60.00
ROOT
ATOM      1  C   UNL     1      20.002  29.591  36.825  1.00  0.00    -0.070 C 
ATOM      2  C   UNL     1      19.444  30.713  36.314  1.00  0.00    -0.027 C 
ATOM      3  C   UNL     1      19.428  28.259  36.415  1.00  0.00     0.039 C 
ENDROOT
BRANCH   2   4
ATOM      4  C   UNL     1      19.961  32.118  36.510  1.00  0.00     0.032 C 
BRANCH   4   5
ATOM      5  C   UNL     1      21.264  32.447  35.766  1.00  0.00     0.034 C 
BRANCH   5   6
ATOM      6  C   UNL     1      22.299  33.154  36.621  1.00  0.00    -0.077 C 
ATOM      7  C   UNL     1      21.968  34.537  37.128  1.00  0.00     0.039 C 
ATOM      8  C   UNL     1      23.533  32.664  36.905  1.00  0.00    -0.023 CG0
ATOM      9  G   UNL     1      24.076  31.271  36.650  1.00  0.00     0.000 G0
ENDBRANCH   5   6
ENDBRANCH   4   5
ENDBRANCH   2   4
BRANCH   1  10
ATOM     10  C   UNL     1      21.115  29.606  37.850  1.00  0.00     0.111 C 
BRANCH  10  11
ATOM     11  C   UNL     1      22.456  29.382  37.199  1.00  0.00     0.163 C 
ATOM     12  O   UNL     1      22.560  28.502  36.302  1.00  0.00    -0.294 OA
BRANCH  11  13
ATOM     13  C   UNL     1      23.664  30.158  37.585  1.00  0.00    -0.002 C 
ATOM     14  C   UNL     1      24.245  29.966  38.800  1.00  0.00    -0.069 C 
ATOM     15  C   UNL     1      23.775  28.856  39.712  1.00  0.00     0.039 C 
ATOM     16  C   UNL     1      25.392  30.829  39.273  1.00  0.00     0.039 C 
BRANCH  13  17
ATOM     17  C   UNL     1      24.092  31.272  36.647  1.00  0.00     0.066 CG0
ATOM     18  G   UNL     1      23.530  32.655  36.913  1.00  0.00     0.000 G0
ENDBRANCH  13  17
ENDBRANCH  11  13
ENDBRANCH  10  11
ENDBRANCH   1  10
TORSDOF 0
ENDMDL
