MODEL 1
REMARK VINA RESULT:    -4.461      0.000      0.000
REMARK INTER + INTRA:          -4.983
REMARK INTER:                  -4.983
REMARK INTRA:                   0.000
REMARK UNBOUND:                 0.000
REMARK SMILES Oc1cc(O)c2c(c1)CCc1cc(O)c(O)cc1-2
REMARK SMILES IDX 10 1 9 2 7 3 6 4 18 5 17 6 15 7 13 8 12 9 11 10 4 11 3 12
REMARK SMILES IDX 2 13 8 14 14 15 5 17 1 19 16 21
REMARK H PARENT 14 16 5 18 1 20 16 22
REMARK Flexibility Score: inf
ROOT
ATOM      1  C   UNL     1     148.028 151.982 166.662  1.00  0.00     0.041 C 
ATOM      2  C   UNL     1     147.258 150.971 165.800  1.00  0.00     0.041 C 
ATOM      3  C   UNL     1     147.742 151.009 164.370  1.00  0.00    -0.032 A 
ATOM      4  C   UNL     1     148.193 152.227 163.805  1.00  0.00     0.027 A 
ATOM      5  C   UNL     1     148.048 153.469 164.624  1.00  0.00    -0.007 A 
ATOM      6  C   UNL     1     147.829 154.731 164.041  1.00  0.00     0.059 A 
ATOM      7  C   UNL     1     147.678 155.873 164.841  1.00  0.00     0.158 A 
ATOM      8  C   UNL     1     147.704 155.755 166.240  1.00  0.00     0.157 A 
ATOM      9  C   UNL     1     147.843 154.495 166.827  1.00  0.00     0.054 A 
ATOM     10  C   UNL     1     147.974 153.350 166.029  1.00  0.00    -0.036 A 
ATOM     11  C   UNL     1     148.778 152.201 162.512  1.00  0.00     0.127 A 
ATOM     12  C   UNL     1     148.710 151.034 161.743  1.00  0.00     0.093 A 
ATOM     13  C   UNL     1     148.166 149.860 162.275  1.00  0.00     0.119 A 
ATOM     14  C   UNL     1     147.701 149.845 163.590  1.00  0.00     0.050 A 
ENDROOT
BRANCH   8  15
ATOM     15  O   UNL     1     147.575 156.875 167.060  1.00  0.00    -0.504 OA
ATOM     16  H   UNL     1     146.678 157.179 167.419  1.00  0.00     0.293 HD
ENDBRANCH   8  15
BRANCH  11  17
ATOM     17  O   UNL     1     149.486 153.282 161.984  1.00  0.00    -0.507 OA
ATOM     18  H   UNL     1     149.577 153.443 160.989  1.00  0.00     0.293 HD
ENDBRANCH  11  17
BRANCH  13  19
ATOM     19  O   UNL     1     148.103 148.697 161.511  1.00  0.00    -0.508 OA
ATOM     20  H   UNL     1     148.593 148.616 160.628  1.00  0.00     0.293 HD
ENDBRANCH  13  19
BRANCH   7  21
ATOM     21  O   UNL     1     147.494 157.122 164.250  1.00  0.00    -0.504 OA
ATOM     22  H   UNL     1     146.981 157.229 163.383  1.00  0.00     0.293 HD
ENDBRANCH   7  21
TORSDOF 4
ENDMDL
MODEL 2
REMARK VINA RESULT:    -4.389     14.342     15.397
REMARK INTER + INTRA:          -4.902
REMARK INTER:                  -4.902
REMARK INTRA:                   0.000
REMARK UNBOUND:                 0.000
REMARK SMILES Oc1cc(O)c2c(c1)CCc1cc(O)c(O)cc1-2
REMARK SMILES IDX 10 1 9 2 7 3 6 4 18 5 17 6 15 7 13 8 12 9 11 10 4 11 3 12
REMARK SMILES IDX 2 13 8 14 14 15 5 17 1 19 16 21
REMARK H PARENT 14 16 5 18 1 20 16 22
REMARK Flexibility Score: inf
ROOT
ATOM      1  C   UNL     1     163.242 147.997 166.504  1.00  0.00     0.041 C 
ATOM      2  C   UNL     1     164.201 147.210 165.598  1.00  0.00     0.041 C 
ATOM      3  C   UNL     1     164.105 147.694 164.170  1.00  0.00    -0.032 A 
ATOM      4  C   UNL     1     162.870 148.164 163.660  1.00  0.00     0.027 A 
ATOM      5  C   UNL     1     161.664 148.039 164.536  1.00  0.00    -0.007 A 
ATOM      6  C   UNL     1     160.374 147.839 164.011  1.00  0.00     0.059 A 
ATOM      7  C   UNL     1     159.267 147.708 164.862  1.00  0.00     0.158 A 
ATOM      8  C   UNL     1     159.449 147.733 166.254  1.00  0.00     0.157 A 
ATOM      9  C   UNL     1     160.737 147.852 166.784  1.00  0.00     0.054 A 
ATOM     10  C   UNL     1     161.847 147.964 165.934  1.00  0.00    -0.036 A 
ATOM     11  C   UNL     1     162.846 148.747 162.367  1.00  0.00     0.127 A 
ATOM     12  C   UNL     1     163.976 148.660 161.546  1.00  0.00     0.093 A 
ATOM     13  C   UNL     1     165.163 148.098 162.024  1.00  0.00     0.119 A 
ATOM     14  C   UNL     1     165.231 147.634 163.338  1.00  0.00     0.050 A 
ENDROOT
BRANCH   8  15
ATOM     15  O   UNL     1     158.366 147.622 167.125  1.00  0.00    -0.504 OA
ATOM     16  H   UNL     1     157.696 146.865 167.058  1.00  0.00     0.293 HD
ENDBRANCH   8  15
BRANCH  11  17
ATOM     17  O   UNL     1     161.754 149.472 161.887  1.00  0.00    -0.507 OA
ATOM     18  H   UNL     1     161.218 150.104 162.469  1.00  0.00     0.293 HD
ENDBRANCH  11  17
BRANCH  13  19
ATOM     19  O   UNL     1     166.289 148.016 161.208  1.00  0.00    -0.508 OA
ATOM     20  H   UNL     1     166.312 147.411 160.395  1.00  0.00     0.293 HD
ENDBRANCH  13  19
BRANCH   7  21
ATOM     21  O   UNL     1     157.990 147.543 164.329  1.00  0.00    -0.504 OA
ATOM     22  H   UNL     1     157.841 147.084 163.438  1.00  0.00     0.293 HD
ENDBRANCH   7  21
TORSDOF 4
ENDMDL
MODEL 3
REMARK VINA RESULT:    -4.301     11.593     12.843
REMARK INTER + INTRA:          -4.804
REMARK INTER:                  -4.804
REMARK INTRA:                   0.000
REMARK UNBOUND:                 0.000
REMARK SMILES Oc1cc(O)c2c(c1)CCc1cc(O)c(O)cc1-2
REMARK SMILES IDX 10 1 9 2 7 3 6 4 18 5 17 6 15 7 13 8 12 9 11 10 4 11 3 12
REMARK SMILES IDX 2 13 8 14 14 15 5 17 1 19 16 21
REMARK H PARENT 14 16 5 18 1 20 16 22
REMARK Flexibility Score: inf
ROOT
ATOM      1  C   UNL     1     158.849 148.044 162.230  1.00  0.00     0.041 C 
ATOM      2  C   UNL     1     160.189 148.759 162.458  1.00  0.00     0.041 C 
ATOM      3  C   UNL     1     160.805 148.333 163.770  1.00  0.00    -0.032 A 
ATOM      4  C   UNL     1     159.978 148.006 164.871  1.00  0.00     0.027 A 
ATOM      5  C   UNL     1     158.505 148.223 164.723  1.00  0.00    -0.007 A 
ATOM      6  C   UNL     1     157.684 148.569 165.813  1.00  0.00     0.059 A 
ATOM      7  C   UNL     1     156.310 148.783 165.634  1.00  0.00     0.158 A 
ATOM      8  C   UNL     1     155.750 148.695 164.349  1.00  0.00     0.157 A 
ATOM      9  C   UNL     1     156.572 148.430 163.251  1.00  0.00     0.054 A 
ATOM     10  C   UNL     1     157.950 148.235 163.425  1.00  0.00    -0.036 A 
ATOM     11  C   UNL     1     160.579 147.470 166.039  1.00  0.00     0.127 A 
ATOM     12  C   UNL     1     161.973 147.470 166.163  1.00  0.00     0.093 A 
ATOM     13  C   UNL     1     162.783 147.894 165.105  1.00  0.00     0.119 A 
ATOM     14  C   UNL     1     162.200 148.306 163.907  1.00  0.00     0.050 A 
ENDROOT
BRANCH   8  15
ATOM     15  O   UNL     1     154.385 148.886 164.144  1.00  0.00    -0.504 OA
ATOM     16  H   UNL     1     153.851 148.311 163.504  1.00  0.00     0.293 HD
ENDBRANCH   8  15
BRANCH  11  17
ATOM     17  O   UNL     1     159.840 146.875 167.062  1.00  0.00    -0.507 OA
ATOM     18  H   UNL     1     159.742 147.291 167.980  1.00  0.00     0.293 HD
ENDBRANCH  11  17
BRANCH  13  19
ATOM     19  O   UNL     1     164.171 147.888 165.227  1.00  0.00    -0.508 OA
ATOM     20  H   UNL     1     164.750 147.281 164.659  1.00  0.00     0.293 HD
ENDBRANCH  13  19
BRANCH   7  21
ATOM     21  O   UNL     1     155.502 149.093 166.727  1.00  0.00    -0.504 OA
ATOM     22  H   UNL     1     155.803 149.744 167.443  1.00  0.00     0.293 HD
ENDBRANCH   7  21
TORSDOF 4
ENDMDL
MODEL 4
REMARK VINA RESULT:    -4.246      7.770      9.722
REMARK INTER + INTRA:          -4.742
REMARK INTER:                  -4.742
REMARK INTRA:                   0.000
REMARK UNBOUND:                 0.000
REMARK SMILES Oc1cc(O)c2c(c1)CCc1cc(O)c(O)cc1-2
REMARK SMILES IDX 10 1 9 2 7 3 6 4 18 5 17 6 15 7 13 8 12 9 11 10 4 11 3 12
REMARK SMILES IDX 2 13 8 14 14 15 5 17 1 19 16 21
REMARK H PARENT 14 16 5 18 1 20 16 22
REMARK Flexibility Score: inf
ROOT
ATOM      1  C   UNL     1     154.944 153.139 162.899  1.00  0.00     0.041 C 
ATOM      2  C   UNL     1     154.290 154.275 163.699  1.00  0.00     0.041 C 
ATOM      3  C   UNL     1     155.132 154.637 164.899  1.00  0.00    -0.032 A 
ATOM      4  C   UNL     1     155.884 153.641 165.567  1.00  0.00     0.027 A 
ATOM      5  C   UNL     1     155.709 152.224 165.122  1.00  0.00    -0.007 A 
ATOM      6  C   UNL     1     155.832 151.139 166.010  1.00  0.00     0.059 A 
ATOM      7  C   UNL     1     155.643 149.823 165.563  1.00  0.00     0.158 A 
ATOM      8  C   UNL     1     155.285 149.584 164.226  1.00  0.00     0.157 A 
ATOM      9  C   UNL     1     155.083 150.660 163.359  1.00  0.00     0.054 A 
ATOM     10  C   UNL     1     155.254 151.977 163.809  1.00  0.00    -0.036 A 
ATOM     11  C   UNL     1     156.777 154.037 166.596  1.00  0.00     0.127 A 
ATOM     12  C   UNL     1     156.746 155.353 167.072  1.00  0.00     0.093 A 
ATOM     13  C   UNL     1     155.920 156.309 166.472  1.00  0.00     0.119 A 
ATOM     14  C   UNL     1     155.130 155.955 165.378  1.00  0.00     0.050 A 
ENDROOT
BRANCH   8  15
ATOM     15  O   UNL     1     155.107 148.286 163.749  1.00  0.00    -0.504 OA
ATOM     16  H   UNL     1     154.898 147.510 164.365  1.00  0.00     0.293 HD
ENDBRANCH   8  15
BRANCH  11  17
ATOM     17  O   UNL     1     157.745 153.183 167.125  1.00  0.00    -0.507 OA
ATOM     18  H   UNL     1     157.531 152.471 167.813  1.00  0.00     0.293 HD
ENDBRANCH  11  17
BRANCH  13  19
ATOM     19  O   UNL     1     155.893 157.620 166.942  1.00  0.00    -0.508 OA
ATOM     20  H   UNL     1     155.954 157.829 167.932  1.00  0.00     0.293 HD
ENDBRANCH  13  19
BRANCH   7  21
ATOM     21  O   UNL     1     155.800 148.755 166.445  1.00  0.00    -0.504 OA
ATOM     22  H   UNL     1     155.394 148.768 167.373  1.00  0.00     0.293 HD
ENDBRANCH   7  21
TORSDOF 4
ENDMDL
MODEL 5
REMARK VINA RESULT:    -4.235     13.981     15.055
REMARK INTER + INTRA:          -4.731
REMARK INTER:                  -4.731
REMARK INTRA:                   0.000
REMARK UNBOUND:                 0.000
REMARK SMILES Oc1cc(O)c2c(c1)CCc1cc(O)c(O)cc1-2
REMARK SMILES IDX 10 1 9 2 7 3 6 4 18 5 17 6 15 7 13 8 12 9 11 10 4 11 3 12
REMARK SMILES IDX 2 13 8 14 14 15 5 17 1 19 16 21
REMARK H PARENT 14 16 5 18 1 20 16 22
REMARK Flexibility Score: inf
ROOT
ATOM      1  C   UNL     1     161.611 154.909 162.930  1.00  0.00     0.041 C 
ATOM      2  C   UNL     1     160.469 154.274 163.736  1.00  0.00     0.041 C 
ATOM      3  C   UNL     1     160.113 155.132 164.928  1.00  0.00    -0.032 A 
ATOM      4  C   UNL     1     161.116 155.883 165.587  1.00  0.00     0.027 A 
ATOM      5  C   UNL     1     162.532 155.690 165.145  1.00  0.00    -0.007 A 
ATOM      6  C   UNL     1     163.618 155.814 166.032  1.00  0.00     0.059 A 
ATOM      7  C   UNL     1     164.932 155.608 165.588  1.00  0.00     0.158 A 
ATOM      8  C   UNL     1     165.169 155.233 164.256  1.00  0.00     0.157 A 
ATOM      9  C   UNL     1     164.091 155.032 163.389  1.00  0.00     0.054 A 
ATOM     10  C   UNL     1     162.775 155.219 163.837  1.00  0.00    -0.036 A 
ATOM     11  C   UNL     1     160.727 156.790 166.607  1.00  0.00     0.127 A 
ATOM     12  C   UNL     1     159.411 156.776 167.081  1.00  0.00     0.093 A 
ATOM     13  C   UNL     1     158.448 155.952 166.491  1.00  0.00     0.119 A 
ATOM     14  C   UNL     1     158.796 155.148 165.405  1.00  0.00     0.050 A 
ENDROOT
BRANCH   8  15
ATOM     15  O   UNL     1     166.465 155.039 163.781  1.00  0.00    -0.504 OA
ATOM     16  H   UNL     1     166.814 155.514 162.957  1.00  0.00     0.293 HD
ENDBRANCH   8  15
BRANCH  11  17
ATOM     17  O   UNL     1     161.590 157.756 167.125  1.00  0.00    -0.507 OA
ATOM     18  H   UNL     1     162.009 157.681 168.043  1.00  0.00     0.293 HD
ENDBRANCH  11  17
BRANCH  13  19
ATOM     19  O   UNL     1     157.137 155.942 166.961  1.00  0.00    -0.508 OA
ATOM     20  H   UNL     1     156.351 155.802 166.336  1.00  0.00     0.293 HD
ENDBRANCH  13  19
BRANCH   7  21
ATOM     21  O   UNL     1     166.001 155.765 166.469  1.00  0.00    -0.504 OA
ATOM     22  H   UNL     1     166.858 156.226 166.187  1.00  0.00     0.293 HD
ENDBRANCH   7  21
TORSDOF 4
ENDMDL
MODEL 6
REMARK VINA RESULT:    -4.226     13.424     14.942
REMARK INTER + INTRA:          -4.720
REMARK INTER:                  -4.720
REMARK INTRA:                   0.000
REMARK UNBOUND:                 0.000
REMARK SMILES Oc1cc(O)c2c(c1)CCc1cc(O)c(O)cc1-2
REMARK SMILES IDX 10 1 9 2 7 3 6 4 18 5 17 6 15 7 13 8 12 9 11 10 4 11 3 12
REMARK SMILES IDX 2 13 8 14 14 15 5 17 1 19 16 21
REMARK H PARENT 14 16 5 18 1 20 16 22
REMARK Flexibility Score: inf
ROOT
ATOM      1  C   UNL     1     159.923 161.890 162.703  1.00  0.00     0.041 C 
ATOM      2  C   UNL     1     160.703 160.752 163.378  1.00  0.00     0.041 C 
ATOM      3  C   UNL     1     159.983 160.272 164.616  1.00  0.00    -0.032 A 
ATOM      4  C   UNL     1     159.234 161.183 165.400  1.00  0.00     0.027 A 
ATOM      5  C   UNL     1     159.294 162.631 165.031  1.00  0.00    -0.007 A 
ATOM      6  C   UNL     1     159.184 163.655 165.990  1.00  0.00     0.059 A 
ATOM      7  C   UNL     1     159.263 165.002 165.611  1.00  0.00     0.158 A 
ATOM      8  C   UNL     1     159.496 165.338 164.268  1.00  0.00     0.157 A 
ATOM      9  C   UNL     1     159.685 164.327 163.323  1.00  0.00     0.054 A 
ATOM     10  C   UNL     1     159.625 162.978 163.704  1.00  0.00    -0.036 A 
ATOM     11  C   UNL     1     158.452 160.676 166.471  1.00  0.00     0.127 A 
ATOM     12  C   UNL     1     158.594 159.339 166.861  1.00  0.00     0.093 A 
ATOM     13  C   UNL     1     159.420 158.470 166.141  1.00  0.00     0.119 A 
ATOM     14  C   UNL     1     160.096 158.932 165.012  1.00  0.00     0.050 A 
ENDROOT
BRANCH   8  15
ATOM     15  O   UNL     1     159.562 166.669 163.859  1.00  0.00    -0.504 OA
ATOM     16  H   UNL     1     158.732 167.239 163.747  1.00  0.00     0.293 HD
ENDBRANCH   8  15
BRANCH  11  17
ATOM     17  O   UNL     1     157.485 161.440 167.125  1.00  0.00    -0.507 OA
ATOM     18  H   UNL     1     157.687 161.990 167.950  1.00  0.00     0.293 HD
ENDBRANCH  11  17
BRANCH  13  19
ATOM     19  O   UNL     1     159.558 157.139 166.527  1.00  0.00    -0.508 OA
ATOM     20  H   UNL     1     158.820 156.463 166.368  1.00  0.00     0.293 HD
ENDBRANCH  13  19
BRANCH   7  21
ATOM     21  O   UNL     1     159.119 166.008 166.566  1.00  0.00    -0.504 OA
ATOM     22  H   UNL     1     158.531 165.886 167.382  1.00  0.00     0.293 HD
ENDBRANCH   7  21
TORSDOF 4
ENDMDL
MODEL 7
REMARK VINA RESULT:    -4.209      7.277      9.175
REMARK INTER + INTRA:          -4.701
REMARK INTER:                  -4.701
REMARK INTRA:                   0.000
REMARK UNBOUND:                 0.000
REMARK SMILES Oc1cc(O)c2c(c1)CCc1cc(O)c(O)cc1-2
REMARK SMILES IDX 10 1 9 2 7 3 6 4 18 5 17 6 15 7 13 8 12 9 11 10 4 11 3 12
REMARK SMILES IDX 2 13 8 14 14 15 5 17 1 19 16 21
REMARK H PARENT 14 16 5 18 1 20 16 22
REMARK Flexibility Score: inf
ROOT
ATOM      1  C   UNL     1     153.191 159.917 162.966  1.00  0.00     0.041 C 
ATOM      2  C   UNL     1     154.337 160.522 163.791  1.00  0.00     0.041 C 
ATOM      3  C   UNL     1     154.665 159.643 164.975  1.00  0.00    -0.032 A 
ATOM      4  C   UNL     1     153.642 158.902 165.615  1.00  0.00     0.027 A 
ATOM      5  C   UNL     1     152.235 159.125 165.162  1.00  0.00    -0.007 A 
ATOM      6  C   UNL     1     151.138 159.011 166.037  1.00  0.00     0.059 A 
ATOM      7  C   UNL     1     149.832 159.246 165.583  1.00  0.00     0.158 A 
ATOM      8  C   UNL     1     149.616 159.641 164.253  1.00  0.00     0.157 A 
ATOM      9  C   UNL     1     150.705 159.834 163.400  1.00  0.00     0.054 A 
ATOM     10  C   UNL     1     152.013 159.618 163.858  1.00  0.00    -0.036 A 
ATOM     11  C   UNL     1     154.005 157.975 166.627  1.00  0.00     0.127 A 
ATOM     12  C   UNL     1     155.317 157.960 167.115  1.00  0.00     0.093 A 
ATOM     13  C   UNL     1     156.300 158.774 166.544  1.00  0.00     0.119 A 
ATOM     14  C   UNL     1     155.977 159.598 165.465  1.00  0.00     0.050 A 
ENDROOT
BRANCH   8  15
ATOM     15  O   UNL     1     148.328 159.864 163.768  1.00  0.00    -0.504 OA
ATOM     16  H   UNL     1     147.514 159.837 164.370  1.00  0.00     0.293 HD
ENDBRANCH   8  15
BRANCH  11  17
ATOM     17  O   UNL     1     153.119 157.019 167.125  1.00  0.00    -0.507 OA
ATOM     18  H   UNL     1     152.316 156.692 166.603  1.00  0.00     0.293 HD
ENDBRANCH  11  17
BRANCH  13  19
ATOM     19  O   UNL     1     157.606 158.754 167.027  1.00  0.00    -0.508 OA
ATOM     20  H   UNL     1     158.329 159.338 166.623  1.00  0.00     0.293 HD
ENDBRANCH  13  19
BRANCH   7  21
ATOM     21  O   UNL     1     148.752 159.097 166.451  1.00  0.00    -0.504 OA
ATOM     22  H   UNL     1     147.979 159.752 166.455  1.00  0.00     0.293 HD
ENDBRANCH   7  21
TORSDOF 4
ENDMDL
MODEL 8
REMARK VINA RESULT:    -4.050      6.331      8.785
REMARK INTER + INTRA:          -4.523
REMARK INTER:                  -4.523
REMARK INTRA:                   0.000
REMARK UNBOUND:                 0.000
REMARK SMILES Oc1cc(O)c2c(c1)CCc1cc(O)c(O)cc1-2
REMARK SMILES IDX 10 1 9 2 7 3 6 4 18 5 17 6 15 7 13 8 12 9 11 10 4 11 3 12
REMARK SMILES IDX 2 13 8 14 14 15 5 17 1 19 16 21
REMARK H PARENT 14 16 5 18 1 20 16 22
REMARK Flexibility Score: inf
ROOT
ATOM      1  C   UNL     1     152.675 160.590 162.555  1.00  0.00     0.041 C 
ATOM      2  C   UNL     1     151.629 159.560 162.103  1.00  0.00     0.041 C 
ATOM      3  C   UNL     1     150.693 159.217 163.237  1.00  0.00    -0.032 A 
ATOM      4  C   UNL     1     151.165 159.211 164.572  1.00  0.00     0.027 A 
ATOM      5  C   UNL     1     152.629 159.425 164.792  1.00  0.00    -0.007 A 
ATOM      6  C   UNL     1     153.319 158.838 165.869  1.00  0.00     0.059 A 
ATOM      7  C   UNL     1     154.696 159.045 166.035  1.00  0.00     0.158 A 
ATOM      8  C   UNL     1     155.406 159.811 165.096  1.00  0.00     0.157 A 
ATOM      9  C   UNL     1     154.743 160.331 163.981  1.00  0.00     0.054 A 
ATOM     10  C   UNL     1     153.370 160.109 163.804  1.00  0.00    -0.036 A 
ATOM     11  C   UNL     1     150.230 159.030 165.624  1.00  0.00     0.127 A 
ATOM     12  C   UNL     1     148.915 158.656 165.326  1.00  0.00     0.093 A 
ATOM     13  C   UNL     1     148.484 158.562 163.999  1.00  0.00     0.119 A 
ATOM     14  C   UNL     1     149.366 158.861 162.960  1.00  0.00     0.050 A 
ENDROOT
BRANCH   8  15
ATOM     15  O   UNL     1     156.771 160.048 165.244  1.00  0.00    -0.504 OA
ATOM     16  H   UNL     1     157.164 160.415 166.102  1.00  0.00     0.293 HD
ENDBRANCH   8  15
BRANCH  11  17
ATOM     17  O   UNL     1     150.545 159.271 166.962  1.00  0.00    -0.507 OA
ATOM     18  H   UNL     1     150.451 160.184 167.391  1.00  0.00     0.293 HD
ENDBRANCH  11  17
BRANCH  13  19
ATOM     19  O   UNL     1     147.173 158.195 163.703  1.00  0.00    -0.508 OA
ATOM     20  H   UNL     1     146.632 158.684 162.999  1.00  0.00     0.293 HD
ENDBRANCH  13  19
BRANCH   7  21
ATOM     21  O   UNL     1     155.362 158.484 167.124  1.00  0.00    -0.504 OA
ATOM     22  H   UNL     1     155.227 157.516 167.388  1.00  0.00     0.293 HD
ENDBRANCH   7  21
TORSDOF 4
ENDMDL
MODEL 9
REMARK VINA RESULT:    -3.124      2.288      4.214
REMARK INTER + INTRA:          -3.489
REMARK INTER:                  -3.489
REMARK INTRA:                   0.000
REMARK UNBOUND:                 0.000
REMARK SMILES Oc1cc(O)c2c(c1)CCc1cc(O)c(O)cc1-2
REMARK SMILES IDX 10 1 9 2 7 3 6 4 18 5 17 6 15 7 13 8 12 9 11 10 4 11 3 12
REMARK SMILES IDX 2 13 8 14 14 15 5 17 1 19 16 21
REMARK H PARENT 14 16 5 18 1 20 16 22
REMARK Flexibility Score: inf
ROOT
ATOM      1  C   UNL     1     148.031 155.913 162.280  1.00  0.00     0.041 C 
ATOM      2  C   UNL     1     148.762 154.583 162.518  1.00  0.00     0.041 C 
ATOM      3  C   UNL     1     148.348 153.974 163.836  1.00  0.00    -0.032 A 
ATOM      4  C   UNL     1     148.015 154.807 164.931  1.00  0.00     0.027 A 
ATOM      5  C   UNL     1     148.214 156.281 164.769  1.00  0.00    -0.007 A 
ATOM      6  C   UNL     1     148.554 157.115 165.851  1.00  0.00     0.059 A 
ATOM      7  C   UNL     1     148.752 158.490 165.659  1.00  0.00     0.158 A 
ATOM      8  C   UNL     1     148.654 159.038 164.370  1.00  0.00     0.157 A 
ATOM      9  C   UNL     1     148.395 158.203 163.279  1.00  0.00     0.054 A 
ATOM     10  C   UNL     1     148.215 156.825 163.467  1.00  0.00    -0.036 A 
ATOM     11  C   UNL     1     147.489 154.210 166.107  1.00  0.00     0.127 A 
ATOM     12  C   UNL     1     147.505 152.817 166.242  1.00  0.00     0.093 A 
ATOM     13  C   UNL     1     147.935 152.003 165.190  1.00  0.00     0.119 A 
ATOM     14  C   UNL     1     148.337 152.580 163.986  1.00  0.00     0.050 A 
ENDROOT
BRANCH   8  15
ATOM     15  O   UNL     1     148.828 160.403 164.152  1.00  0.00    -0.504 OA
ATOM     16  H   UNL     1     149.601 160.767 163.607  1.00  0.00     0.293 HD
ENDBRANCH   8  15
BRANCH  11  17
ATOM     17  O   UNL     1     146.889 154.951 167.125  1.00  0.00    -0.507 OA
ATOM     18  H   UNL     1     145.969 155.363 167.034  1.00  0.00     0.293 HD
ENDBRANCH  11  17
BRANCH  13  19
ATOM     19  O   UNL     1     147.946 150.616 165.324  1.00  0.00    -0.508 OA
ATOM     20  H   UNL     1     148.584 150.150 165.959  1.00  0.00     0.293 HD
ENDBRANCH  13  19
BRANCH   7  21
ATOM     21  O   UNL     1     149.056 159.311 166.744  1.00  0.00    -0.504 OA
ATOM     22  H   UNL     1     148.724 160.267 166.797  1.00  0.00     0.293 HD
ENDBRANCH   7  21
TORSDOF 4
ENDMDL
