MODEL 1
REMARK VINA RESULT:    -6.177      0.000      0.000
REMARK INTER + INTRA:          -6.358
REMARK INTER:                  -6.358
REMARK INTRA:                   0.000
REMARK UNBOUND:                 0.000
REMARK SMILES Oc1ccc2[nH]ccc2c1
REMARK SMILES IDX 3 1 4 2 5 3 9 4 8 5 7 6 6 7 10 8 2 9 1 11
REMARK H PARENT 6 10 1 12
REMARK Flexibility Score: inf
ROOT
ATOM      1  C   UNL     1      19.629  24.157  25.423  1.00  0.00     0.048 A 
ATOM      2  C   UNL     1      20.632  25.081  25.772  1.00  0.00     0.030 A 
ATOM      3  C   UNL     1      21.399  24.811  26.904  1.00  0.00     0.046 A 
ATOM      4  C   UNL     1      21.195  23.688  27.661  1.00  0.00     0.003 A 
ATOM      5  C   UNL     1      22.105  23.717  28.694  1.00  0.00     0.028 A 
ATOM      6  C   UNL     1      22.834  24.887  28.505  1.00  0.00     0.083 A 
ATOM      7  N   UNL     1      22.399  25.552  27.409  1.00  0.00    -0.361 N 
ATOM      8  C   UNL     1      20.211  22.754  27.343  1.00  0.00     0.056 A 
ATOM      9  C   UNL     1      19.416  22.996  26.203  1.00  0.00     0.116 A 
ATOM     10  H   UNL     1      22.766  26.456  27.037  1.00  0.00     0.166 HD
ENDROOT
BRANCH   9  11
ATOM     11  O   UNL     1      18.417  22.099  25.836  1.00  0.00    -0.508 OA
ATOM     12  H   UNL     1      18.551  21.097  25.913  1.00  0.00     0.293 HD
ENDBRANCH   9  11
TORSDOF 1
ENDMDL
MODEL 2
REMARK VINA RESULT:    -5.715      2.641      4.098
REMARK INTER + INTRA:          -5.882
REMARK INTER:                  -5.882
REMARK INTRA:                   0.000
REMARK UNBOUND:                 0.000
REMARK SMILES Oc1ccc2[nH]ccc2c1
REMARK SMILES IDX 3 1 4 2 5 3 9 4 8 5 7 6 6 7 10 8 2 9 1 11
REMARK H PARENT 6 10 1 12
REMARK Flexibility Score: inf
ROOT
ATOM      1  C   UNL     1      21.919  23.347  29.095  1.00  0.00     0.048 A 
ATOM      2  C   UNL     1      21.114  22.357  28.501  1.00  0.00     0.030 A 
ATOM      3  C   UNL     1      20.478  22.669  27.301  1.00  0.00     0.046 A 
ATOM      4  C   UNL     1      20.622  23.896  26.708  1.00  0.00     0.003 A 
ATOM      5  C   UNL     1      19.874  23.884  25.552  1.00  0.00     0.028 A 
ATOM      6  C   UNL     1      19.301  22.617  25.502  1.00  0.00     0.083 A 
ATOM      7  N   UNL     1      19.672  21.879  26.573  1.00  0.00    -0.361 N 
ATOM      8  C   UNL     1      21.410  24.898  27.271  1.00  0.00     0.056 A 
ATOM      9  C   UNL     1      22.069  24.614  28.485  1.00  0.00     0.116 A 
ATOM     10  H   UNL     1      19.390  20.896  26.787  1.00  0.00     0.166 HD
ENDROOT
BRANCH   9  11
ATOM     11  O   UNL     1      22.871  25.576  29.094  1.00  0.00    -0.508 OA
ATOM     12  H   UNL     1      23.879  25.567  28.991  1.00  0.00     0.293 HD
ENDBRANCH   9  11
TORSDOF 1
ENDMDL
MODEL 3
REMARK VINA RESULT:    -5.634      2.300      2.886
REMARK INTER + INTRA:          -5.798
REMARK INTER:                  -5.798
REMARK INTRA:                   0.000
REMARK UNBOUND:                 0.000
REMARK SMILES Oc1ccc2[nH]ccc2c1
REMARK SMILES IDX 3 1 4 2 5 3 9 4 8 5 7 6 6 7 10 8 2 9 1 11
REMARK H PARENT 6 10 1 12
REMARK Flexibility Score: inf
ROOT
ATOM      1  C   UNL     1      20.024  24.656  25.347  1.00  0.00     0.048 A 
ATOM      2  C   UNL     1      19.780  23.387  25.906  1.00  0.00     0.030 A 
ATOM      3  C   UNL     1      20.502  23.027  27.042  1.00  0.00     0.046 A 
ATOM      4  C   UNL     1      21.421  23.871  27.608  1.00  0.00     0.003 A 
ATOM      5  C   UNL     1      21.952  23.225  28.703  1.00  0.00     0.028 A 
ATOM      6  C   UNL     1      21.310  21.992  28.745  1.00  0.00     0.083 A 
ATOM      7  N   UNL     1      20.425  21.875  27.728  1.00  0.00    -0.361 N 
ATOM      8  C   UNL     1      21.686  25.133  27.080  1.00  0.00     0.056 A 
ATOM      9  C   UNL     1      20.973  25.529  25.929  1.00  0.00     0.116 A 
ATOM     10  H   UNL     1      19.810  21.057  27.522  1.00  0.00     0.166 HD
ENDROOT
BRANCH   9  11
ATOM     11  O   UNL     1      21.194  26.778  25.357  1.00  0.00    -0.508 OA
ATOM     12  H   UNL     1      20.977  27.634  25.854  1.00  0.00     0.293 HD
ENDBRANCH   9  11
TORSDOF 1
ENDMDL
MODEL 4
REMARK VINA RESULT:    -5.329      2.348      3.487
REMARK INTER + INTRA:          -5.485
REMARK INTER:                  -5.485
REMARK INTRA:                   0.000
REMARK UNBOUND:                 0.000
REMARK SMILES Oc1ccc2[nH]ccc2c1
REMARK SMILES IDX 3 1 4 2 5 3 9 4 8 5 7 6 6 7 10 8 2 9 1 11
REMARK H PARENT 6 10 1 12
REMARK Flexibility Score: inf
ROOT
ATOM      1  C   UNL     1      21.600  25.989  26.275  1.00  0.00     0.048 A 
ATOM      2  C   UNL     1      21.757  24.815  27.035  1.00  0.00     0.030 A 
ATOM      3  C   UNL     1      20.884  23.758  26.788  1.00  0.00     0.046 A 
ATOM      4  C   UNL     1      19.899  23.844  25.840  1.00  0.00     0.003 A 
ATOM      5  C   UNL     1      19.218  22.647  25.843  1.00  0.00     0.028 A 
ATOM      6  C   UNL     1      19.842  21.877  26.819  1.00  0.00     0.083 A 
ATOM      7  N   UNL     1      20.859  22.559  27.394  1.00  0.00    -0.361 N 
ATOM      8  C   UNL     1      19.716  24.992  25.071  1.00  0.00     0.056 A 
ATOM      9  C   UNL     1      20.584  26.081  25.295  1.00  0.00     0.116 A 
ATOM     10  H   UNL     1      21.492  22.221  28.152  1.00  0.00     0.166 HD
ENDROOT
BRANCH   9  11
ATOM     11  O   UNL     1      20.450  27.254  24.557  1.00  0.00    -0.508 OA
ATOM     12  H   UNL     1      21.249  27.839  24.343  1.00  0.00     0.293 HD
ENDBRANCH   9  11
TORSDOF 1
ENDMDL
MODEL 5
REMARK VINA RESULT:    -5.288     10.258     11.181
REMARK INTER + INTRA:          -5.442
REMARK INTER:                  -5.442
REMARK INTRA:                   0.000
REMARK UNBOUND:                 0.000
REMARK SMILES Oc1ccc2[nH]ccc2c1
REMARK SMILES IDX 3 1 4 2 5 3 9 4 8 5 7 6 6 7 10 8 2 9 1 11
REMARK H PARENT 6 10 1 12
REMARK Flexibility Score: inf
ROOT
ATOM      1  C   UNL     1      18.101  30.279  36.372  1.00  0.00     0.048 A 
ATOM      2  C   UNL     1      19.036  30.442  37.413  1.00  0.00     0.030 A 
ATOM      3  C   UNL     1      20.045  29.489  37.536  1.00  0.00     0.046 A 
ATOM      4  C   UNL     1      20.137  28.423  36.682  1.00  0.00     0.003 A 
ATOM      5  C   UNL     1      21.228  27.678  37.069  1.00  0.00     0.028 A 
ATOM      6  C   UNL     1      21.756  28.349  38.168  1.00  0.00     0.083 A 
ATOM      7  N   UNL     1      21.029  29.455  38.450  1.00  0.00    -0.361 N 
ATOM      8  C   UNL     1      19.228  28.232  35.642  1.00  0.00     0.056 A 
ATOM      9  C   UNL     1      18.194  29.178  35.488  1.00  0.00     0.116 A 
ATOM     10  H   UNL     1      21.201  30.140  39.219  1.00  0.00     0.166 HD
ENDROOT
BRANCH   9  11
ATOM     11  O   UNL     1      17.257  29.040  34.468  1.00  0.00    -0.508 OA
ATOM     12  H   UNL     1      16.263  29.013  34.663  1.00  0.00     0.293 HD
ENDBRANCH   9  11
TORSDOF 1
ENDMDL
MODEL 6
REMARK VINA RESULT:    -4.927     10.471     11.414
REMARK INTER + INTRA:          -5.071
REMARK INTER:                  -5.071
REMARK INTRA:                   0.000
REMARK UNBOUND:                 0.000
REMARK SMILES Oc1ccc2[nH]ccc2c1
REMARK SMILES IDX 3 1 4 2 5 3 9 4 8 5 7 6 6 7 10 8 2 9 1 11
REMARK H PARENT 6 10 1 12
REMARK Flexibility Score: inf
ROOT
ATOM      1  C   UNL     1      19.056  29.941  36.345  1.00  0.00     0.048 A 
ATOM      2  C   UNL     1      19.912  30.457  37.337  1.00  0.00     0.030 A 
ATOM      3  C   UNL     1      20.910  29.621  37.833  1.00  0.00     0.046 A 
ATOM      4  C   UNL     1      21.065  28.337  37.381  1.00  0.00     0.003 A 
ATOM      5  C   UNL     1      22.126  27.785  38.064  1.00  0.00     0.028 A 
ATOM      6  C   UNL     1      22.571  28.790  38.917  1.00  0.00     0.083 A 
ATOM      7  N   UNL     1      21.825  29.909  38.773  1.00  0.00    -0.361 N 
ATOM      8  C   UNL     1      20.235  27.796  36.401  1.00  0.00     0.056 A 
ATOM      9  C   UNL     1      19.214  28.616  35.876  1.00  0.00     0.116 A 
ATOM     10  H   UNL     1      21.940  30.810  39.288  1.00  0.00     0.166 HD
ENDROOT
BRANCH   9  11
ATOM     11  O   UNL     1      18.354  28.131  34.895  1.00  0.00    -0.508 OA
ATOM     12  H   UNL     1      17.884  27.238  34.997  1.00  0.00     0.293 HD
ENDBRANCH   9  11
TORSDOF 1
ENDMDL
MODEL 7
REMARK VINA RESULT:    -4.890     10.930     11.878
REMARK INTER + INTRA:          -5.033
REMARK INTER:                  -5.033
REMARK INTRA:                   0.000
REMARK UNBOUND:                 0.000
REMARK SMILES Oc1ccc2[nH]ccc2c1
REMARK SMILES IDX 3 1 4 2 5 3 9 4 8 5 7 6 6 7 10 8 2 9 1 11
REMARK H PARENT 6 10 1 12
REMARK Flexibility Score: inf
ROOT
ATOM      1  C   UNL     1      19.552  28.308  35.896  1.00  0.00     0.048 A 
ATOM      2  C   UNL     1      20.362  28.801  36.937  1.00  0.00     0.030 A 
ATOM      3  C   UNL     1      19.959  29.972  37.575  1.00  0.00     0.046 A 
ATOM      4  C   UNL     1      18.816  30.634  37.212  1.00  0.00     0.003 A 
ATOM      5  C   UNL     1      18.705  31.740  38.025  1.00  0.00     0.028 A 
ATOM      6  C   UNL     1      19.815  31.690  38.862  1.00  0.00     0.083 A 
ATOM      7  N   UNL     1      20.579  30.609  38.583  1.00  0.00    -0.361 N 
ATOM      8  C   UNL     1      17.993  30.173  36.186  1.00  0.00     0.056 A 
ATOM      9  C   UNL     1      18.371  28.989  35.519  1.00  0.00     0.116 A 
ATOM     10  H   UNL     1      21.467  30.329  39.056  1.00  0.00     0.166 HD
ENDROOT
BRANCH   9  11
ATOM     11  O   UNL     1      17.589  28.480  34.486  1.00  0.00    -0.508 OA
ATOM     12  H   UNL     1      16.604  28.280  34.618  1.00  0.00     0.293 HD
ENDBRANCH   9  11
TORSDOF 1
ENDMDL
MODEL 8
REMARK VINA RESULT:    -4.764     10.432     11.538
REMARK INTER + INTRA:          -4.903
REMARK INTER:                  -4.903
REMARK INTRA:                   0.000
REMARK UNBOUND:                 0.000
REMARK SMILES Oc1ccc2[nH]ccc2c1
REMARK SMILES IDX 3 1 4 2 5 3 9 4 8 5 7 6 6 7 10 8 2 9 1 11
REMARK H PARENT 6 10 1 12
REMARK Flexibility Score: inf
ROOT
ATOM      1  C   UNL     1      20.304  27.057  36.641  1.00  0.00     0.048 A 
ATOM      2  C   UNL     1      21.325  27.105  37.608  1.00  0.00     0.030 A 
ATOM      3  C   UNL     1      21.805  28.358  37.986  1.00  0.00     0.046 A 
ATOM      4  C   UNL     1      21.308  29.513  37.442  1.00  0.00     0.003 A 
ATOM      5  C   UNL     1      21.986  30.564  38.019  1.00  0.00     0.028 A 
ATOM      6  C   UNL     1      22.881  29.976  38.907  1.00  0.00     0.083 A 
ATOM      7  N   UNL     1      22.767  28.628  38.883  1.00  0.00    -0.361 N 
ATOM      8  C   UNL     1      20.298  29.500  36.482  1.00  0.00     0.056 A 
ATOM      9  C   UNL     1      19.789  28.248  36.078  1.00  0.00     0.116 A 
ATOM     10  H   UNL     1      23.316  27.942  39.447  1.00  0.00     0.166 HD
ENDROOT
BRANCH   9  11
ATOM     11  O   UNL     1      18.779  28.172  35.123  1.00  0.00    -0.508 OA
ATOM     12  H   UNL     1      18.286  29.000  34.807  1.00  0.00     0.293 HD
ENDBRANCH   9  11
TORSDOF 1
ENDMDL
MODEL 9
REMARK VINA RESULT:    -4.760     10.743     11.751
REMARK INTER + INTRA:          -4.899
REMARK INTER:                  -4.899
REMARK INTRA:                   0.000
REMARK UNBOUND:                 0.000
REMARK SMILES Oc1ccc2[nH]ccc2c1
REMARK SMILES IDX 3 1 4 2 5 3 9 4 8 5 7 6 6 7 10 8 2 9 1 11
REMARK H PARENT 6 10 1 12
REMARK Flexibility Score: inf
ROOT
ATOM      1  C   UNL     1      21.569  27.547  37.621  1.00  0.00     0.048 A 
ATOM      2  C   UNL     1      20.617  27.247  36.628  1.00  0.00     0.030 A 
ATOM      3  C   UNL     1      19.718  28.248  36.265  1.00  0.00     0.046 A 
ATOM      4  C   UNL     1      19.749  29.488  36.847  1.00  0.00     0.003 A 
ATOM      5  C   UNL     1      18.744  30.236  36.274  1.00  0.00     0.028 A 
ATOM      6  C   UNL     1      18.140  29.388  35.351  1.00  0.00     0.083 A 
ATOM      7  N   UNL     1      18.739  28.175  35.349  1.00  0.00    -0.361 N 
ATOM      8  C   UNL     1      20.678  29.817  37.832  1.00  0.00     0.056 A 
ATOM      9  C   UNL     1      21.603  28.826  38.223  1.00  0.00     0.116 A 
ATOM     10  H   UNL     1      18.489  27.352  34.756  1.00  0.00     0.166 HD
ENDROOT
BRANCH   9  11
ATOM     11  O   UNL     1      22.554  29.097  39.202  1.00  0.00    -0.508 OA
ATOM     12  H   UNL     1      22.289  29.445  40.116  1.00  0.00     0.293 HD
ENDBRANCH   9  11
TORSDOF 1
ENDMDL
