MODEL 1
REMARK VINA RESULT:    -6.143      0.000      0.000
REMARK INTER + INTRA:         -11.695
REMARK INTER:                  -9.195
REMARK INTRA:                  -2.500
REMARK UNBOUND:                -2.500
REMARK SMILES C=C(CC[C@@H](C(=O)[O-])[C@H]1[C@H](O)C[C@@]2(C)C3=C(CC[C@@]12C)[C@]1(C)CC[C@H](OC(C)=O)C(C)(C)[C@@H]1CC3)C(C)C
REMARK SMILES IDX 4 1 5 2 6 3 7 4 8 5 9 6 10 7 19 8 12 9 13 10 18 11 20 12
REMARK SMILES IDX 14 13 15 14 17 15 16 16 35 17 21 18 34 19 33 20 23 21 22 22
REMARK SMILES IDX 30 23 24 24 25 25 31 26 32 27 11 28 26 30 27 31 29 32 28 33
REMARK SMILES IDX 3 34 2 35 1 36 36 37 37 38 38 39
REMARK H PARENT 11 29
REMARK Flexibility Score: inf
ROOT
ATOM      1  C   UNL     1     144.667 146.388 148.278  1.00  0.00     0.014 C 
ENDROOT
BRANCH   1   2
ATOM      2  C   UNL     1     145.133 146.364 149.761  1.00  0.00     0.042 C 
BRANCH   2   3
ATOM      3  C   UNL     1     144.500 145.187 150.464  1.00  0.00     0.045 C 
ATOM      4  O   UNL     1     145.216 144.401 151.140  1.00  0.00    -0.550 OA
ATOM      5  O   UNL     1     143.130 144.971 150.408  1.00  0.00    -0.550 OA
ENDBRANCH   2   3
BRANCH   2   6
ATOM      6  C   UNL     1     146.691 146.438 149.954  1.00  0.00     0.033 C 
ATOM      7  C   UNL     1     147.448 146.323 148.619  1.00  0.00     0.119 C 
ATOM      8  C   UNL     1     147.296 147.714 150.653  1.00  0.00    -0.017 C 
ATOM      9  C   UNL     1     148.810 146.997 148.811  1.00  0.00     0.043 C 
ATOM     10  C   UNL     1     148.815 147.678 150.206  1.00  0.00    -0.003 C 
ATOM     11  C   UNL     1     146.606 149.062 150.217  1.00  0.00     0.012 C 
ATOM     12  C   UNL     1     147.147 147.624 152.199  1.00  0.00     0.013 C 
ATOM     13  C   UNL     1     149.674 146.765 151.135  1.00  0.00     0.017 C 
ATOM     14  C   UNL     1     149.408 149.106 150.067  1.00  0.00    -0.064 C 
ATOM     15  C   UNL     1     147.269 149.756 149.028  1.00  0.00     0.032 C 
ATOM     16  C   UNL     1     148.730 150.056 149.362  1.00  0.00    -0.064 C 
ATOM     17  C   UNL     1     150.740 149.494 150.666  1.00  0.00     0.032 C 
ATOM     18  C   UNL     1     149.427 151.411 149.034  1.00  0.00    -0.008 C 
ATOM     19  C   UNL     1     150.683 150.899 151.274  1.00  0.00     0.009 C 
ATOM     20  C   UNL     1     150.005 152.011 150.382  1.00  0.00     0.009 C 
ATOM     21  C   UNL     1     150.574 151.179 147.985  1.00  0.00     0.015 C 
ATOM     22  C   UNL     1     148.409 152.389 148.382  1.00  0.00     0.016 C 
ATOM     23  C   UNL     1     150.874 153.351 150.199  1.00  0.00     0.005 C 
ATOM     24  C   UNL     1     151.877 151.944 148.293  1.00  0.00     0.047 C 
ATOM     25  C   UNL     1     151.613 153.364 148.805  1.00  0.00     0.182 C 
ATOM     26  C   UNL     1     149.940 154.592 150.302  1.00  0.00     0.015 C 
ATOM     27  C   UNL     1     151.906 153.555 151.353  1.00  0.00     0.015 C 
BRANCH   7  28
ATOM     28  O   UNL     1     147.618 144.978 148.257  1.00  0.00    -0.393 OA
ATOM     29  H   UNL     1     147.982 144.513 149.056  1.00  0.00     0.210 HD
ENDBRANCH   7  28
BRANCH  25  30
ATOM     30  O   UNL     1     152.872 154.044 148.877  1.00  0.00    -0.462 OA
BRANCH  30  31
ATOM     31  C   UNL     1     153.213 155.155 148.096  1.00  0.00     0.302 C 
ATOM     32  O   UNL     1     152.740 156.295 148.344  1.00  0.00    -0.253 OA
ATOM     33  C   UNL     1     154.184 154.982 146.980  1.00  0.00     0.139 C 
ENDBRANCH  30  31
ENDBRANCH  25  30
ENDBRANCH   2   6
ENDBRANCH   1   2
BRANCH   1  34
ATOM     34  C   UNL     1     143.714 147.540 147.892  1.00  0.00     0.031 C 
BRANCH  34  35
ATOM     35  C   UNL     1     144.397 148.531 146.974  1.00  0.00    -0.075 C 
ATOM     36  C   UNL     1     145.408 148.120 146.185  1.00  0.00     0.008 C 
BRANCH  35  37
ATOM     37  C   UNL     1     143.919 149.977 146.950  1.00  0.00     0.008 C 
ATOM     38  C   UNL     1     144.900 150.882 146.192  1.00  0.00     0.012 C 
ATOM     39  C   UNL     1     143.667 150.504 148.369  1.00  0.00     0.012 C 
ENDBRANCH  35  37
ENDBRANCH  34  35
ENDBRANCH   1  34
TORSDOF 9
ENDMDL
MODEL 2
REMARK VINA RESULT:    -6.012      3.339      4.606
REMARK INTER + INTRA:         -11.500
REMARK INTER:                  -9.813
REMARK INTRA:                  -1.687
REMARK UNBOUND:                -2.500
REMARK SMILES C=C(CC[C@@H](C(=O)[O-])[C@H]1[C@H](O)C[C@@]2(C)C3=C(CC[C@@]12C)[C@]1(C)CC[C@H](OC(C)=O)C(C)(C)[C@@H]1CC3)C(C)C
REMARK SMILES IDX 4 1 5 2 6 3 7 4 8 5 9 6 10 7 19 8 12 9 13 10 18 11 20 12
REMARK SMILES IDX 14 13 15 14 17 15 16 16 35 17 21 18 34 19 33 20 23 21 22 22
REMARK SMILES IDX 30 23 24 24 25 25 31 26 32 27 11 28 26 30 27 31 29 32 28 33
REMARK SMILES IDX 3 34 2 35 1 36 36 37 37 38 38 39
REMARK H PARENT 11 29
REMARK Flexibility Score: inf
ROOT
ATOM      1  C   UNL     1     144.652 148.823 147.193  1.00  0.00     0.014 C 
ENDROOT
BRANCH   1   2
ATOM      2  C   UNL     1     144.890 148.271 148.627  1.00  0.00     0.042 C 
BRANCH   2   3
ATOM      3  C   UNL     1     143.558 148.005 149.287  1.00  0.00     0.045 C 
ATOM      4  O   UNL     1     142.909 146.967 148.993  1.00  0.00    -0.550 OA
ATOM      5  O   UNL     1     143.048 148.872 150.244  1.00  0.00    -0.550 OA
ENDBRANCH   2   3
BRANCH   2   6
ATOM      6  C   UNL     1     145.874 147.047 148.698  1.00  0.00     0.033 C 
ATOM      7  C   UNL     1     146.580 146.791 147.355  1.00  0.00     0.119 C 
ATOM      8  C   UNL     1     147.033 147.082 149.764  1.00  0.00    -0.017 C 
ATOM      9  C   UNL     1     147.888 146.054 147.664  1.00  0.00     0.043 C 
ATOM     10  C   UNL     1     148.063 146.016 149.206  1.00  0.00    -0.003 C 
ATOM     11  C   UNL     1     147.706 148.497 149.921  1.00  0.00     0.012 C 
ATOM     12  C   UNL     1     146.503 146.689 151.173  1.00  0.00     0.013 C 
ATOM     13  C   UNL     1     147.700 144.565 149.652  1.00  0.00     0.017 C 
ATOM     14  C   UNL     1     149.528 146.393 149.556  1.00  0.00    -0.064 C 
ATOM     15  C   UNL     1     148.921 148.723 149.022  1.00  0.00     0.032 C 
ATOM     16  C   UNL     1     149.978 147.658 149.315  1.00  0.00    -0.064 C 
ATOM     17  C   UNL     1     150.505 145.400 150.138  1.00  0.00     0.032 C 
ATOM     18  C   UNL     1     151.498 147.970 149.454  1.00  0.00    -0.008 C 
ATOM     19  C   UNL     1     151.368 146.046 151.226  1.00  0.00     0.009 C 
ATOM     20  C   UNL     1     151.983 147.457 150.873  1.00  0.00     0.009 C 
ATOM     21  C   UNL     1     152.295 147.263 148.299  1.00  0.00     0.015 C 
ATOM     22  C   UNL     1     151.744 149.498 149.302  1.00  0.00     0.016 C 
ATOM     23  C   UNL     1     153.565 147.584 151.126  1.00  0.00     0.005 C 
ATOM     24  C   UNL     1     153.603 146.587 148.754  1.00  0.00     0.047 C 
ATOM     25  C   UNL     1     154.371 147.432 149.777  1.00  0.00     0.182 C 
ATOM     26  C   UNL     1     153.878 148.970 151.762  1.00  0.00     0.015 C 
ATOM     27  C   UNL     1     154.086 146.556 152.178  1.00  0.00     0.015 C 
BRANCH   7  28
ATOM     28  O   UNL     1     145.775 146.017 146.507  1.00  0.00    -0.393 OA
ATOM     29  H   UNL     1     146.226 145.137 146.413  1.00  0.00     0.210 HD
ENDBRANCH   7  28
BRANCH  25  30
ATOM     30  O   UNL     1     155.646 146.813 149.987  1.00  0.00    -0.462 OA
BRANCH  30  31
ATOM     31  C   UNL     1     156.842 147.517 150.171  1.00  0.00     0.302 C 
ATOM     32  O   UNL     1     157.875 146.945 150.606  1.00  0.00    -0.253 OA
ATOM     33  C   UNL     1     156.894 148.960 149.802  1.00  0.00     0.139 C 
ENDBRANCH  30  31
ENDBRANCH  25  30
ENDBRANCH   2   6
ENDBRANCH   1   2
BRANCH   1  34
ATOM     34  C   UNL     1     143.881 150.157 147.105  1.00  0.00     0.031 C 
BRANCH  34  35
ATOM     35  C   UNL     1     144.807 151.304 146.764  1.00  0.00    -0.075 C 
ATOM     36  C   UNL     1     145.052 151.600 145.473  1.00  0.00     0.008 C 
BRANCH  35  37
ATOM     37  C   UNL     1     145.438 152.114 147.889  1.00  0.00     0.008 C 
ATOM     38  C   UNL     1     146.920 151.758 148.076  1.00  0.00     0.012 C 
ATOM     39  C   UNL     1     144.661 151.943 149.202  1.00  0.00     0.012 C 
ENDBRANCH  35  37
ENDBRANCH  34  35
ENDBRANCH   1  34
TORSDOF 9
ENDMDL
MODEL 3
REMARK VINA RESULT:    -5.958      4.545      8.060
REMARK INTER + INTRA:         -11.418
REMARK INTER:                  -9.432
REMARK INTRA:                  -1.986
REMARK UNBOUND:                -2.500
REMARK SMILES C=C(CC[C@@H](C(=O)[O-])[C@H]1[C@H](O)C[C@@]2(C)C3=C(CC[C@@]12C)[C@]1(C)CC[C@H](OC(C)=O)C(C)(C)[C@@H]1CC3)C(C)C
REMARK SMILES IDX 4 1 5 2 6 3 7 4 8 5 9 6 10 7 19 8 12 9 13 10 18 11 20 12
REMARK SMILES IDX 14 13 15 14 17 15 16 16 35 17 21 18 34 19 33 20 23 21 22 22
REMARK SMILES IDX 30 23 24 24 25 25 31 26 32 27 11 28 26 30 27 31 29 32 28 33
REMARK SMILES IDX 3 34 2 35 1 36 36 37 37 38 38 39
REMARK H PARENT 11 29
REMARK Flexibility Score: inf
ROOT
ATOM      1  C   UNL     1     151.732 141.653 150.250  1.00  0.00     0.014 C 
ENDROOT
BRANCH   1   2
ATOM      2  C   UNL     1     152.258 143.045 150.697  1.00  0.00     0.042 C 
BRANCH   2   3
ATOM      3  C   UNL     1     153.716 142.930 151.075  1.00  0.00     0.045 C 
ATOM      4  O   UNL     1     154.531 143.817 150.706  1.00  0.00    -0.550 OA
ATOM      5  O   UNL     1     154.172 141.877 151.856  1.00  0.00    -0.550 OA
ENDBRANCH   2   3
BRANCH   2   6
ATOM      6  C   UNL     1     151.971 144.208 149.678  1.00  0.00     0.033 C 
ATOM      7  C   UNL     1     151.389 143.686 148.352  1.00  0.00     0.119 C 
ATOM      8  C   UNL     1     150.996 145.363 150.120  1.00  0.00    -0.017 C 
ATOM      9  C   UNL     1     150.602 144.838 147.718  1.00  0.00     0.043 C 
ATOM     10  C   UNL     1     150.556 146.006 148.741  1.00  0.00    -0.003 C 
ATOM     11  C   UNL     1     149.747 144.860 150.938  1.00  0.00     0.012 C 
ATOM     12  C   UNL     1     151.730 146.392 151.027  1.00  0.00     0.013 C 
ATOM     13  C   UNL     1     151.583 147.067 148.238  1.00  0.00     0.017 C 
ATOM     14  C   UNL     1     149.109 146.565 148.801  1.00  0.00    -0.064 C 
ATOM     15  C   UNL     1     148.518 144.545 150.086  1.00  0.00     0.032 C 
ATOM     16  C   UNL     1     148.104 145.793 149.305  1.00  0.00    -0.064 C 
ATOM     17  C   UNL     1     148.749 147.941 148.295  1.00  0.00     0.032 C 
ATOM     18  C   UNL     1     146.627 146.264 149.158  1.00  0.00    -0.008 C 
ATOM     19  C   UNL     1     147.749 148.629 149.230  1.00  0.00     0.009 C 
ATOM     20  C   UNL     1     146.524 147.750 149.699  1.00  0.00     0.009 C 
ATOM     21  C   UNL     1     146.190 146.183 147.651  1.00  0.00     0.015 C 
ATOM     22  C   UNL     1     145.684 145.318 149.953  1.00  0.00     0.016 C 
ATOM     23  C   UNL     1     145.085 148.438 149.496  1.00  0.00     0.005 C 
ATOM     24  C   UNL     1     145.381 147.400 147.160  1.00  0.00     0.047 C 
ATOM     25  C   UNL     1     144.368 147.887 148.203  1.00  0.00     0.182 C 
ATOM     26  C   UNL     1     144.197 148.155 150.742  1.00  0.00     0.015 C 
ATOM     27  C   UNL     1     145.171 149.996 149.436  1.00  0.00     0.015 C 
BRANCH   7  28
ATOM     28  O   UNL     1     152.413 143.265 147.489  1.00  0.00    -0.393 OA
ATOM     29  H   UNL     1     153.156 142.947 148.065  1.00  0.00     0.210 HD
ENDBRANCH   7  28
BRANCH  25  30
ATOM     30  O   UNL     1     143.547 148.885 147.584  1.00  0.00    -0.462 OA
BRANCH  30  31
ATOM     31  C   UNL     1     143.634 149.249 146.235  1.00  0.00     0.302 C 
ATOM     32  O   UNL     1     143.044 148.586 145.342  1.00  0.00    -0.253 OA
ATOM     33  C   UNL     1     144.406 150.468 145.864  1.00  0.00     0.139 C 
ENDBRANCH  30  31
ENDBRANCH  25  30
ENDBRANCH   2   6
ENDBRANCH   1   2
BRANCH   1  34
ATOM     34  C   UNL     1     150.799 140.935 151.248  1.00  0.00     0.031 C 
BRANCH  34  35
ATOM     35  C   UNL     1     149.415 140.745 150.665  1.00  0.00    -0.075 C 
ATOM     36  C   UNL     1     149.230 140.868 149.337  1.00  0.00     0.008 C 
BRANCH  35  37
ATOM     37  C   UNL     1     148.255 140.405 151.593  1.00  0.00     0.008 C 
ATOM     38  C   UNL     1     147.771 141.641 152.365  1.00  0.00     0.012 C 
ATOM     39  C   UNL     1     148.625 139.266 152.552  1.00  0.00     0.012 C 
ENDBRANCH  35  37
ENDBRANCH  34  35
ENDBRANCH   1  34
TORSDOF 9
ENDMDL
MODEL 4
REMARK VINA RESULT:    -5.912      1.316      1.451
REMARK INTER + INTRA:         -11.350
REMARK INTER:                  -8.860
REMARK INTRA:                  -2.489
REMARK UNBOUND:                -2.500
REMARK SMILES C=C(CC[C@@H](C(=O)[O-])[C@H]1[C@H](O)C[C@@]2(C)C3=C(CC[C@@]12C)[C@]1(C)CC[C@H](OC(C)=O)C(C)(C)[C@@H]1CC3)C(C)C
REMARK SMILES IDX 4 1 5 2 6 3 7 4 8 5 9 6 10 7 19 8 12 9 13 10 18 11 20 12
REMARK SMILES IDX 14 13 15 14 17 15 16 16 35 17 21 18 34 19 33 20 23 21 22 22
REMARK SMILES IDX 30 23 24 24 25 25 31 26 32 27 11 28 26 30 27 31 29 32 28 33
REMARK SMILES IDX 3 34 2 35 1 36 36 37 37 38 38 39
REMARK H PARENT 11 29
REMARK Flexibility Score: inf
ROOT
ATOM      1  C   UNL     1     144.796 147.259 148.353  1.00  0.00     0.014 C 
ENDROOT
BRANCH   1   2
ATOM      2  C   UNL     1     145.542 146.790 149.633  1.00  0.00     0.042 C 
BRANCH   2   3
ATOM      3  C   UNL     1     144.826 145.596 150.219  1.00  0.00     0.045 C 
ATOM      4  O   UNL     1     145.484 144.700 150.811  1.00  0.00    -0.550 OA
ATOM      5  O   UNL     1     143.445 145.483 150.147  1.00  0.00    -0.550 OA
ENDBRANCH   2   3
BRANCH   2   6
ATOM      6  C   UNL     1     147.084 146.555 149.438  1.00  0.00     0.033 C 
ATOM      7  C   UNL     1     147.502 146.641 147.959  1.00  0.00     0.119 C 
ATOM      8  C   UNL     1     148.085 147.507 150.197  1.00  0.00    -0.017 C 
ATOM      9  C   UNL     1     148.988 147.013 147.929  1.00  0.00     0.043 C 
ATOM     10  C   UNL     1     149.432 147.327 149.384  1.00  0.00    -0.003 C 
ATOM     11  C   UNL     1     147.631 149.015 150.221  1.00  0.00     0.012 C 
ATOM     12  C   UNL     1     148.245 147.072 151.682  1.00  0.00     0.013 C 
ATOM     13  C   UNL     1     150.246 146.088 149.869  1.00  0.00     0.017 C 
ATOM     14  C   UNL     1     150.280 148.628 149.381  1.00  0.00    -0.064 C 
ATOM     15  C   UNL     1     148.166 149.856 149.063  1.00  0.00     0.032 C 
ATOM     16  C   UNL     1     149.694 149.819 149.069  1.00  0.00    -0.064 C 
ATOM     17  C   UNL     1     151.759 148.633 149.689  1.00  0.00     0.032 C 
ATOM     18  C   UNL     1     150.586 151.077 148.847  1.00  0.00    -0.008 C 
ATOM     19  C   UNL     1     152.138 149.839 150.554  1.00  0.00     0.009 C 
ATOM     20  C   UNL     1     151.548 151.231 150.096  1.00  0.00     0.009 C 
ATOM     21  C   UNL     1     151.410 150.919 147.519  1.00  0.00     0.015 C 
ATOM     22  C   UNL     1     149.693 152.339 148.677  1.00  0.00     0.016 C 
ATOM     23  C   UNL     1     152.631 152.412 149.966  1.00  0.00     0.005 C 
ATOM     24  C   UNL     1     152.883 151.359 147.632  1.00  0.00     0.047 C 
ATOM     25  C   UNL     1     153.048 152.637 148.461  1.00  0.00     0.182 C 
ATOM     26  C   UNL     1     152.033 153.728 150.541  1.00  0.00     0.015 C 
ATOM     27  C   UNL     1     153.900 152.157 150.839  1.00  0.00     0.015 C 
BRANCH   7  28
ATOM     28  O   UNL     1     147.296 145.414 147.311  1.00  0.00    -0.393 OA
ATOM     29  H   UNL     1     147.550 144.705 147.957  1.00  0.00     0.210 HD
ENDBRANCH   7  28
BRANCH  25  30
ATOM     30  O   UNL     1     154.412 153.061 148.345  1.00  0.00    -0.462 OA
BRANCH  30  31
ATOM     31  C   UNL     1     154.806 154.341 147.939  1.00  0.00     0.302 C 
ATOM     32  O   UNL     1     154.126 155.000 147.110  1.00  0.00    -0.253 OA
ATOM     33  C   UNL     1     156.032 154.943 148.536  1.00  0.00     0.139 C 
ENDBRANCH  30  31
ENDBRANCH  25  30
ENDBRANCH   2   6
ENDBRANCH   1   2
BRANCH   1  34
ATOM     34  C   UNL     1     144.078 148.622 148.454  1.00  0.00     0.031 C 
BRANCH  34  35
ATOM     35  C   UNL     1     144.747 149.659 147.579  1.00  0.00    -0.075 C 
ATOM     36  C   UNL     1     145.503 149.264 146.536  1.00  0.00     0.008 C 
BRANCH  35  37
ATOM     37  C   UNL     1     144.543 151.138 147.885  1.00  0.00     0.008 C 
ATOM     38  C   UNL     1     145.610 152.006 147.204  1.00  0.00     0.012 C 
ATOM     39  C   UNL     1     144.508 151.393 149.398  1.00  0.00     0.012 C 
ENDBRANCH  35  37
ENDBRANCH  34  35
ENDBRANCH   1  34
TORSDOF 9
ENDMDL
MODEL 5
REMARK VINA RESULT:    -5.829      1.967      2.843
REMARK INTER + INTRA:         -11.225
REMARK INTER:                  -8.599
REMARK INTRA:                  -2.626
REMARK UNBOUND:                -2.500
REMARK SMILES C=C(CC[C@@H](C(=O)[O-])[C@H]1[C@H](O)C[C@@]2(C)C3=C(CC[C@@]12C)[C@]1(C)CC[C@H](OC(C)=O)C(C)(C)[C@@H]1CC3)C(C)C
REMARK SMILES IDX 4 1 5 2 6 3 7 4 8 5 9 6 10 7 19 8 12 9 13 10 18 11 20 12
REMARK SMILES IDX 14 13 15 14 17 15 16 16 35 17 21 18 34 19 33 20 23 21 22 22
REMARK SMILES IDX 30 23 24 24 25 25 31 26 32 27 11 28 26 30 27 31 29 32 28 33
REMARK SMILES IDX 3 34 2 35 1 36 36 37 37 38 38 39
REMARK H PARENT 11 29
REMARK Flexibility Score: inf
ROOT
ATOM      1  C   UNL     1     147.714 145.542 148.432  1.00  0.00     0.014 C 
ENDROOT
BRANCH   1   2
ATOM      2  C   UNL     1     148.756 145.209 149.536  1.00  0.00     0.042 C 
BRANCH   2   3
ATOM      3  C   UNL     1     148.892 143.710 149.659  1.00  0.00     0.045 C 
ATOM      4  O   UNL     1     149.344 143.040 148.693  1.00  0.00    -0.550 OA
ATOM      5  O   UNL     1     148.557 143.055 150.837  1.00  0.00    -0.550 OA
ENDBRANCH   2   3
BRANCH   2   6
ATOM      6  C   UNL     1     150.135 145.946 149.374  1.00  0.00     0.033 C 
ATOM      7  C   UNL     1     150.430 146.308 147.907  1.00  0.00     0.119 C 
ATOM      8  C   UNL     1     150.365 147.284 150.174  1.00  0.00    -0.017 C 
ATOM      9  C   UNL     1     151.401 147.494 147.920  1.00  0.00     0.043 C 
ATOM     10  C   UNL     1     151.559 147.967 149.390  1.00  0.00    -0.003 C 
ATOM     11  C   UNL     1     149.101 148.222 150.217  1.00  0.00     0.012 C 
ATOM     12  C   UNL     1     150.742 146.986 151.654  1.00  0.00     0.013 C 
ATOM     13  C   UNL     1     152.948 147.443 149.870  1.00  0.00     0.017 C 
ATOM     14  C   UNL     1     151.464 149.516 149.433  1.00  0.00    -0.064 C 
ATOM     15  C   UNL     1     149.038 149.250 149.089  1.00  0.00     0.032 C 
ATOM     16  C   UNL     1     150.286 150.132 149.131  1.00  0.00    -0.064 C 
ATOM     17  C   UNL     1     152.646 150.392 149.776  1.00  0.00     0.032 C 
ATOM     18  C   UNL     1     150.252 151.680 148.954  1.00  0.00    -0.008 C 
ATOM     19  C   UNL     1     152.225 151.560 150.673  1.00  0.00     0.009 C 
ATOM     20  C   UNL     1     150.924 152.339 150.229  1.00  0.00     0.009 C 
ATOM     21  C   UNL     1     151.018 152.083 147.644  1.00  0.00     0.015 C 
ATOM     22  C   UNL     1     148.784 152.165 148.788  1.00  0.00     0.016 C 
ATOM     23  C   UNL     1     151.090 153.936 150.148  1.00  0.00     0.005 C 
ATOM     24  C   UNL     1     151.937 153.311 147.800  1.00  0.00     0.047 C 
ATOM     25  C   UNL     1     151.301 154.411 148.658  1.00  0.00     0.182 C 
ATOM     26  C   UNL     1     149.820 154.618 150.735  1.00  0.00     0.015 C 
ATOM     27  C   UNL     1     152.254 154.462 151.046  1.00  0.00     0.015 C 
BRANCH   7  28
ATOM     28  O   UNL     1     151.001 145.221 147.230  1.00  0.00    -0.393 OA
ATOM     29  H   UNL     1     151.773 145.578 146.719  1.00  0.00     0.210 HD
ENDBRANCH   7  28
BRANCH  25  30
ATOM     30  O   UNL     1     152.144 155.567 148.583  1.00  0.00    -0.462 OA
BRANCH  30  31
ATOM     31  C   UNL     1     151.896 156.669 147.756  1.00  0.00     0.302 C 
ATOM     32  O   UNL     1     152.767 157.087 146.949  1.00  0.00    -0.253 OA
ATOM     33  C   UNL     1     150.560 157.326 147.808  1.00  0.00     0.139 C 
ENDBRANCH  30  31
ENDBRANCH  25  30
ENDBRANCH   2   6
ENDBRANCH   1   2
BRANCH   1  34
ATOM     34  C   UNL     1     146.311 145.949 148.931  1.00  0.00     0.031 C 
BRANCH  34  35
ATOM     35  C   UNL     1     145.912 147.307 148.397  1.00  0.00    -0.075 C 
ATOM     36  C   UNL     1     146.227 147.644 147.131  1.00  0.00     0.008 C 
BRANCH  35  37
ATOM     37  C   UNL     1     145.148 148.269 149.298  1.00  0.00     0.008 C 
ATOM     38  C   UNL     1     145.454 149.732 148.949  1.00  0.00     0.012 C 
ATOM     39  C   UNL     1     145.430 147.986 150.780  1.00  0.00     0.012 C 
ENDBRANCH  35  37
ENDBRANCH  34  35
ENDBRANCH   1  34
TORSDOF 9
ENDMDL
MODEL 6
REMARK VINA RESULT:    -5.810      2.413      3.726
REMARK INTER + INTRA:         -11.197
REMARK INTER:                  -8.462
REMARK INTRA:                  -2.735
REMARK UNBOUND:                -2.500
REMARK SMILES C=C(CC[C@@H](C(=O)[O-])[C@H]1[C@H](O)C[C@@]2(C)C3=C(CC[C@@]12C)[C@]1(C)CC[C@H](OC(C)=O)C(C)(C)[C@@H]1CC3)C(C)C
REMARK SMILES IDX 4 1 5 2 6 3 7 4 8 5 9 6 10 7 19 8 12 9 13 10 18 11 20 12
REMARK SMILES IDX 14 13 15 14 17 15 16 16 35 17 21 18 34 19 33 20 23 21 22 22
REMARK SMILES IDX 30 23 24 24 25 25 31 26 32 27 11 28 26 30 27 31 29 32 28 33
REMARK SMILES IDX 3 34 2 35 1 36 36 37 37 38 38 39
REMARK H PARENT 11 29
REMARK Flexibility Score: inf
ROOT
ATOM      1  C   UNL     1     148.789 144.479 148.726  1.00  0.00     0.014 C 
ENDROOT
BRANCH   1   2
ATOM      2  C   UNL     1     149.973 144.312 149.718  1.00  0.00     0.042 C 
BRANCH   2   3
ATOM      3  C   UNL     1     150.257 142.842 149.915  1.00  0.00     0.045 C 
ATOM      4  O   UNL     1     149.583 142.180 150.749  1.00  0.00    -0.550 OA
ATOM      5  O   UNL     1     151.229 142.193 149.166  1.00  0.00    -0.550 OA
ENDBRANCH   2   3
BRANCH   2   6
ATOM      6  C   UNL     1     151.253 145.147 149.349  1.00  0.00     0.033 C 
ATOM      7  C   UNL     1     151.304 145.501 147.852  1.00  0.00     0.119 C 
ATOM      8  C   UNL     1     151.494 146.513 150.095  1.00  0.00    -0.017 C 
ATOM      9  C   UNL     1     152.172 146.756 147.712  1.00  0.00     0.043 C 
ATOM     10  C   UNL     1     152.505 147.269 149.139  1.00  0.00    -0.003 C 
ATOM     11  C   UNL     1     150.180 147.355 150.314  1.00  0.00     0.012 C 
ATOM     12  C   UNL     1     152.103 146.275 151.507  1.00  0.00     0.013 C 
ATOM     13  C   UNL     1     153.985 146.859 149.416  1.00  0.00     0.017 C 
ATOM     14  C   UNL     1     152.299 148.807 149.182  1.00  0.00    -0.064 C 
ATOM     15  C   UNL     1     149.875 148.353 149.198  1.00  0.00     0.032 C 
ATOM     16  C   UNL     1     151.045 149.326 149.050  1.00  0.00    -0.064 C 
ATOM     17  C   UNL     1     153.446 149.776 149.341  1.00  0.00     0.032 C 
ATOM     18  C   UNL     1     150.867 150.864 148.867  1.00  0.00    -0.008 C 
ATOM     19  C   UNL     1     153.071 150.926 150.279  1.00  0.00     0.009 C 
ATOM     20  C   UNL     1     151.664 151.596 150.024  1.00  0.00     0.009 C 
ATOM     21  C   UNL     1     151.401 151.297 147.455  1.00  0.00     0.015 C 
ATOM     22  C   UNL     1     149.357 151.234 148.912  1.00  0.00     0.016 C 
ATOM     23  C   UNL     1     151.693 153.200 149.905  1.00  0.00     0.005 C 
ATOM     24  C   UNL     1     152.236 152.593 147.464  1.00  0.00     0.047 C 
ATOM     25  C   UNL     1     151.648 153.659 148.396  1.00  0.00     0.182 C 
ATOM     26  C   UNL     1     150.473 153.797 150.665  1.00  0.00     0.015 C 
ATOM     27  C   UNL     1     152.931 153.829 150.618  1.00  0.00     0.015 C 
BRANCH   7  28
ATOM     28  O   UNL     1     151.853 144.445 147.108  1.00  0.00    -0.393 OA
ATOM     29  H   UNL     1     151.671 144.646 146.153  1.00  0.00     0.210 HD
ENDBRANCH   7  28
BRANCH  25  30
ATOM     30  O   UNL     1     152.379 154.873 148.188  1.00  0.00    -0.462 OA
BRANCH  30  31
ATOM     31  C   UNL     1     151.857 156.008 147.556  1.00  0.00     0.302 C 
ATOM     32  O   UNL     1     152.300 156.394 146.442  1.00  0.00    -0.253 OA
ATOM     33  C   UNL     1     150.731 156.740 148.200  1.00  0.00     0.139 C 
ENDBRANCH  30  31
ENDBRANCH  25  30
ENDBRANCH   2   6
ENDBRANCH   1   2
BRANCH   1  34
ATOM     34  C   UNL     1     147.513 145.126 149.305  1.00  0.00     0.031 C 
BRANCH  34  35
ATOM     35  C   UNL     1     147.039 146.274 148.440  1.00  0.00    -0.075 C 
ATOM     36  C   UNL     1     147.400 146.322 147.143  1.00  0.00     0.008 C 
BRANCH  35  37
ATOM     37  C   UNL     1     146.150 147.351 149.048  1.00  0.00     0.008 C 
ATOM     38  C   UNL     1     146.293 148.686 148.304  1.00  0.00     0.012 C 
ATOM     39  C   UNL     1     146.432 147.523 150.547  1.00  0.00     0.012 C 
ENDBRANCH  35  37
ENDBRANCH  34  35
ENDBRANCH   1  34
TORSDOF 9
ENDMDL
MODEL 7
REMARK VINA RESULT:    -5.783      3.161      8.199
REMARK INTER + INTRA:         -11.157
REMARK INTER:                  -9.437
REMARK INTRA:                  -1.720
REMARK UNBOUND:                -2.500
REMARK SMILES C=C(CC[C@@H](C(=O)[O-])[C@H]1[C@H](O)C[C@@]2(C)C3=C(CC[C@@]12C)[C@]1(C)CC[C@H](OC(C)=O)C(C)(C)[C@@H]1CC3)C(C)C
REMARK SMILES IDX 4 1 5 2 6 3 7 4 8 5 9 6 10 7 19 8 12 9 13 10 18 11 20 12
REMARK SMILES IDX 14 13 15 14 17 15 16 16 35 17 21 18 34 19 33 20 23 21 22 22
REMARK SMILES IDX 30 23 24 24 25 25 31 26 32 27 11 28 26 30 27 31 29 32 28 33
REMARK SMILES IDX 3 34 2 35 1 36 36 37 37 38 38 39
REMARK H PARENT 11 29
REMARK Flexibility Score: inf
ROOT
ATOM      1  C   UNL     1     148.761 152.939 149.218  1.00  0.00     0.014 C 
ENDROOT
BRANCH   1   2
ATOM      2  C   UNL     1     150.293 153.190 149.129  1.00  0.00     0.042 C 
BRANCH   2   3
ATOM      3  C   UNL     1     150.570 154.662 149.321  1.00  0.00     0.045 C 
ATOM      4  O   UNL     1     151.114 155.323 148.397  1.00  0.00    -0.550 OA
ATOM      5  O   UNL     1     150.203 155.313 150.491  1.00  0.00    -0.550 OA
ENDBRANCH   2   3
BRANCH   2   6
ATOM      6  C   UNL     1     151.159 152.268 150.062  1.00  0.00     0.033 C 
ATOM      7  C   UNL     1     150.361 151.759 151.276  1.00  0.00     0.119 C 
ATOM      8  C   UNL     1     151.812 150.978 149.438  1.00  0.00    -0.017 C 
ATOM      9  C   UNL     1     151.028 150.461 151.744  1.00  0.00     0.043 C 
ATOM     10  C   UNL     1     152.123 150.085 150.709  1.00  0.00    -0.003 C 
ATOM     11  C   UNL     1     150.874 150.219 148.425  1.00  0.00     0.012 C 
ATOM     12  C   UNL     1     153.107 151.335 148.654  1.00  0.00     0.013 C 
ATOM     13  C   UNL     1     153.489 150.458 151.364  1.00  0.00     0.017 C 
ATOM     14  C   UNL     1     152.014 148.570 150.390  1.00  0.00    -0.064 C 
ATOM     15  C   UNL     1     150.015 149.124 149.057  1.00  0.00     0.032 C 
ATOM     16  C   UNL     1     150.918 148.093 149.732  1.00  0.00    -0.064 C 
ATOM     17  C   UNL     1     153.073 147.575 150.802  1.00  0.00     0.032 C 
ATOM     18  C   UNL     1     150.705 146.554 149.614  1.00  0.00    -0.008 C 
ATOM     19  C   UNL     1     153.322 146.545 149.697  1.00  0.00     0.009 C 
ATOM     20  C   UNL     1     152.034 145.912 149.038  1.00  0.00     0.009 C 
ATOM     21  C   UNL     1     150.357 145.954 151.023  1.00  0.00     0.015 C 
ATOM     22  C   UNL     1     149.496 146.254 148.683  1.00  0.00     0.016 C 
ATOM     23  C   UNL     1     152.030 144.305 148.976  1.00  0.00     0.005 C 
ATOM     24  C   UNL     1     151.081 144.632 151.346  1.00  0.00     0.047 C 
ATOM     25  C   UNL     1     151.150 143.694 150.135  1.00  0.00     0.182 C 
ATOM     26  C   UNL     1     151.469 143.842 147.600  1.00  0.00     0.015 C 
ATOM     27  C   UNL     1     153.469 143.702 149.023  1.00  0.00     0.015 C 
BRANCH   7  28
ATOM     28  O   UNL     1     150.367 152.708 152.310  1.00  0.00    -0.393 OA
ATOM     29  H   UNL     1     150.842 152.291 153.075  1.00  0.00     0.210 HD
ENDBRANCH   7  28
BRANCH  25  30
ATOM     30  O   UNL     1     151.664 142.435 150.585  1.00  0.00    -0.462 OA
BRANCH  30  31
ATOM     31  C   UNL     1     151.268 141.195 150.072  1.00  0.00     0.302 C 
ATOM     32  O   UNL     1     152.114 140.367 149.642  1.00  0.00    -0.253 OA
ATOM     33  C   UNL     1     149.821 140.839 150.077  1.00  0.00     0.139 C 
ENDBRANCH  30  31
ENDBRANCH  25  30
ENDBRANCH   2   6
ENDBRANCH   1   2
BRANCH   1  34
ATOM     34  C   UNL     1     148.098 152.366 147.947  1.00  0.00     0.031 C 
BRANCH  34  35
ATOM     35  C   UNL     1     146.870 151.551 148.290  1.00  0.00    -0.075 C 
ATOM     36  C   UNL     1     147.009 150.380 148.940  1.00  0.00     0.008 C 
BRANCH  35  37
ATOM     37  C   UNL     1     145.494 152.077 147.903  1.00  0.00     0.008 C 
ATOM     38  C   UNL     1     144.423 151.655 148.920  1.00  0.00     0.012 C 
ATOM     39  C   UNL     1     145.109 151.639 146.484  1.00  0.00     0.012 C 
ENDBRANCH  35  37
ENDBRANCH  34  35
ENDBRANCH   1  34
TORSDOF 9
ENDMDL
MODEL 8
REMARK VINA RESULT:    -5.680      4.799      6.971
REMARK INTER + INTRA:         -11.002
REMARK INTER:                  -8.516
REMARK INTRA:                  -2.486
REMARK UNBOUND:                -2.500
REMARK SMILES C=C(CC[C@@H](C(=O)[O-])[C@H]1[C@H](O)C[C@@]2(C)C3=C(CC[C@@]12C)[C@]1(C)CC[C@H](OC(C)=O)C(C)(C)[C@@H]1CC3)C(C)C
REMARK SMILES IDX 4 1 5 2 6 3 7 4 8 5 9 6 10 7 19 8 12 9 13 10 18 11 20 12
REMARK SMILES IDX 14 13 15 14 17 15 16 16 35 17 21 18 34 19 33 20 23 21 22 22
REMARK SMILES IDX 30 23 24 24 25 25 31 26 32 27 11 28 26 30 27 31 29 32 28 33
REMARK SMILES IDX 3 34 2 35 1 36 36 37 37 38 38 39
REMARK H PARENT 11 29
REMARK Flexibility Score: inf
ROOT
ATOM      1  C   UNL     1     154.462 145.786 149.370  1.00  0.00     0.014 C 
ENDROOT
BRANCH   1   2
ATOM      2  C   UNL     1     154.723 146.213 150.841  1.00  0.00     0.042 C 
BRANCH   2   3
ATOM      3  C   UNL     1     155.510 145.132 151.543  1.00  0.00     0.045 C 
ATOM      4  O   UNL     1     154.936 144.376 152.370  1.00  0.00    -0.550 OA
ATOM      5  O   UNL     1     156.856 144.932 151.267  1.00  0.00    -0.550 OA
ENDBRANCH   2   3
BRANCH   2   6
ATOM      6  C   UNL     1     155.355 147.644 151.001  1.00  0.00     0.033 C 
ATOM      7  C   UNL     1     156.166 148.062 149.762  1.00  0.00     0.119 C 
ATOM      8  C   UNL     1     154.391 148.858 151.282  1.00  0.00    -0.017 C 
ATOM      9  C   UNL     1     156.202 149.594 149.740  1.00  0.00     0.043 C 
ATOM     10  C   UNL     1     155.265 150.111 150.865  1.00  0.00    -0.003 C 
ATOM     11  C   UNL     1     153.047 148.803 150.461  1.00  0.00     0.012 C 
ATOM     12  C   UNL     1     153.986 148.910 152.783  1.00  0.00     0.013 C 
ATOM     13  C   UNL     1     156.195 150.585 152.025  1.00  0.00     0.017 C 
ATOM     14  C   UNL     1     154.389 151.262 150.301  1.00  0.00    -0.064 C 
ATOM     15  C   UNL     1     153.096 149.529 149.117  1.00  0.00     0.032 C 
ATOM     16  C   UNL     1     153.455 150.997 149.343  1.00  0.00    -0.064 C 
ATOM     17  C   UNL     1     154.542 152.695 150.754  1.00  0.00     0.032 C 
ATOM     18  C   UNL     1     152.741 152.179 148.621  1.00  0.00    -0.008 C 
ATOM     19  C   UNL     1     153.178 153.374 150.910  1.00  0.00     0.009 C 
ATOM     20  C   UNL     1     152.157 153.155 149.725  1.00  0.00     0.009 C 
ATOM     21  C   UNL     1     153.760 152.928 147.690  1.00  0.00     0.015 C 
ATOM     22  C   UNL     1     151.607 151.635 147.706  1.00  0.00     0.016 C 
ATOM     23  C   UNL     1     151.499 154.502 149.146  1.00  0.00     0.005 C 
ATOM     24  C   UNL     1     153.661 154.465 147.751  1.00  0.00     0.047 C 
ATOM     25  C   UNL     1     152.210 154.955 147.811  1.00  0.00     0.182 C 
ATOM     26  C   UNL     1     149.986 154.262 148.871  1.00  0.00     0.015 C 
ATOM     27  C   UNL     1     151.517 155.669 150.183  1.00  0.00     0.015 C 
BRANCH   7  28
ATOM     28  O   UNL     1     157.469 147.547 149.822  1.00  0.00    -0.393 OA
ATOM     29  H   UNL     1     157.912 147.984 150.596  1.00  0.00     0.210 HD
ENDBRANCH   7  28
BRANCH  25  30
ATOM     30  O   UNL     1     152.223 156.381 147.674  1.00  0.00    -0.462 OA
BRANCH  30  31
ATOM     31  C   UNL     1     151.513 157.083 146.693  1.00  0.00     0.302 C 
ATOM     32  O   UNL     1     151.998 157.269 145.546  1.00  0.00    -0.253 OA
ATOM     33  C   UNL     1     150.144 157.580 147.007  1.00  0.00     0.139 C 
ENDBRANCH  30  31
ENDBRANCH  25  30
ENDBRANCH   2   6
ENDBRANCH   1   2
BRANCH   1  34
ATOM     34  C   UNL     1     153.301 144.792 149.154  1.00  0.00     0.031 C 
BRANCH  34  35
ATOM     35  C   UNL     1     151.964 145.503 149.155  1.00  0.00    -0.075 C 
ATOM     36  C   UNL     1     151.197 145.475 150.261  1.00  0.00     0.008 C 
BRANCH  35  37
ATOM     37  C   UNL     1     151.515 146.249 147.905  1.00  0.00     0.008 C 
ATOM     38  C   UNL     1     150.388 147.243 148.217  1.00  0.00     0.012 C 
ATOM     39  C   UNL     1     151.099 145.275 146.795  1.00  0.00     0.012 C 
ENDBRANCH  35  37
ENDBRANCH  34  35
ENDBRANCH   1  34
TORSDOF 9
ENDMDL
MODEL 9
REMARK VINA RESULT:    -5.652      3.205      5.038
REMARK INTER + INTRA:         -10.961
REMARK INTER:                  -8.596
REMARK INTRA:                  -2.365
REMARK UNBOUND:                -2.500
REMARK SMILES C=C(CC[C@@H](C(=O)[O-])[C@H]1[C@H](O)C[C@@]2(C)C3=C(CC[C@@]12C)[C@]1(C)CC[C@H](OC(C)=O)C(C)(C)[C@@H]1CC3)C(C)C
REMARK SMILES IDX 4 1 5 2 6 3 7 4 8 5 9 6 10 7 19 8 12 9 13 10 18 11 20 12
REMARK SMILES IDX 14 13 15 14 17 15 16 16 35 17 21 18 34 19 33 20 23 21 22 22
REMARK SMILES IDX 30 23 24 24 25 25 31 26 32 27 11 28 26 30 27 31 29 32 28 33
REMARK SMILES IDX 3 34 2 35 1 36 36 37 37 38 38 39
REMARK H PARENT 11 29
REMARK Flexibility Score: inf
ROOT
ATOM      1  C   UNL     1     151.768 144.412 147.901  1.00  0.00     0.014 C 
ENDROOT
BRANCH   1   2
ATOM      2  C   UNL     1     151.773 144.628 149.440  1.00  0.00     0.042 C 
BRANCH   2   3
ATOM      3  C   UNL     1     151.800 143.286 150.132  1.00  0.00     0.045 C 
ATOM      4  O   UNL     1     152.902 142.774 150.465  1.00  0.00    -0.550 OA
ATOM      5  O   UNL     1     150.624 142.617 150.443  1.00  0.00    -0.550 OA
ENDBRANCH   2   3
BRANCH   2   6
ATOM      6  C   UNL     1     152.883 145.615 149.955  1.00  0.00     0.033 C 
ATOM      7  C   UNL     1     153.959 145.886 148.888  1.00  0.00     0.119 C 
ATOM      8  C   UNL     1     152.440 147.042 150.454  1.00  0.00    -0.017 C 
ATOM      9  C   UNL     1     154.592 147.242 149.218  1.00  0.00     0.043 C 
ATOM     10  C   UNL     1     153.783 147.878 150.380  1.00  0.00    -0.003 C 
ATOM     11  C   UNL     1     151.311 147.698 149.573  1.00  0.00     0.012 C 
ATOM     12  C   UNL     1     151.881 146.974 151.904  1.00  0.00     0.013 C 
ATOM     13  C   UNL     1     154.651 147.701 151.665  1.00  0.00     0.017 C 
ATOM     14  C   UNL     1     153.514 149.371 150.048  1.00  0.00    -0.064 C 
ATOM     15  C   UNL     1     151.828 148.577 148.434  1.00  0.00     0.032 C 
ATOM     16  C   UNL     1     152.696 149.697 149.008  1.00  0.00    -0.064 C 
ATOM     17  C   UNL     1     154.149 150.501 150.823  1.00  0.00     0.032 C 
ATOM     18  C   UNL     1     152.608 151.180 148.537  1.00  0.00    -0.008 C 
ATOM     19  C   UNL     1     153.150 151.639 151.058  1.00  0.00     0.009 C 
ATOM     20  C   UNL     1     152.302 152.085 149.802  1.00  0.00     0.009 C 
ATOM     21  C   UNL     1     153.958 151.604 147.856  1.00  0.00     0.015 C 
ATOM     22  C   UNL     1     151.493 151.333 147.464  1.00  0.00     0.016 C 
ATOM     23  C   UNL     1     152.310 153.666 149.512  1.00  0.00     0.005 C 
ATOM     24  C   UNL     1     154.459 153.004 148.261  1.00  0.00     0.047 C 
ATOM     25  C   UNL     1     153.321 154.027 148.355  1.00  0.00     0.182 C 
ATOM     26  C   UNL     1     150.878 154.125 149.110  1.00  0.00     0.015 C 
ATOM     27  C   UNL     1     152.635 154.505 150.787  1.00  0.00     0.015 C 
BRANCH   7  28
ATOM     28  O   UNL     1     154.936 144.879 148.898  1.00  0.00    -0.393 OA
ATOM     29  H   UNL     1     154.751 144.312 149.691  1.00  0.00     0.210 HD
ENDBRANCH   7  28
BRANCH  25  30
ATOM     30  O   UNL     1     153.909 155.320 148.547  1.00  0.00    -0.462 OA
BRANCH  30  31
ATOM     31  C   UNL     1     153.794 156.378 147.639  1.00  0.00     0.302 C 
ATOM     32  O   UNL     1     154.657 157.295 147.595  1.00  0.00    -0.253 OA
ATOM     33  C   UNL     1     152.651 156.391 146.683  1.00  0.00     0.139 C 
ENDBRANCH  30  31
ENDBRANCH  25  30
ENDBRANCH   2   6
ENDBRANCH   1   2
BRANCH   1  34
ATOM     34  C   UNL     1     150.735 145.243 147.109  1.00  0.00     0.031 C 
BRANCH  34  35
ATOM     35  C   UNL     1     149.325 144.957 147.578  1.00  0.00    -0.075 C 
ATOM     36  C   UNL     1     148.848 143.699 147.520  1.00  0.00     0.008 C 
BRANCH  35  37
ATOM     37  C   UNL     1     148.473 146.096 148.121  1.00  0.00     0.008 C 
ATOM     38  C   UNL     1     148.031 145.830 149.567  1.00  0.00     0.012 C 
ATOM     39  C   UNL     1     147.264 146.367 147.216  1.00  0.00     0.012 C 
ENDBRANCH  35  37
ENDBRANCH  34  35
ENDBRANCH   1  34
TORSDOF 9
ENDMDL
