MODEL 1
REMARK VINA RESULT:    -4.203      0.000      0.000
REMARK INTER + INTRA:          -6.790
REMARK INTER:                  -6.415
REMARK INTRA:                  -0.375
REMARK UNBOUND:                -0.375
REMARK SMILES CCCCCCCCCCC(=O)[O-]
REMARK SMILES IDX 7 1 8 2 9 3 10 4 11 5 12 6 13 7 6 8 5 9 4 10 3 11 2 12 1 13
REMARK H PARENT
REMARK Flexibility Score: inf
ROOT
ATOM      1  C   UNL     1      35.234  33.529  25.891  1.00  0.00     0.000 C 
ENDROOT
BRANCH   1   2
ATOM      2  C   UNL     1      36.467  33.085  26.692  1.00  0.00     0.000 C 
BRANCH   2   3
ATOM      3  C   UNL     1      36.753  34.061  27.844  1.00  0.00     0.006 C 
BRANCH   3   4
ATOM      4  C   UNL     1      35.867  35.311  27.780  1.00  0.00     0.053 C 
BRANCH   4   5
ATOM      5  C   UNL     1      36.191  36.278  28.877  1.00  0.00     0.041 C 
ATOM      6  O   UNL     1      36.727  37.386  28.609  1.00  0.00    -0.550 OA
ATOM      7  O   UNL     1      35.872  35.969  30.193  1.00  0.00    -0.550 OA
ENDBRANCH   4   5
ENDBRANCH   3   4
ENDBRANCH   2   3
ENDBRANCH   1   2
BRANCH   1   8
ATOM      8  C   UNL     1      34.256  32.374  25.621  1.00  0.00     0.000 C 
BRANCH   8   9
ATOM      9  C   UNL     1      34.332  31.859  24.176  1.00  0.00    -0.000 C 
BRANCH   9  10
ATOM     10  C   UNL     1      33.357  32.621  23.269  1.00  0.00    -0.000 C 
BRANCH  10  11
ATOM     11  C   UNL     1      32.854  31.725  22.127  1.00  0.00    -0.000 C 
BRANCH  11  12
ATOM     12  C   UNL     1      33.409  30.295  22.210  1.00  0.00    -0.003 C 
ATOM     13  C   UNL     1      32.499  29.267  21.538  1.00  0.00     0.004 C 
ENDBRANCH  11  12
ENDBRANCH  10  11
ENDBRANCH   9  10
ENDBRANCH   8   9
ENDBRANCH   1   8
TORSDOF 9
ENDMDL
MODEL 2
REMARK VINA RESULT:    -4.165      3.922      6.469
REMARK INTER + INTRA:          -6.732
REMARK INTER:                  -5.507
REMARK INTRA:                  -1.224
REMARK UNBOUND:                -0.375
REMARK SMILES CCCCCCCCCCC(=O)[O-]
REMARK SMILES IDX 7 1 8 2 9 3 10 4 11 5 12 6 13 7 6 8 5 9 4 10 3 11 2 12 1 13
REMARK H PARENT
REMARK Flexibility Score: inf
ROOT
ATOM      1  C   UNL     1      34.838  34.346  24.678  1.00  0.00     0.000 C 
ENDROOT
BRANCH   1   2
ATOM      2  C   UNL     1      33.946  33.394  25.489  1.00  0.00     0.000 C 
BRANCH   2   3
ATOM      3  C   UNL     1      34.360  31.931  25.266  1.00  0.00     0.006 C 
BRANCH   3   4
ATOM      4  C   UNL     1      34.923  31.694  23.859  1.00  0.00     0.053 C 
BRANCH   4   5
ATOM      5  C   UNL     1      33.894  31.109  22.941  1.00  0.00     0.041 C 
ATOM      6  O   UNL     1      33.014  31.846  22.423  1.00  0.00    -0.550 OA
ATOM      7  O   UNL     1      33.928  29.755  22.632  1.00  0.00    -0.550 OA
ENDBRANCH   4   5
ENDBRANCH   3   4
ENDBRANCH   2   3
ENDBRANCH   1   2
BRANCH   1   8
ATOM      8  C   UNL     1      35.247  35.596  25.472  1.00  0.00     0.000 C 
BRANCH   8   9
ATOM      9  C   UNL     1      35.019  35.439  26.983  1.00  0.00    -0.000 C 
BRANCH   9  10
ATOM     10  C   UNL     1      36.353  35.383  27.737  1.00  0.00    -0.000 C 
BRANCH  10  11
ATOM     11  C   UNL     1      36.881  33.943  27.814  1.00  0.00    -0.000 C 
BRANCH  11  12
ATOM     12  C   UNL     1      38.069  33.698  26.871  1.00  0.00    -0.003 C 
ATOM     13  C   UNL     1      37.960  32.373  26.115  1.00  0.00     0.004 C 
ENDBRANCH  11  12
ENDBRANCH  10  11
ENDBRANCH   9  10
ENDBRANCH   8   9
ENDBRANCH   1   8
TORSDOF 9
ENDMDL
MODEL 3
REMARK VINA RESULT:    -4.156      3.619      7.220
REMARK INTER + INTRA:          -6.718
REMARK INTER:                  -6.159
REMARK INTRA:                  -0.559
REMARK UNBOUND:                -0.375
REMARK SMILES CCCCCCCCCCC(=O)[O-]
REMARK SMILES IDX 7 1 8 2 9 3 10 4 11 5 12 6 13 7 6 8 5 9 4 10 3 11 2 12 1 13
REMARK H PARENT
REMARK Flexibility Score: inf
ROOT
ATOM      1  C   UNL     1      35.275  33.632  25.765  1.00  0.00     0.000 C 
ENDROOT
BRANCH   1   2
ATOM      2  C   UNL     1      34.055  32.710  25.629  1.00  0.00     0.000 C 
BRANCH   2   3
ATOM      3  C   UNL     1      34.352  31.544  24.672  1.00  0.00     0.006 C 
BRANCH   3   4
ATOM      4  C   UNL     1      34.655  32.024  23.247  1.00  0.00     0.053 C 
BRANCH   4   5
ATOM      5  C   UNL     1      33.408  32.416  22.517  1.00  0.00     0.041 C 
ATOM      6  O   UNL     1      33.187  33.626  22.241  1.00  0.00    -0.550 OA
ATOM      7  O   UNL     1      32.504  31.443  22.111  1.00  0.00    -0.550 OA
ENDBRANCH   4   5
ENDBRANCH   3   4
ENDBRANCH   2   3
ENDBRANCH   1   2
BRANCH   1   8
ATOM      8  C   UNL     1      36.234  33.185  26.879  1.00  0.00     0.000 C 
BRANCH   8   9
ATOM      9  C   UNL     1      36.825  34.367  27.663  1.00  0.00    -0.000 C 
BRANCH   9  10
ATOM     10  C   UNL     1      36.071  35.666  27.348  1.00  0.00    -0.000 C 
BRANCH  10  11
ATOM     11  C   UNL     1      35.267  36.144  28.567  1.00  0.00    -0.000 C 
BRANCH  11  12
ATOM     12  C   UNL     1      36.167  36.583  29.732  1.00  0.00    -0.003 C 
ATOM     13  C   UNL     1      37.150  37.686  29.338  1.00  0.00     0.004 C 
ENDBRANCH  11  12
ENDBRANCH  10  11
ENDBRANCH   9  10
ENDBRANCH   8   9
ENDBRANCH   1   8
TORSDOF 9
ENDMDL
MODEL 4
REMARK VINA RESULT:    -4.153      5.245      8.216
REMARK INTER + INTRA:          -6.713
REMARK INTER:                  -6.080
REMARK INTRA:                  -0.634
REMARK UNBOUND:                -0.375
REMARK SMILES CCCCCCCCCCC(=O)[O-]
REMARK SMILES IDX 7 1 8 2 9 3 10 4 11 5 12 6 13 7 6 8 5 9 4 10 3 11 2 12 1 13
REMARK H PARENT
REMARK Flexibility Score: inf
ROOT
ATOM      1  C   UNL     1      34.465  31.194  22.566  1.00  0.00     0.000 C 
ENDROOT
BRANCH   1   2
ATOM      2  C   UNL     1      33.938  29.759  22.419  1.00  0.00     0.000 C 
BRANCH   2   3
ATOM      3  C   UNL     1      32.537  29.752  21.787  1.00  0.00     0.006 C 
BRANCH   3   4
ATOM      4  C   UNL     1      32.397  28.680  20.699  1.00  0.00     0.053 C 
BRANCH   4   5
ATOM      5  C   UNL     1      33.190  29.024  19.476  1.00  0.00     0.041 C 
ATOM      6  O   UNL     1      32.981  30.107  18.868  1.00  0.00    -0.550 OA
ATOM      7  O   UNL     1      34.183  28.163  19.026  1.00  0.00    -0.550 OA
ENDBRANCH   4   5
ENDBRANCH   3   4
ENDBRANCH   2   3
ENDBRANCH   1   2
BRANCH   1   8
ATOM      8  C   UNL     1      33.344  32.216  22.813  1.00  0.00     0.000 C 
BRANCH   8   9
ATOM      9  C   UNL     1      33.564  33.041  24.090  1.00  0.00    -0.000 C 
BRANCH   9  10
ATOM     10  C   UNL     1      34.167  32.178  25.205  1.00  0.00    -0.000 C 
BRANCH  10  11
ATOM     11  C   UNL     1      35.200  32.972  26.018  1.00  0.00    -0.000 C 
BRANCH  11  12
ATOM     12  C   UNL     1      35.123  34.484  25.754  1.00  0.00    -0.003 C 
ATOM     13  C   UNL     1      35.328  35.317  27.019  1.00  0.00     0.004 C 
ENDBRANCH  11  12
ENDBRANCH  10  11
ENDBRANCH   9  10
ENDBRANCH   8   9
ENDBRANCH   1   8
TORSDOF 9
ENDMDL
MODEL 5
REMARK VINA RESULT:    -4.139      4.656      7.607
REMARK INTER + INTRA:          -6.692
REMARK INTER:                  -6.080
REMARK INTRA:                  -0.612
REMARK UNBOUND:                -0.375
REMARK SMILES CCCCCCCCCCC(=O)[O-]
REMARK SMILES IDX 7 1 8 2 9 3 10 4 11 5 12 6 13 7 6 8 5 9 4 10 3 11 2 12 1 13
REMARK H PARENT
REMARK Flexibility Score: inf
ROOT
ATOM      1  C   UNL     1      35.005  32.250  23.313  1.00  0.00     0.000 C 
ENDROOT
BRANCH   1   2
ATOM      2  C   UNL     1      33.871  32.782  22.425  1.00  0.00     0.000 C 
BRANCH   2   3
ATOM      3  C   UNL     1      32.793  31.708  22.210  1.00  0.00     0.006 C 
BRANCH   3   4
ATOM      4  C   UNL     1      33.085  30.828  20.989  1.00  0.00     0.053 C 
BRANCH   4   5
ATOM      5  C   UNL     1      33.018  29.370  21.326  1.00  0.00     0.041 C 
ATOM      6  O   UNL     1      32.670  28.532  20.453  1.00  0.00    -0.550 OA
ATOM      7  O   UNL     1      33.372  28.934  22.597  1.00  0.00    -0.550 OA
ENDBRANCH   4   5
ENDBRANCH   3   4
ENDBRANCH   2   3
ENDBRANCH   1   2
BRANCH   1   8
ATOM      8  C   UNL     1      34.492  31.624  24.620  1.00  0.00     0.000 C 
BRANCH   8   9
ATOM      9  C   UNL     1      34.070  32.677  25.656  1.00  0.00    -0.000 C 
BRANCH   9  10
ATOM     10  C   UNL     1      35.290  33.435  26.196  1.00  0.00    -0.000 C 
BRANCH  10  11
ATOM     11  C   UNL     1      34.986  34.933  26.343  1.00  0.00    -0.000 C 
BRANCH  11  12
ATOM     12  C   UNL     1      35.716  35.570  27.536  1.00  0.00    -0.003 C 
ATOM     13  C   UNL     1      36.681  34.603  28.222  1.00  0.00     0.004 C 
ENDBRANCH  11  12
ENDBRANCH  10  11
ENDBRANCH   9  10
ENDBRANCH   8   9
ENDBRANCH   1   8
TORSDOF 9
ENDMDL
MODEL 6
REMARK VINA RESULT:    -4.139      0.897      1.455
REMARK INTER + INTRA:          -6.692
REMARK INTER:                  -6.096
REMARK INTRA:                  -0.595
REMARK UNBOUND:                -0.375
REMARK SMILES CCCCCCCCCCC(=O)[O-]
REMARK SMILES IDX 7 1 8 2 9 3 10 4 11 5 12 6 13 7 6 8 5 9 4 10 3 11 2 12 1 13
REMARK H PARENT
REMARK Flexibility Score: inf
ROOT
ATOM      1  C   UNL     1      36.212  33.780  25.534  1.00  0.00     0.000 C 
ENDROOT
BRANCH   1   2
ATOM      2  C   UNL     1      37.199  33.584  26.693  1.00  0.00     0.000 C 
BRANCH   2   3
ATOM      3  C   UNL     1      36.607  34.104  28.013  1.00  0.00     0.006 C 
BRANCH   3   4
ATOM      4  C   UNL     1      37.260  35.416  28.466  1.00  0.00     0.053 C 
BRANCH   4   5
ATOM      5  C   UNL     1      36.240  36.478  28.739  1.00  0.00     0.041 C 
ATOM      6  O   UNL     1      35.019  36.257  28.521  1.00  0.00    -0.550 OA
ATOM      7  O   UNL     1      36.634  37.701  29.265  1.00  0.00    -0.550 OA
ENDBRANCH   4   5
ENDBRANCH   3   4
ENDBRANCH   2   3
ENDBRANCH   1   2
BRANCH   1   8
ATOM      8  C   UNL     1      34.747  33.797  25.999  1.00  0.00     0.000 C 
BRANCH   8   9
ATOM      9  C   UNL     1      33.987  32.520  25.611  1.00  0.00    -0.000 C 
BRANCH   9  10
ATOM     10  C   UNL     1      34.370  32.060  24.199  1.00  0.00    -0.000 C 
BRANCH  10  11
ATOM     11  C   UNL     1      33.433  32.673  23.148  1.00  0.00    -0.000 C 
BRANCH  11  12
ATOM     12  C   UNL     1      32.873  31.625  22.173  1.00  0.00    -0.003 C 
ATOM     13  C   UNL     1      33.630  30.298  22.233  1.00  0.00     0.004 C 
ENDBRANCH  11  12
ENDBRANCH  10  11
ENDBRANCH   9  10
ENDBRANCH   8   9
ENDBRANCH   1   8
TORSDOF 9
ENDMDL
MODEL 7
REMARK VINA RESULT:    -4.137      5.891      8.811
REMARK INTER + INTRA:          -6.688
REMARK INTER:                  -6.089
REMARK INTRA:                  -0.599
REMARK UNBOUND:                -0.375
REMARK SMILES CCCCCCCCCCC(=O)[O-]
REMARK SMILES IDX 7 1 8 2 9 3 10 4 11 5 12 6 13 7 6 8 5 9 4 10 3 11 2 12 1 13
REMARK H PARENT
REMARK Flexibility Score: inf
ROOT
ATOM      1  C   UNL     1      32.523  30.854  21.811  1.00  0.00     0.000 C 
ENDROOT
BRANCH   1   2
ATOM      2  C   UNL     1      32.844  29.360  21.965  1.00  0.00     0.000 C 
BRANCH   2   3
ATOM      3  C   UNL     1      32.633  28.614  20.638  1.00  0.00     0.006 C 
BRANCH   3   4
ATOM      4  C   UNL     1      33.410  29.253  19.481  1.00  0.00     0.053 C 
BRANCH   4   5
ATOM      5  C   UNL     1      33.884  28.228  18.497  1.00  0.00     0.041 C 
ATOM      6  O   UNL     1      35.059  27.780  18.563  1.00  0.00    -0.550 OA
ATOM      7  O   UNL     1      33.016  27.742  17.527  1.00  0.00    -0.550 OA
ENDBRANCH   4   5
ENDBRANCH   3   4
ENDBRANCH   2   3
ENDBRANCH   1   2
BRANCH   1   8
ATOM      8  C   UNL     1      33.624  31.759  22.385  1.00  0.00     0.000 C 
BRANCH   8   9
ATOM      9  C   UNL     1      34.790  30.964  22.991  1.00  0.00    -0.000 C 
BRANCH   9  10
ATOM     10  C   UNL     1      35.348  31.667  24.234  1.00  0.00    -0.000 C 
BRANCH  10  11
ATOM     11  C   UNL     1      34.222  32.029  25.214  1.00  0.00    -0.000 C 
BRANCH  11  12
ATOM     12  C   UNL     1      34.343  33.464  25.749  1.00  0.00    -0.003 C 
ATOM     13  C   UNL     1      35.687  33.730  26.429  1.00  0.00     0.004 C 
ENDBRANCH  11  12
ENDBRANCH  10  11
ENDBRANCH   9  10
ENDBRANCH   8   9
ENDBRANCH   1   8
TORSDOF 9
ENDMDL
MODEL 8
REMARK VINA RESULT:    -4.134      1.381      2.464
REMARK INTER + INTRA:          -6.685
REMARK INTER:                  -6.154
REMARK INTRA:                  -0.531
REMARK UNBOUND:                -0.375
REMARK SMILES CCCCCCCCCCC(=O)[O-]
REMARK SMILES IDX 7 1 8 2 9 3 10 4 11 5 12 6 13 7 6 8 5 9 4 10 3 11 2 12 1 13
REMARK H PARENT
REMARK Flexibility Score: inf
ROOT
ATOM      1  C   UNL     1      33.642  33.105  24.072  1.00  0.00     0.000 C 
ENDROOT
BRANCH   1   2
ATOM      2  C   UNL     1      34.063  32.230  25.262  1.00  0.00     0.000 C 
BRANCH   2   3
ATOM      3  C   UNL     1      35.225  32.876  26.034  1.00  0.00     0.006 C 
BRANCH   3   4
ATOM      4  C   UNL     1      35.081  34.400  26.133  1.00  0.00     0.053 C 
BRANCH   4   5
ATOM      5  C   UNL     1      35.793  34.947  27.331  1.00  0.00     0.041 C 
ATOM      6  O   UNL     1      35.591  36.134  27.702  1.00  0.00    -0.550 OA
ATOM      7  O   UNL     1      36.656  34.137  28.058  1.00  0.00    -0.550 OA
ENDBRANCH   4   5
ENDBRANCH   3   4
ENDBRANCH   2   3
ENDBRANCH   1   2
BRANCH   1   8
ATOM      8  C   UNL     1      33.264  32.278  22.833  1.00  0.00     0.000 C 
BRANCH   8   9
ATOM      9  C   UNL     1      34.381  31.318  22.397  1.00  0.00    -0.000 C 
BRANCH   9  10
ATOM     10  C   UNL     1      33.903  29.861  22.444  1.00  0.00    -0.000 C 
BRANCH  10  11
ATOM     11  C   UNL     1      32.562  29.699  21.712  1.00  0.00    -0.000 C 
BRANCH  11  12
ATOM     12  C   UNL     1      32.614  28.623  20.616  1.00  0.00    -0.003 C 
ATOM     13  C   UNL     1      33.465  29.042  19.416  1.00  0.00     0.004 C 
ENDBRANCH  11  12
ENDBRANCH  10  11
ENDBRANCH   9  10
ENDBRANCH   8   9
ENDBRANCH   1   8
TORSDOF 9
ENDMDL
MODEL 9
REMARK VINA RESULT:    -4.061      1.413      2.205
REMARK INTER + INTRA:          -6.573
REMARK INTER:                  -6.051
REMARK INTRA:                  -0.522
REMARK UNBOUND:                -0.375
REMARK SMILES CCCCCCCCCCC(=O)[O-]
REMARK SMILES IDX 7 1 8 2 9 3 10 4 11 5 12 6 13 7 6 8 5 9 4 10 3 11 2 12 1 13
REMARK H PARENT
REMARK Flexibility Score: inf
ROOT
ATOM      1  C   UNL     1      36.168  33.903  26.740  1.00  0.00     0.000 C 
ENDROOT
BRANCH   1   2
ATOM      2  C   UNL     1      36.639  34.503  28.073  1.00  0.00     0.000 C 
BRANCH   2   3
ATOM      3  C   UNL     1      35.840  35.770  28.417  1.00  0.00     0.006 C 
BRANCH   3   4
ATOM      4  C   UNL     1      36.364  36.462  29.681  1.00  0.00     0.053 C 
BRANCH   4   5
ATOM      5  C   UNL     1      37.399  37.495  29.360  1.00  0.00     0.041 C 
ATOM      6  O   UNL     1      37.052  38.646  28.984  1.00  0.00    -0.550 OA
ATOM      7  O   UNL     1      38.748  37.197  29.507  1.00  0.00    -0.550 OA
ENDBRANCH   4   5
ENDBRANCH   3   4
ENDBRANCH   2   3
ENDBRANCH   1   2
BRANCH   1   8
ATOM      8  C   UNL     1      34.783  34.416  26.315  1.00  0.00     0.000 C 
BRANCH   8   9
ATOM      9  C   UNL     1      34.165  33.584  25.182  1.00  0.00    -0.000 C 
BRANCH   9  10
ATOM     10  C   UNL     1      34.322  32.083  25.453  1.00  0.00    -0.000 C 
BRANCH  10  11
ATOM     11  C   UNL     1      34.421  31.293  24.139  1.00  0.00    -0.000 C 
BRANCH  11  12
ATOM     12  C   UNL     1      34.163  32.169  22.903  1.00  0.00    -0.003 C 
ATOM     13  C   UNL     1      32.892  31.773  22.152  1.00  0.00     0.004 C 
ENDBRANCH  11  12
ENDBRANCH  10  11
ENDBRANCH   9  10
ENDBRANCH   8   9
ENDBRANCH   1   8
TORSDOF 9
ENDMDL
