MODEL 1
REMARK VINA RESULT:    -3.448      0.000      0.000
REMARK INTER + INTRA:          -5.019
REMARK INTER:                  -4.456
REMARK INTRA:                  -0.564
REMARK UNBOUND:                -0.564
REMARK SMILES C=CC(=O)CCCCC
REMARK SMILES IDX 6 1 7 2 8 3 9 4 5 5 3 6 4 7 2 8 1 9
REMARK H PARENT
REMARK Flexibility Score: inf
ROOT
ATOM      1  C   UNL     1     -59.633 -75.190 216.834  1.00  0.00     0.008 C 
ENDROOT
BRANCH   1   2
ATOM      2  C   UNL     1     -59.398 -76.261 217.906  1.00  0.00     0.000 C 
BRANCH   2   3
ATOM      3  C   UNL     1     -58.575 -77.427 217.348  1.00  0.00    -0.003 C 
ATOM      4  C   UNL     1     -57.150 -77.408 217.895  1.00  0.00     0.004 C 
ENDBRANCH   2   3
ENDBRANCH   1   2
BRANCH   1   5
ATOM      5  C   UNL     1     -58.499 -74.154 216.831  1.00  0.00     0.080 C 
BRANCH   5   6
ATOM      6  C   UNL     1     -57.860 -73.980 215.473  1.00  0.00     0.155 C 
ATOM      7  O   UNL     1     -57.401 -72.856 215.129  1.00  0.00    -0.295 OA
BRANCH   6   8
ATOM      8  C   UNL     1     -57.754 -75.098 214.513  1.00  0.00     0.039 C 
ATOM      9  C   UNL     1     -56.704 -75.916 214.447  1.00  0.00     0.012 C 
ENDBRANCH   6   8
ENDBRANCH   5   6
ENDBRANCH   1   5
TORSDOF 5
ENDMDL
MODEL 2
REMARK VINA RESULT:    -3.431     12.003     13.334
REMARK INTER + INTRA:          -4.998
REMARK INTER:                  -4.774
REMARK INTRA:                  -0.225
REMARK UNBOUND:                -0.564
REMARK SMILES C=CC(=O)CCCCC
REMARK SMILES IDX 6 1 7 2 8 3 9 4 5 5 3 6 4 7 2 8 1 9
REMARK H PARENT
REMARK Flexibility Score: inf
ROOT
ATOM      1  C   UNL     1     -70.949 -74.348 216.486  1.00  0.00     0.008 C 
ENDROOT
BRANCH   1   2
ATOM      2  C   UNL     1     -69.612 -75.077 216.668  1.00  0.00     0.000 C 
BRANCH   2   3
ATOM      3  C   UNL     1     -68.677 -74.817 215.483  1.00  0.00    -0.003 C 
ATOM      4  C   UNL     1     -67.232 -74.652 215.946  1.00  0.00     0.004 C 
ENDBRANCH   2   3
ENDBRANCH   1   2
BRANCH   1   5
ATOM      5  C   UNL     1     -71.228 -74.070 215.002  1.00  0.00     0.080 C 
BRANCH   5   6
ATOM      6  C   UNL     1     -72.028 -72.808 214.777  1.00  0.00     0.155 C 
ATOM      7  O   UNL     1     -71.511 -71.833 214.165  1.00  0.00    -0.295 OA
BRANCH   6   8
ATOM      8  C   UNL     1     -73.418 -72.670 215.257  1.00  0.00     0.039 C 
ATOM      9  C   UNL     1     -74.368 -73.577 215.038  1.00  0.00     0.012 C 
ENDBRANCH   6   8
ENDBRANCH   5   6
ENDBRANCH   1   5
TORSDOF 5
ENDMDL
MODEL 3
REMARK VINA RESULT:    -3.412      7.811      9.684
REMARK INTER + INTRA:          -4.973
REMARK INTER:                  -4.367
REMARK INTRA:                  -0.606
REMARK UNBOUND:                -0.564
REMARK SMILES C=CC(=O)CCCCC
REMARK SMILES IDX 6 1 7 2 8 3 9 4 5 5 3 6 4 7 2 8 1 9
REMARK H PARENT
REMARK Flexibility Score: inf
ROOT
ATOM      1  C   UNL     1     -62.196 -78.021 222.120  1.00  0.00     0.008 C 
ENDROOT
BRANCH   1   2
ATOM      2  C   UNL     1     -61.832 -76.572 221.774  1.00  0.00     0.000 C 
BRANCH   2   3
ATOM      3  C   UNL     1     -63.037 -75.825 221.194  1.00  0.00    -0.003 C 
ATOM      4  C   UNL     1     -63.605 -74.828 222.201  1.00  0.00     0.004 C 
ENDBRANCH   2   3
ENDBRANCH   1   2
BRANCH   1   5
ATOM      5  C   UNL     1     -62.395 -78.194 223.633  1.00  0.00     0.080 C 
BRANCH   5   6
ATOM      6  C   UNL     1     -63.849 -78.157 224.046  1.00  0.00     0.155 C 
ATOM      7  O   UNL     1     -64.161 -77.879 225.237  1.00  0.00    -0.295 OA
BRANCH   6   8
ATOM      8  C   UNL     1     -64.938 -78.441 223.090  1.00  0.00     0.039 C 
ATOM      9  C   UNL     1     -66.023 -77.679 222.959  1.00  0.00     0.012 C 
ENDBRANCH   6   8
ENDBRANCH   5   6
ENDBRANCH   1   5
TORSDOF 5
ENDMDL
MODEL 4
REMARK VINA RESULT:    -3.395      8.452     10.455
REMARK INTER + INTRA:          -4.951
REMARK INTER:                  -4.694
REMARK INTRA:                  -0.257
REMARK UNBOUND:                -0.564
REMARK SMILES C=CC(=O)CCCCC
REMARK SMILES IDX 6 1 7 2 8 3 9 4 5 5 3 6 4 7 2 8 1 9
REMARK H PARENT
REMARK Flexibility Score: inf
ROOT
ATOM      1  C   UNL     1     -63.921 -77.295 223.246  1.00  0.00     0.008 C 
ENDROOT
BRANCH   1   2
ATOM      2  C   UNL     1     -62.664 -77.023 222.410  1.00  0.00     0.000 C 
BRANCH   2   3
ATOM      3  C   UNL     1     -62.867 -75.815 221.490  1.00  0.00    -0.003 C 
ATOM      4  C   UNL     1     -63.613 -74.693 222.208  1.00  0.00     0.004 C 
ENDBRANCH   2   3
ENDBRANCH   1   2
BRANCH   1   5
ATOM      5  C   UNL     1     -63.835 -78.661 223.943  1.00  0.00     0.080 C 
BRANCH   5   6
ATOM      6  C   UNL     1     -63.668 -78.550 225.442  1.00  0.00     0.155 C 
ATOM      7  O   UNL     1     -64.535 -77.946 226.131  1.00  0.00    -0.295 OA
BRANCH   6   8
ATOM      8  C   UNL     1     -62.505 -79.134 226.141  1.00  0.00     0.039 C 
ATOM      9  C   UNL     1     -61.252 -79.030 225.702  1.00  0.00     0.012 C 
ENDBRANCH   6   8
ENDBRANCH   5   6
ENDBRANCH   1   5
TORSDOF 5
ENDMDL
MODEL 5
REMARK VINA RESULT:    -3.354      4.189      6.208
REMARK INTER + INTRA:          -4.898
REMARK INTER:                  -4.759
REMARK INTRA:                  -0.140
REMARK UNBOUND:                -0.564
REMARK SMILES C=CC(=O)CCCCC
REMARK SMILES IDX 6 1 7 2 8 3 9 4 5 5 3 6 4 7 2 8 1 9
REMARK H PARENT
REMARK Flexibility Score: inf
ROOT
ATOM      1  C   UNL     1     -60.903 -76.297 218.609  1.00  0.00     0.008 C 
ENDROOT
BRANCH   1   2
ATOM      2  C   UNL     1     -59.509 -76.368 217.974  1.00  0.00     0.000 C 
BRANCH   2   3
ATOM      3  C   UNL     1     -59.403 -75.425 216.771  1.00  0.00    -0.003 C 
ATOM      4  C   UNL     1     -58.280 -74.410 216.963  1.00  0.00     0.004 C 
ENDBRANCH   2   3
ENDBRANCH   1   2
BRANCH   1   5
ATOM      5  C   UNL     1     -61.025 -77.278 219.784  1.00  0.00     0.080 C 
BRANCH   5   6
ATOM      6  C   UNL     1     -61.694 -76.670 220.995  1.00  0.00     0.155 C 
ATOM      7  O   UNL     1     -61.121 -76.708 222.119  1.00  0.00    -0.295 OA
BRANCH   6   8
ATOM      8  C   UNL     1     -63.019 -76.023 220.911  1.00  0.00     0.039 C 
ATOM      9  C   UNL     1     -63.464 -75.135 221.799  1.00  0.00     0.012 C 
ENDBRANCH   6   8
ENDBRANCH   5   6
ENDBRANCH   1   5
TORSDOF 5
ENDMDL
MODEL 6
REMARK VINA RESULT:    -3.344      9.649     11.622
REMARK INTER + INTRA:          -4.886
REMARK INTER:                  -4.618
REMARK INTRA:                  -0.268
REMARK UNBOUND:                -0.564
REMARK SMILES C=CC(=O)CCCCC
REMARK SMILES IDX 6 1 7 2 8 3 9 4 5 5 3 6 4 7 2 8 1 9
REMARK H PARENT
REMARK Flexibility Score: inf
ROOT
ATOM      1  C   UNL     1     -65.933 -76.977 222.914  1.00  0.00     0.008 C 
ENDROOT
BRANCH   1   2
ATOM      2  C   UNL     1     -64.427 -77.246 222.795  1.00  0.00     0.000 C 
BRANCH   2   3
ATOM      3  C   UNL     1     -63.798 -76.380 221.698  1.00  0.00    -0.003 C 
ATOM      4  C   UNL     1     -63.597 -74.945 222.177  1.00  0.00     0.004 C 
ENDBRANCH   2   3
ENDBRANCH   1   2
BRANCH   1   5
ATOM      5  C   UNL     1     -66.630 -78.086 223.714  1.00  0.00     0.080 C 
BRANCH   5   6
ATOM      6  C   UNL     1     -66.792 -77.748 225.177  1.00  0.00     0.155 C 
ATOM      7  O   UNL     1     -67.594 -76.840 225.531  1.00  0.00    -0.295 OA
BRANCH   6   8
ATOM      8  C   UNL     1     -66.031 -78.453 226.229  1.00  0.00     0.039 C 
ATOM      9  C   UNL     1     -64.701 -78.529 226.253  1.00  0.00     0.012 C 
ENDBRANCH   6   8
ENDBRANCH   5   6
ENDBRANCH   1   5
TORSDOF 5
ENDMDL
MODEL 7
REMARK VINA RESULT:    -3.339     12.172     13.705
REMARK INTER + INTRA:          -4.879
REMARK INTER:                  -4.366
REMARK INTRA:                  -0.513
REMARK UNBOUND:                -0.564
REMARK SMILES C=CC(=O)CCCCC
REMARK SMILES IDX 6 1 7 2 8 3 9 4 5 5 3 6 4 7 2 8 1 9
REMARK H PARENT
REMARK Flexibility Score: inf
ROOT
ATOM      1  C   UNL     1     -71.842 -74.747 214.479  1.00  0.00     0.008 C 
ENDROOT
BRANCH   1   2
ATOM      2  C   UNL     1     -73.021 -73.939 215.033  1.00  0.00     0.000 C 
BRANCH   2   3
ATOM      3  C   UNL     1     -72.621 -72.482 215.287  1.00  0.00    -0.003 C 
ATOM      4  C   UNL     1     -71.357 -72.116 214.513  1.00  0.00     0.004 C 
ENDBRANCH   2   3
ENDBRANCH   1   2
BRANCH   1   5
ATOM      5  C   UNL     1     -71.287 -75.712 215.537  1.00  0.00     0.080 C 
BRANCH   5   6
ATOM      6  C   UNL     1     -70.220 -75.087 216.405  1.00  0.00     0.155 C 
ATOM      7  O   UNL     1     -69.030 -75.011 215.990  1.00  0.00    -0.295 OA
BRANCH   6   8
ATOM      8  C   UNL     1     -70.522 -74.553 217.749  1.00  0.00     0.039 C 
ATOM      9  C   UNL     1     -71.343 -75.150 218.613  1.00  0.00     0.012 C 
ENDBRANCH   6   8
ENDBRANCH   5   6
ENDBRANCH   1   5
TORSDOF 5
ENDMDL
MODEL 8
REMARK VINA RESULT:    -3.315     11.491     12.901
REMARK INTER + INTRA:          -4.848
REMARK INTER:                  -4.510
REMARK INTRA:                  -0.338
REMARK UNBOUND:                -0.564
REMARK SMILES C=CC(=O)CCCCC
REMARK SMILES IDX 6 1 7 2 8 3 9 4 5 5 3 6 4 7 2 8 1 9
REMARK H PARENT
REMARK Flexibility Score: inf
ROOT
ATOM      1  C   UNL     1     -71.704 -74.956 214.489  1.00  0.00     0.008 C 
ENDROOT
BRANCH   1   2
ATOM      2  C   UNL     1     -72.655 -74.179 215.408  1.00  0.00     0.000 C 
BRANCH   2   3
ATOM      3  C   UNL     1     -72.748 -72.708 214.988  1.00  0.00    -0.003 C 
ATOM      4  C   UNL     1     -71.378 -72.157 214.602  1.00  0.00     0.004 C 
ENDBRANCH   2   3
ENDBRANCH   1   2
BRANCH   1   5
ATOM      5  C   UNL     1     -70.779 -75.874 215.301  1.00  0.00     0.080 C 
BRANCH   5   6
ATOM      6  C   UNL     1     -69.692 -75.120 216.033  1.00  0.00     0.155 C 
ATOM      7  O   UNL     1     -69.845 -74.810 217.246  1.00  0.00    -0.295 OA
BRANCH   6   8
ATOM      8  C   UNL     1     -68.434 -74.726 215.367  1.00  0.00     0.039 C 
ATOM      9  C   UNL     1     -67.249 -74.710 215.977  1.00  0.00     0.012 C 
ENDBRANCH   6   8
ENDBRANCH   5   6
ENDBRANCH   1   5
TORSDOF 5
ENDMDL
MODEL 9
REMARK VINA RESULT:    -3.303     10.785     12.088
REMARK INTER + INTRA:          -4.833
REMARK INTER:                  -4.563
REMARK INTRA:                  -0.270
REMARK UNBOUND:                -0.564
REMARK SMILES C=CC(=O)CCCCC
REMARK SMILES IDX 6 1 7 2 8 3 9 4 5 5 3 6 4 7 2 8 1 9
REMARK H PARENT
REMARK Flexibility Score: inf
ROOT
ATOM      1  C   UNL     1     -69.234 -75.563 215.997  1.00  0.00     0.008 C 
ENDROOT
BRANCH   1   2
ATOM      2  C   UNL     1     -68.208 -74.826 215.126  1.00  0.00     0.000 C 
BRANCH   2   3
ATOM      3  C   UNL     1     -66.884 -74.638 215.875  1.00  0.00    -0.003 C 
ATOM      4  C   UNL     1     -66.153 -75.967 216.043  1.00  0.00     0.004 C 
ENDBRANCH   2   3
ENDBRANCH   1   2
BRANCH   1   5
ATOM      5  C   UNL     1     -70.484 -74.701 216.225  1.00  0.00     0.080 C 
BRANCH   5   6
ATOM      6  C   UNL     1     -71.348 -74.575 214.992  1.00  0.00     0.155 C 
ATOM      7  O   UNL     1     -71.558 -75.582 214.261  1.00  0.00    -0.295 OA
BRANCH   6   8
ATOM      8  C   UNL     1     -71.967 -73.292 214.602  1.00  0.00     0.039 C 
ATOM      9  C   UNL     1     -71.331 -72.122 214.646  1.00  0.00     0.012 C 
ENDBRANCH   6   8
ENDBRANCH   5   6
ENDBRANCH   1   5
TORSDOF 5
ENDMDL
