MODEL 1
REMARK VINA RESULT:    -6.204      0.000      0.000
REMARK INTER + INTRA:          -9.454
REMARK INTER:                  -8.743
REMARK INTRA:                  -0.711
REMARK UNBOUND:                -0.711
REMARK SMILES COc1ccc(-c2cc(=O)c3c(OC)c(OC)c(OC)c(OC)c3o2)cc1OC
REMARK SMILES IDX 7 1 8 2 9 3 10 4 11 5 24 6 25 7 21 8 18 9 15 10 12 11 6 12
REMARK SMILES IDX 3 13 27 14 4 15 26 16 5 17 2 18 1 19 28 20 29 21 22 22 23 23
REMARK SMILES IDX 13 24 14 25 19 26 20 27 16 28 17 29
REMARK H PARENT
REMARK Flexibility Score: inf
ROOT
ATOM      1  C   UNL     1      -2.766  -3.832  -4.742  1.00  0.00     0.138 A 
ATOM      2  C   UNL     1      -2.795  -2.453  -4.490  1.00  0.00     0.100 A 
ATOM      3  C   UNL     1      -3.992  -1.754  -4.641  1.00  0.00     0.197 A 
ATOM      4  O   UNL     1      -3.998  -0.515  -4.408  1.00  0.00    -0.289 OA
ATOM      5  C   UNL     1      -5.160  -2.438  -5.051  1.00  0.00     0.115 A 
ATOM      6  C   UNL     1      -5.041  -3.821  -5.309  1.00  0.00     0.188 A 
ATOM      7  O   UNL     1      -3.877  -4.442  -5.143  1.00  0.00    -0.452 OA
ATOM      8  C   UNL     1      -6.140  -4.566  -5.738  1.00  0.00     0.209 A 
ATOM      9  C   UNL     1      -7.373  -3.922  -5.966  1.00  0.00     0.211 A 
ATOM     10  C   UNL     1      -7.540  -2.558  -5.624  1.00  0.00     0.208 A 
ATOM     11  C   UNL     1      -6.418  -1.801  -5.192  1.00  0.00     0.179 A 
ENDROOT
BRANCH   1  12
ATOM     12  C   UNL     1      -1.526  -4.637  -4.585  1.00  0.00     0.021 A 
ATOM     13  C   UNL     1       0.835  -6.143  -4.216  1.00  0.00     0.160 A 
ATOM     14  C   UNL     1      -0.077  -6.002  -3.159  1.00  0.00     0.161 A 
ATOM     15  C   UNL     1       0.568  -5.525  -5.449  1.00  0.00     0.051 A 
ATOM     16  C   UNL     1      -1.251  -5.247  -3.348  1.00  0.00     0.062 A 
ATOM     17  C   UNL     1      -0.597  -4.777  -5.630  1.00  0.00     0.016 A 
BRANCH  13  18
ATOM     18  O   UNL     1       1.997  -6.902  -3.998  1.00  0.00    -0.493 OA
ATOM     19  C   UNL     1       2.204  -8.220  -4.495  1.00  0.00     0.278 C 
ENDBRANCH  13  18
BRANCH  14  20
ATOM     20  O   UNL     1       0.220  -6.625  -1.936  1.00  0.00    -0.493 OA
ATOM     21  C   UNL     1      -0.252  -7.911  -1.549  1.00  0.00     0.278 C 
ENDBRANCH  14  20
ENDBRANCH   1  12
BRANCH   8  22
ATOM     22  O   UNL     1      -5.952  -5.947  -5.930  1.00  0.00    -0.490 OA
ATOM     23  C   UNL     1      -5.462  -6.546  -7.125  1.00  0.00     0.278 C 
ENDBRANCH   8  22
BRANCH  11  24
ATOM     24  O   UNL     1      -6.498  -0.426  -4.883  1.00  0.00    -0.492 OA
ATOM     25  C   UNL     1      -7.124   0.176  -3.754  1.00  0.00     0.278 C 
ENDBRANCH  11  24
BRANCH   9  26
ATOM     26  O   UNL     1      -8.407  -4.620  -6.588  1.00  0.00    -0.490 OA
ATOM     27  C   UNL     1      -9.351  -5.362  -5.826  1.00  0.00     0.279 C 
ENDBRANCH   9  26
BRANCH  10  28
ATOM     28  O   UNL     1      -8.794  -1.925  -5.701  1.00  0.00    -0.490 OA
ATOM     29  C   UNL     1      -9.325  -1.225  -6.824  1.00  0.00     0.278 C 
ENDBRANCH  10  28
TORSDOF 7
ENDMDL
MODEL 2
REMARK VINA RESULT:    -6.115      1.646      3.747
REMARK INTER + INTRA:          -9.329
REMARK INTER:                  -8.553
REMARK INTRA:                  -0.776
REMARK UNBOUND:                -0.711
REMARK SMILES COc1ccc(-c2cc(=O)c3c(OC)c(OC)c(OC)c(OC)c3o2)cc1OC
REMARK SMILES IDX 7 1 8 2 9 3 10 4 11 5 24 6 25 7 21 8 18 9 15 10 12 11 6 12
REMARK SMILES IDX 3 13 27 14 4 15 26 16 5 17 2 18 1 19 28 20 29 21 22 22 23 23
REMARK SMILES IDX 13 24 14 25 19 26 20 27 16 28 17 29
REMARK H PARENT
REMARK Flexibility Score: inf
ROOT
ATOM      1  C   UNL     1      -3.997  -3.608  -5.323  1.00  0.00     0.138 A 
ATOM      2  C   UNL     1      -5.152  -4.387  -5.475  1.00  0.00     0.100 A 
ATOM      3  C   UNL     1      -6.391  -3.759  -5.598  1.00  0.00     0.197 A 
ATOM      4  O   UNL     1      -7.418  -4.477  -5.737  1.00  0.00    -0.289 OA
ATOM      5  C   UNL     1      -6.471  -2.347  -5.563  1.00  0.00     0.115 A 
ATOM      6  C   UNL     1      -5.265  -1.637  -5.380  1.00  0.00     0.188 A 
ATOM      7  O   UNL     1      -4.108  -2.284  -5.275  1.00  0.00    -0.452 OA
ATOM      8  C   UNL     1      -5.259  -0.243  -5.313  1.00  0.00     0.209 A 
ATOM      9  C   UNL     1      -6.477   0.464  -5.375  1.00  0.00     0.211 A 
ATOM     10  C   UNL     1      -7.687  -0.220  -5.652  1.00  0.00     0.208 A 
ATOM     11  C   UNL     1      -7.690  -1.639  -5.717  1.00  0.00     0.179 A 
ENDROOT
BRANCH   1  12
ATOM     12  C   UNL     1      -2.646  -4.215  -5.201  1.00  0.00     0.021 A 
ATOM     13  C   UNL     1      -0.072  -5.339  -4.902  1.00  0.00     0.160 A 
ATOM     14  C   UNL     1      -0.921  -5.231  -3.790  1.00  0.00     0.161 A 
ATOM     15  C   UNL     1      -0.508  -4.879  -6.156  1.00  0.00     0.051 A 
ATOM     16  C   UNL     1      -2.202  -4.666  -3.946  1.00  0.00     0.062 A 
ATOM     17  C   UNL     1      -1.779  -4.320  -6.303  1.00  0.00     0.016 A 
BRANCH  13  18
ATOM     18  O   UNL     1       1.199  -5.907  -4.717  1.00  0.00    -0.493 OA
ATOM     19  C   UNL     1       1.573  -7.209  -5.155  1.00  0.00     0.278 C 
ENDBRANCH  13  18
BRANCH  14  20
ATOM     20  O   UNL     1      -0.455  -5.694  -2.548  1.00  0.00    -0.493 OA
ATOM     21  C   UNL     1      -0.788  -6.955  -1.980  1.00  0.00     0.278 C 
ENDBRANCH  14  20
ENDBRANCH   1  12
BRANCH   8  22
ATOM     22  O   UNL     1      -4.013   0.394  -5.176  1.00  0.00    -0.490 OA
ATOM     23  C   UNL     1      -3.237   0.911  -6.252  1.00  0.00     0.278 C 
ENDBRANCH   8  22
BRANCH  11  24
ATOM     24  O   UNL     1      -8.865  -2.391  -5.938  1.00  0.00    -0.492 OA
ATOM     25  C   UNL     1      -9.650  -2.445  -7.125  1.00  0.00     0.278 C 
ENDBRANCH  11  24
BRANCH   9  26
ATOM     26  O   UNL     1      -6.493   1.830  -5.101  1.00  0.00    -0.490 OA
ATOM     27  C   UNL     1      -6.405   2.788  -6.149  1.00  0.00     0.279 C 
ENDBRANCH   9  26
BRANCH  10  28
ATOM     28  O   UNL     1      -8.894   0.470  -5.867  1.00  0.00    -0.490 OA
ATOM     29  C   UNL     1      -9.850   0.835  -4.876  1.00  0.00     0.278 C 
ENDBRANCH  10  28
TORSDOF 7
ENDMDL
MODEL 3
REMARK VINA RESULT:    -6.060      1.289      3.437
REMARK INTER + INTRA:          -9.250
REMARK INTER:                  -8.749
REMARK INTRA:                  -0.501
REMARK UNBOUND:                -0.711
REMARK SMILES COc1ccc(-c2cc(=O)c3c(OC)c(OC)c(OC)c(OC)c3o2)cc1OC
REMARK SMILES IDX 7 1 8 2 9 3 10 4 11 5 24 6 25 7 21 8 18 9 15 10 12 11 6 12
REMARK SMILES IDX 3 13 27 14 4 15 26 16 5 17 2 18 1 19 28 20 29 21 22 22 23 23
REMARK SMILES IDX 13 24 14 25 19 26 20 27 16 28 17 29
REMARK H PARENT
REMARK Flexibility Score: inf
ROOT
ATOM      1  C   UNL     1      -2.629  -5.855  -4.631  1.00  0.00     0.138 A 
ATOM      2  C   UNL     1      -3.506  -6.817  -5.151  1.00  0.00     0.100 A 
ATOM      3  C   UNL     1      -4.788  -6.434  -5.546  1.00  0.00     0.197 A 
ATOM      4  O   UNL     1      -5.560  -7.313  -6.014  1.00  0.00    -0.289 OA
ATOM      5  C   UNL     1      -5.192  -5.086  -5.412  1.00  0.00     0.115 A 
ATOM      6  C   UNL     1      -4.259  -4.185  -4.855  1.00  0.00     0.188 A 
ATOM      7  O   UNL     1      -3.046  -4.599  -4.501  1.00  0.00    -0.452 OA
ATOM      8  C   UNL     1      -4.585  -2.841  -4.669  1.00  0.00     0.209 A 
ATOM      9  C   UNL     1      -5.879  -2.386  -4.993  1.00  0.00     0.211 A 
ATOM     10  C   UNL     1      -6.799  -3.248  -5.640  1.00  0.00     0.208 A 
ATOM     11  C   UNL     1      -6.465  -4.617  -5.824  1.00  0.00     0.179 A 
ENDROOT
BRANCH   1  12
ATOM     12  C   UNL     1      -1.246  -6.196  -4.206  1.00  0.00     0.021 A 
ATOM     13  C   UNL     1       1.367  -6.814  -3.330  1.00  0.00     0.160 A 
ATOM     14  C   UNL     1       0.290  -6.908  -2.437  1.00  0.00     0.161 A 
ATOM     15  C   UNL     1       1.136  -6.406  -4.655  1.00  0.00     0.051 A 
ATOM     16  C   UNL     1      -1.010  -6.594  -2.878  1.00  0.00     0.062 A 
ATOM     17  C   UNL     1      -0.155  -6.096  -5.086  1.00  0.00     0.016 A 
BRANCH  13  18
ATOM     18  O   UNL     1       2.652  -7.133  -2.862  1.00  0.00    -0.493 OA
ATOM     19  C   UNL     1       3.485  -8.147  -3.417  1.00  0.00     0.278 C 
ENDBRANCH  13  18
BRANCH  14  20
ATOM     20  O   UNL     1       0.553  -7.313  -1.117  1.00  0.00    -0.493 OA
ATOM     21  C   UNL     1       0.780  -8.659  -0.716  1.00  0.00     0.278 C 
ENDBRANCH  14  20
ENDBRANCH   1  12
BRANCH   8  22
ATOM     22  O   UNL     1      -3.587  -1.997  -4.151  1.00  0.00    -0.490 OA
ATOM     23  C   UNL     1      -2.636  -1.280  -4.933  1.00  0.00     0.278 C 
ENDBRANCH   8  22
BRANCH  11  24
ATOM     24  O   UNL     1      -7.349  -5.546  -6.414  1.00  0.00    -0.492 OA
ATOM     25  C   UNL     1      -8.643  -5.926  -5.953  1.00  0.00     0.278 C 
ENDBRANCH  11  24
BRANCH   9  26
ATOM     26  O   UNL     1      -6.271  -1.102  -4.617  1.00  0.00    -0.490 OA
ATOM     27  C   UNL     1      -7.041  -0.887  -3.440  1.00  0.00     0.279 C 
ENDBRANCH   9  26
BRANCH  10  28
ATOM     28  O   UNL     1      -8.042  -2.786  -6.108  1.00  0.00    -0.490 OA
ATOM     29  C   UNL     1      -8.257  -1.810  -7.124  1.00  0.00     0.278 C 
ENDBRANCH  10  28
TORSDOF 7
ENDMDL
MODEL 4
REMARK VINA RESULT:    -5.879      2.387      9.650
REMARK INTER + INTRA:          -8.996
REMARK INTER:                  -8.292
REMARK INTRA:                  -0.704
REMARK UNBOUND:                -0.711
REMARK SMILES COc1ccc(-c2cc(=O)c3c(OC)c(OC)c(OC)c(OC)c3o2)cc1OC
REMARK SMILES IDX 7 1 8 2 9 3 10 4 11 5 24 6 25 7 21 8 18 9 15 10 12 11 6 12
REMARK SMILES IDX 3 13 27 14 4 15 26 16 5 17 2 18 1 19 28 20 29 21 22 22 23 23
REMARK SMILES IDX 13 24 14 25 19 26 20 27 16 28 17 29
REMARK H PARENT
REMARK Flexibility Score: inf
ROOT
ATOM      1  C   UNL     1      -0.498  -6.323  -3.405  1.00  0.00     0.138 A 
ATOM      2  C   UNL     1      -0.194  -6.535  -2.053  1.00  0.00     0.100 A 
ATOM      3  C   UNL     1       1.017  -7.136  -1.710  1.00  0.00     0.197 A 
ATOM      4  O   UNL     1       1.273  -7.316  -0.489  1.00  0.00    -0.289 OA
ATOM      5  C   UNL     1       1.920  -7.530  -2.724  1.00  0.00     0.115 A 
ATOM      6  C   UNL     1       1.527  -7.305  -4.061  1.00  0.00     0.188 A 
ATOM      7  O   UNL     1       0.364  -6.722  -4.335  1.00  0.00    -0.452 OA
ATOM      8  C   UNL     1       2.350  -7.684  -5.122  1.00  0.00     0.209 A 
ATOM      9  C   UNL     1       3.566  -8.346  -4.859  1.00  0.00     0.211 A 
ATOM     10  C   UNL     1       4.025  -8.497  -3.527  1.00  0.00     0.208 A 
ATOM     11  C   UNL     1       3.182  -8.114  -2.449  1.00  0.00     0.179 A 
ENDROOT
BRANCH   1  12
ATOM     12  C   UNL     1      -1.764  -5.675  -3.836  1.00  0.00     0.021 A 
ATOM     13  C   UNL     1      -4.158  -4.387  -4.606  1.00  0.00     0.160 A 
ATOM     14  C   UNL     1      -3.038  -3.623  -4.246  1.00  0.00     0.161 A 
ATOM     15  C   UNL     1      -4.081  -5.790  -4.573  1.00  0.00     0.051 A 
ATOM     16  C   UNL     1      -1.848  -4.271  -3.859  1.00  0.00     0.062 A 
ATOM     17  C   UNL     1      -2.899  -6.426  -4.188  1.00  0.00     0.016 A 
BRANCH  13  18
ATOM     18  O   UNL     1      -5.330  -3.714  -4.987  1.00  0.00    -0.493 OA
ATOM     19  C   UNL     1      -5.867  -3.713  -6.306  1.00  0.00     0.278 C 
ENDBRANCH  13  18
BRANCH  14  20
ATOM     20  O   UNL     1      -3.147  -2.223  -4.282  1.00  0.00    -0.493 OA
ATOM     21  C   UNL     1      -2.717  -1.408  -5.366  1.00  0.00     0.278 C 
ENDBRANCH  14  20
ENDBRANCH   1  12
BRANCH   8  22
ATOM     22  O   UNL     1       1.909  -7.385  -6.423  1.00  0.00    -0.490 OA
ATOM     23  C   UNL     1       2.153  -6.160  -7.108  1.00  0.00     0.278 C 
ENDBRANCH   8  22
BRANCH  11  24
ATOM     24  O   UNL     1       3.549  -8.282  -1.096  1.00  0.00    -0.492 OA
ATOM     25  C   UNL     1       4.530  -7.552  -0.366  1.00  0.00     0.278 C 
ENDBRANCH  11  24
BRANCH   9  26
ATOM     26  O   UNL     1       4.285  -8.906  -5.914  1.00  0.00    -0.490 OA
ATOM     27  C   UNL     1       5.220  -8.131  -6.656  1.00  0.00     0.279 C 
ENDBRANCH   9  26
BRANCH  10  28
ATOM     28  O   UNL     1       5.298  -9.020  -3.238  1.00  0.00    -0.490 OA
ATOM     29  C   UNL     1       6.537  -8.317  -3.294  1.00  0.00     0.278 C 
ENDBRANCH  10  28
TORSDOF 7
ENDMDL
MODEL 5
REMARK VINA RESULT:    -5.774      2.266      8.425
REMARK INTER + INTRA:          -8.848
REMARK INTER:                  -8.267
REMARK INTRA:                  -0.580
REMARK UNBOUND:                -0.711
REMARK SMILES COc1ccc(-c2cc(=O)c3c(OC)c(OC)c(OC)c(OC)c3o2)cc1OC
REMARK SMILES IDX 7 1 8 2 9 3 10 4 11 5 24 6 25 7 21 8 18 9 15 10 12 11 6 12
REMARK SMILES IDX 3 13 27 14 4 15 26 16 5 17 2 18 1 19 28 20 29 21 22 22 23 23
REMARK SMILES IDX 13 24 14 25 19 26 20 27 16 28 17 29
REMARK H PARENT
REMARK Flexibility Score: inf
ROOT
ATOM      1  C   UNL     1      -6.738  -2.350  -5.283  1.00  0.00     0.138 A 
ATOM      2  C   UNL     1      -7.474  -3.445  -5.758  1.00  0.00     0.100 A 
ATOM      3  C   UNL     1      -6.880  -4.706  -5.790  1.00  0.00     0.197 A 
ATOM      4  O   UNL     1      -7.559  -5.679  -6.218  1.00  0.00    -0.289 OA
ATOM      5  C   UNL     1      -5.546  -4.868  -5.352  1.00  0.00     0.115 A 
ATOM      6  C   UNL     1      -4.866  -3.711  -4.914  1.00  0.00     0.188 A 
ATOM      7  O   UNL     1      -5.480  -2.532  -4.895  1.00  0.00    -0.452 OA
ATOM      8  C   UNL     1      -3.539  -3.780  -4.485  1.00  0.00     0.209 A 
ATOM      9  C   UNL     1      -2.852  -5.009  -4.538  1.00  0.00     0.211 A 
ATOM     10  C   UNL     1      -3.540  -6.198  -4.884  1.00  0.00     0.208 A 
ATOM     11  C   UNL     1      -4.890  -6.124  -5.324  1.00  0.00     0.179 A 
ENDROOT
BRANCH   1  12
ATOM     12  C   UNL     1      -7.317  -0.983  -5.209  1.00  0.00     0.021 A 
ATOM     13  C   UNL     1      -8.349   1.643  -5.055  1.00  0.00     0.160 A 
ATOM     14  C   UNL     1      -7.079   1.422  -5.609  1.00  0.00     0.161 A 
ATOM     15  C   UNL     1      -9.095   0.553  -4.574  1.00  0.00     0.051 A 
ATOM     16  C   UNL     1      -6.569   0.110  -5.679  1.00  0.00     0.062 A 
ATOM     17  C   UNL     1      -8.583  -0.744  -4.646  1.00  0.00     0.016 A 
BRANCH  13  18
ATOM     18  O   UNL     1      -8.832   2.960  -4.998  1.00  0.00    -0.493 OA
ATOM     19  C   UNL     1      -8.854   3.761  -3.820  1.00  0.00     0.278 C 
ENDBRANCH  13  18
BRANCH  14  20
ATOM     20  O   UNL     1      -6.355   2.531  -6.076  1.00  0.00    -0.493 OA
ATOM     21  C   UNL     1      -5.394   2.484  -7.125  1.00  0.00     0.278 C 
ENDBRANCH  14  20
ENDBRANCH   1  12
BRANCH   8  22
ATOM     22  O   UNL     1      -2.946  -2.593  -4.021  1.00  0.00    -0.490 OA
ATOM     23  C   UNL     1      -2.498  -1.524  -4.849  1.00  0.00     0.278 C 
ENDBRANCH   8  22
BRANCH  11  24
ATOM     24  O   UNL     1      -5.623  -7.259  -5.733  1.00  0.00    -0.492 OA
ATOM     25  C   UNL     1      -5.439  -8.032  -6.915  1.00  0.00     0.278 C 
ENDBRANCH  11  24
BRANCH   9  26
ATOM     26  O   UNL     1      -1.477  -5.038  -4.310  1.00  0.00    -0.490 OA
ATOM     27  C   UNL     1      -0.557  -4.702  -5.342  1.00  0.00     0.279 C 
ENDBRANCH   9  26
BRANCH  10  28
ATOM     28  O   UNL     1      -2.923  -7.460  -4.805  1.00  0.00    -0.490 OA
ATOM     29  C   UNL     1      -2.039  -8.034  -5.764  1.00  0.00     0.278 C 
ENDBRANCH  10  28
TORSDOF 7
ENDMDL
MODEL 6
REMARK VINA RESULT:    -5.748      2.176      9.542
REMARK INTER + INTRA:          -8.811
REMARK INTER:                  -8.015
REMARK INTRA:                  -0.796
REMARK UNBOUND:                -0.711
REMARK SMILES COc1ccc(-c2cc(=O)c3c(OC)c(OC)c(OC)c(OC)c3o2)cc1OC
REMARK SMILES IDX 7 1 8 2 9 3 10 4 11 5 24 6 25 7 21 8 18 9 15 10 12 11 6 12
REMARK SMILES IDX 3 13 27 14 4 15 26 16 5 17 2 18 1 19 28 20 29 21 22 22 23 23
REMARK SMILES IDX 13 24 14 25 19 26 20 27 16 28 17 29
REMARK H PARENT
REMARK Flexibility Score: inf
ROOT
ATOM      1  C   UNL     1      -0.424  -5.464  -4.952  1.00  0.00     0.138 A 
ATOM      2  C   UNL     1       0.386  -5.447  -6.096  1.00  0.00     0.100 A 
ATOM      3  C   UNL     1       1.601  -6.132  -6.085  1.00  0.00     0.197 A 
ATOM      4  O   UNL     1       2.314  -6.108  -7.124  1.00  0.00    -0.289 OA
ATOM      5  C   UNL     1       2.006  -6.828  -4.923  1.00  0.00     0.115 A 
ATOM      6  C   UNL     1       1.146  -6.773  -3.805  1.00  0.00     0.188 A 
ATOM      7  O   UNL     1      -0.006  -6.112  -3.870  1.00  0.00    -0.452 OA
ATOM      8  C   UNL     1       1.481  -7.415  -2.612  1.00  0.00     0.209 A 
ATOM      9  C   UNL     1       2.717  -8.083  -2.503  1.00  0.00     0.211 A 
ATOM     10  C   UNL     1       3.552  -8.232  -3.638  1.00  0.00     0.208 A 
ATOM     11  C   UNL     1       3.210  -7.574  -4.850  1.00  0.00     0.179 A 
ENDROOT
BRANCH   1  12
ATOM     12  C   UNL     1      -1.736  -4.767  -4.905  1.00  0.00     0.021 A 
ATOM     13  C   UNL     1      -4.195  -3.382  -4.789  1.00  0.00     0.160 A 
ATOM     14  C   UNL     1      -3.023  -2.697  -5.141  1.00  0.00     0.161 A 
ATOM     15  C   UNL     1      -4.134  -4.753  -4.489  1.00  0.00     0.051 A 
ATOM     16  C   UNL     1      -1.799  -3.393  -5.194  1.00  0.00     0.062 A 
ATOM     17  C   UNL     1      -2.918  -5.437  -4.542  1.00  0.00     0.016 A 
BRANCH  13  18
ATOM     18  O   UNL     1      -5.400  -2.662  -4.745  1.00  0.00    -0.493 OA
ATOM     19  C   UNL     1      -6.501  -2.877  -5.623  1.00  0.00     0.278 C 
ENDBRANCH  13  18
BRANCH  14  20
ATOM     20  O   UNL     1      -3.114  -1.325  -5.430  1.00  0.00    -0.493 OA
ATOM     21  C   UNL     1      -2.935  -0.758  -6.723  1.00  0.00     0.278 C 
ENDBRANCH  14  20
ENDBRANCH   1  12
BRANCH   8  22
ATOM     22  O   UNL     1       0.551  -7.353  -1.559  1.00  0.00    -0.490 OA
ATOM     23  C   UNL     1      -0.295  -8.424  -1.151  1.00  0.00     0.278 C 
ENDBRANCH   8  22
BRANCH  11  24
ATOM     24  O   UNL     1       4.018  -7.633  -6.006  1.00  0.00    -0.492 OA
ATOM     25  C   UNL     1       4.277  -8.768  -6.826  1.00  0.00     0.278 C 
ENDBRANCH  11  24
BRANCH   9  26
ATOM     26  O   UNL     1       3.142  -8.543  -1.257  1.00  0.00    -0.490 OA
ATOM     27  C   UNL     1       3.793  -7.672  -0.339  1.00  0.00     0.279 C 
ENDBRANCH   9  26
BRANCH  10  28
ATOM     28  O   UNL     1       4.719  -9.016  -3.600  1.00  0.00    -0.490 OA
ATOM     29  C   UNL     1       6.021  -8.583  -3.216  1.00  0.00     0.278 C 
ENDBRANCH  10  28
TORSDOF 7
ENDMDL
MODEL 7
REMARK VINA RESULT:    -5.657      1.828      2.831
REMARK INTER + INTRA:          -8.683
REMARK INTER:                  -8.028
REMARK INTRA:                  -0.655
REMARK UNBOUND:                -0.711
REMARK SMILES COc1ccc(-c2cc(=O)c3c(OC)c(OC)c(OC)c(OC)c3o2)cc1OC
REMARK SMILES IDX 7 1 8 2 9 3 10 4 11 5 24 6 25 7 21 8 18 9 15 10 12 11 6 12
REMARK SMILES IDX 3 13 27 14 4 15 26 16 5 17 2 18 1 19 28 20 29 21 22 22 23 23
REMARK SMILES IDX 13 24 14 25 19 26 20 27 16 28 17 29
REMARK H PARENT
REMARK Flexibility Score: inf
ROOT
ATOM      1  C   UNL     1      -4.261  -3.054  -4.929  1.00  0.00     0.138 A 
ATOM      2  C   UNL     1      -3.721  -1.766  -4.811  1.00  0.00     0.100 A 
ATOM      3  C   UNL     1      -4.552  -0.657  -4.965  1.00  0.00     0.197 A 
ATOM      4  O   UNL     1      -4.047   0.493  -4.852  1.00  0.00    -0.289 OA
ATOM      5  C   UNL     1      -5.926  -0.840  -5.244  1.00  0.00     0.115 A 
ATOM      6  C   UNL     1      -6.386  -2.169  -5.374  1.00  0.00     0.188 A 
ATOM      7  O   UNL     1      -5.554  -3.192  -5.211  1.00  0.00    -0.452 OA
ATOM      8  C   UNL     1      -7.724  -2.436  -5.670  1.00  0.00     0.209 A 
ATOM      9  C   UNL     1      -8.616  -1.369  -5.894  1.00  0.00     0.211 A 
ATOM     10  C   UNL     1      -8.200  -0.032  -5.676  1.00  0.00     0.208 A 
ATOM     11  C   UNL     1      -6.837   0.238  -5.379  1.00  0.00     0.179 A 
ENDROOT
BRANCH   1  12
ATOM     12  C   UNL     1      -3.433  -4.276  -4.762  1.00  0.00     0.021 A 
ATOM     13  C   UNL     1      -1.808  -6.571  -4.492  1.00  0.00     0.160 A 
ATOM     14  C   UNL     1      -1.216  -5.313  -4.681  1.00  0.00     0.161 A 
ATOM     15  C   UNL     1      -3.208  -6.679  -4.447  1.00  0.00     0.051 A 
ATOM     16  C   UNL     1      -2.032  -4.173  -4.818  1.00  0.00     0.062 A 
ATOM     17  C   UNL     1      -4.011  -5.545  -4.585  1.00  0.00     0.016 A 
BRANCH  13  18
ATOM     18  O   UNL     1      -0.970  -7.690  -4.359  1.00  0.00    -0.493 OA
ATOM     19  C   UNL     1      -0.668  -8.329  -3.122  1.00  0.00     0.278 C 
ENDBRANCH  13  18
BRANCH  14  20
ATOM     20  O   UNL     1       0.186  -5.238  -4.728  1.00  0.00    -0.493 OA
ATOM     21  C   UNL     1       0.956  -5.269  -5.925  1.00  0.00     0.278 C 
ENDBRANCH  14  20
ENDBRANCH   1  12
BRANCH   8  22
ATOM     22  O   UNL     1      -8.114  -3.785  -5.738  1.00  0.00    -0.490 OA
ATOM     23  C   UNL     1      -8.201  -4.552  -6.935  1.00  0.00     0.278 C 
ENDBRANCH   8  22
BRANCH  11  24
ATOM     24  O   UNL     1      -6.339   1.547  -5.200  1.00  0.00    -0.492 OA
ATOM     25  C   UNL     1      -6.147   2.546  -6.197  1.00  0.00     0.278 C 
ENDBRANCH  11  24
BRANCH   9  26
ATOM     26  O   UNL     1      -9.892  -1.632  -6.390  1.00  0.00    -0.490 OA
ATOM     27  C   UNL     1     -10.983  -1.877  -5.511  1.00  0.00     0.279 C 
ENDBRANCH   9  26
BRANCH  10  28
ATOM     28  O   UNL     1      -9.103   1.045  -5.747  1.00  0.00    -0.490 OA
ATOM     29  C   UNL     1      -9.607   1.653  -6.933  1.00  0.00     0.278 C 
ENDBRANCH  10  28
TORSDOF 7
ENDMDL
MODEL 8
REMARK VINA RESULT:    -5.573      2.542      8.585
REMARK INTER + INTRA:          -8.564
REMARK INTER:                  -7.804
REMARK INTRA:                  -0.760
REMARK UNBOUND:                -0.711
REMARK SMILES COc1ccc(-c2cc(=O)c3c(OC)c(OC)c(OC)c(OC)c3o2)cc1OC
REMARK SMILES IDX 7 1 8 2 9 3 10 4 11 5 24 6 25 7 21 8 18 9 15 10 12 11 6 12
REMARK SMILES IDX 3 13 27 14 4 15 26 16 5 17 2 18 1 19 28 20 29 21 22 22 23 23
REMARK SMILES IDX 13 24 14 25 19 26 20 27 16 28 17 29
REMARK H PARENT
REMARK Flexibility Score: inf
ROOT
ATOM      1  C   UNL     1      -7.152  -0.708  -5.517  1.00  0.00     0.138 A 
ATOM      2  C   UNL     1      -8.161  -1.395  -6.207  1.00  0.00     0.100 A 
ATOM      3  C   UNL     1      -8.053  -2.773  -6.384  1.00  0.00     0.197 A 
ATOM      4  O   UNL     1      -8.972  -3.373  -7.004  1.00  0.00    -0.289 OA
ATOM      5  C   UNL     1      -6.929  -3.463  -5.875  1.00  0.00     0.115 A 
ATOM      6  C   UNL     1      -5.944  -2.694  -5.216  1.00  0.00     0.188 A 
ATOM      7  O   UNL     1      -6.099  -1.382  -5.067  1.00  0.00    -0.452 OA
ATOM      8  C   UNL     1      -4.793  -3.294  -4.703  1.00  0.00     0.209 A 
ATOM      9  C   UNL     1      -4.585  -4.675  -4.889  1.00  0.00     0.211 A 
ATOM     10  C   UNL     1      -5.599  -5.481  -5.461  1.00  0.00     0.208 A 
ATOM     11  C   UNL     1      -6.768  -4.867  -5.986  1.00  0.00     0.179 A 
ENDROOT
BRANCH   1  12
ATOM     12  C   UNL     1      -7.215   0.759  -5.282  1.00  0.00     0.021 A 
ATOM     13  C   UNL     1      -7.407   3.544  -4.853  1.00  0.00     0.160 A 
ATOM     14  C   UNL     1      -8.490   2.711  -4.535  1.00  0.00     0.161 A 
ATOM     15  C   UNL     1      -6.236   2.984  -5.391  1.00  0.00     0.051 A 
ATOM     16  C   UNL     1      -8.389   1.324  -4.755  1.00  0.00     0.062 A 
ATOM     17  C   UNL     1      -6.142   1.607  -5.607  1.00  0.00     0.016 A 
BRANCH  13  18
ATOM     18  O   UNL     1      -7.536   4.923  -4.624  1.00  0.00    -0.493 OA
ATOM     19  C   UNL     1      -7.963   5.868  -5.601  1.00  0.00     0.278 C 
ENDBRANCH  13  18
BRANCH  14  20
ATOM     20  O   UNL     1      -9.650   3.301  -4.005  1.00  0.00    -0.493 OA
ATOM     21  C   UNL     1     -10.931   3.261  -4.625  1.00  0.00     0.278 C 
ENDBRANCH  14  20
ENDBRANCH   1  12
BRANCH   8  22
ATOM     22  O   UNL     1      -3.882  -2.468  -4.020  1.00  0.00    -0.490 OA
ATOM     23  C   UNL     1      -2.835  -1.723  -4.635  1.00  0.00     0.278 C 
ENDBRANCH   8  22
BRANCH  11  24
ATOM     24  O   UNL     1      -7.798  -5.599  -6.617  1.00  0.00    -0.492 OA
ATOM     25  C   UNL     1      -8.749  -6.463  -6.004  1.00  0.00     0.278 C 
ENDBRANCH  11  24
BRANCH   9  26
ATOM     26  O   UNL     1      -3.349  -5.233  -4.563  1.00  0.00    -0.490 OA
ATOM     27  C   UNL     1      -2.296  -5.286  -5.518  1.00  0.00     0.279 C 
ENDBRANCH   9  26
BRANCH  10  28
ATOM     28  O   UNL     1      -5.483  -6.881  -5.527  1.00  0.00    -0.490 OA
ATOM     29  C   UNL     1      -4.981  -7.641  -6.623  1.00  0.00     0.278 C 
ENDBRANCH  10  28
TORSDOF 7
ENDMDL
MODEL 9
REMARK VINA RESULT:    -5.030      2.674      8.300
REMARK INTER + INTRA:          -7.800
REMARK INTER:                  -7.024
REMARK INTRA:                  -0.776
REMARK UNBOUND:                -0.711
REMARK SMILES COc1ccc(-c2cc(=O)c3c(OC)c(OC)c(OC)c(OC)c3o2)cc1OC
REMARK SMILES IDX 7 1 8 2 9 3 10 4 11 5 24 6 25 7 21 8 18 9 15 10 12 11 6 12
REMARK SMILES IDX 3 13 27 14 4 15 26 16 5 17 2 18 1 19 28 20 29 21 22 22 23 23
REMARK SMILES IDX 13 24 14 25 19 26 20 27 16 28 17 29
REMARK H PARENT
REMARK Flexibility Score: inf
ROOT
ATOM      1  C   UNL     1      -5.989  -0.103  -5.027  1.00  0.00     0.138 A 
ATOM      2  C   UNL     1      -4.702  -0.256  -4.494  1.00  0.00     0.100 A 
ATOM      3  C   UNL     1      -4.035  -1.470  -4.652  1.00  0.00     0.197 A 
ATOM      4  O   UNL     1      -2.876  -1.587  -4.168  1.00  0.00    -0.289 OA
ATOM      5  C   UNL     1      -4.663  -2.535  -5.339  1.00  0.00     0.115 A 
ATOM      6  C   UNL     1      -5.970  -2.309  -5.822  1.00  0.00     0.188 A 
ATOM      7  O   UNL     1      -6.559  -1.129  -5.651  1.00  0.00    -0.452 OA
ATOM      8  C   UNL     1      -6.669  -3.314  -6.492  1.00  0.00     0.209 A 
ATOM      9  C   UNL     1      -6.084  -4.587  -6.645  1.00  0.00     0.211 A 
ATOM     10  C   UNL     1      -4.740  -4.808  -6.253  1.00  0.00     0.208 A 
ATOM     11  C   UNL     1      -4.033  -3.784  -5.568  1.00  0.00     0.179 A 
ENDROOT
BRANCH   1  12
ATOM     12  C   UNL     1      -6.748   1.169  -4.906  1.00  0.00     0.021 A 
ATOM     13  C   UNL     1      -8.245   3.557  -4.714  1.00  0.00     0.160 A 
ATOM     14  C   UNL     1      -8.898   2.316  -4.666  1.00  0.00     0.161 A 
ATOM     15  C   UNL     1      -6.849   3.600  -4.866  1.00  0.00     0.051 A 
ATOM     16  C   UNL     1      -8.146   1.129  -4.765  1.00  0.00     0.062 A 
ATOM     17  C   UNL     1      -6.109   2.420  -4.965  1.00  0.00     0.016 A 
BRANCH  13  18
ATOM     18  O   UNL     1      -9.020   4.723  -4.613  1.00  0.00    -0.493 OA
ATOM     19  C   UNL     1      -8.488   6.039  -4.494  1.00  0.00     0.278 C 
ENDBRANCH  13  18
BRANCH  14  20
ATOM     20  O   UNL     1     -10.295   2.304  -4.520  1.00  0.00    -0.493 OA
ATOM     21  C   UNL     1     -11.102   1.133  -4.570  1.00  0.00     0.278 C 
ENDBRANCH  14  20
ENDBRANCH   1  12
BRANCH   8  22
ATOM     22  O   UNL     1      -7.948  -2.997  -6.982  1.00  0.00    -0.490 OA
ATOM     23  C   UNL     1      -9.167  -3.195  -6.273  1.00  0.00     0.278 C 
ENDBRANCH   8  22
BRANCH  11  24
ATOM     24  O   UNL     1      -2.710  -3.950  -5.102  1.00  0.00    -0.492 OA
ATOM     25  C   UNL     1      -1.519  -4.022  -5.880  1.00  0.00     0.278 C 
ENDBRANCH  11  24
BRANCH   9  26
ATOM     26  O   UNL     1      -6.855  -5.644  -7.125  1.00  0.00    -0.490 OA
ATOM     27  C   UNL     1      -7.553  -6.505  -6.233  1.00  0.00     0.279 C 
ENDBRANCH   9  26
BRANCH  10  28
ATOM     28  O   UNL     1      -4.081  -6.021  -6.525  1.00  0.00    -0.490 OA
ATOM     29  C   UNL     1      -3.915  -7.116  -5.629  1.00  0.00     0.278 C 
ENDBRANCH  10  28
TORSDOF 7
ENDMDL
