MODEL 1
REMARK VINA RESULT:    45.447      0.000      0.000
REMARK INTER + INTRA:          62.190
REMARK INTER:                  57.403
REMARK INTRA:                   4.787
REMARK UNBOUND:                 4.787
REMARK SMILES CC(C)[C@@H](C)C=C[C@H](C)[C@H]1CC[C@@H]2C3=CC=C4C[C@@H](O)CC[C@]4(C)[C@@H]3CC[C@@]21C
REMARK SMILES IDX 8 1 9 2 7 3 6 4 4 5 5 6 2 7 1 8 3 9 10 10 11 11 28 12 12 13
REMARK SMILES IDX 13 14 27 15 29 16 14 17 26 18 25 19 15 20 23 21 16 22 17 23
REMARK SMILES IDX 22 24 24 25 18 26 21 27 19 28 20 29
REMARK H PARENT 20 30
REMARK Flexibility Score: inf
ROOT
ATOM      1  C   UNL     1     -41.451  22.769   7.594  1.00  0.00     0.012 C 
ATOM      2  C   UNL     1     -41.936  22.553   9.043  1.00  0.00     0.012 C 
ENDROOT
BRANCH   1   3
ATOM      3  C   UNL     1     -41.953  24.123   7.131  1.00  0.00    -0.028 C 
ATOM      4  C   UNL     1     -41.586  24.675   5.963  1.00  0.00    -0.028 C 
BRANCH   4   5
ATOM      5  C   UNL     1     -42.123  26.020   5.523  1.00  0.00     0.011 C 
ATOM      6  C   UNL     1     -41.582  26.367   4.125  1.00  0.00     0.012 C 
BRANCH   5   7
ATOM      7  C   UNL     1     -41.834  27.117   6.593  1.00  0.00    -0.011 C 
ATOM      8  C   UNL     1     -40.723  26.725   7.582  1.00  0.00     0.008 C 
ATOM      9  C   UNL     1     -41.524  28.478   5.953  1.00  0.00     0.008 C 
ENDBRANCH   5   7
ENDBRANCH   4   5
ENDBRANCH   1   3
BRANCH   1  10
ATOM     10  C   UNL     1     -39.890  22.632   7.426  1.00  0.00     0.002 C 
ATOM     11  C   UNL     1     -39.482  22.312   5.977  1.00  0.00     0.005 C 
ATOM     12  C   UNL     1     -39.014  23.903   7.783  1.00  0.00    -0.023 C 
ATOM     13  C   UNL     1     -39.260  23.654   5.321  1.00  0.00     0.009 C 
ATOM     14  C   UNL     1     -38.574  24.501   6.394  1.00  0.00     0.021 C 
ATOM     15  C   UNL     1     -37.776  23.428   8.626  1.00  0.00     0.008 C 
ATOM     16  C   UNL     1     -39.743  25.000   8.601  1.00  0.00     0.012 C 
ATOM     17  C   UNL     1     -37.056  24.607   6.311  1.00  0.00    -0.063 C 
ATOM     18  C   UNL     1     -36.635  24.475   8.749  1.00  0.00     0.009 C 
ATOM     19  C   UNL     1     -36.446  25.351   7.477  1.00  0.00     0.025 C 
ATOM     20  C   UNL     1     -36.271  23.788   5.580  1.00  0.00    -0.000 C 
ATOM     21  C   UNL     1     -34.965  25.784   7.179  1.00  0.00    -0.005 C 
ATOM     22  C   UNL     1     -34.818  23.708   5.827  1.00  0.00    -0.000 C 
ATOM     23  C   UNL     1     -34.191  24.569   6.651  1.00  0.00    -0.061 C 
ATOM     24  C   UNL     1     -34.314  26.458   8.439  1.00  0.00     0.014 C 
ATOM     25  C   UNL     1     -34.996  26.844   6.043  1.00  0.00     0.017 C 
ATOM     26  C   UNL     1     -32.759  24.257   7.033  1.00  0.00     0.063 C 
ATOM     27  C   UNL     1     -33.232  25.621   9.125  1.00  0.00     0.033 C 
ATOM     28  C   UNL     1     -32.165  25.163   8.128  1.00  0.00     0.118 C 
BRANCH  28  29
ATOM     29  O   UNL     1     -31.462  26.259   7.592  1.00  0.00    -0.393 OA
ATOM     30  H   UNL     1     -30.867  26.621   8.295  1.00  0.00     0.210 HD
ENDBRANCH  28  29
ENDBRANCH   1  10
TORSDOF 5
ENDMDL
