MODEL 1
REMARK VINA RESULT:     9.442      0.000      0.000
REMARK INTER + INTRA:          14.649
REMARK INTER:                  12.753
REMARK INTRA:                   1.895
REMARK UNBOUND:                 1.895
REMARK SMILES O=c1c(-c2ccc(O)cc2)coc2c([C@H]3O[C@H](CO)[C@@H](O)[C@@H](O)[C@@H]3O)c(O)ccc12
REMARK SMILES IDX 3 1 11 2 12 3 13 4 30 5 2 6 1 7 29 8 28 9 26 10 14 11 4 12
REMARK SMILES IDX 5 13 6 14 7 15 10 16 9 17 8 18 15 20 24 21 16 22 22 23 17 24
REMARK SMILES IDX 20 25 25 26 23 28 18 30 19 31 21 33 27 35
REMARK H PARENT 8 19 25 27 23 29 19 32 21 34 27 36
REMARK Flexibility Score: inf
ROOT
ATOM      1  C   UNL     1      27.654  29.063  25.268  1.00  0.00     0.065 A 
ATOM      2  C   UNL     1      26.989  28.828  26.476  1.00  0.00     0.208 A 
ATOM      3  O   UNL     1      26.637  27.600  26.833  1.00  0.00    -0.463 OA
ATOM      4  C   UNL     1      26.879  26.518  26.101  1.00  0.00     0.147 A 
ATOM      5  C   UNL     1      27.530  26.672  24.851  1.00  0.00     0.066 A 
ATOM      6  C   UNL     1      27.933  27.958  24.446  1.00  0.00     0.200 A 
ATOM      7  O   UNL     1      28.554  28.119  23.358  1.00  0.00    -0.288 OA
ATOM      8  C   UNL     1      27.746  25.554  24.036  1.00  0.00     0.020 A 
ATOM      9  C   UNL     1      27.284  24.306  24.427  1.00  0.00     0.047 A 
ATOM     10  C   UNL     1      26.636  24.136  25.654  1.00  0.00     0.125 A 
ATOM     11  C   UNL     1      26.488  25.224  26.557  1.00  0.00     0.069 A 
ENDROOT
BRANCH   1  12
ATOM     12  C   UNL     1      28.041  30.445  24.891  1.00  0.00    -0.011 A 
ATOM     13  C   UNL     1      28.766  31.248  25.790  1.00  0.00     0.013 A 
ATOM     14  C   UNL     1      29.124  32.554  25.441  1.00  0.00     0.047 A 
ATOM     15  C   UNL     1      28.760  33.075  24.197  1.00  0.00     0.115 A 
ATOM     16  C   UNL     1      27.672  30.979  23.643  1.00  0.00     0.013 A 
ATOM     17  C   UNL     1      28.031  32.285  23.298  1.00  0.00     0.047 A 
BRANCH  15  18
ATOM     18  O   UNL     1      29.124  34.378  23.863  1.00  0.00    -0.508 OA
ATOM     19  H   UNL     1      28.470  35.014  23.421  1.00  0.00     0.293 HD
ENDBRANCH  15  18
ENDBRANCH   1  12
BRANCH  11  20
ATOM     20  C   UNL     1      25.792  24.949  27.917  1.00  0.00     0.188 C 
ATOM     21  C   UNL     1      24.983  23.633  28.138  1.00  0.00     0.179 C 
ATOM     22  O   UNL     1      24.985  26.047  28.326  1.00  0.00    -0.362 OA
ATOM     23  C   UNL     1      23.650  23.671  27.368  1.00  0.00     0.177 C 
ATOM     24  C   UNL     1      23.822  26.188  27.518  1.00  0.00     0.176 C 
ATOM     25  C   UNL     1      22.887  24.970  27.698  1.00  0.00     0.177 C 
BRANCH  21  26
ATOM     26  O   UNL     1      24.690  23.506  29.508  1.00  0.00    -0.387 OA
ATOM     27  H   UNL     1      23.990  24.179  29.722  1.00  0.00     0.211 HD
ENDBRANCH  21  26
BRANCH  23  28
ATOM     28  O   UNL     1      23.887  23.579  25.987  1.00  0.00    -0.387 OA
ATOM     29  H   UNL     1      24.826  23.862  25.832  1.00  0.00     0.211 HD
ENDBRANCH  23  28
BRANCH  24  30
ATOM     30  C   UNL     1      23.126  27.496  27.926  1.00  0.00     0.191 C 
BRANCH  30  31
ATOM     31  O   UNL     1      24.033  28.402  28.495  1.00  0.00    -0.394 OA
ATOM     32  H   UNL     1      24.340  28.000  29.349  1.00  0.00     0.210 HD
ENDBRANCH  30  31
ENDBRANCH  24  30
BRANCH  25  33
ATOM     33  O   UNL     1      21.764  25.093  26.864  1.00  0.00    -0.388 OA
ATOM     34  H   UNL     1      21.760  24.296  26.270  1.00  0.00     0.211 HD
ENDBRANCH  25  33
ENDBRANCH  11  20
BRANCH  10  35
ATOM     35  O   UNL     1      26.125  22.875  25.968  1.00  0.00    -0.507 OA
ATOM     36  H   UNL     1      25.766  22.656  26.889  1.00  0.00     0.293 HD
ENDBRANCH  10  35
TORSDOF 9
ENDMDL
