MODEL 1
REMARK VINA RESULT:    -6.901      0.000      0.000
REMARK INTER + INTRA:         -10.422
REMARK INTER:                  -9.120
REMARK INTRA:                  -1.303
REMARK UNBOUND:                -1.303
REMARK SMILES CC[C@@H](C=C[C@@H](C)[C@@H]1CC[C@H]2[C@@H]3CC[C@H]4C[C@H](O)CC[C@]4(C)[C@@H]3CC[C@]21C)C(C)C
REMARK SMILES IDX 6 1 7 2 5 3 4 4 3 5 2 6 1 7 28 8 29 9 30 10 8 11 9 12 26 13
REMARK SMILES IDX 10 14 11 15 25 16 27 17 12 18 24 19 23 20 13 21 21 22 14 23
REMARK SMILES IDX 15 24 20 25 22 26 16 27 19 28 17 29 18 30
REMARK H PARENT 18 31
REMARK Flexibility Score: inf
ROOT
ATOM      1  C   UNL     1     141.707 134.479 148.382  1.00  0.00     0.012 C 
ATOM      2  C   UNL     1     140.804 134.350 147.139  1.00  0.00     0.012 C 
ENDROOT
BRANCH   1   3
ATOM      3  C   UNL     1     140.867 134.957 149.555  1.00  0.00    -0.028 C 
ATOM      4  C   UNL     1     140.137 134.155 150.354  1.00  0.00    -0.027 C 
BRANCH   4   5
ATOM      5  C   UNL     1     139.916 132.665 150.129  1.00  0.00     0.014 C 
BRANCH   5   6
ATOM      6  C   UNL     1     138.542 132.256 150.727  1.00  0.00     0.004 C 
ATOM      7  C   UNL     1     137.362 133.093 150.220  1.00  0.00     0.004 C 
ENDBRANCH   5   6
BRANCH   5   8
ATOM      8  C   UNL     1     141.120 131.833 150.677  1.00  0.00    -0.011 C 
ATOM      9  C   UNL     1     141.539 132.281 152.089  1.00  0.00     0.008 C 
ATOM     10  C   UNL     1     140.778 130.330 150.716  1.00  0.00     0.008 C 
ENDBRANCH   5   8
ENDBRANCH   4   5
ENDBRANCH   1   3
BRANCH   1  11
ATOM     11  C   UNL     1     142.956 135.420 148.205  1.00  0.00     0.002 C 
ATOM     12  C   UNL     1     143.317 135.638 146.734  1.00  0.00     0.005 C 
ATOM     13  C   UNL     1     144.303 135.002 148.910  1.00  0.00    -0.026 C 
ATOM     14  C   UNL     1     144.467 134.694 146.436  1.00  0.00     0.005 C 
ATOM     15  C   UNL     1     145.225 134.470 147.760  1.00  0.00    -0.001 C 
ATOM     16  C   UNL     1     144.918 136.239 149.649  1.00  0.00     0.007 C 
ATOM     17  C   UNL     1     144.125 133.905 149.998  1.00  0.00     0.012 C 
ATOM     18  C   UNL     1     146.645 135.100 147.701  1.00  0.00    -0.004 C 
ATOM     19  C   UNL     1     145.632 137.259 148.753  1.00  0.00     0.005 C 
ATOM     20  C   UNL     1     146.590 136.664 147.667  1.00  0.00    -0.001 C 
ATOM     21  C   UNL     1     147.584 134.526 148.794  1.00  0.00     0.004 C 
ATOM     22  C   UNL     1     148.033 137.307 147.645  1.00  0.00    -0.026 C 
ATOM     23  C   UNL     1     148.960 135.204 148.831  1.00  0.00     0.004 C 
ATOM     24  C   UNL     1     148.836 136.741 148.868  1.00  0.00    -0.002 C 
ATOM     25  C   UNL     1     147.961 138.887 147.689  1.00  0.00     0.010 C 
ATOM     26  C   UNL     1     148.738 136.941 146.301  1.00  0.00     0.012 C 
ATOM     27  C   UNL     1     150.224 137.404 149.032  1.00  0.00     0.036 C 
ATOM     28  C   UNL     1     148.764 139.517 148.834  1.00  0.00     0.032 C 
ATOM     29  C   UNL     1     150.194 138.944 148.868  1.00  0.00     0.114 C 
BRANCH  29  30
ATOM     30  O   UNL     1     150.958 139.568 149.869  1.00  0.00    -0.393 OA
ATOM     31  H   UNL     1     150.371 139.680 150.666  1.00  0.00     0.210 HD
ENDBRANCH  29  30
ENDBRANCH   1  11
TORSDOF 6
ENDMDL
MODEL 2
REMARK VINA RESULT:    -6.736      3.174      8.634
REMARK INTER + INTRA:         -10.205
REMARK INTER:                  -8.480
REMARK INTRA:                  -1.724
REMARK UNBOUND:                -1.303
REMARK SMILES CC[C@@H](C=C[C@@H](C)[C@@H]1CC[C@H]2[C@@H]3CC[C@H]4C[C@H](O)CC[C@]4(C)[C@@H]3CC[C@]21C)C(C)C
REMARK SMILES IDX 6 1 7 2 5 3 4 4 3 5 2 6 1 7 28 8 29 9 30 10 8 11 9 12 26 13
REMARK SMILES IDX 10 14 11 15 25 16 27 17 12 18 24 19 23 20 13 21 21 22 14 23
REMARK SMILES IDX 15 24 20 25 22 26 16 27 19 28 17 29 18 30
REMARK H PARENT 18 31
REMARK Flexibility Score: inf
ROOT
ATOM      1  C   UNL     1     145.879 136.169 146.958  1.00  0.00     0.012 C 
ATOM      2  C   UNL     1     145.566 137.186 145.842  1.00  0.00     0.012 C 
ENDROOT
BRANCH   1   3
ATOM      3  C   UNL     1     147.234 135.538 146.685  1.00  0.00    -0.028 C 
ATOM      4  C   UNL     1     148.250 135.489 147.566  1.00  0.00    -0.027 C 
BRANCH   4   5
ATOM      5  C   UNL     1     148.264 136.182 148.922  1.00  0.00     0.014 C 
BRANCH   5   6
ATOM      6  C   UNL     1     149.212 137.411 148.858  1.00  0.00     0.004 C 
ATOM      7  C   UNL     1     148.530 138.709 148.413  1.00  0.00     0.004 C 
ENDBRANCH   5   6
BRANCH   5   8
ATOM      8  C   UNL     1     148.612 135.171 150.062  1.00  0.00    -0.011 C 
ATOM      9  C   UNL     1     147.490 134.139 150.283  1.00  0.00     0.008 C 
ATOM     10  C   UNL     1     149.921 134.418 149.750  1.00  0.00     0.008 C 
ENDBRANCH   5   8
ENDBRANCH   4   5
ENDBRANCH   1   3
BRANCH   1  11
ATOM     11  C   UNL     1     144.798 135.043 147.156  1.00  0.00     0.002 C 
ATOM     12  C   UNL     1     143.835 134.945 145.971  1.00  0.00     0.005 C 
ATOM     13  C   UNL     1     143.880 135.116 148.437  1.00  0.00    -0.026 C 
ATOM     14  C   UNL     1     142.579 135.690 146.383  1.00  0.00     0.005 C 
ATOM     15  C   UNL     1     142.485 135.607 147.919  1.00  0.00    -0.001 C 
ATOM     16  C   UNL     1     143.807 133.705 149.115  1.00  0.00     0.007 C 
ATOM     17  C   UNL     1     144.410 136.085 149.532  1.00  0.00     0.012 C 
ATOM     18  C   UNL     1     141.271 134.737 148.355  1.00  0.00    -0.004 C 
ATOM     19  C   UNL     1     142.882 132.690 148.435  1.00  0.00     0.005 C 
ATOM     20  C   UNL     1     141.476 133.227 148.001  1.00  0.00    -0.001 C 
ATOM     21  C   UNL     1     140.874 134.990 149.833  1.00  0.00     0.004 C 
ATOM     22  C   UNL     1     140.262 132.336 148.477  1.00  0.00    -0.026 C 
ATOM     23  C   UNL     1     139.748 134.071 150.325  1.00  0.00     0.004 C 
ATOM     24  C   UNL     1     140.043 132.590 150.010  1.00  0.00    -0.002 C 
ATOM     25  C   UNL     1     140.519 130.803 148.181  1.00  0.00     0.010 C 
ATOM     26  C   UNL     1     138.988 132.729 147.663  1.00  0.00     0.012 C 
ATOM     27  C   UNL     1     138.963 131.668 150.622  1.00  0.00     0.036 C 
ATOM     28  C   UNL     1     140.397 129.901 149.416  1.00  0.00     0.032 C 
ATOM     29  C   UNL     1     139.085 130.191 150.169  1.00  0.00     0.114 C 
BRANCH  29  30
ATOM     30  O   UNL     1     138.932 129.320 151.260  1.00  0.00    -0.393 OA
ATOM     31  H   UNL     1     138.043 128.882 151.170  1.00  0.00     0.210 HD
ENDBRANCH  29  30
ENDBRANCH   1  11
TORSDOF 6
ENDMDL
MODEL 3
REMARK VINA RESULT:    -6.723      3.513      6.400
REMARK INTER + INTRA:         -10.187
REMARK INTER:                  -8.378
REMARK INTRA:                  -1.809
REMARK UNBOUND:                -1.303
REMARK SMILES CC[C@@H](C=C[C@@H](C)[C@@H]1CC[C@H]2[C@@H]3CC[C@H]4C[C@H](O)CC[C@]4(C)[C@@H]3CC[C@]21C)C(C)C
REMARK SMILES IDX 6 1 7 2 5 3 4 4 3 5 2 6 1 7 28 8 29 9 30 10 8 11 9 12 26 13
REMARK SMILES IDX 10 14 11 15 25 16 27 17 12 18 24 19 23 20 13 21 21 22 14 23
REMARK SMILES IDX 15 24 20 25 22 26 16 27 19 28 17 29 18 30
REMARK H PARENT 18 31
REMARK Flexibility Score: inf
ROOT
ATOM      1  C   UNL     1     147.423 137.581 146.383  1.00  0.00     0.012 C 
ATOM      2  C   UNL     1     148.310 138.788 146.020  1.00  0.00     0.012 C 
ENDROOT
BRANCH   1   3
ATOM      3  C   UNL     1     145.963 137.983 146.245  1.00  0.00    -0.028 C 
ATOM      4  C   UNL     1     144.928 137.313 146.783  1.00  0.00    -0.027 C 
BRANCH   4   5
ATOM      5  C   UNL     1     145.032 135.968 147.491  1.00  0.00     0.014 C 
BRANCH   5   6
ATOM      6  C   UNL     1     144.601 134.841 146.512  1.00  0.00     0.004 C 
ATOM      7  C   UNL     1     145.652 133.742 146.317  1.00  0.00     0.004 C 
ENDBRANCH   5   6
BRANCH   5   8
ATOM      8  C   UNL     1     144.234 135.980 148.835  1.00  0.00    -0.011 C 
ATOM      9  C   UNL     1     144.417 134.674 149.630  1.00  0.00     0.008 C 
ATOM     10  C   UNL     1     144.669 137.164 149.722  1.00  0.00     0.008 C 
ENDBRANCH   5   8
ENDBRANCH   4   5
ENDBRANCH   1   3
BRANCH   1  11
ATOM     11  C   UNL     1     147.674 136.973 147.813  1.00  0.00     0.002 C 
ATOM     12  C   UNL     1     148.118 138.031 148.825  1.00  0.00     0.005 C 
ATOM     13  C   UNL     1     148.722 135.802 147.944  1.00  0.00    -0.026 C 
ATOM     14  C   UNL     1     149.627 137.912 148.928  1.00  0.00     0.005 C 
ATOM     15  C   UNL     1     149.991 136.452 148.594  1.00  0.00    -0.001 C 
ATOM     16  C   UNL     1     148.120 134.652 148.821  1.00  0.00     0.007 C 
ATOM     17  C   UNL     1     149.099 135.145 146.585  1.00  0.00     0.012 C 
ATOM     18  C   UNL     1     150.547 135.717 149.847  1.00  0.00    -0.004 C 
ATOM     19  C   UNL     1     148.119 134.903 150.334  1.00  0.00     0.005 C 
ATOM     20  C   UNL     1     149.441 135.492 150.931  1.00  0.00    -0.001 C 
ATOM     21  C   UNL     1     151.330 134.432 149.468  1.00  0.00     0.004 C 
ATOM     22  C   UNL     1     149.994 134.711 152.188  1.00  0.00    -0.026 C 
ATOM     23  C   UNL     1     151.800 133.627 150.687  1.00  0.00     0.004 C 
ATOM     24  C   UNL     1     150.649 133.377 151.683  1.00  0.00    -0.002 C 
ATOM     25  C   UNL     1     148.848 134.424 153.240  1.00  0.00     0.010 C 
ATOM     26  C   UNL     1     151.046 135.601 152.923  1.00  0.00     0.012 C 
ATOM     27  C   UNL     1     151.108 132.459 152.841  1.00  0.00     0.036 C 
ATOM     28  C   UNL     1     148.698 132.943 153.611  1.00  0.00     0.032 C 
ATOM     29  C   UNL     1     150.066 132.339 153.981  1.00  0.00     0.114 C 
BRANCH  29  30
ATOM     30  O   UNL     1     149.926 131.002 154.390  1.00  0.00    -0.393 OA
ATOM     31  H   UNL     1     149.130 130.953 154.985  1.00  0.00     0.210 HD
ENDBRANCH  29  30
ENDBRANCH   1  11
TORSDOF 6
ENDMDL
MODEL 4
REMARK VINA RESULT:    -6.497      3.638      8.559
REMARK INTER + INTRA:          -9.889
REMARK INTER:                  -8.213
REMARK INTRA:                  -1.676
REMARK UNBOUND:                -1.303
REMARK SMILES CC[C@@H](C=C[C@@H](C)[C@@H]1CC[C@H]2[C@@H]3CC[C@H]4C[C@H](O)CC[C@]4(C)[C@@H]3CC[C@]21C)C(C)C
REMARK SMILES IDX 6 1 7 2 5 3 4 4 3 5 2 6 1 7 28 8 29 9 30 10 8 11 9 12 26 13
REMARK SMILES IDX 10 14 11 15 25 16 27 17 12 18 24 19 23 20 13 21 21 22 14 23
REMARK SMILES IDX 15 24 20 25 22 26 16 27 19 28 17 29 18 30
REMARK H PARENT 18 31
REMARK Flexibility Score: inf
ROOT
ATOM      1  C   UNL     1     145.680 136.152 146.895  1.00  0.00     0.012 C 
ATOM      2  C   UNL     1     147.059 135.736 147.445  1.00  0.00     0.012 C 
ENDROOT
BRANCH   1   3
ATOM      3  C   UNL     1     145.664 137.658 146.692  1.00  0.00    -0.028 C 
ATOM      4  C   UNL     1     145.013 138.291 145.699  1.00  0.00    -0.027 C 
BRANCH   4   5
ATOM      5  C   UNL     1     144.310 137.602 144.536  1.00  0.00     0.014 C 
BRANCH   5   6
ATOM      6  C   UNL     1     144.575 138.403 143.231  1.00  0.00     0.004 C 
ATOM      7  C   UNL     1     145.928 139.123 143.200  1.00  0.00     0.004 C 
ENDBRANCH   5   6
BRANCH   5   8
ATOM      8  C   UNL     1     142.794 137.384 144.850  1.00  0.00    -0.011 C 
ATOM      9  C   UNL     1     141.929 138.571 144.386  1.00  0.00     0.008 C 
ATOM     10  C   UNL     1     142.272 136.099 144.177  1.00  0.00     0.008 C 
ENDBRANCH   5   8
ENDBRANCH   4   5
ENDBRANCH   1   3
BRANCH   1  11
ATOM     11  C   UNL     1     144.452 135.722 147.781  1.00  0.00     0.002 C 
ATOM     12  C   UNL     1     144.767 135.773 149.278  1.00  0.00     0.005 C 
ATOM     13  C   UNL     1     143.825 134.296 147.533  1.00  0.00    -0.026 C 
ATOM     14  C   UNL     1     145.078 134.348 149.694  1.00  0.00     0.005 C 
ATOM     15  C   UNL     1     144.306 133.417 148.738  1.00  0.00    -0.001 C 
ATOM     16  C   UNL     1     142.264 134.411 147.460  1.00  0.00     0.007 C 
ATOM     17  C   UNL     1     144.265 133.643 146.191  1.00  0.00     0.012 C 
ATOM     18  C   UNL     1     143.183 132.652 149.493  1.00  0.00    -0.004 C 
ATOM     19  C   UNL     1     141.546 134.561 148.806  1.00  0.00     0.005 C 
ATOM     20  C   UNL     1     142.030 133.607 149.950  1.00  0.00    -0.001 C 
ATOM     21  C   UNL     1     142.696 131.406 148.707  1.00  0.00     0.004 C 
ATOM     22  C   UNL     1     140.869 132.826 150.683  1.00  0.00    -0.026 C 
ATOM     23  C   UNL     1     141.514 130.691 149.375  1.00  0.00     0.004 C 
ATOM     24  C   UNL     1     140.382 131.675 149.735  1.00  0.00    -0.002 C 
ATOM     25  C   UNL     1     139.678 133.793 151.070  1.00  0.00     0.010 C 
ATOM     26  C   UNL     1     141.412 132.245 152.028  1.00  0.00     0.012 C 
ATOM     27  C   UNL     1     139.150 130.922 150.291  1.00  0.00     0.036 C 
ATOM     28  C   UNL     1     138.312 133.345 150.532  1.00  0.00     0.032 C 
ATOM     29  C   UNL     1     138.061 131.863 150.865  1.00  0.00     0.114 C 
BRANCH  29  30
ATOM     30  O   UNL     1     136.783 131.465 150.438  1.00  0.00    -0.393 OA
ATOM     31  H   UNL     1     136.783 130.471 150.381  1.00  0.00     0.210 HD
ENDBRANCH  29  30
ENDBRANCH   1  11
TORSDOF 6
ENDMDL
MODEL 5
REMARK VINA RESULT:    -6.368      1.918      3.128
REMARK INTER + INTRA:          -9.718
REMARK INTER:                  -8.148
REMARK INTRA:                  -1.570
REMARK UNBOUND:                -1.303
REMARK SMILES CC[C@@H](C=C[C@@H](C)[C@@H]1CC[C@H]2[C@@H]3CC[C@H]4C[C@H](O)CC[C@]4(C)[C@@H]3CC[C@]21C)C(C)C
REMARK SMILES IDX 6 1 7 2 5 3 4 4 3 5 2 6 1 7 28 8 29 9 30 10 8 11 9 12 26 13
REMARK SMILES IDX 10 14 11 15 25 16 27 17 12 18 24 19 23 20 13 21 21 22 14 23
REMARK SMILES IDX 15 24 20 25 22 26 16 27 19 28 17 29 18 30
REMARK H PARENT 18 31
REMARK Flexibility Score: inf
ROOT
ATOM      1  C   UNL     1     140.293 132.639 146.218  1.00  0.00     0.012 C 
ATOM      2  C   UNL     1     140.215 131.583 145.096  1.00  0.00     0.012 C 
ENDROOT
BRANCH   1   3
ATOM      3  C   UNL     1     139.009 133.451 146.222  1.00  0.00    -0.028 C 
ATOM      4  C   UNL     1     138.065 133.391 147.179  1.00  0.00    -0.027 C 
BRANCH   4   5
ATOM      5  C   UNL     1     138.056 132.399 148.336  1.00  0.00     0.014 C 
BRANCH   5   6
ATOM      6  C   UNL     1     137.422 131.064 147.858  1.00  0.00     0.004 C 
ATOM      7  C   UNL     1     138.298 129.830 148.102  1.00  0.00     0.004 C 
ENDBRANCH   5   6
BRANCH   5   8
ATOM      8  C   UNL     1     137.365 133.016 149.595  1.00  0.00    -0.011 C 
ATOM      9  C   UNL     1     136.315 132.068 150.203  1.00  0.00     0.008 C 
ATOM     10  C   UNL     1     138.405 133.362 150.679  1.00  0.00     0.008 C 
ENDBRANCH   5   8
ENDBRANCH   4   5
ENDBRANCH   1   3
BRANCH   1  11
ATOM     11  C   UNL     1     141.533 133.604 146.139  1.00  0.00     0.002 C 
ATOM     12  C   UNL     1     142.577 133.131 145.125  1.00  0.00     0.005 C 
ATOM     13  C   UNL     1     142.336 133.886 147.467  1.00  0.00    -0.026 C 
ATOM     14  C   UNL     1     143.658 132.430 145.926  1.00  0.00     0.005 C 
ATOM     15  C   UNL     1     143.661 133.059 147.333  1.00  0.00    -0.001 C 
ATOM     16  C   UNL     1     142.601 135.424 147.608  1.00  0.00     0.007 C 
ATOM     17  C   UNL     1     141.578 133.467 148.758  1.00  0.00     0.012 C 
ATOM     18  C   UNL     1     144.972 133.858 147.582  1.00  0.00    -0.004 C 
ATOM     19  C   UNL     1     143.728 135.986 146.734  1.00  0.00     0.005 C 
ATOM     20  C   UNL     1     145.049 135.146 146.696  1.00  0.00    -0.001 C 
ATOM     21  C   UNL     1     145.220 134.115 149.092  1.00  0.00     0.004 C 
ATOM     22  C   UNL     1     146.361 135.979 146.975  1.00  0.00    -0.026 C 
ATOM     23  C   UNL     1     146.448 134.993 149.364  1.00  0.00     0.004 C 
ATOM     24  C   UNL     1     146.429 136.279 148.513  1.00  0.00    -0.002 C 
ATOM     25  C   UNL     1     146.388 137.315 146.128  1.00  0.00     0.010 C 
ATOM     26  C   UNL     1     147.603 135.150 146.517  1.00  0.00     0.012 C 
ATOM     27  C   UNL     1     147.606 137.210 148.891  1.00  0.00     0.036 C 
ATOM     28  C   UNL     1     146.576 138.584 146.971  1.00  0.00     0.032 C 
ATOM     29  C   UNL     1     147.766 138.419 147.935  1.00  0.00     0.114 C 
BRANCH  29  30
ATOM     30  O   UNL     1     147.990 139.602 148.659  1.00  0.00    -0.393 OA
ATOM     31  H   UNL     1     147.934 140.360 148.017  1.00  0.00     0.210 HD
ENDBRANCH  29  30
ENDBRANCH   1  11
TORSDOF 6
ENDMDL
MODEL 6
REMARK VINA RESULT:    -6.344      2.005      3.979
REMARK INTER + INTRA:          -9.686
REMARK INTER:                  -8.092
REMARK INTRA:                  -1.594
REMARK UNBOUND:                -1.303
REMARK SMILES CC[C@@H](C=C[C@@H](C)[C@@H]1CC[C@H]2[C@@H]3CC[C@H]4C[C@H](O)CC[C@]4(C)[C@@H]3CC[C@]21C)C(C)C
REMARK SMILES IDX 6 1 7 2 5 3 4 4 3 5 2 6 1 7 28 8 29 9 30 10 8 11 9 12 26 13
REMARK SMILES IDX 10 14 11 15 25 16 27 17 12 18 24 19 23 20 13 21 21 22 14 23
REMARK SMILES IDX 15 24 20 25 22 26 16 27 19 28 17 29 18 30
REMARK H PARENT 18 31
REMARK Flexibility Score: inf
ROOT
ATOM      1  C   UNL     1     141.049 132.336 147.963  1.00  0.00     0.012 C 
ATOM      2  C   UNL     1     140.846 131.187 148.971  1.00  0.00     0.012 C 
ENDROOT
BRANCH   1   3
ATOM      3  C   UNL     1     140.479 131.917 146.617  1.00  0.00    -0.028 C 
ATOM      4  C   UNL     1     139.425 132.498 146.015  1.00  0.00    -0.027 C 
BRANCH   4   5
ATOM      5  C   UNL     1     138.542 133.568 146.643  1.00  0.00     0.014 C 
BRANCH   5   6
ATOM      6  C   UNL     1     137.499 132.889 147.573  1.00  0.00     0.004 C 
ATOM      7  C   UNL     1     137.640 133.262 149.053  1.00  0.00     0.004 C 
ENDBRANCH   5   6
BRANCH   5   8
ATOM      8  C   UNL     1     137.912 134.486 145.546  1.00  0.00    -0.011 C 
ATOM      9  C   UNL     1     138.982 135.134 144.648  1.00  0.00     0.008 C 
ATOM     10  C   UNL     1     136.936 133.690 144.656  1.00  0.00     0.008 C 
ENDBRANCH   5   8
ENDBRANCH   4   5
ENDBRANCH   1   3
BRANCH   1  11
ATOM     11  C   UNL     1     142.538 132.812 147.785  1.00  0.00     0.002 C 
ATOM     12  C   UNL     1     143.498 132.092 148.735  1.00  0.00     0.005 C 
ATOM     13  C   UNL     1     142.849 134.348 147.961  1.00  0.00    -0.026 C 
ATOM     14  C   UNL     1     143.735 133.039 149.895  1.00  0.00     0.005 C 
ATOM     15  C   UNL     1     143.549 134.472 149.357  1.00  0.00    -0.001 C 
ATOM     16  C   UNL     1     143.761 134.840 146.786  1.00  0.00     0.007 C 
ATOM     17  C   UNL     1     141.583 135.251 147.920  1.00  0.00     0.012 C 
ATOM     18  C   UNL     1     144.898 135.246 149.358  1.00  0.00    -0.004 C 
ATOM     19  C   UNL     1     145.243 134.464 146.895  1.00  0.00     0.005 C 
ATOM     20  C   UNL     1     145.901 134.674 148.301  1.00  0.00    -0.001 C 
ATOM     21  C   UNL     1     144.690 136.780 149.264  1.00  0.00     0.004 C 
ATOM     22  C   UNL     1     147.257 135.483 148.273  1.00  0.00    -0.026 C 
ATOM     23  C   UNL     1     146.003 137.566 149.155  1.00  0.00     0.004 C 
ATOM     24  C   UNL     1     146.916 136.998 148.049  1.00  0.00    -0.002 C 
ATOM     25  C   UNL     1     148.229 134.942 147.148  1.00  0.00     0.010 C 
ATOM     26  C   UNL     1     148.005 135.278 149.629  1.00  0.00     0.012 C 
ATOM     27  C   UNL     1     148.177 137.876 147.868  1.00  0.00     0.036 C 
ATOM     28  C   UNL     1     148.703 136.018 146.162  1.00  0.00     0.032 C 
ATOM     29  C   UNL     1     149.232 137.249 146.921  1.00  0.00     0.114 C 
BRANCH  29  30
ATOM     30  O   UNL     1     149.733 138.210 146.026  1.00  0.00    -0.393 OA
ATOM     31  H   UNL     1     148.953 138.674 145.620  1.00  0.00     0.210 HD
ENDBRANCH  29  30
ENDBRANCH   1  11
TORSDOF 6
ENDMDL
MODEL 7
REMARK VINA RESULT:    -6.290      3.252      8.606
REMARK INTER + INTRA:          -9.614
REMARK INTER:                  -9.064
REMARK INTRA:                  -0.550
REMARK UNBOUND:                -1.303
REMARK SMILES CC[C@@H](C=C[C@@H](C)[C@@H]1CC[C@H]2[C@@H]3CC[C@H]4C[C@H](O)CC[C@]4(C)[C@@H]3CC[C@]21C)C(C)C
REMARK SMILES IDX 6 1 7 2 5 3 4 4 3 5 2 6 1 7 28 8 29 9 30 10 8 11 9 12 26 13
REMARK SMILES IDX 10 14 11 15 25 16 27 17 12 18 24 19 23 20 13 21 21 22 14 23
REMARK SMILES IDX 15 24 20 25 22 26 16 27 19 28 17 29 18 30
REMARK H PARENT 18 31
REMARK Flexibility Score: inf
ROOT
ATOM      1  C   UNL     1     145.429 136.796 147.129  1.00  0.00     0.012 C 
ATOM      2  C   UNL     1     145.008 137.429 145.788  1.00  0.00     0.012 C 
ENDROOT
BRANCH   1   3
ATOM      3  C   UNL     1     146.453 135.705 146.860  1.00  0.00    -0.028 C 
ATOM      4  C   UNL     1     147.622 135.571 147.514  1.00  0.00    -0.027 C 
BRANCH   4   5
ATOM      5  C   UNL     1     148.177 136.567 148.524  1.00  0.00     0.014 C 
BRANCH   5   6
ATOM      6  C   UNL     1     148.961 137.676 147.769  1.00  0.00     0.004 C 
ATOM      7  C   UNL     1     148.287 139.053 147.798  1.00  0.00     0.004 C 
ENDBRANCH   5   6
BRANCH   5   8
ATOM      8  C   UNL     1     149.012 135.838 149.626  1.00  0.00    -0.011 C 
ATOM      9  C   UNL     1     148.367 134.507 150.055  1.00  0.00     0.008 C 
ATOM     10  C   UNL     1     150.446 135.557 149.135  1.00  0.00     0.008 C 
ENDBRANCH   5   8
ENDBRANCH   4   5
ENDBRANCH   1   3
BRANCH   1  11
ATOM     11  C   UNL     1     144.249 136.216 147.994  1.00  0.00     0.002 C 
ATOM     12  C   UNL     1     144.618 136.090 149.473  1.00  0.00     0.005 C 
ATOM     13  C   UNL     1     143.656 134.813 147.587  1.00  0.00    -0.026 C 
ATOM     14  C   UNL     1     144.987 134.635 149.695  1.00  0.00     0.005 C 
ATOM     15  C   UNL     1     144.208 133.806 148.654  1.00  0.00    -0.001 C 
ATOM     16  C   UNL     1     142.091 134.883 147.582  1.00  0.00     0.007 C 
ATOM     17  C   UNL     1     144.064 134.350 146.160  1.00  0.00     0.012 C 
ATOM     18  C   UNL     1     143.137 132.913 149.343  1.00  0.00    -0.004 C 
ATOM     19  C   UNL     1     141.420 134.837 148.959  1.00  0.00     0.005 C 
ATOM     20  C   UNL     1     141.974 133.763 149.956  1.00  0.00    -0.001 C 
ATOM     21  C   UNL     1     142.658 131.761 148.421  1.00  0.00     0.004 C 
ATOM     22  C   UNL     1     140.866 132.857 150.622  1.00  0.00    -0.026 C 
ATOM     23  C   UNL     1     141.524 130.927 149.032  1.00  0.00     0.004 C 
ATOM     24  C   UNL     1     140.378 131.818 149.552  1.00  0.00    -0.002 C 
ATOM     25  C   UNL     1     139.661 133.725 151.169  1.00  0.00     0.010 C 
ATOM     26  C   UNL     1     141.475 132.129 151.863  1.00  0.00     0.012 C 
ATOM     27  C   UNL     1     139.191 130.959 150.048  1.00  0.00     0.036 C 
ATOM     28  C   UNL     1     138.290 133.303 150.624  1.00  0.00     0.032 C 
ATOM     29  C   UNL     1     138.096 131.782 150.774  1.00  0.00     0.114 C 
BRANCH  29  30
ATOM     30  O   UNL     1     136.815 131.398 150.343  1.00  0.00    -0.393 OA
ATOM     31  H   UNL     1     136.562 131.996 149.589  1.00  0.00     0.210 HD
ENDBRANCH  29  30
ENDBRANCH   1  11
TORSDOF 6
ENDMDL
MODEL 8
REMARK VINA RESULT:    -6.068      1.964      4.319
REMARK INTER + INTRA:          -9.321
REMARK INTER:                  -7.486
REMARK INTRA:                  -1.835
REMARK UNBOUND:                -1.303
REMARK SMILES CC[C@@H](C=C[C@@H](C)[C@@H]1CC[C@H]2[C@@H]3CC[C@H]4C[C@H](O)CC[C@]4(C)[C@@H]3CC[C@]21C)C(C)C
REMARK SMILES IDX 6 1 7 2 5 3 4 4 3 5 2 6 1 7 28 8 29 9 30 10 8 11 9 12 26 13
REMARK SMILES IDX 10 14 11 15 25 16 27 17 12 18 24 19 23 20 13 21 21 22 14 23
REMARK SMILES IDX 15 24 20 25 22 26 16 27 19 28 17 29 18 30
REMARK H PARENT 18 31
REMARK Flexibility Score: inf
ROOT
ATOM      1  C   UNL     1     139.030 132.260 149.377  1.00  0.00     0.012 C 
ATOM      2  C   UNL     1     137.912 133.302 149.579  1.00  0.00     0.012 C 
ENDROOT
BRANCH   1   3
ATOM      3  C   UNL     1     138.817 131.113 150.351  1.00  0.00    -0.028 C 
ATOM      4  C   UNL     1     139.726 130.160 150.626  1.00  0.00    -0.027 C 
BRANCH   4   5
ATOM      5  C   UNL     1     141.057 129.989 149.905  1.00  0.00     0.014 C 
BRANCH   5   6
ATOM      6  C   UNL     1     140.916 128.876 148.830  1.00  0.00     0.004 C 
ATOM      7  C   UNL     1     141.153 129.357 147.394  1.00  0.00     0.004 C 
ENDBRANCH   5   6
BRANCH   5   8
ATOM      8  C   UNL     1     142.217 129.744 150.924  1.00  0.00    -0.011 C 
ATOM      9  C   UNL     1     143.517 129.302 150.228  1.00  0.00     0.008 C 
ATOM     10  C   UNL     1     142.505 131.016 151.747  1.00  0.00     0.008 C 
ENDBRANCH   5   8
ENDBRANCH   4   5
ENDBRANCH   1   3
BRANCH   1  11
ATOM     11  C   UNL     1     140.495 132.817 149.525  1.00  0.00     0.002 C 
ATOM     12  C   UNL     1     140.579 133.981 150.515  1.00  0.00     0.005 C 
ATOM     13  C   UNL     1     141.229 133.320 148.223  1.00  0.00    -0.026 C 
ATOM     14  C   UNL     1     140.591 135.247 149.680  1.00  0.00     0.005 C 
ATOM     15  C   UNL     1     141.208 134.885 148.314  1.00  0.00    -0.001 C 
ATOM     16  C   UNL     1     142.684 132.741 148.180  1.00  0.00     0.007 C 
ATOM     17  C   UNL     1     140.550 132.857 146.903  1.00  0.00     0.012 C 
ATOM     18  C   UNL     1     142.586 135.580 148.125  1.00  0.00    -0.004 C 
ATOM     19  C   UNL     1     143.701 133.433 149.095  1.00  0.00     0.005 C 
ATOM     20  C   UNL     1     143.672 134.999 149.090  1.00  0.00    -0.001 C 
ATOM     21  C   UNL     1     143.020 135.618 146.636  1.00  0.00     0.004 C 
ATOM     22  C   UNL     1     145.082 135.677 148.873  1.00  0.00    -0.026 C 
ATOM     23  C   UNL     1     144.424 136.202 146.428  1.00  0.00     0.004 C 
ATOM     24  C   UNL     1     145.461 135.538 147.357  1.00  0.00    -0.002 C 
ATOM     25  C   UNL     1     146.185 135.025 149.801  1.00  0.00     0.010 C 
ATOM     26  C   UNL     1     144.998 137.180 149.288  1.00  0.00     0.012 C 
ATOM     27  C   UNL     1     146.888 136.047 147.046  1.00  0.00     0.036 C 
ATOM     28  C   UNL     1     147.412 134.503 149.041  1.00  0.00     0.032 C 
ATOM     29  C   UNL     1     147.946 135.579 148.077  1.00  0.00     0.114 C 
BRANCH  29  30
ATOM     30  O   UNL     1     149.111 135.134 147.429  1.00  0.00    -0.393 OA
ATOM     31  H   UNL     1     149.101 135.508 146.507  1.00  0.00     0.210 HD
ENDBRANCH  29  30
ENDBRANCH   1  11
TORSDOF 6
ENDMDL
MODEL 9
REMARK VINA RESULT:    -6.043      2.718      4.973
REMARK INTER + INTRA:          -9.288
REMARK INTER:                  -7.762
REMARK INTRA:                  -1.527
REMARK UNBOUND:                -1.303
REMARK SMILES CC[C@@H](C=C[C@@H](C)[C@@H]1CC[C@H]2[C@@H]3CC[C@H]4C[C@H](O)CC[C@]4(C)[C@@H]3CC[C@]21C)C(C)C
REMARK SMILES IDX 6 1 7 2 5 3 4 4 3 5 2 6 1 7 28 8 29 9 30 10 8 11 9 12 26 13
REMARK SMILES IDX 10 14 11 15 25 16 27 17 12 18 24 19 23 20 13 21 21 22 14 23
REMARK SMILES IDX 15 24 20 25 22 26 16 27 19 28 17 29 18 30
REMARK H PARENT 18 31
REMARK Flexibility Score: inf
ROOT
ATOM      1  C   UNL     1     139.093 131.656 149.553  1.00  0.00     0.012 C 
ATOM      2  C   UNL     1     138.174 131.907 150.765  1.00  0.00     0.012 C 
ENDROOT
BRANCH   1   3
ATOM      3  C   UNL     1     139.226 130.157 149.337  1.00  0.00    -0.028 C 
ATOM      4  C   UNL     1     138.501 129.441 148.458  1.00  0.00    -0.027 C 
BRANCH   4   5
ATOM      5  C   UNL     1     137.333 129.982 147.642  1.00  0.00     0.014 C 
BRANCH   5   6
ATOM      6  C   UNL     1     136.049 129.182 147.996  1.00  0.00     0.004 C 
ATOM      7  C   UNL     1     135.234 129.779 149.148  1.00  0.00     0.004 C 
ENDBRANCH   5   6
BRANCH   5   8
ATOM      8  C   UNL     1     137.675 129.993 146.117  1.00  0.00    -0.011 C 
ATOM      9  C   UNL     1     138.850 129.057 145.779  1.00  0.00     0.008 C 
ATOM     10  C   UNL     1     136.452 129.575 145.276  1.00  0.00     0.008 C 
ENDBRANCH   5   8
ENDBRANCH   4   5
ENDBRANCH   1   3
BRANCH   1  11
ATOM     11  C   UNL     1     140.522 132.307 149.653  1.00  0.00     0.002 C 
ATOM     12  C   UNL     1     140.579 133.431 150.690  1.00  0.00     0.005 C 
ATOM     13  C   UNL     1     141.152 132.914 148.341  1.00  0.00    -0.026 C 
ATOM     14  C   UNL     1     140.461 134.729 149.914  1.00  0.00     0.005 C 
ATOM     15  C   UNL     1     141.030 134.468 148.504  1.00  0.00    -0.001 C 
ATOM     16  C   UNL     1     142.638 132.440 148.201  1.00  0.00     0.007 C 
ATOM     17  C   UNL     1     140.438 132.460 147.036  1.00  0.00     0.012 C 
ATOM     18  C   UNL     1     142.346 135.266 148.280  1.00  0.00    -0.004 C 
ATOM     19  C   UNL     1     143.652 133.163 149.095  1.00  0.00     0.005 C 
ATOM     20  C   UNL     1     143.518 134.722 149.163  1.00  0.00    -0.001 C 
ATOM     21  C   UNL     1     142.699 135.396 146.774  1.00  0.00     0.004 C 
ATOM     22  C   UNL     1     144.865 135.505 148.908  1.00  0.00    -0.026 C 
ATOM     23  C   UNL     1     144.047 136.084 146.524  1.00  0.00     0.004 C 
ATOM     24  C   UNL     1     145.173 135.456 147.370  1.00  0.00    -0.002 C 
ATOM     25  C   UNL     1     146.057 134.894 149.751  1.00  0.00     0.010 C 
ATOM     26  C   UNL     1     144.701 136.980 149.394  1.00  0.00     0.012 C 
ATOM     27  C   UNL     1     146.545 136.077 147.014  1.00  0.00     0.036 C 
ATOM     28  C   UNL     1     147.274 134.491 148.908  1.00  0.00     0.032 C 
ATOM     29  C   UNL     1     147.684 135.641 147.969  1.00  0.00     0.114 C 
BRANCH  29  30
ATOM     30  O   UNL     1     148.841 135.306 147.245  1.00  0.00    -0.393 OA
ATOM     31  H   UNL     1     149.060 134.358 147.454  1.00  0.00     0.210 HD
ENDBRANCH  29  30
ENDBRANCH   1  11
TORSDOF 6
ENDMDL
