MODEL 1
REMARK VINA RESULT:    -3.726      0.000      0.000
REMARK INTER + INTRA:          -4.013
REMARK INTER:                  -3.944
REMARK INTRA:                  -0.068
REMARK UNBOUND:                -0.068
REMARK SMILES CC(=O)c1ccccc1
REMARK SMILES IDX 4 1 5 2 6 3 7 4 8 5 9 6 2 7 1 8 3 9
REMARK H PARENT
REMARK Flexibility Score: inf
ROOT
ATOM      1  C   UNL     1      33.382 170.704  17.445  1.00  0.00     0.017 A 
ATOM      2  C   UNL     1      32.580 171.330  16.470  1.00  0.00     0.012 A 
ATOM      3  C   UNL     1      33.095 171.615  15.201  1.00  0.00     0.001 A 
ATOM      4  C   UNL     1      34.414 171.282  14.890  1.00  0.00     0.000 A 
ATOM      5  C   UNL     1      35.221 170.661  15.844  1.00  0.00     0.001 A 
ATOM      6  C   UNL     1      34.713 170.373  17.115  1.00  0.00     0.012 A 
ENDROOT
BRANCH   1   7
ATOM      7  C   UNL     1      32.822 170.406  18.791  1.00  0.00     0.159 C 
ATOM      8  C   UNL     1      31.732 171.237  19.398  1.00  0.00     0.093 C 
ATOM      9  O   UNL     1      33.268 169.428  19.452  1.00  0.00    -0.295 OA
ENDBRANCH   1   7
TORSDOF 1
ENDMDL
MODEL 2
REMARK VINA RESULT:    -3.698      0.083      1.615
REMARK INTER + INTRA:          -3.983
REMARK INTER:                  -3.916
REMARK INTRA:                  -0.067
REMARK UNBOUND:                -0.068
REMARK SMILES CC(=O)c1ccccc1
REMARK SMILES IDX 4 1 5 2 6 3 7 4 8 5 9 6 2 7 1 8 3 9
REMARK H PARENT
REMARK Flexibility Score: inf
ROOT
ATOM      1  C   UNL     1      33.391 170.660  17.433  1.00  0.00     0.017 A 
ATOM      2  C   UNL     1      34.736 170.377  17.124  1.00  0.00     0.012 A 
ATOM      3  C   UNL     1      35.249 170.654  15.853  1.00  0.00     0.001 A 
ATOM      4  C   UNL     1      34.428 171.217  14.875  1.00  0.00     0.000 A 
ATOM      5  C   UNL     1      33.093 171.504  15.165  1.00  0.00     0.001 A 
ATOM      6  C   UNL     1      32.574 171.228  16.433  1.00  0.00     0.012 A 
ENDROOT
BRANCH   1   7
ATOM      7  C   UNL     1      32.858 170.359  18.789  1.00  0.00     0.159 C 
ATOM      8  C   UNL     1      31.713 171.125  19.379  1.00  0.00     0.093 C 
ATOM      9  O   UNL     1      33.375 169.433  19.473  1.00  0.00    -0.295 OA
ENDBRANCH   1   7
TORSDOF 1
ENDMDL
MODEL 3
REMARK VINA RESULT:    -3.607     22.190     23.190
REMARK INTER + INTRA:          -3.886
REMARK INTER:                  -3.822
REMARK INTRA:                  -0.064
REMARK UNBOUND:                -0.068
REMARK SMILES CC(=O)c1ccccc1
REMARK SMILES IDX 4 1 5 2 6 3 7 4 8 5 9 6 2 7 1 8 3 9
REMARK H PARENT
REMARK Flexibility Score: inf
ROOT
ATOM      1  C   UNL     1      42.358 185.139  32.975  1.00  0.00     0.017 A 
ATOM      2  C   UNL     1      41.572 184.615  31.928  1.00  0.00     0.012 A 
ATOM      3  C   UNL     1      40.618 185.411  31.288  1.00  0.00     0.001 A 
ATOM      4  C   UNL     1      40.434 186.737  31.681  1.00  0.00     0.000 A 
ATOM      5  C   UNL     1      41.204 187.271  32.716  1.00  0.00     0.001 A 
ATOM      6  C   UNL     1      42.160 186.480  33.361  1.00  0.00     0.012 A 
ENDROOT
BRANCH   1   7
ATOM      7  C   UNL     1      43.369 184.281  33.649  1.00  0.00     0.159 C 
ATOM      8  C   UNL     1      44.357 183.462  32.874  1.00  0.00     0.093 C 
ATOM      9  O   UNL     1      43.409 184.232  34.909  1.00  0.00    -0.295 OA
ENDBRANCH   1   7
TORSDOF 1
ENDMDL
MODEL 4
REMARK VINA RESULT:    -3.604     22.223     23.227
REMARK INTER + INTRA:          -3.883
REMARK INTER:                  -3.821
REMARK INTRA:                  -0.063
REMARK UNBOUND:                -0.068
REMARK SMILES CC(=O)c1ccccc1
REMARK SMILES IDX 4 1 5 2 6 3 7 4 8 5 9 6 2 7 1 8 3 9
REMARK H PARENT
REMARK Flexibility Score: inf
ROOT
ATOM      1  C   UNL     1      42.365 185.125  33.019  1.00  0.00     0.017 A 
ATOM      2  C   UNL     1      42.173 186.475  33.372  1.00  0.00     0.012 A 
ATOM      3  C   UNL     1      41.221 187.256  32.709  1.00  0.00     0.001 A 
ATOM      4  C   UNL     1      40.450 186.701  31.687  1.00  0.00     0.000 A 
ATOM      5  C   UNL     1      40.628 185.365  31.325  1.00  0.00     0.001 A 
ATOM      6  C   UNL     1      41.579 184.579  31.983  1.00  0.00     0.012 A 
ENDROOT
BRANCH   1   7
ATOM      7  C   UNL     1      43.382 184.305  33.732  1.00  0.00     0.159 C 
ATOM      8  C   UNL     1      44.407 183.497  32.995  1.00  0.00     0.093 C 
ATOM      9  O   UNL     1      43.394 184.282  34.993  1.00  0.00    -0.295 OA
ENDBRANCH   1   7
TORSDOF 1
ENDMDL
MODEL 5
REMARK VINA RESULT:    -3.503     21.535     22.598
REMARK INTER + INTRA:          -3.776
REMARK INTER:                  -3.716
REMARK INTRA:                  -0.060
REMARK UNBOUND:                -0.068
REMARK SMILES CC(=O)c1ccccc1
REMARK SMILES IDX 4 1 5 2 6 3 7 4 8 5 9 6 2 7 1 8 3 9
REMARK H PARENT
REMARK Flexibility Score: inf
ROOT
ATOM      1  C   UNL     1      41.027 185.305  32.206  1.00  0.00     0.017 A 
ATOM      2  C   UNL     1      41.448 186.198  33.213  1.00  0.00     0.012 A 
ATOM      3  C   UNL     1      42.520 185.872  34.049  1.00  0.00     0.001 A 
ATOM      4  C   UNL     1      43.185 184.655  33.894  1.00  0.00     0.000 A 
ATOM      5  C   UNL     1      42.781 183.761  32.902  1.00  0.00     0.001 A 
ATOM      6  C   UNL     1      41.709 184.079  32.062  1.00  0.00     0.012 A 
ENDROOT
BRANCH   1   7
ATOM      7  C   UNL     1      39.884 185.664  31.323  1.00  0.00     0.159 C 
ATOM      8  C   UNL     1      38.481 185.755  31.841  1.00  0.00     0.093 C 
ATOM      9  O   UNL     1      40.089 185.900  30.101  1.00  0.00    -0.295 OA
ENDBRANCH   1   7
TORSDOF 1
ENDMDL
MODEL 6
REMARK VINA RESULT:    -3.490     21.254     22.264
REMARK INTER + INTRA:          -3.762
REMARK INTER:                  -3.700
REMARK INTRA:                  -0.063
REMARK UNBOUND:                -0.068
REMARK SMILES CC(=O)c1ccccc1
REMARK SMILES IDX 4 1 5 2 6 3 7 4 8 5 9 6 2 7 1 8 3 9
REMARK H PARENT
REMARK Flexibility Score: inf
ROOT
ATOM      1  C   UNL     1      40.792 185.445  32.157  1.00  0.00     0.017 A 
ATOM      2  C   UNL     1      39.611 185.260  32.903  1.00  0.00     0.012 A 
ATOM      3  C   UNL     1      38.361 185.525  32.335  1.00  0.00     0.001 A 
ATOM      4  C   UNL     1      38.272 185.978  31.018  1.00  0.00     0.000 A 
ATOM      5  C   UNL     1      39.432 186.166  30.266  1.00  0.00     0.001 A 
ATOM      6  C   UNL     1      40.685 185.904  30.828  1.00  0.00     0.012 A 
ENDROOT
BRANCH   1   7
ATOM      7  C   UNL     1      42.116 185.160  32.774  1.00  0.00     0.159 C 
ATOM      8  C   UNL     1      42.547 185.803  34.057  1.00  0.00     0.093 C 
ATOM      9  O   UNL     1      42.908 184.356  32.210  1.00  0.00    -0.295 OA
ENDBRANCH   1   7
TORSDOF 1
ENDMDL
MODEL 7
REMARK VINA RESULT:    -3.472     21.791     22.851
REMARK INTER + INTRA:          -3.743
REMARK INTER:                  -3.672
REMARK INTRA:                  -0.071
REMARK UNBOUND:                -0.068
REMARK SMILES CC(=O)c1ccccc1
REMARK SMILES IDX 4 1 5 2 6 3 7 4 8 5 9 6 2 7 1 8 3 9
REMARK H PARENT
REMARK Flexibility Score: inf
ROOT
ATOM      1  C   UNL     1      41.074 186.092  32.270  1.00  0.00     0.017 A 
ATOM      2  C   UNL     1      40.687 185.563  31.022  1.00  0.00     0.012 A 
ATOM      3  C   UNL     1      39.588 186.089  30.336  1.00  0.00     0.001 A 
ATOM      4  C   UNL     1      38.862 187.147  30.883  1.00  0.00     0.000 A 
ATOM      5  C   UNL     1      39.232 187.683  32.118  1.00  0.00     0.001 A 
ATOM      6  C   UNL     1      40.329 187.161  32.810  1.00  0.00     0.012 A 
ENDROOT
BRANCH   1   7
ATOM      7  C   UNL     1      42.244 185.522  32.990  1.00  0.00     0.159 C 
ATOM      8  C   UNL     1      42.944 184.285  32.513  1.00  0.00     0.093 C 
ATOM      9  O   UNL     1      42.672 186.087  34.034  1.00  0.00    -0.295 OA
ENDBRANCH   1   7
TORSDOF 1
ENDMDL
MODEL 8
REMARK VINA RESULT:    -3.465     21.601     22.686
REMARK INTER + INTRA:          -3.736
REMARK INTER:                  -3.676
REMARK INTRA:                  -0.060
REMARK UNBOUND:                -0.068
REMARK SMILES CC(=O)c1ccccc1
REMARK SMILES IDX 4 1 5 2 6 3 7 4 8 5 9 6 2 7 1 8 3 9
REMARK H PARENT
REMARK Flexibility Score: inf
ROOT
ATOM      1  C   UNL     1      41.030 185.368  32.273  1.00  0.00     0.017 A 
ATOM      2  C   UNL     1      41.749 184.172  32.076  1.00  0.00     0.012 A 
ATOM      3  C   UNL     1      42.830 183.847  32.901  1.00  0.00     0.001 A 
ATOM      4  C   UNL     1      43.207 184.708  33.932  1.00  0.00     0.000 A 
ATOM      5  C   UNL     1      42.505 185.897  34.141  1.00  0.00     0.001 A 
ATOM      6  C   UNL     1      41.424 186.228  33.318  1.00  0.00     0.012 A 
ENDROOT
BRANCH   1   7
ATOM      7  C   UNL     1      39.883 185.702  31.387  1.00  0.00     0.159 C 
ATOM      8  C   UNL     1      38.478 185.781  31.904  1.00  0.00     0.093 C 
ATOM      9  O   UNL     1      40.083 185.928  30.162  1.00  0.00    -0.295 OA
ENDBRANCH   1   7
TORSDOF 1
ENDMDL
MODEL 9
REMARK VINA RESULT:    -3.365      1.585      3.946
REMARK INTER + INTRA:          -3.630
REMARK INTER:                  -3.560
REMARK INTRA:                  -0.070
REMARK UNBOUND:                -0.068
REMARK SMILES CC(=O)c1ccccc1
REMARK SMILES IDX 4 1 5 2 6 3 7 4 8 5 9 6 2 7 1 8 3 9
REMARK H PARENT
REMARK Flexibility Score: inf
ROOT
ATOM      1  C   UNL     1      33.805 170.240  17.728  1.00  0.00     0.017 A 
ATOM      2  C   UNL     1      33.804 169.362  18.831  1.00  0.00     0.012 A 
ATOM      3  C   UNL     1      32.861 169.504  19.853  1.00  0.00     0.001 A 
ATOM      4  C   UNL     1      31.907 170.521  19.790  1.00  0.00     0.000 A 
ATOM      5  C   UNL     1      31.895 171.399  18.705  1.00  0.00     0.001 A 
ATOM      6  C   UNL     1      32.835 171.263  17.680  1.00  0.00     0.012 A 
ENDROOT
BRANCH   1   7
ATOM      7  C   UNL     1      34.815 170.078  16.648  1.00  0.00     0.159 C 
ATOM      8  C   UNL     1      34.873 171.006  15.472  1.00  0.00     0.093 C 
ATOM      9  O   UNL     1      35.652 169.137  16.710  1.00  0.00    -0.295 OA
ENDBRANCH   1   7
TORSDOF 1
ENDMDL
