MODEL 1
REMARK VINA RESULT:    -2.929      0.000      0.000
REMARK INTER + INTRA:          -3.186
REMARK INTER:                  -3.186
REMARK INTRA:                   0.000
REMARK UNBOUND:                 0.000
REMARK SMILES [NH3+]CC(=O)[O-]
REMARK SMILES IDX 2 1 1 2 3 6 4 7 5 8
REMARK H PARENT 1 3 1 4 1 5
REMARK Flexibility Score: inf
ROOT
ATOM      1  C   UNL     1      16.011  13.014  14.574  1.00  0.00     0.312 C 
ENDROOT
BRANCH   1   2
ATOM      2  N   UNL     1      16.292  13.846  15.742  1.00  0.00    -0.353 N 
ATOM      3  H   UNL     1      16.830  14.690  15.440  1.00  0.00     0.344 HD
ATOM      4  H   UNL     1      16.863  13.310  16.435  1.00  0.00     0.344 HD
ATOM      5  H   UNL     1      15.397  14.157  16.186  1.00  0.00     0.344 HD
ENDBRANCH   1   2
BRANCH   1   6
ATOM      6  C   UNL     1      15.387  13.828  13.483  1.00  0.00     0.096 C 
ATOM      7  O   UNL     1      14.136  13.962  13.429  1.00  0.00    -0.544 OA
ATOM      8  O   UNL     1      16.183  14.395  12.496  1.00  0.00    -0.544 OA
ENDBRANCH   1   6
TORSDOF 2
ENDMDL
MODEL 2
REMARK VINA RESULT:    -2.818     13.505     13.687
REMARK INTER + INTRA:          -3.065
REMARK INTER:                  -3.065
REMARK INTRA:                   0.000
REMARK UNBOUND:                 0.000
REMARK SMILES [NH3+]CC(=O)[O-]
REMARK SMILES IDX 2 1 1 2 3 6 4 7 5 8
REMARK H PARENT 1 3 1 4 1 5
REMARK Flexibility Score: inf
ROOT
ATOM      1  C   UNL     1      21.924  21.429  21.750  1.00  0.00     0.312 C 
ENDROOT
BRANCH   1   2
ATOM      2  N   UNL     1      20.875  20.573  22.299  1.00  0.00    -0.353 N 
ATOM      3  H   UNL     1      20.152  21.171  22.760  1.00  0.00     0.344 HD
ATOM      4  H   UNL     1      21.280  19.921  23.011  1.00  0.00     0.344 HD
ATOM      5  H   UNL     1      20.422  20.023  21.534  1.00  0.00     0.344 HD
ENDBRANCH   1   2
BRANCH   1   6
ATOM      6  C   UNL     1      22.141  22.626  22.623  1.00  0.00     0.096 C 
ATOM      7  O   UNL     1      21.250  22.986  23.437  1.00  0.00    -0.544 OA
ATOM      8  O   UNL     1      23.304  23.375  22.500  1.00  0.00    -0.544 OA
ENDBRANCH   1   6
TORSDOF 2
ENDMDL
MODEL 3
REMARK VINA RESULT:    -2.761      2.314      2.477
REMARK INTER + INTRA:          -3.003
REMARK INTER:                  -3.003
REMARK INTRA:                   0.000
REMARK UNBOUND:                 0.000
REMARK SMILES [NH3+]CC(=O)[O-]
REMARK SMILES IDX 2 1 1 2 3 6 4 7 5 8
REMARK H PARENT 1 3 1 4 1 5
REMARK Flexibility Score: inf
ROOT
ATOM      1  C   UNL     1      16.278  13.929  13.259  1.00  0.00     0.312 C 
ENDROOT
BRANCH   1   2
ATOM      2  N   UNL     1      15.274  14.374  12.295  1.00  0.00    -0.353 N 
ATOM      3  H   UNL     1      15.215  15.418  12.320  1.00  0.00     0.344 HD
ATOM      4  H   UNL     1      14.339  13.976  12.541  1.00  0.00     0.344 HD
ATOM      5  H   UNL     1      15.544  14.073  11.330  1.00  0.00     0.344 HD
ENDBRANCH   1   2
BRANCH   1   6
ATOM      6  C   UNL     1      15.628  13.230  14.413  1.00  0.00     0.096 C 
ATOM      7  O   UNL     1      14.421  12.880  14.344  1.00  0.00    -0.544 OA
ATOM      8  O   UNL     1      16.342  13.011  15.584  1.00  0.00    -0.544 OA
ENDBRANCH   1   6
TORSDOF 2
ENDMDL
MODEL 4
REMARK VINA RESULT:    -2.754      2.246      2.333
REMARK INTER + INTRA:          -2.995
REMARK INTER:                  -2.995
REMARK INTRA:                   0.000
REMARK UNBOUND:                 0.000
REMARK SMILES [NH3+]CC(=O)[O-]
REMARK SMILES IDX 2 1 1 2 3 6 4 7 5 8
REMARK H PARENT 1 3 1 4 1 5
REMARK Flexibility Score: inf
ROOT
ATOM      1  C   UNL     1      14.330  12.952  14.238  1.00  0.00     0.312 C 
ENDROOT
BRANCH   1   2
ATOM      2  N   UNL     1      13.699  14.189  13.784  1.00  0.00    -0.353 N 
ATOM      3  H   UNL     1      13.320  14.704  14.611  1.00  0.00     0.344 HD
ATOM      4  H   UNL     1      12.911  13.972  13.130  1.00  0.00     0.344 HD
ATOM      5  H   UNL     1      14.402  14.795  13.301  1.00  0.00     0.344 HD
ENDBRANCH   1   2
BRANCH   1   6
ATOM      6  C   UNL     1      15.795  13.158  14.464  1.00  0.00     0.096 C 
ATOM      7  O   UNL     1      16.285  13.011  15.615  1.00  0.00    -0.544 OA
ATOM      8  O   UNL     1      16.611  13.561  13.415  1.00  0.00    -0.544 OA
ENDBRANCH   1   6
TORSDOF 2
ENDMDL
MODEL 5
REMARK VINA RESULT:    -2.620     18.502     18.685
REMARK INTER + INTRA:          -2.850
REMARK INTER:                  -2.850
REMARK INTRA:                   0.000
REMARK UNBOUND:                 0.000
REMARK SMILES [NH3+]CC(=O)[O-]
REMARK SMILES IDX 2 1 1 2 3 6 4 7 5 8
REMARK H PARENT 1 3 1 4 1 5
REMARK Flexibility Score: inf
ROOT
ATOM      1  C   UNL     1      28.668  26.083  19.793  1.00  0.00     0.312 C 
ENDROOT
BRANCH   1   2
ATOM      2  N   UNL     1      28.000  25.410  18.682  1.00  0.00    -0.353 N 
ATOM      3  H   UNL     1      27.445  24.605  19.054  1.00  0.00     0.344 HD
ATOM      4  H   UNL     1      28.709  25.047  18.004  1.00  0.00     0.344 HD
ATOM      5  H   UNL     1      27.352  26.072  18.197  1.00  0.00     0.344 HD
ENDBRANCH   1   2
BRANCH   1   6
ATOM      6  C   UNL     1      28.642  25.229  21.022  1.00  0.00     0.096 C 
ATOM      7  O   UNL     1      29.560  24.393  21.232  1.00  0.00    -0.544 OA
ATOM      8  O   UNL     1      27.578  25.319  21.909  1.00  0.00    -0.544 OA
ENDBRANCH   1   6
TORSDOF 2
ENDMDL
MODEL 6
REMARK VINA RESULT:    -2.603     18.895     18.948
REMARK INTER + INTRA:          -2.831
REMARK INTER:                  -2.831
REMARK INTRA:                   0.000
REMARK UNBOUND:                 0.000
REMARK SMILES [NH3+]CC(=O)[O-]
REMARK SMILES IDX 2 1 1 2 3 6 4 7 5 8
REMARK H PARENT 1 3 1 4 1 5
REMARK Flexibility Score: inf
ROOT
ATOM      1  C   UNL     1      27.916  26.132  22.127  1.00  0.00     0.312 C 
ENDROOT
BRANCH   1   2
ATOM      2  N   UNL     1      26.506  26.221  21.753  1.00  0.00    -0.353 N 
ATOM      3  H   UNL     1      26.431  26.644  20.799  1.00  0.00     0.344 HD
ATOM      4  H   UNL     1      25.992  26.826  22.434  1.00  0.00     0.344 HD
ATOM      5  H   UNL     1      26.077  25.267  21.735  1.00  0.00     0.344 HD
ENDBRANCH   1   2
BRANCH   1   6
ATOM      6  C   UNL     1      28.736  25.626  20.981  1.00  0.00     0.096 C 
ATOM      7  O   UNL     1      28.730  26.236  19.880  1.00  0.00    -0.544 OA
ATOM      8  O   UNL     1      29.465  24.451  21.113  1.00  0.00    -0.544 OA
ENDBRANCH   1   6
TORSDOF 2
ENDMDL
MODEL 7
REMARK VINA RESULT:    -2.554     17.706     17.960
REMARK INTER + INTRA:          -2.778
REMARK INTER:                  -2.778
REMARK INTRA:                   0.000
REMARK UNBOUND:                 0.000
REMARK SMILES [NH3+]CC(=O)[O-]
REMARK SMILES IDX 2 1 1 2 3 6 4 7 5 8
REMARK H PARENT 1 3 1 4 1 5
REMARK Flexibility Score: inf
ROOT
ATOM      1  C   UNL     1      24.996  24.857  23.591  1.00  0.00     0.312 C 
ENDROOT
BRANCH   1   2
ATOM      2  N   UNL     1      25.080  23.740  22.651  1.00  0.00    -0.353 N 
ATOM      3  H   UNL     1      24.166  23.643  22.153  1.00  0.00     0.344 HD
ATOM      4  H   UNL     1      25.282  22.852  23.166  1.00  0.00     0.344 HD
ATOM      5  H   UNL     1      25.832  23.919  21.947  1.00  0.00     0.344 HD
ENDBRANCH   1   2
BRANCH   1   6
ATOM      6  C   UNL     1      25.739  26.046  23.066  1.00  0.00     0.096 C 
ATOM      7  O   UNL     1      25.309  27.209  23.288  1.00  0.00    -0.544 OA
ATOM      8  O   UNL     1      26.876  25.869  22.290  1.00  0.00    -0.544 OA
ENDBRANCH   1   6
TORSDOF 2
ENDMDL
MODEL 8
REMARK VINA RESULT:    -2.522     13.809     13.975
REMARK INTER + INTRA:          -2.743
REMARK INTER:                  -2.743
REMARK INTRA:                   0.000
REMARK UNBOUND:                 0.000
REMARK SMILES [NH3+]CC(=O)[O-]
REMARK SMILES IDX 2 1 1 2 3 6 4 7 5 8
REMARK H PARENT 1 3 1 4 1 5
REMARK Flexibility Score: inf
ROOT
ATOM      1  C   UNL     1      22.459  23.365  22.454  1.00  0.00     0.312 C 
ENDROOT
BRANCH   1   2
ATOM      2  N   UNL     1      23.845  23.008  22.159  1.00  0.00    -0.353 N 
ATOM      3  H   UNL     1      24.024  23.146  21.138  1.00  0.00     0.344 HD
ATOM      4  H   UNL     1      24.016  22.005  22.400  1.00  0.00     0.344 HD
ATOM      5  H   UNL     1      24.497  23.619  22.703  1.00  0.00     0.344 HD
ENDBRANCH   1   2
BRANCH   1   6
ATOM      6  C   UNL     1      21.665  22.148  22.816  1.00  0.00     0.096 C 
ATOM      7  O   UNL     1      21.075  22.084  23.926  1.00  0.00    -0.544 OA
ATOM      8  O   UNL     1      21.621  21.064  21.949  1.00  0.00    -0.544 OA
ENDBRANCH   1   6
TORSDOF 2
ENDMDL
MODEL 9
REMARK VINA RESULT:    -2.490     19.572     19.911
REMARK INTER + INTRA:          -2.709
REMARK INTER:                  -2.709
REMARK INTRA:                   0.000
REMARK UNBOUND:                 0.000
REMARK SMILES [NH3+]CC(=O)[O-]
REMARK SMILES IDX 2 1 1 2 3 6 4 7 5 8
REMARK H PARENT 1 3 1 4 1 5
REMARK Flexibility Score: inf
ROOT
ATOM      1  C   UNL     1      27.901  25.966  21.639  1.00  0.00     0.312 C 
ENDROOT
BRANCH   1   2
ATOM      2  N   UNL     1      27.596  26.123  20.218  1.00  0.00    -0.353 N 
ATOM      3  H   UNL     1      26.803  26.796  20.111  1.00  0.00     0.344 HD
ATOM      4  H   UNL     1      27.316  25.202  19.807  1.00  0.00     0.344 HD
ATOM      5  H   UNL     1      28.430  26.498  19.710  1.00  0.00     0.344 HD
ENDBRANCH   1   2
BRANCH   1   6
ATOM      6  C   UNL     1      29.358  26.201  21.895  1.00  0.00     0.096 C 
ATOM      7  O   UNL     1      30.107  25.242  22.218  1.00  0.00    -0.544 OA
ATOM      8  O   UNL     1      29.876  27.487  21.829  1.00  0.00    -0.544 OA
ENDBRANCH   1   6
TORSDOF 2
ENDMDL
