MODEL 1
REMARK VINA RESULT:    -1.883      0.000      0.000
REMARK INTER + INTRA:          -0.627
REMARK INTER:                  -2.874
REMARK INTRA:                   2.247
REMARK UNBOUND:                 2.247
REMARK SMILES CC1=CCC[C@H](C)C(=O)C[C@H](C(C)C)C(=O)C1
REMARK SMILES IDX 8 1 9 2 6 3 7 4 5 5 4 6 3 7 2 8 1 9 10 11 11 12 15 13 16 14
REMARK SMILES IDX 17 15 12 17 13 18 14 19
REMARK H PARENT
REMARK Flexibility Score: 70.00
ROOT
ATOM      1  C   UNL     1      -2.125  -7.710 -17.190  1.00  0.00     0.136 C 
ATOM      2  O   UNL     1      -1.336  -8.188 -17.993  1.00  0.00    -0.299 OA
ENDROOT
BRANCH   1   3
ATOM      3  C   UNL     1      -1.981  -8.016 -15.707  1.00  0.00     0.053 C 
ATOM      4  C   UNL     1      -1.725  -9.507 -15.437  1.00  0.00     0.016 C 
BRANCH   3   5
ATOM      5  C   UNL     1      -0.947  -7.105 -15.002  1.00  0.00     0.015 C 
BRANCH   5   6
ATOM      6  C   UNL     1      -1.360  -6.432 -13.673  1.00  0.00     0.028 C 
BRANCH   6   7
ATOM      7  C   UNL     1      -2.188  -5.170 -13.760  1.00  0.00    -0.028 C 
ATOM      8  C   UNL     1      -2.194  -4.277 -14.777  1.00  0.00    -0.070 CG0
ATOM      9  C   UNL     1      -3.230  -3.181 -14.741  1.00  0.00     0.039 C 
ATOM     10  G   UNL     1      -1.176  -4.267 -15.900  1.00  0.00     0.000 G0
ENDBRANCH   6   7
ENDBRANCH   5   6
ENDBRANCH   3   5
ENDBRANCH   1   3
BRANCH   1  11
ATOM     11  C   UNL     1      -3.244  -6.827 -17.705  1.00  0.00     0.087 C 
BRANCH  11  12
ATOM     12  C   UNL     1      -3.163  -5.355 -17.217  1.00  0.00     0.066 C 
BRANCH  12  13
ATOM     13  C   UNL     1      -1.714  -4.905 -17.143  1.00  0.00     0.140 C 
ATOM     14  O   UNL     1      -0.976  -5.106 -18.097  1.00  0.00    -0.299 OA
BRANCH  13  15
ATOM     15  C   UNL     1      -1.156  -4.241 -15.905  1.00  0.00     0.106 CG0
ATOM     16  G   UNL     1      -2.180  -4.281 -14.789  1.00  0.00     0.000 G0
ENDBRANCH  13  15
ENDBRANCH  12  13
BRANCH  12  17
ATOM     17  C   UNL     1      -4.001  -4.388 -18.112  1.00  0.00    -0.006 C 
ATOM     18  C   UNL     1      -3.445  -2.953 -18.058  1.00  0.00     0.008 C 
ATOM     19  C   UNL     1      -5.485  -4.364 -17.704  1.00  0.00     0.008 C 
ENDBRANCH  12  17
ENDBRANCH  11  12
ENDBRANCH   1  11
TORSDOF 1
ENDMDL
