MODEL 1
REMARK VINA RESULT:    -3.173      0.000      0.000
REMARK INTER + INTRA:          -7.680
REMARK INTER:                  -5.955
REMARK INTRA:                  -1.725
REMARK UNBOUND:                -1.725
REMARK SMILES O=C([O-])CCCCCCCCCCCCCCC(=O)[O-]
REMARK SMILES IDX 10 1 9 2 8 3 7 4 6 5 5 6 4 7 2 8 1 9 3 10 11 11 12 12 13 13
REMARK SMILES IDX 14 14 15 15 16 16 17 17 18 18 19 19 20 20
REMARK H PARENT
REMARK Flexibility Score: inf
ROOT
ATOM      1  C   UNL     1      10.118   1.004  -5.216  1.00  0.00     0.000 C 
ENDROOT
BRANCH   1   2
ATOM      2  C   UNL     1       9.330   1.671  -6.359  1.00  0.00     0.000 C 
BRANCH   2   3
ATOM      3  C   UNL     1       8.227   0.793  -6.980  1.00  0.00     0.000 C 
BRANCH   3   4
ATOM      4  C   UNL     1       6.797   1.299  -6.691  1.00  0.00     0.000 C 
BRANCH   4   5
ATOM      5  C   UNL     1       5.722   0.272  -7.086  1.00  0.00     0.000 C 
BRANCH   5   6
ATOM      6  C   UNL     1       4.299   0.745  -6.751  1.00  0.00     0.006 C 
BRANCH   6   7
ATOM      7  C   UNL     1       3.986   0.666  -5.250  1.00  0.00     0.053 C 
BRANCH   7   8
ATOM      8  C   UNL     1       3.257   1.895  -4.804  1.00  0.00     0.041 C 
ATOM      9  O   UNL     1       2.663   1.912  -3.695  1.00  0.00    -0.550 OA
ATOM     10  O   UNL     1       3.275   3.037  -5.594  1.00  0.00    -0.550 OA
ENDBRANCH   7   8
ENDBRANCH   6   7
ENDBRANCH   5   6
ENDBRANCH   4   5
ENDBRANCH   3   4
ENDBRANCH   2   3
ENDBRANCH   1   2
BRANCH   1  11
ATOM     11  C   UNL     1      10.234  -0.531  -5.313  1.00  0.00     0.000 C 
BRANCH  11  12
ATOM     12  C   UNL     1       9.806  -1.303  -4.050  1.00  0.00     0.000 C 
BRANCH  12  13
ATOM     13  C   UNL     1       8.423  -1.974  -4.134  1.00  0.00     0.000 C 
BRANCH  13  14
ATOM     14  C   UNL     1       8.165  -2.639  -5.494  1.00  0.00     0.000 C 
BRANCH  14  15
ATOM     15  C   UNL     1       6.661  -2.778  -5.761  1.00  0.00     0.000 C 
BRANCH  15  16
ATOM     16  C   UNL     1       5.884  -2.950  -4.450  1.00  0.00     0.006 C 
BRANCH  16  17
ATOM     17  C   UNL     1       4.480  -3.502  -4.713  1.00  0.00     0.053 C 
BRANCH  17  18
ATOM     18  C   UNL     1       4.210  -4.686  -3.839  1.00  0.00     0.041 C 
ATOM     19  O   UNL     1       5.152  -5.448  -3.495  1.00  0.00    -0.550 OA
ATOM     20  O   UNL     1       2.911  -4.977  -3.444  1.00  0.00    -0.550 OA
ENDBRANCH  17  18
ENDBRANCH  16  17
ENDBRANCH  15  16
ENDBRANCH  14  15
ENDBRANCH  13  14
ENDBRANCH  12  13
ENDBRANCH  11  12
ENDBRANCH   1  11
TORSDOF 15
ENDMDL
MODEL 2
REMARK VINA RESULT:    -3.166      9.358     12.408
REMARK INTER + INTRA:          -7.667
REMARK INTER:                  -7.027
REMARK INTRA:                  -0.640
REMARK UNBOUND:                -1.725
REMARK SMILES O=C([O-])CCCCCCCCCCCCCCC(=O)[O-]
REMARK SMILES IDX 10 1 9 2 8 3 7 4 6 5 5 6 4 7 2 8 1 9 3 10 11 11 12 12 13 13
REMARK SMILES IDX 14 14 15 15 16 16 17 17 18 18 19 19 20 20
REMARK H PARENT
REMARK Flexibility Score: inf
ROOT
ATOM      1  C   UNL     1       2.811   1.371   6.460  1.00  0.00     0.000 C 
ENDROOT
BRANCH   1   2
ATOM      2  C   UNL     1       1.481   1.401   5.684  1.00  0.00     0.000 C 
BRANCH   2   3
ATOM      3  C   UNL     1       0.598   0.152   5.867  1.00  0.00     0.000 C 
BRANCH   3   4
ATOM      4  C   UNL     1       1.280  -0.975   6.672  1.00  0.00     0.000 C 
BRANCH   4   5
ATOM      5  C   UNL     1       0.976  -2.370   6.098  1.00  0.00     0.000 C 
BRANCH   5   6
ATOM      6  C   UNL     1       0.106  -2.315   4.833  1.00  0.00     0.006 C 
BRANCH   6   7
ATOM      7  C   UNL     1       0.074  -3.651   4.078  1.00  0.00     0.053 C 
BRANCH   7   8
ATOM      8  C   UNL     1      -1.317  -4.203   4.053  1.00  0.00     0.041 C 
ATOM      9  O   UNL     1      -2.275  -3.528   4.513  1.00  0.00    -0.550 OA
ATOM     10  O   UNL     1      -1.562  -5.443   3.477  1.00  0.00    -0.550 OA
ENDBRANCH   7   8
ENDBRANCH   6   7
ENDBRANCH   5   6
ENDBRANCH   4   5
ENDBRANCH   3   4
ENDBRANCH   2   3
ENDBRANCH   1   2
BRANCH   1  11
ATOM     11  C   UNL     1       3.934   2.241   5.861  1.00  0.00     0.000 C 
BRANCH  11  12
ATOM     12  C   UNL     1       3.496   3.638   5.376  1.00  0.00     0.000 C 
BRANCH  12  13
ATOM     13  C   UNL     1       3.503   3.830   3.850  1.00  0.00     0.000 C 
BRANCH  13  14
ATOM     14  C   UNL     1       4.574   4.826   3.380  1.00  0.00     0.000 C 
BRANCH  14  15
ATOM     15  C   UNL     1       4.536   4.993   1.855  1.00  0.00     0.000 C 
BRANCH  15  16
ATOM     16  C   UNL     1       5.787   5.722   1.351  1.00  0.00     0.006 C 
BRANCH  16  17
ATOM     17  C   UNL     1       6.380   5.011   0.131  1.00  0.00     0.053 C 
BRANCH  17  18
ATOM     18  C   UNL     1       7.864   4.878   0.272  1.00  0.00     0.041 C 
ATOM     19  O   UNL     1       8.507   4.109  -0.490  1.00  0.00    -0.550 OA
ATOM     20  O   UNL     1       8.531   5.565   1.278  1.00  0.00    -0.550 OA
ENDBRANCH  17  18
ENDBRANCH  16  17
ENDBRANCH  15  16
ENDBRANCH  14  15
ENDBRANCH  13  14
ENDBRANCH  12  13
ENDBRANCH  11  12
ENDBRANCH   1  11
TORSDOF 15
ENDMDL
MODEL 3
REMARK VINA RESULT:    -3.155      9.722     12.518
REMARK INTER + INTRA:          -7.646
REMARK INTER:                  -6.494
REMARK INTRA:                  -1.152
REMARK UNBOUND:                -1.725
REMARK SMILES O=C([O-])CCCCCCCCCCCCCCC(=O)[O-]
REMARK SMILES IDX 10 1 9 2 8 3 7 4 6 5 5 6 4 7 2 8 1 9 3 10 11 11 12 12 13 13
REMARK SMILES IDX 14 14 15 15 16 16 17 17 18 18 19 19 20 20
REMARK H PARENT
REMARK Flexibility Score: inf
ROOT
ATOM      1  C   UNL     1       4.753   1.606   6.791  1.00  0.00     0.000 C 
ENDROOT
BRANCH   1   2
ATOM      2  C   UNL     1       4.497   0.094   6.937  1.00  0.00     0.000 C 
BRANCH   2   3
ATOM      3  C   UNL     1       3.288  -0.275   7.817  1.00  0.00     0.000 C 
BRANCH   3   4
ATOM      4  C   UNL     1       2.220  -1.114   7.084  1.00  0.00     0.000 C 
BRANCH   4   5
ATOM      5  C   UNL     1       1.153  -0.239   6.403  1.00  0.00     0.000 C 
BRANCH   5   6
ATOM      6  C   UNL     1       0.427  -0.968   5.263  1.00  0.00     0.006 C 
BRANCH   6   7
ATOM      7  C   UNL     1       0.286  -2.476   5.518  1.00  0.00     0.053 C 
BRANCH   7   8
ATOM      8  C   UNL     1      -0.046  -3.191   4.246  1.00  0.00     0.041 C 
ATOM      9  O   UNL     1       0.768  -4.014   3.751  1.00  0.00    -0.550 OA
ATOM     10  O   UNL     1      -1.275  -2.984   3.634  1.00  0.00    -0.550 OA
ENDBRANCH   7   8
ENDBRANCH   6   7
ENDBRANCH   5   6
ENDBRANCH   4   5
ENDBRANCH   3   4
ENDBRANCH   2   3
ENDBRANCH   1   2
BRANCH   1  11
ATOM     11  C   UNL     1       3.503   2.496   6.951  1.00  0.00     0.000 C 
BRANCH  11  12
ATOM     12  C   UNL     1       3.229   3.459   5.778  1.00  0.00     0.000 C 
BRANCH  12  13
ATOM     13  C   UNL     1       2.509   2.829   4.573  1.00  0.00     0.000 C 
BRANCH  13  14
ATOM     14  C   UNL     1       3.180   3.170   3.234  1.00  0.00     0.000 C 
BRANCH  14  15
ATOM     15  C   UNL     1       3.958   4.488   3.329  1.00  0.00     0.000 C 
BRANCH  15  16
ATOM     16  C   UNL     1       4.430   4.950   1.946  1.00  0.00     0.006 C 
BRANCH  16  17
ATOM     17  C   UNL     1       5.810   5.609   2.028  1.00  0.00     0.053 C 
BRANCH  17  18
ATOM     18  C   UNL     1       6.406   5.749   0.663  1.00  0.00     0.041 C 
ATOM     19  O   UNL     1       6.658   4.727  -0.026  1.00  0.00    -0.550 OA
ATOM     20  O   UNL     1       6.730   7.008   0.172  1.00  0.00    -0.550 OA
ENDBRANCH  17  18
ENDBRANCH  16  17
ENDBRANCH  15  16
ENDBRANCH  14  15
ENDBRANCH  13  14
ENDBRANCH  12  13
ENDBRANCH  11  12
ENDBRANCH   1  11
TORSDOF 15
ENDMDL
MODEL 4
REMARK VINA RESULT:    -3.100      0.863      5.410
REMARK INTER + INTRA:          -7.543
REMARK INTER:                  -5.807
REMARK INTRA:                  -1.736
REMARK UNBOUND:                -1.725
REMARK SMILES O=C([O-])CCCCCCCCCCCCCCC(=O)[O-]
REMARK SMILES IDX 10 1 9 2 8 3 7 4 6 5 5 6 4 7 2 8 1 9 3 10 11 11 12 12 13 13
REMARK SMILES IDX 14 14 15 15 16 16 17 17 18 18 19 19 20 20
REMARK H PARENT
REMARK Flexibility Score: inf
ROOT
ATOM      1  C   UNL     1      10.292  -0.617  -4.851  1.00  0.00     0.000 C 
ENDROOT
BRANCH   1   2
ATOM      2  C   UNL     1       9.407  -1.405  -3.867  1.00  0.00     0.000 C 
BRANCH   2   3
ATOM      3  C   UNL     1       8.654  -2.596  -4.488  1.00  0.00     0.000 C 
BRANCH   3   4
ATOM      4  C   UNL     1       7.147  -2.619  -4.151  1.00  0.00     0.000 C 
BRANCH   4   5
ATOM      5  C   UNL     1       6.309  -3.278  -5.260  1.00  0.00     0.000 C 
BRANCH   5   6
ATOM      6  C   UNL     1       4.803  -3.262  -4.955  1.00  0.00     0.006 C 
BRANCH   6   7
ATOM      7  C   UNL     1       4.174  -4.661  -5.004  1.00  0.00     0.053 C 
BRANCH   7   8
ATOM      8  C   UNL     1       3.922  -5.169  -3.619  1.00  0.00     0.041 C 
ATOM      9  O   UNL     1       2.810  -4.972  -3.064  1.00  0.00    -0.550 OA
ATOM     10  O   UNL     1       4.901  -5.901  -2.960  1.00  0.00    -0.550 OA
ENDBRANCH   7   8
ENDBRANCH   6   7
ENDBRANCH   5   6
ENDBRANCH   4   5
ENDBRANCH   3   4
ENDBRANCH   2   3
ENDBRANCH   1   2
BRANCH   1  11
ATOM     11  C   UNL     1       9.620   0.618  -5.486  1.00  0.00     0.000 C 
BRANCH  11  12
ATOM     12  C   UNL     1       9.297   0.489  -6.988  1.00  0.00     0.000 C 
BRANCH  12  13
ATOM     13  C   UNL     1       7.941  -0.163  -7.310  1.00  0.00     0.000 C 
BRANCH  13  14
ATOM     14  C   UNL     1       6.800   0.370  -6.431  1.00  0.00     0.000 C 
BRANCH  14  15
ATOM     15  C   UNL     1       5.446  -0.179  -6.897  1.00  0.00     0.000 C 
BRANCH  15  16
ATOM     16  C   UNL     1       4.330   0.206  -5.919  1.00  0.00     0.006 C 
BRANCH  16  17
ATOM     17  C   UNL     1       4.250   1.725  -5.749  1.00  0.00     0.053 C 
BRANCH  17  18
ATOM     18  C   UNL     1       2.868   2.136  -5.345  1.00  0.00     0.041 C 
ATOM     19  O   UNL     1       2.088   2.651  -6.188  1.00  0.00    -0.550 OA
ATOM     20  O   UNL     1       2.459   1.994  -4.025  1.00  0.00    -0.550 OA
ENDBRANCH  17  18
ENDBRANCH  16  17
ENDBRANCH  15  16
ENDBRANCH  14  15
ENDBRANCH  13  14
ENDBRANCH  12  13
ENDBRANCH  11  12
ENDBRANCH   1  11
TORSDOF 15
ENDMDL
MODEL 5
REMARK VINA RESULT:    -2.988     10.264     11.787
REMARK INTER + INTRA:          -7.333
REMARK INTER:                  -5.628
REMARK INTRA:                  -1.705
REMARK UNBOUND:                -1.725
REMARK SMILES O=C([O-])CCCCCCCCCCCCCCC(=O)[O-]
REMARK SMILES IDX 10 1 9 2 8 3 7 4 6 5 5 6 4 7 2 8 1 9 3 10 11 11 12 12 13 13
REMARK SMILES IDX 14 14 15 15 16 16 17 17 18 18 19 19 20 20
REMARK H PARENT
REMARK Flexibility Score: inf
ROOT
ATOM      1  C   UNL     1       4.607   1.666   6.391  1.00  0.00     0.000 C 
ENDROOT
BRANCH   1   2
ATOM      2  C   UNL     1       3.789   2.830   6.981  1.00  0.00     0.000 C 
BRANCH   2   3
ATOM      3  C   UNL     1       2.802   3.488   5.999  1.00  0.00     0.000 C 
BRANCH   3   4
ATOM      4  C   UNL     1       2.299   2.535   4.894  1.00  0.00     0.000 C 
BRANCH   4   5
ATOM      5  C   UNL     1       2.600   3.063   3.482  1.00  0.00     0.000 C 
BRANCH   5   6
ATOM      6  C   UNL     1       3.981   3.730   3.380  1.00  0.00     0.006 C 
BRANCH   6   7
ATOM      7  C   UNL     1       3.969   4.986   2.497  1.00  0.00     0.053 C 
BRANCH   7   8
ATOM      8  C   UNL     1       3.297   6.118   3.209  1.00  0.00     0.041 C 
ATOM      9  O   UNL     1       2.236   6.615   2.750  1.00  0.00    -0.550 OA
ATOM     10  O   UNL     1       3.818   6.591   4.406  1.00  0.00    -0.550 OA
ENDBRANCH   7   8
ENDBRANCH   6   7
ENDBRANCH   5   6
ENDBRANCH   4   5
ENDBRANCH   3   4
ENDBRANCH   2   3
ENDBRANCH   1   2
BRANCH   1  11
ATOM     11  C   UNL     1       4.669   0.401   7.272  1.00  0.00     0.000 C 
BRANCH  11  12
ATOM     12  C   UNL     1       3.485  -0.572   7.106  1.00  0.00     0.000 C 
BRANCH  12  13
ATOM     13  C   UNL     1       2.393  -0.460   8.184  1.00  0.00     0.000 C 
BRANCH  13  14
ATOM     14  C   UNL     1       1.016  -0.930   7.690  1.00  0.00     0.000 C 
BRANCH  14  15
ATOM     15  C   UNL     1       0.509  -0.038   6.550  1.00  0.00     0.000 C 
BRANCH  15  16
ATOM     16  C   UNL     1       0.341  -0.842   5.256  1.00  0.00     0.006 C 
BRANCH  16  17
ATOM     17  C   UNL     1       0.475  -2.344   5.522  1.00  0.00     0.053 C 
BRANCH  17  18
ATOM     18  C   UNL     1       0.060  -3.129   4.318  1.00  0.00     0.041 C 
ATOM     19  O   UNL     1      -1.082  -2.961   3.814  1.00  0.00    -0.550 OA
ATOM     20  O   UNL     1       0.915  -4.083   3.781  1.00  0.00    -0.550 OA
ENDBRANCH  17  18
ENDBRANCH  16  17
ENDBRANCH  15  16
ENDBRANCH  14  15
ENDBRANCH  13  14
ENDBRANCH  12  13
ENDBRANCH  11  12
ENDBRANCH   1  11
TORSDOF 15
ENDMDL
MODEL 6
REMARK VINA RESULT:    -2.973      9.543     12.334
REMARK INTER + INTRA:          -7.304
REMARK INTER:                  -6.250
REMARK INTRA:                  -1.054
REMARK UNBOUND:                -1.725
REMARK SMILES O=C([O-])CCCCCCCCCCCCCCC(=O)[O-]
REMARK SMILES IDX 10 1 9 2 8 3 7 4 6 5 5 6 4 7 2 8 1 9 3 10 11 11 12 12 13 13
REMARK SMILES IDX 14 14 15 15 16 16 17 17 18 18 19 19 20 20
REMARK H PARENT
REMARK Flexibility Score: inf
ROOT
ATOM      1  C   UNL     1       3.285   3.613   4.905  1.00  0.00     0.000 C 
ENDROOT
BRANCH   1   2
ATOM      2  C   UNL     1       4.083   2.597   5.744  1.00  0.00     0.000 C 
BRANCH   2   3
ATOM      3  C   UNL     1       3.232   1.495   6.404  1.00  0.00     0.000 C 
BRANCH   3   4
ATOM      4  C   UNL     1       1.712   1.699   6.231  1.00  0.00     0.000 C 
BRANCH   4   5
ATOM      5  C   UNL     1       1.083   0.653   5.296  1.00  0.00     0.000 C 
BRANCH   5   6
ATOM      6  C   UNL     1       0.193  -0.352   6.043  1.00  0.00     0.006 C 
BRANCH   6   7
ATOM      7  C   UNL     1       0.254  -1.762   5.438  1.00  0.00     0.053 C 
BRANCH   7   8
ATOM      8  C   UNL     1       1.080  -2.664   6.300  1.00  0.00     0.041 C 
ATOM      9  O   UNL     1       1.127  -3.899   6.062  1.00  0.00    -0.550 OA
ATOM     10  O   UNL     1       1.836  -2.133   7.337  1.00  0.00    -0.550 OA
ENDBRANCH   7   8
ENDBRANCH   6   7
ENDBRANCH   5   6
ENDBRANCH   4   5
ENDBRANCH   3   4
ENDBRANCH   2   3
ENDBRANCH   1   2
BRANCH   1  11
ATOM     11  C   UNL     1       3.332   3.378   3.381  1.00  0.00     0.000 C 
BRANCH  11  12
ATOM     12  C   UNL     1       4.088   4.452   2.575  1.00  0.00     0.000 C 
BRANCH  12  13
ATOM     13  C   UNL     1       3.676   5.903   2.875  1.00  0.00     0.000 C 
BRANCH  13  14
ATOM     14  C   UNL     1       4.793   6.915   2.578  1.00  0.00     0.000 C 
BRANCH  14  15
ATOM     15  C   UNL     1       6.153   6.386   3.053  1.00  0.00     0.000 C 
BRANCH  15  16
ATOM     16  C   UNL     1       7.259   6.733   2.050  1.00  0.00     0.006 C 
BRANCH  16  17
ATOM     17  C   UNL     1       8.032   5.479   1.631  1.00  0.00     0.053 C 
BRANCH  17  18
ATOM     18  C   UNL     1       7.537   4.974   0.312  1.00  0.00     0.041 C 
ATOM     19  O   UNL     1       8.186   4.094  -0.313  1.00  0.00    -0.550 OA
ATOM     20  O   UNL     1       6.386   5.509  -0.250  1.00  0.00    -0.550 OA
ENDBRANCH  17  18
ENDBRANCH  16  17
ENDBRANCH  15  16
ENDBRANCH  14  15
ENDBRANCH  13  14
ENDBRANCH  12  13
ENDBRANCH  11  12
ENDBRANCH   1  11
TORSDOF 15
ENDMDL
MODEL 7
REMARK VINA RESULT:    -2.963      3.240      5.305
REMARK INTER + INTRA:          -7.285
REMARK INTER:                  -6.063
REMARK INTRA:                  -1.223
REMARK UNBOUND:                -1.725
REMARK SMILES O=C([O-])CCCCCCCCCCCCCCC(=O)[O-]
REMARK SMILES IDX 10 1 9 2 8 3 7 4 6 5 5 6 4 7 2 8 1 9 3 10 11 11 12 12 13 13
REMARK SMILES IDX 14 14 15 15 16 16 17 17 18 18 19 19 20 20
REMARK H PARENT
REMARK Flexibility Score: inf
ROOT
ATOM      1  C   UNL     1       4.959  -3.019  -4.794  1.00  0.00     0.000 C 
ENDROOT
BRANCH   1   2
ATOM      2  C   UNL     1       4.392  -2.567  -6.153  1.00  0.00     0.000 C 
BRANCH   2   3
ATOM      3  C   UNL     1       5.346  -1.699  -6.994  1.00  0.00     0.000 C 
BRANCH   3   4
ATOM      4  C   UNL     1       5.984  -0.536  -6.204  1.00  0.00     0.000 C 
BRANCH   4   5
ATOM      5  C   UNL     1       5.935   0.793  -6.976  1.00  0.00     0.000 C 
BRANCH   5   6
ATOM      6  C   UNL     1       4.905   1.777  -6.400  1.00  0.00     0.006 C 
BRANCH   6   7
ATOM      7  C   UNL     1       3.992   1.131  -5.348  1.00  0.00     0.053 C 
BRANCH   7   8
ATOM      8  C   UNL     1       2.810   2.006  -5.075  1.00  0.00     0.041 C 
ATOM      9  O   UNL     1       2.257   2.636  -6.015  1.00  0.00    -0.550 OA
ATOM     10  O   UNL     1       2.288   2.088  -3.790  1.00  0.00    -0.550 OA
ENDBRANCH   7   8
ENDBRANCH   6   7
ENDBRANCH   5   6
ENDBRANCH   4   5
ENDBRANCH   3   4
ENDBRANCH   2   3
ENDBRANCH   1   2
BRANCH   1  11
ATOM     11  C   UNL     1       4.773  -4.517  -4.475  1.00  0.00     0.000 C 
BRANCH  11  12
ATOM     12  C   UNL     1       3.728  -4.831  -3.386  1.00  0.00     0.000 C 
BRANCH  12  13
ATOM     13  C   UNL     1       2.675  -5.882  -3.776  1.00  0.00     0.000 C 
BRANCH  13  14
ATOM     14  C   UNL     1       2.092  -5.649  -5.178  1.00  0.00     0.000 C 
BRANCH  14  15
ATOM     15  C   UNL     1       0.925  -4.654  -5.129  1.00  0.00     0.000 C 
BRANCH  15  16
ATOM     16  C   UNL     1       0.621  -4.094  -6.523  1.00  0.00     0.006 C 
BRANCH  16  17
ATOM     17  C   UNL     1      -0.380  -2.938  -6.443  1.00  0.00     0.053 C 
BRANCH  17  18
ATOM     18  C   UNL     1      -1.784  -3.454  -6.488  1.00  0.00     0.041 C 
ATOM     19  O   UNL     1      -2.740  -2.725  -6.115  1.00  0.00    -0.550 OA
ATOM     20  O   UNL     1      -2.032  -4.759  -6.895  1.00  0.00    -0.550 OA
ENDBRANCH  17  18
ENDBRANCH  16  17
ENDBRANCH  15  16
ENDBRANCH  14  15
ENDBRANCH  13  14
ENDBRANCH  12  13
ENDBRANCH  11  12
ENDBRANCH   1  11
TORSDOF 15
ENDMDL
MODEL 8
REMARK VINA RESULT:    -2.954     10.134     12.059
REMARK INTER + INTRA:          -7.268
REMARK INTER:                  -5.865
REMARK INTRA:                  -1.404
REMARK UNBOUND:                -1.725
REMARK SMILES O=C([O-])CCCCCCCCCCCCCCC(=O)[O-]
REMARK SMILES IDX 10 1 9 2 8 3 7 4 6 5 5 6 4 7 2 8 1 9 3 10 11 11 12 12 13 13
REMARK SMILES IDX 14 14 15 15 16 16 17 17 18 18 19 19 20 20
REMARK H PARENT
REMARK Flexibility Score: inf
ROOT
ATOM      1  C   UNL     1       0.282   6.959   3.856  1.00  0.00     0.000 C 
ENDROOT
BRANCH   1   2
ATOM      2  C   UNL     1      -0.469   5.624   3.693  1.00  0.00     0.000 C 
BRANCH   2   3
ATOM      3  C   UNL     1      -1.923   5.636   4.201  1.00  0.00     0.000 C 
BRANCH   3   4
ATOM      4  C   UNL     1      -2.975   5.624   3.072  1.00  0.00     0.000 C 
BRANCH   4   5
ATOM      5  C   UNL     1      -2.356   5.313   1.698  1.00  0.00     0.000 C 
BRANCH   5   6
ATOM      6  C   UNL     1      -2.418   6.509   0.735  1.00  0.00     0.006 C 
BRANCH   6   7
ATOM      7  C   UNL     1      -3.464   6.323  -0.373  1.00  0.00     0.053 C 
BRANCH   7   8
ATOM      8  C   UNL     1      -2.879   5.558  -1.519  1.00  0.00     0.041 C 
ATOM      9  O   UNL     1      -3.628   4.913  -2.298  1.00  0.00    -0.550 OA
ATOM     10  O   UNL     1      -1.510   5.596  -1.753  1.00  0.00    -0.550 OA
ENDBRANCH   7   8
ENDBRANCH   6   7
ENDBRANCH   5   6
ENDBRANCH   4   5
ENDBRANCH   3   4
ENDBRANCH   2   3
ENDBRANCH   1   2
BRANCH   1  11
ATOM     11  C   UNL     1       1.195   7.340   2.672  1.00  0.00     0.000 C 
BRANCH  11  12
ATOM     12  C   UNL     1       2.706   7.178   2.930  1.00  0.00     0.000 C 
BRANCH  12  13
ATOM     13  C   UNL     1       3.529   6.718   1.715  1.00  0.00     0.000 C 
BRANCH  13  14
ATOM     14  C   UNL     1       4.253   5.384   1.955  1.00  0.00     0.000 C 
BRANCH  14  15
ATOM     15  C   UNL     1       3.997   4.869   3.377  1.00  0.00     0.000 C 
BRANCH  15  16
ATOM     16  C   UNL     1       3.629   3.381   3.365  1.00  0.00     0.006 C 
BRANCH  16  17
ATOM     17  C   UNL     1       2.222   3.159   3.927  1.00  0.00     0.053 C 
BRANCH  17  18
ATOM     18  C   UNL     1       2.279   2.332   5.173  1.00  0.00     0.041 C 
ATOM     19  O   UNL     1       1.425   1.430   5.374  1.00  0.00    -0.550 OA
ATOM     20  O   UNL     1       3.247   2.591   6.135  1.00  0.00    -0.550 OA
ENDBRANCH  17  18
ENDBRANCH  16  17
ENDBRANCH  15  16
ENDBRANCH  14  15
ENDBRANCH  13  14
ENDBRANCH  12  13
ENDBRANCH  11  12
ENDBRANCH   1  11
TORSDOF 15
ENDMDL
MODEL 9
REMARK VINA RESULT:    -2.930     10.052     11.847
REMARK INTER + INTRA:          -7.224
REMARK INTER:                  -6.171
REMARK INTRA:                  -1.053
REMARK UNBOUND:                -1.725
REMARK SMILES O=C([O-])CCCCCCCCCCCCCCC(=O)[O-]
REMARK SMILES IDX 10 1 9 2 8 3 7 4 6 5 5 6 4 7 2 8 1 9 3 10 11 11 12 12 13 13
REMARK SMILES IDX 14 14 15 15 16 16 17 17 18 18 19 19 20 20
REMARK H PARENT
REMARK Flexibility Score: inf
ROOT
ATOM      1  C   UNL     1       1.094   0.525   5.265  1.00  0.00     0.000 C 
ENDROOT
BRANCH   1   2
ATOM      2  C   UNL     1       0.890   1.740   6.189  1.00  0.00     0.000 C 
BRANCH   2   3
ATOM      3  C   UNL     1       1.497   3.056   5.668  1.00  0.00     0.000 C 
BRANCH   3   4
ATOM      4  C   UNL     1       2.982   3.244   6.045  1.00  0.00     0.000 C 
BRANCH   4   5
ATOM      5  C   UNL     1       3.920   3.059   4.840  1.00  0.00     0.000 C 
BRANCH   5   6
ATOM      6  C   UNL     1       3.256   3.438   3.507  1.00  0.00     0.006 C 
BRANCH   6   7
ATOM      7  C   UNL     1       4.034   4.518   2.743  1.00  0.00     0.053 C 
BRANCH   7   8
ATOM      8  C   UNL     1       3.273   5.806   2.742  1.00  0.00     0.041 C 
ATOM      9  O   UNL     1       2.550   6.116   3.725  1.00  0.00    -0.550 OA
ATOM     10  O   UNL     1       3.399   6.687   1.676  1.00  0.00    -0.550 OA
ENDBRANCH   7   8
ENDBRANCH   6   7
ENDBRANCH   5   6
ENDBRANCH   4   5
ENDBRANCH   3   4
ENDBRANCH   2   3
ENDBRANCH   1   2
BRANCH   1  11
ATOM     11  C   UNL     1       0.315  -0.742   5.673  1.00  0.00     0.000 C 
BRANCH  11  12
ATOM     12  C   UNL     1       1.160  -1.846   6.339  1.00  0.00     0.000 C 
BRANCH  12  13
ATOM     13  C   UNL     1       0.576  -3.265   6.236  1.00  0.00     0.000 C 
BRANCH  13  14
ATOM     14  C   UNL     1       1.132  -4.055   5.041  1.00  0.00     0.000 C 
BRANCH  14  15
ATOM     15  C   UNL     1       0.263  -3.846   3.794  1.00  0.00     0.000 C 
BRANCH  15  16
ATOM     16  C   UNL     1      -1.149  -4.403   4.007  1.00  0.00     0.006 C 
BRANCH  16  17
ATOM     17  C   UNL     1      -2.207  -3.323   3.763  1.00  0.00     0.053 C 
BRANCH  17  18
ATOM     18  C   UNL     1      -3.456  -3.929   3.206  1.00  0.00     0.041 C 
ATOM     19  O   UNL     1      -4.554  -3.320   3.303  1.00  0.00    -0.550 OA
ATOM     20  O   UNL     1      -3.418  -5.190   2.624  1.00  0.00    -0.550 OA
ENDBRANCH  17  18
ENDBRANCH  16  17
ENDBRANCH  15  16
ENDBRANCH  14  15
ENDBRANCH  13  14
ENDBRANCH  12  13
ENDBRANCH  11  12
ENDBRANCH   1  11
TORSDOF 15
ENDMDL
