MODEL 1
REMARK VINA RESULT:    -5.784      0.000      0.000
REMARK INTER + INTRA:          -6.153
REMARK INTER:                  -6.122
REMARK INTRA:                  -0.031
REMARK UNBOUND:                -0.031
REMARK SMILES COc1ccc2ccc(=O)oc2c1
REMARK SMILES IDX 3 1 13 2 12 3 6 4 5 5 4 6 7 7 8 8 9 9 10 10 11 11 2 12 1 13
REMARK H PARENT
REMARK Flexibility Score: inf
ROOT
ATOM      1  C   UNL     1     -31.412  -2.343 -19.542  1.00  0.00     0.122 A 
ATOM      2  C   UNL     1     -32.722  -2.816 -19.690  1.00  0.00     0.094 A 
ATOM      3  C   UNL     1     -33.302  -3.622 -18.705  1.00  0.00     0.142 A 
ATOM      4  C   UNL     1     -32.563  -3.960 -17.551  1.00  0.00     0.018 A 
ATOM      5  C   UNL     1     -31.253  -3.489 -17.398  1.00  0.00     0.016 A 
ATOM      6  C   UNL     1     -30.680  -2.685 -18.388  1.00  0.00     0.047 A 
ATOM      7  C   UNL     1     -33.170  -4.766 -16.583  1.00  0.00     0.019 A 
ATOM      8  C   UNL     1     -34.477  -5.209 -16.782  1.00  0.00     0.094 A 
ATOM      9  C   UNL     1     -35.149  -4.833 -17.951  1.00  0.00     0.336 A 
ATOM     10  O   UNL     1     -36.330  -5.223 -18.150  1.00  0.00    -0.246 OA
ATOM     11  O   UNL     1     -34.548  -4.066 -18.856  1.00  0.00    -0.423 OA
ENDROOT
BRANCH   1  12
ATOM     12  O   UNL     1     -30.877  -1.539 -20.560  1.00  0.00    -0.497 OA
ATOM     13  C   UNL     1     -29.703  -1.855 -21.301  1.00  0.00     0.278 C 
ENDBRANCH   1  12
TORSDOF 1
ENDMDL
MODEL 2
REMARK VINA RESULT:    -5.730      1.390      4.659
REMARK INTER + INTRA:          -6.095
REMARK INTER:                  -6.052
REMARK INTRA:                  -0.043
REMARK UNBOUND:                -0.031
REMARK SMILES COc1ccc2ccc(=O)oc2c1
REMARK SMILES IDX 3 1 13 2 12 3 6 4 5 5 4 6 7 7 8 8 9 9 10 10 11 11 2 12 1 13
REMARK H PARENT
REMARK Flexibility Score: inf
ROOT
ATOM      1  C   UNL     1     -34.589  -3.347 -17.876  1.00  0.00     0.122 A 
ATOM      2  C   UNL     1     -34.023  -2.784 -19.027  1.00  0.00     0.094 A 
ATOM      3  C   UNL     1     -32.635  -2.755 -19.196  1.00  0.00     0.142 A 
ATOM      4  C   UNL     1     -31.796  -3.299 -18.200  1.00  0.00     0.018 A 
ATOM      5  C   UNL     1     -32.356  -3.864 -17.047  1.00  0.00     0.016 A 
ATOM      6  C   UNL     1     -33.745  -3.888 -16.886  1.00  0.00     0.047 A 
ATOM      7  C   UNL     1     -30.412  -3.257 -18.397  1.00  0.00     0.019 A 
ATOM      8  C   UNL     1     -29.904  -2.684 -19.562  1.00  0.00     0.094 A 
ATOM      9  C   UNL     1     -30.796  -2.164 -20.507  1.00  0.00     0.336 A 
ATOM     10  O   UNL     1     -30.358  -1.642 -21.566  1.00  0.00    -0.246 OA
ATOM     11  O   UNL     1     -32.109  -2.217 -20.294  1.00  0.00    -0.423 OA
ENDROOT
BRANCH   1  12
ATOM     12  O   UNL     1     -35.986  -3.350 -17.756  1.00  0.00    -0.497 OA
ATOM     13  C   UNL     1     -36.875  -2.767 -18.703  1.00  0.00     0.278 C 
ENDBRANCH   1  12
TORSDOF 1
ENDMDL
MODEL 3
REMARK VINA RESULT:    -5.703      6.734      8.074
REMARK INTER + INTRA:          -6.067
REMARK INTER:                  -6.034
REMARK INTRA:                  -0.033
REMARK UNBOUND:                -0.031
REMARK SMILES COc1ccc2ccc(=O)oc2c1
REMARK SMILES IDX 3 1 13 2 12 3 6 4 5 5 4 6 7 7 8 8 9 9 10 10 11 11 2 12 1 13
REMARK H PARENT
REMARK Flexibility Score: inf
ROOT
ATOM      1  C   UNL     1     -37.326  -4.401 -13.442  1.00  0.00     0.122 A 
ATOM      2  C   UNL     1     -38.581  -5.012 -13.326  1.00  0.00     0.094 A 
ATOM      3  C   UNL     1     -38.713  -6.398 -13.465  1.00  0.00     0.142 A 
ATOM      4  C   UNL     1     -37.572  -7.188 -13.722  1.00  0.00     0.018 A 
ATOM      5  C   UNL     1     -36.314  -6.581 -13.838  1.00  0.00     0.016 A 
ATOM      6  C   UNL     1     -36.192  -5.196 -13.699  1.00  0.00     0.047 A 
ATOM      7  C   UNL     1     -37.734  -8.570 -13.854  1.00  0.00     0.019 A 
ATOM      8  C   UNL     1     -39.007  -9.125 -13.730  1.00  0.00     0.094 A 
ATOM      9  C   UNL     1     -40.093  -8.280 -13.475  1.00  0.00     0.336 A 
ATOM     10  O   UNL     1     -41.251  -8.761 -13.360  1.00  0.00    -0.246 OA
ATOM     11  O   UNL     1     -39.910  -6.968 -13.354  1.00  0.00    -0.423 OA
ENDROOT
BRANCH   1  12
ATOM     12  O   UNL     1     -37.250  -3.007 -13.295  1.00  0.00    -0.497 OA
ATOM     13  C   UNL     1     -37.144  -2.090 -14.378  1.00  0.00     0.278 C 
ENDBRANCH   1  12
TORSDOF 1
ENDMDL
MODEL 4
REMARK VINA RESULT:    -5.610      5.022      7.403
REMARK INTER + INTRA:          -5.969
REMARK INTER:                  -5.934
REMARK INTRA:                  -0.035
REMARK UNBOUND:                -0.031
REMARK SMILES COc1ccc2ccc(=O)oc2c1
REMARK SMILES IDX 3 1 13 2 12 3 6 4 5 5 4 6 7 7 8 8 9 9 10 10 11 11 2 12 1 13
REMARK H PARENT
REMARK Flexibility Score: inf
ROOT
ATOM      1  C   UNL     1     -36.080  -6.143 -15.504  1.00  0.00     0.122 A 
ATOM      2  C   UNL     1     -37.007  -5.634 -14.586  1.00  0.00     0.094 A 
ATOM      3  C   UNL     1     -38.099  -6.405 -14.176  1.00  0.00     0.142 A 
ATOM      4  C   UNL     1     -38.269  -7.708 -14.689  1.00  0.00     0.018 A 
ATOM      5  C   UNL     1     -37.345  -8.223 -15.607  1.00  0.00     0.016 A 
ATOM      6  C   UNL     1     -36.256  -7.445 -16.012  1.00  0.00     0.047 A 
ATOM      7  C   UNL     1     -39.370  -8.456 -14.260  1.00  0.00     0.019 A 
ATOM      8  C   UNL     1     -40.262  -7.898 -13.345  1.00  0.00     0.094 A 
ATOM      9  C   UNL     1     -40.030  -6.600 -12.878  1.00  0.00     0.336 A 
ATOM     10  O   UNL     1     -40.823  -6.077 -12.052  1.00  0.00    -0.246 OA
ATOM     11  O   UNL     1     -38.974  -5.910 -13.303  1.00  0.00    -0.423 OA
ENDROOT
BRANCH   1  12
ATOM     12  O   UNL     1     -35.003  -5.328 -15.882  1.00  0.00    -0.497 OA
ATOM     13  C   UNL     1     -34.300  -5.446 -17.114  1.00  0.00     0.278 C 
ENDBRANCH   1  12
TORSDOF 1
ENDMDL
MODEL 5
REMARK VINA RESULT:    -5.555      7.022      9.008
REMARK INTER + INTRA:          -5.911
REMARK INTER:                  -5.868
REMARK INTRA:                  -0.043
REMARK UNBOUND:                -0.031
REMARK SMILES COc1ccc2ccc(=O)oc2c1
REMARK SMILES IDX 3 1 13 2 12 3 6 4 5 5 4 6 7 7 8 8 9 9 10 10 11 11 2 12 1 13
REMARK H PARENT
REMARK Flexibility Score: inf
ROOT
ATOM      1  C   UNL     1     -38.884  -8.107 -13.738  1.00  0.00     0.122 A 
ATOM      2  C   UNL     1     -39.205  -6.761 -13.518  1.00  0.00     0.094 A 
ATOM      3  C   UNL     1     -38.195  -5.801 -13.394  1.00  0.00     0.142 A 
ATOM      4  C   UNL     1     -36.842  -6.190 -13.492  1.00  0.00     0.018 A 
ATOM      5  C   UNL     1     -36.516  -7.534 -13.711  1.00  0.00     0.016 A 
ATOM      6  C   UNL     1     -37.531  -8.488 -13.834  1.00  0.00     0.047 A 
ATOM      7  C   UNL     1     -35.855  -5.207 -13.364  1.00  0.00     0.019 A 
ATOM      8  C   UNL     1     -36.232  -3.883 -13.146  1.00  0.00     0.094 A 
ATOM      9  C   UNL     1     -37.593  -3.571 -13.060  1.00  0.00     0.336 A 
ATOM     10  O   UNL     1     -37.954  -2.381 -12.863  1.00  0.00    -0.246 OA
ATOM     11  O   UNL     1     -38.512  -4.525 -13.185  1.00  0.00    -0.423 OA
ENDROOT
BRANCH   1  12
ATOM     12  O   UNL     1     -39.935  -9.029 -13.855  1.00  0.00    -0.497 OA
ATOM     13  C   UNL     1     -41.275  -8.777 -13.446  1.00  0.00     0.278 C 
ENDBRANCH   1  12
TORSDOF 1
ENDMDL
MODEL 6
REMARK VINA RESULT:    -5.397      5.108      7.484
REMARK INTER + INTRA:          -5.744
REMARK INTER:                  -5.708
REMARK INTRA:                  -0.036
REMARK UNBOUND:                -0.031
REMARK SMILES COc1ccc2ccc(=O)oc2c1
REMARK SMILES IDX 3 1 13 2 12 3 6 4 5 5 4 6 7 7 8 8 9 9 10 10 11 11 2 12 1 13
REMARK H PARENT
REMARK Flexibility Score: inf
ROOT
ATOM      1  C   UNL     1     -36.412  -6.224 -15.670  1.00  0.00     0.122 A 
ATOM      2  C   UNL     1     -37.275  -7.301 -15.432  1.00  0.00     0.094 A 
ATOM      3  C   UNL     1     -38.368  -7.159 -14.570  1.00  0.00     0.142 A 
ATOM      4  C   UNL     1     -38.604  -5.921 -13.936  1.00  0.00     0.018 A 
ATOM      5  C   UNL     1     -37.743  -4.841 -14.170  1.00  0.00     0.016 A 
ATOM      6  C   UNL     1     -36.654  -4.991 -15.033  1.00  0.00     0.047 A 
ATOM      7  C   UNL     1     -39.704  -5.809 -13.080  1.00  0.00     0.019 A 
ATOM      8  C   UNL     1     -40.530  -6.914 -12.880  1.00  0.00     0.094 A 
ATOM      9  C   UNL     1     -40.235  -8.111 -13.543  1.00  0.00     0.336 A 
ATOM     10  O   UNL     1     -40.968  -9.120 -13.375  1.00  0.00    -0.246 OA
ATOM     11  O   UNL     1     -39.181  -8.190 -14.351  1.00  0.00    -0.423 OA
ENDROOT
BRANCH   1  12
ATOM     12  O   UNL     1     -35.331  -6.420 -16.543  1.00  0.00    -0.497 OA
ATOM     13  C   UNL     1     -34.426  -5.397 -16.943  1.00  0.00     0.278 C 
ENDBRANCH   1  12
TORSDOF 1
ENDMDL
MODEL 7
REMARK VINA RESULT:    -5.369      1.772      5.408
REMARK INTER + INTRA:          -5.714
REMARK INTER:                  -5.677
REMARK INTRA:                  -0.036
REMARK UNBOUND:                -0.031
REMARK SMILES COc1ccc2ccc(=O)oc2c1
REMARK SMILES IDX 3 1 13 2 12 3 6 4 5 5 4 6 7 7 8 8 9 9 10 10 11 11 2 12 1 13
REMARK H PARENT
REMARK Flexibility Score: inf
ROOT
ATOM      1  C   UNL     1     -35.334  -5.615 -17.079  1.00  0.00     0.122 A 
ATOM      2  C   UNL     1     -34.014  -5.266 -16.767  1.00  0.00     0.094 A 
ATOM      3  C   UNL     1     -33.321  -4.335 -17.548  1.00  0.00     0.142 A 
ATOM      4  C   UNL     1     -33.958  -3.740 -18.658  1.00  0.00     0.018 A 
ATOM      5  C   UNL     1     -35.278  -4.085 -18.974  1.00  0.00     0.016 A 
ATOM      6  C   UNL     1     -35.963  -5.017 -18.188  1.00  0.00     0.047 A 
ATOM      7  C   UNL     1     -33.241  -2.811 -19.420  1.00  0.00     0.019 A 
ATOM      8  C   UNL     1     -31.929  -2.502 -19.064  1.00  0.00     0.094 A 
ATOM      9  C   UNL     1     -31.362  -3.131 -17.950  1.00  0.00     0.336 A 
ATOM     10  O   UNL     1     -30.178  -2.866 -17.612  1.00  0.00    -0.246 OA
ATOM     11  O   UNL     1     -32.067  -4.011 -17.243  1.00  0.00    -0.423 OA
ENDROOT
BRANCH   1  12
ATOM     12  O   UNL     1     -35.982  -6.555 -16.263  1.00  0.00    -0.497 OA
ATOM     13  C   UNL     1     -36.177  -6.404 -14.861  1.00  0.00     0.278 C 
ENDBRANCH   1  12
TORSDOF 1
ENDMDL
MODEL 8
REMARK VINA RESULT:    -5.321      5.683      9.001
REMARK INTER + INTRA:          -5.663
REMARK INTER:                  -5.631
REMARK INTRA:                  -0.032
REMARK UNBOUND:                -0.031
REMARK SMILES COc1ccc2ccc(=O)oc2c1
REMARK SMILES IDX 3 1 13 2 12 3 6 4 5 5 4 6 7 7 8 8 9 9 10 10 11 11 2 12 1 13
REMARK H PARENT
REMARK Flexibility Score: inf
ROOT
ATOM      1  C   UNL     1     -39.824  -5.723 -12.870  1.00  0.00     0.122 A 
ATOM      2  C   UNL     1     -38.709  -5.277 -13.591  1.00  0.00     0.094 A 
ATOM      3  C   UNL     1     -37.991  -6.157 -14.407  1.00  0.00     0.142 A 
ATOM      4  C   UNL     1     -38.394  -7.506 -14.508  1.00  0.00     0.018 A 
ATOM      5  C   UNL     1     -39.509  -7.957 -13.790  1.00  0.00     0.016 A 
ATOM      6  C   UNL     1     -40.220  -7.071 -12.976  1.00  0.00     0.047 A 
ATOM      7  C   UNL     1     -37.657  -8.362 -15.333  1.00  0.00     0.019 A 
ATOM      8  C   UNL     1     -36.556  -7.863 -16.026  1.00  0.00     0.094 A 
ATOM      9  C   UNL     1     -36.215  -6.514 -15.878  1.00  0.00     0.336 A 
ATOM     10  O   UNL     1     -35.223  -6.044 -16.496  1.00  0.00    -0.246 OA
ATOM     11  O   UNL     1     -36.933  -5.722 -15.087  1.00  0.00    -0.423 OA
ENDROOT
BRANCH   1  12
ATOM     12  O   UNL     1     -40.508  -4.799 -12.066  1.00  0.00    -0.497 OA
ATOM     13  C   UNL     1     -40.840  -5.015 -10.698  1.00  0.00     0.278 C 
ENDBRANCH   1  12
TORSDOF 1
ENDMDL
MODEL 9
REMARK VINA RESULT:    -5.317      8.007      8.980
REMARK INTER + INTRA:          -5.659
REMARK INTER:                  -5.618
REMARK INTRA:                  -0.041
REMARK UNBOUND:                -0.031
REMARK SMILES COc1ccc2ccc(=O)oc2c1
REMARK SMILES IDX 3 1 13 2 12 3 6 4 5 5 4 6 7 7 8 8 9 9 10 10 11 11 2 12 1 13
REMARK H PARENT
REMARK Flexibility Score: inf
ROOT
ATOM      1  C   UNL     1     -38.917  -3.929 -12.389  1.00  0.00     0.122 A 
ATOM      2  C   UNL     1     -38.028  -4.752 -13.092  1.00  0.00     0.094 A 
ATOM      3  C   UNL     1     -38.388  -6.060 -13.433  1.00  0.00     0.142 A 
ATOM      4  C   UNL     1     -39.658  -6.555 -13.068  1.00  0.00     0.018 A 
ATOM      5  C   UNL     1     -40.551  -5.736 -12.365  1.00  0.00     0.016 A 
ATOM      6  C   UNL     1     -40.183  -4.430 -12.028  1.00  0.00     0.047 A 
ATOM      7  C   UNL     1     -39.991  -7.866 -13.423  1.00  0.00     0.019 A 
ATOM      8  C   UNL     1     -39.066  -8.640 -14.122  1.00  0.00     0.094 A 
ATOM      9  C   UNL     1     -37.825  -8.083 -14.451  1.00  0.00     0.336 A 
ATOM     10  O   UNL     1     -36.976  -8.766 -15.082  1.00  0.00    -0.246 OA
ATOM     11  O   UNL     1     -37.535  -6.833 -14.100  1.00  0.00    -0.423 OA
ENDROOT
BRANCH   1  12
ATOM     12  O   UNL     1     -38.505  -2.626 -12.071  1.00  0.00    -0.497 OA
ATOM     13  C   UNL     1     -37.162  -2.256 -11.776  1.00  0.00     0.278 C 
ENDBRANCH   1  12
TORSDOF 1
ENDMDL
