MODEL 1
REMARK VINA RESULT:    -4.680      0.000      0.000
REMARK INTER + INTRA:         -11.025
REMARK INTER:                  -8.511
REMARK INTRA:                  -2.514
REMARK UNBOUND:                -2.514
REMARK SMILES CCCCCCCCCCCCCC[C@H](C)C(=O)[O-]
REMARK SMILES IDX 9 1 10 2 11 3 12 4 13 5 14 6 15 7 16 8 17 9 18 10 19 11 8 12
REMARK SMILES IDX 7 13 6 14 5 15 4 16 3 17 2 18 1 19
REMARK H PARENT
REMARK Flexibility Score: inf
ROOT
ATOM      1  C   UNL     1      16.879 -29.909  22.614  1.00  0.00     0.000 C 
ENDROOT
BRANCH   1   2
ATOM      2  C   UNL     1      17.467 -30.654  21.410  1.00  0.00     0.000 C 
BRANCH   2   3
ATOM      3  C   UNL     1      18.717 -31.453  21.811  1.00  0.00     0.000 C 
BRANCH   3   4
ATOM      4  C   UNL     1      18.770 -32.835  21.126  1.00  0.00     0.000 C 
BRANCH   4   5
ATOM      5  C   UNL     1      17.503 -33.171  20.321  1.00  0.00     0.001 C 
BRANCH   5   6
ATOM      6  C   UNL     1      17.743 -34.248  19.249  1.00  0.00     0.009 C 
BRANCH   6   7
ATOM      7  C   UNL     1      16.783 -35.445  19.401  1.00  0.00     0.032 C 
ATOM      8  C   UNL     1      15.647 -35.107  20.372  1.00  0.00     0.014 C 
BRANCH   7   9
ATOM      9  C   UNL     1      17.508 -36.679  19.870  1.00  0.00     0.044 C 
ATOM     10  O   UNL     1      17.808 -37.593  19.057  1.00  0.00    -0.550 OA
ATOM     11  O   UNL     1      17.852 -36.814  21.209  1.00  0.00    -0.550 OA
ENDBRANCH   7   9
ENDBRANCH   6   7
ENDBRANCH   5   6
ENDBRANCH   4   5
ENDBRANCH   3   4
ENDBRANCH   2   3
ENDBRANCH   1   2
BRANCH   1  12
ATOM     12  C   UNL     1      15.346 -29.860  22.533  1.00  0.00     0.000 C 
BRANCH  12  13
ATOM     13  C   UNL     1      14.783 -30.722  21.390  1.00  0.00    -0.000 C 
BRANCH  13  14
ATOM     14  C   UNL     1      14.048 -31.972  21.901  1.00  0.00    -0.000 C 
BRANCH  14  15
ATOM     15  C   UNL     1      14.070 -32.097  23.435  1.00  0.00    -0.000 C 
BRANCH  15  16
ATOM     16  C   UNL     1      14.712 -33.389  23.976  1.00  0.00    -0.000 C 
BRANCH  16  17
ATOM     17  C   UNL     1      16.242 -33.305  24.071  1.00  0.00    -0.000 C 
BRANCH  17  18
ATOM     18  C   UNL     1      16.879 -34.688  23.898  1.00  0.00    -0.003 C 
ATOM     19  C   UNL     1      16.971 -35.425  25.230  1.00  0.00     0.004 C 
ENDBRANCH  17  18
ENDBRANCH  16  17
ENDBRANCH  15  16
ENDBRANCH  14  15
ENDBRANCH  13  14
ENDBRANCH  12  13
ENDBRANCH   1  12
TORSDOF 14
ENDMDL
MODEL 2
REMARK VINA RESULT:    -4.602      3.806      5.712
REMARK INTER + INTRA:         -10.882
REMARK INTER:                  -8.287
REMARK INTRA:                  -2.596
REMARK UNBOUND:                -2.514
REMARK SMILES CCCCCCCCCCCCCC[C@H](C)C(=O)[O-]
REMARK SMILES IDX 9 1 10 2 11 3 12 4 13 5 14 6 15 7 16 8 17 9 18 10 19 11 8 12
REMARK SMILES IDX 7 13 6 14 5 15 4 16 3 17 2 18 1 19
REMARK H PARENT
REMARK Flexibility Score: inf
ROOT
ATOM      1  C   UNL     1      19.007 -32.419  21.101  1.00  0.00     0.000 C 
ENDROOT
BRANCH   1   2
ATOM      2  C   UNL     1      17.875 -31.416  20.853  1.00  0.00     0.000 C 
BRANCH   2   3
ATOM      3  C   UNL     1      17.922 -30.266  21.870  1.00  0.00     0.000 C 
BRANCH   3   4
ATOM      4  C   UNL     1      16.741 -29.287  21.698  1.00  0.00     0.000 C 
BRANCH   4   5
ATOM      5  C   UNL     1      15.364 -29.952  21.852  1.00  0.00     0.001 C 
BRANCH   5   6
ATOM      6  C   UNL     1      14.509 -29.311  22.958  1.00  0.00     0.009 C 
BRANCH   6   7
ATOM      7  C   UNL     1      13.169 -30.048  23.160  1.00  0.00     0.032 C 
ATOM      8  C   UNL     1      12.843 -30.921  21.943  1.00  0.00     0.014 C 
BRANCH   7   9
ATOM      9  C   UNL     1      12.041 -29.084  23.417  1.00  0.00     0.044 C 
ATOM     10  O   UNL     1      12.124 -28.234  24.344  1.00  0.00    -0.550 OA
ATOM     11  O   UNL     1      10.899 -29.128  22.629  1.00  0.00    -0.550 OA
ENDBRANCH   7   9
ENDBRANCH   6   7
ENDBRANCH   5   6
ENDBRANCH   4   5
ENDBRANCH   3   4
ENDBRANCH   2   3
ENDBRANCH   1   2
BRANCH   1  12
ATOM     12  C   UNL     1      18.541 -33.855  20.818  1.00  0.00     0.000 C 
BRANCH  12  13
ATOM     13  C   UNL     1      17.084 -33.921  20.330  1.00  0.00    -0.000 C 
BRANCH  13  14
ATOM     14  C   UNL     1      16.180 -34.729  21.276  1.00  0.00    -0.000 C 
BRANCH  14  15
ATOM     15  C   UNL     1      15.037 -33.892  21.877  1.00  0.00    -0.000 C 
BRANCH  15  16
ATOM     16  C   UNL     1      15.047 -33.779  23.413  1.00  0.00    -0.000 C 
BRANCH  16  17
ATOM     17  C   UNL     1      16.053 -32.741  23.933  1.00  0.00    -0.000 C 
BRANCH  17  18
ATOM     18  C   UNL     1      17.238 -33.424  24.625  1.00  0.00    -0.003 C 
ATOM     19  C   UNL     1      18.412 -32.463  24.787  1.00  0.00     0.004 C 
ENDBRANCH  17  18
ENDBRANCH  16  17
ENDBRANCH  15  16
ENDBRANCH  14  15
ENDBRANCH  13  14
ENDBRANCH  12  13
ENDBRANCH   1  12
TORSDOF 14
ENDMDL
MODEL 3
REMARK VINA RESULT:    -4.585      3.886      6.110
REMARK INTER + INTRA:         -10.851
REMARK INTER:                  -8.435
REMARK INTRA:                  -2.417
REMARK UNBOUND:                -2.514
REMARK SMILES CCCCCCCCCCCCCC[C@H](C)C(=O)[O-]
REMARK SMILES IDX 9 1 10 2 11 3 12 4 13 5 14 6 15 7 16 8 17 9 18 10 19 11 8 12
REMARK SMILES IDX 7 13 6 14 5 15 4 16 3 17 2 18 1 19
REMARK H PARENT
REMARK Flexibility Score: inf
ROOT
ATOM      1  C   UNL     1      15.341 -34.017  22.882  1.00  0.00     0.000 C 
ENDROOT
BRANCH   1   2
ATOM      2  C   UNL     1      15.444 -32.764  23.759  1.00  0.00     0.000 C 
BRANCH   2   3
ATOM      3  C   UNL     1      16.778 -32.037  23.530  1.00  0.00     0.000 C 
BRANCH   3   4
ATOM      4  C   UNL     1      16.585 -30.521  23.313  1.00  0.00     0.000 C 
BRANCH   4   5
ATOM      5  C   UNL     1      15.530 -30.180  22.249  1.00  0.00     0.001 C 
BRANCH   5   6
ATOM      6  C   UNL     1      14.461 -29.198  22.758  1.00  0.00     0.009 C 
BRANCH   6   7
ATOM      7  C   UNL     1      13.169 -29.918  23.196  1.00  0.00     0.032 C 
ATOM      8  C   UNL     1      12.677 -30.863  22.094  1.00  0.00     0.014 C 
BRANCH   7   9
ATOM      9  C   UNL     1      12.084 -28.937  23.553  1.00  0.00     0.044 C 
ATOM     10  O   UNL     1      12.253 -28.106  24.484  1.00  0.00    -0.550 OA
ATOM     11  O   UNL     1      10.884 -28.945  22.852  1.00  0.00    -0.550 OA
ENDBRANCH   7   9
ENDBRANCH   6   7
ENDBRANCH   5   6
ENDBRANCH   4   5
ENDBRANCH   3   4
ENDBRANCH   2   3
ENDBRANCH   1   2
BRANCH   1  12
ATOM     12  C   UNL     1      15.202 -33.639  21.400  1.00  0.00     0.000 C 
BRANCH  12  13
ATOM     13  C   UNL     1      15.439 -34.832  20.458  1.00  0.00    -0.000 C 
BRANCH  13  14
ATOM     14  C   UNL     1      16.735 -34.693  19.643  1.00  0.00    -0.000 C 
BRANCH  14  15
ATOM     15  C   UNL     1      17.471 -33.367  19.906  1.00  0.00    -0.000 C 
BRANCH  15  16
ATOM     16  C   UNL     1      18.731 -33.480  20.785  1.00  0.00    -0.000 C 
BRANCH  16  17
ATOM     17  C   UNL     1      18.961 -34.900  21.323  1.00  0.00    -0.000 C 
BRANCH  17  18
ATOM     18  C   UNL     1      19.140 -34.887  22.845  1.00  0.00    -0.003 C 
ATOM     19  C   UNL     1      18.399 -36.050  23.498  1.00  0.00     0.004 C 
ENDBRANCH  17  18
ENDBRANCH  16  17
ENDBRANCH  15  16
ENDBRANCH  14  15
ENDBRANCH  13  14
ENDBRANCH  12  13
ENDBRANCH   1  12
TORSDOF 14
ENDMDL
MODEL 4
REMARK VINA RESULT:    -4.515      2.724      5.304
REMARK INTER + INTRA:         -10.724
REMARK INTER:                  -8.035
REMARK INTRA:                  -2.689
REMARK UNBOUND:                -2.514
REMARK SMILES CCCCCCCCCCCCCC[C@H](C)C(=O)[O-]
REMARK SMILES IDX 9 1 10 2 11 3 12 4 13 5 14 6 15 7 16 8 17 9 18 10 19 11 8 12
REMARK SMILES IDX 7 13 6 14 5 15 4 16 3 17 2 18 1 19
REMARK H PARENT
REMARK Flexibility Score: inf
ROOT
ATOM      1  C   UNL     1      17.892 -32.679  22.859  1.00  0.00     0.000 C 
ENDROOT
BRANCH   1   2
ATOM      2  C   UNL     1      17.795 -33.638  24.051  1.00  0.00     0.000 C 
BRANCH   2   3
ATOM      3  C   UNL     1      16.585 -34.574  23.910  1.00  0.00     0.000 C 
BRANCH   3   4
ATOM      4  C   UNL     1      15.409 -33.899  23.172  1.00  0.00     0.000 C 
BRANCH   4   5
ATOM      5  C   UNL     1      14.413 -33.199  24.113  1.00  0.00     0.001 C 
BRANCH   5   6
ATOM      6  C   UNL     1      14.133 -31.741  23.711  1.00  0.00     0.009 C 
BRANCH   6   7
ATOM      7  C   UNL     1      14.453 -31.474  22.227  1.00  0.00     0.032 C 
ATOM      8  C   UNL     1      15.277 -30.190  22.074  1.00  0.00     0.014 C 
BRANCH   7   9
ATOM      9  C   UNL     1      13.199 -31.379  21.399  1.00  0.00     0.044 C 
ATOM     10  O   UNL     1      13.125 -31.953  20.279  1.00  0.00    -0.550 OA
ATOM     11  O   UNL     1      12.111 -30.655  21.869  1.00  0.00    -0.550 OA
ENDBRANCH   7   9
ENDBRANCH   6   7
ENDBRANCH   5   6
ENDBRANCH   4   5
ENDBRANCH   3   4
ENDBRANCH   2   3
ENDBRANCH   1   2
BRANCH   1  12
ATOM     12  C   UNL     1      19.173 -32.938  22.050  1.00  0.00     0.000 C 
BRANCH  12  13
ATOM     13  C   UNL     1      18.886 -33.298  20.583  1.00  0.00    -0.000 C 
BRANCH  13  14
ATOM     14  C   UNL     1      17.389 -33.221  20.238  1.00  0.00    -0.000 C 
BRANCH  14  15
ATOM     15  C   UNL     1      16.921 -34.375  19.333  1.00  0.00    -0.000 C 
BRANCH  15  16
ATOM     16  C   UNL     1      16.613 -35.695  20.065  1.00  0.00    -0.000 C 
BRANCH  16  17
ATOM     17  C   UNL     1      17.771 -36.702  20.002  1.00  0.00    -0.000 C 
BRANCH  17  18
ATOM     18  C   UNL     1      18.000 -37.361  21.367  1.00  0.00    -0.003 C 
ATOM     19  C   UNL     1      19.127 -36.673  22.130  1.00  0.00     0.004 C 
ENDBRANCH  17  18
ENDBRANCH  16  17
ENDBRANCH  15  16
ENDBRANCH  14  15
ENDBRANCH  13  14
ENDBRANCH  12  13
ENDBRANCH   1  12
TORSDOF 14
ENDMDL
MODEL 5
REMARK VINA RESULT:    -4.500      1.298      2.243
REMARK INTER + INTRA:         -10.697
REMARK INTER:                  -8.458
REMARK INTRA:                  -2.238
REMARK UNBOUND:                -2.514
REMARK SMILES CCCCCCCCCCCCCC[C@H](C)C(=O)[O-]
REMARK SMILES IDX 9 1 10 2 11 3 12 4 13 5 14 6 15 7 16 8 17 9 18 10 19 11 8 12
REMARK SMILES IDX 7 13 6 14 5 15 4 16 3 17 2 18 1 19
REMARK H PARENT
REMARK Flexibility Score: inf
ROOT
ATOM      1  C   UNL     1      16.875 -30.583  23.456  1.00  0.00     0.000 C 
ENDROOT
BRANCH   1   2
ATOM      2  C   UNL     1      18.116 -31.339  22.968  1.00  0.00     0.000 C 
BRANCH   2   3
ATOM      3  C   UNL     1      18.249 -31.252  21.440  1.00  0.00     0.000 C 
BRANCH   3   4
ATOM      4  C   UNL     1      19.308 -32.233  20.891  1.00  0.00     0.000 C 
BRANCH   4   5
ATOM      5  C   UNL     1      19.034 -33.701  21.256  1.00  0.00     0.001 C 
BRANCH   5   6
ATOM      6  C   UNL     1      17.871 -34.311  20.454  1.00  0.00     0.009 C 
BRANCH   6   7
ATOM      7  C   UNL     1      17.257 -35.538  21.160  1.00  0.00     0.032 C 
ATOM      8  C   UNL     1      17.650 -35.562  22.641  1.00  0.00     0.014 C 
BRANCH   7   9
ATOM      9  C   UNL     1      17.677 -36.823  20.497  1.00  0.00     0.044 C 
ATOM     10  O   UNL     1      18.081 -37.797  21.187  1.00  0.00    -0.550 OA
ATOM     11  O   UNL     1      17.620 -36.941  19.114  1.00  0.00    -0.550 OA
ENDBRANCH   7   9
ENDBRANCH   6   7
ENDBRANCH   5   6
ENDBRANCH   4   5
ENDBRANCH   3   4
ENDBRANCH   2   3
ENDBRANCH   1   2
BRANCH   1  12
ATOM     12  C   UNL     1      16.472 -29.487  22.458  1.00  0.00     0.000 C 
BRANCH  12  13
ATOM     13  C   UNL     1      14.981 -29.543  22.085  1.00  0.00    -0.000 C 
BRANCH  13  14
ATOM     14  C   UNL     1      14.078 -28.931  23.169  1.00  0.00    -0.000 C 
BRANCH  14  15
ATOM     15  C   UNL     1      13.169 -29.970  23.851  1.00  0.00    -0.000 C 
BRANCH  15  16
ATOM     16  C   UNL     1      13.190 -31.374  23.217  1.00  0.00    -0.000 C 
BRANCH  16  17
ATOM     17  C   UNL     1      13.879 -32.423  24.104  1.00  0.00    -0.000 C 
BRANCH  17  18
ATOM     18  C   UNL     1      14.733 -33.377  23.262  1.00  0.00    -0.003 C 
ATOM     19  C   UNL     1      14.646 -33.033  21.778  1.00  0.00     0.004 C 
ENDBRANCH  17  18
ENDBRANCH  16  17
ENDBRANCH  15  16
ENDBRANCH  14  15
ENDBRANCH  13  14
ENDBRANCH  12  13
ENDBRANCH   1  12
TORSDOF 14
ENDMDL
MODEL 6
REMARK VINA RESULT:    -4.495      3.282      6.106
REMARK INTER + INTRA:         -10.688
REMARK INTER:                  -8.314
REMARK INTRA:                  -2.375
REMARK UNBOUND:                -2.514
REMARK SMILES CCCCCCCCCCCCCC[C@H](C)C(=O)[O-]
REMARK SMILES IDX 9 1 10 2 11 3 12 4 13 5 14 6 15 7 16 8 17 9 18 10 19 11 8 12
REMARK SMILES IDX 7 13 6 14 5 15 4 16 3 17 2 18 1 19
REMARK H PARENT
REMARK Flexibility Score: inf
ROOT
ATOM      1  C   UNL     1      17.966 -36.131  19.723  1.00  0.00     0.000 C 
ENDROOT
BRANCH   1   2
ATOM      2  C   UNL     1      16.870 -35.187  19.218  1.00  0.00     0.000 C 
BRANCH   2   3
ATOM      3  C   UNL     1      15.706 -35.106  20.218  1.00  0.00     0.000 C 
BRANCH   3   4
ATOM      4  C   UNL     1      14.922 -33.781  20.094  1.00  0.00     0.000 C 
BRANCH   4   5
ATOM      5  C   UNL     1      14.487 -33.196  21.447  1.00  0.00     0.001 C 
BRANCH   5   6
ATOM      6  C   UNL     1      14.017 -31.735  21.344  1.00  0.00     0.009 C 
BRANCH   6   7
ATOM      7  C   UNL     1      13.864 -31.073  22.729  1.00  0.00     0.032 C 
ATOM      8  C   UNL     1      13.970 -32.120  23.843  1.00  0.00     0.014 C 
BRANCH   7   9
ATOM      9  C   UNL     1      12.559 -30.331  22.846  1.00  0.00     0.044 C 
ATOM     10  O   UNL     1      11.593 -30.611  22.087  1.00  0.00    -0.550 OA
ATOM     11  O   UNL     1      12.415 -29.327  23.795  1.00  0.00    -0.550 OA
ENDBRANCH   7   9
ENDBRANCH   6   7
ENDBRANCH   5   6
ENDBRANCH   4   5
ENDBRANCH   3   4
ENDBRANCH   2   3
ENDBRANCH   1   2
BRANCH   1  12
ATOM     12  C   UNL     1      17.646 -36.636  21.139  1.00  0.00     0.000 C 
BRANCH  12  13
ATOM     13  C   UNL     1      18.505 -35.957  22.219  1.00  0.00    -0.000 C 
BRANCH  13  14
ATOM     14  C   UNL     1      17.684 -35.537  23.449  1.00  0.00    -0.000 C 
BRANCH  14  15
ATOM     15  C   UNL     1      17.350 -34.034  23.464  1.00  0.00    -0.000 C 
BRANCH  15  16
ATOM     16  C   UNL     1      18.087 -33.190  22.408  1.00  0.00    -0.000 C 
BRANCH  16  17
ATOM     17  C   UNL     1      17.770 -31.691  22.509  1.00  0.00    -0.000 C 
BRANCH  17  18
ATOM     18  C   UNL     1      17.727 -31.044  21.120  1.00  0.00    -0.003 C 
ATOM     19  C   UNL     1      18.420 -29.685  21.122  1.00  0.00     0.004 C 
ENDBRANCH  17  18
ENDBRANCH  16  17
ENDBRANCH  15  16
ENDBRANCH  14  15
ENDBRANCH  13  14
ENDBRANCH  12  13
ENDBRANCH   1  12
TORSDOF 14
ENDMDL
MODEL 7
REMARK VINA RESULT:    -4.493      2.937      5.204
REMARK INTER + INTRA:         -10.685
REMARK INTER:                  -8.073
REMARK INTRA:                  -2.612
REMARK UNBOUND:                -2.514
REMARK SMILES CCCCCCCCCCCCCC[C@H](C)C(=O)[O-]
REMARK SMILES IDX 9 1 10 2 11 3 12 4 13 5 14 6 15 7 16 8 17 9 18 10 19 11 8 12
REMARK SMILES IDX 7 13 6 14 5 15 4 16 3 17 2 18 1 19
REMARK H PARENT
REMARK Flexibility Score: inf
ROOT
ATOM      1  C   UNL     1      19.183 -32.369  21.629  1.00  0.00     0.000 C 
ENDROOT
BRANCH   1   2
ATOM      2  C   UNL     1      18.303 -31.443  20.782  1.00  0.00     0.000 C 
BRANCH   2   3
ATOM      3  C   UNL     1      16.883 -31.347  21.360  1.00  0.00     0.000 C 
BRANCH   3   4
ATOM      4  C   UNL     1      16.570 -29.937  21.906  1.00  0.00     0.000 C 
BRANCH   4   5
ATOM      5  C   UNL     1      15.716 -29.947  23.184  1.00  0.00     0.001 C 
BRANCH   5   6
ATOM      6  C   UNL     1      14.291 -29.417  22.957  1.00  0.00     0.009 C 
BRANCH   6   7
ATOM      7  C   UNL     1      13.222 -30.508  23.171  1.00  0.00     0.032 C 
ATOM      8  C   UNL     1      13.830 -31.732  23.865  1.00  0.00     0.014 C 
BRANCH   7   9
ATOM      9  C   UNL     1      12.586 -30.920  21.869  1.00  0.00     0.044 C 
ATOM     10  O   UNL     1      13.260 -31.515  20.987  1.00  0.00    -0.550 OA
ATOM     11  O   UNL     1      11.245 -30.646  21.636  1.00  0.00    -0.550 OA
ENDBRANCH   7   9
ENDBRANCH   6   7
ENDBRANCH   5   6
ENDBRANCH   4   5
ENDBRANCH   3   4
ENDBRANCH   2   3
ENDBRANCH   1   2
BRANCH   1  12
ATOM     12  C   UNL     1      19.575 -31.693  22.952  1.00  0.00     0.000 C 
BRANCH  12  13
ATOM     13  C   UNL     1      19.349 -32.600  24.173  1.00  0.00    -0.000 C 
BRANCH  13  14
ATOM     14  C   UNL     1      17.929 -32.474  24.747  1.00  0.00    -0.000 C 
BRANCH  14  15
ATOM     15  C   UNL     1      17.197 -33.825  24.846  1.00  0.00    -0.000 C 
BRANCH  15  16
ATOM     16  C   UNL     1      16.478 -34.275  23.561  1.00  0.00    -0.000 C 
BRANCH  16  17
ATOM     17  C   UNL     1      17.272 -35.321  22.764  1.00  0.00    -0.000 C 
BRANCH  17  18
ATOM     18  C   UNL     1      16.847 -35.327  21.291  1.00  0.00    -0.003 C 
ATOM     19  C   UNL     1      15.473 -34.688  21.111  1.00  0.00     0.004 C 
ENDBRANCH  17  18
ENDBRANCH  16  17
ENDBRANCH  15  16
ENDBRANCH  14  15
ENDBRANCH  13  14
ENDBRANCH  12  13
ENDBRANCH   1  12
TORSDOF 14
ENDMDL
MODEL 8
REMARK VINA RESULT:    -4.479      3.071      5.991
REMARK INTER + INTRA:         -10.659
REMARK INTER:                  -8.552
REMARK INTRA:                  -2.108
REMARK UNBOUND:                -2.514
REMARK SMILES CCCCCCCCCCCCCC[C@H](C)C(=O)[O-]
REMARK SMILES IDX 9 1 10 2 11 3 12 4 13 5 14 6 15 7 16 8 17 9 18 10 19 11 8 12
REMARK SMILES IDX 7 13 6 14 5 15 4 16 3 17 2 18 1 19
REMARK H PARENT
REMARK Flexibility Score: inf
ROOT
ATOM      1  C   UNL     1      15.696 -34.303  20.042  1.00  0.00     0.000 C 
ENDROOT
BRANCH   1   2
ATOM      2  C   UNL     1      15.967 -33.528  21.336  1.00  0.00     0.000 C 
BRANCH   2   3
ATOM      3  C   UNL     1      15.028 -33.988  22.462  1.00  0.00     0.000 C 
BRANCH   3   4
ATOM      4  C   UNL     1      15.219 -33.163  23.753  1.00  0.00     0.000 C 
BRANCH   4   5
ATOM      5  C   UNL     1      14.192 -32.032  23.917  1.00  0.00     0.001 C 
BRANCH   5   6
ATOM      6  C   UNL     1      14.653 -30.706  23.288  1.00  0.00     0.009 C 
BRANCH   6   7
ATOM      7  C   UNL     1      13.471 -29.870  22.757  1.00  0.00     0.032 C 
ATOM      8  C   UNL     1      12.660 -29.283  23.917  1.00  0.00     0.014 C 
BRANCH   7   9
ATOM      9  C   UNL     1      12.573 -30.687  21.866  1.00  0.00     0.044 C 
ATOM     10  O   UNL     1      11.325 -30.681  22.036  1.00  0.00    -0.550 OA
ATOM     11  O   UNL     1      13.121 -31.455  20.846  1.00  0.00    -0.550 OA
ENDBRANCH   7   9
ENDBRANCH   6   7
ENDBRANCH   5   6
ENDBRANCH   4   5
ENDBRANCH   3   4
ENDBRANCH   2   3
ENDBRANCH   1   2
BRANCH   1  12
ATOM     12  C   UNL     1      16.919 -34.263  19.112  1.00  0.00     0.000 C 
BRANCH  12  13
ATOM     13  C   UNL     1      17.941 -35.367  19.429  1.00  0.00    -0.000 C 
BRANCH  13  14
ATOM     14  C   UNL     1      17.274 -36.699  19.811  1.00  0.00    -0.000 C 
BRANCH  14  15
ATOM     15  C   UNL     1      17.985 -37.416  20.973  1.00  0.00    -0.000 C 
BRANCH  15  16
ATOM     16  C   UNL     1      18.843 -36.509  21.875  1.00  0.00    -0.000 C 
BRANCH  16  17
ATOM     17  C   UNL     1      18.088 -36.010  23.116  1.00  0.00    -0.000 C 
BRANCH  17  18
ATOM     18  C   UNL     1      18.698 -34.705  23.641  1.00  0.00    -0.003 C 
ATOM     19  C   UNL     1      19.443 -33.961  22.537  1.00  0.00     0.004 C 
ENDBRANCH  17  18
ENDBRANCH  16  17
ENDBRANCH  15  16
ENDBRANCH  14  15
ENDBRANCH  13  14
ENDBRANCH  12  13
ENDBRANCH   1  12
TORSDOF 14
ENDMDL
MODEL 9
REMARK VINA RESULT:    -4.454      1.760      3.565
REMARK INTER + INTRA:         -10.614
REMARK INTER:                  -8.492
REMARK INTRA:                  -2.122
REMARK UNBOUND:                -2.514
REMARK SMILES CCCCCCCCCCCCCC[C@H](C)C(=O)[O-]
REMARK SMILES IDX 9 1 10 2 11 3 12 4 13 5 14 6 15 7 16 8 17 9 18 10 19 11 8 12
REMARK SMILES IDX 7 13 6 14 5 15 4 16 3 17 2 18 1 19
REMARK H PARENT
REMARK Flexibility Score: inf
ROOT
ATOM      1  C   UNL     1      16.512 -31.296  23.554  1.00  0.00     0.000 C 
ENDROOT
BRANCH   1   2
ATOM      2  C   UNL     1      18.038 -31.434  23.498  1.00  0.00     0.000 C 
BRANCH   2   3
ATOM      3  C   UNL     1      18.580 -31.014  22.123  1.00  0.00     0.000 C 
BRANCH   3   4
ATOM      4  C   UNL     1      17.756 -31.612  20.963  1.00  0.00     0.000 C 
BRANCH   4   5
ATOM      5  C   UNL     1      18.145 -33.058  20.613  1.00  0.00     0.001 C 
BRANCH   5   6
ATOM      6  C   UNL     1      16.936 -34.007  20.554  1.00  0.00     0.009 C 
BRANCH   6   7
ATOM      7  C   UNL     1      17.150 -35.277  21.402  1.00  0.00     0.032 C 
ATOM      8  C   UNL     1      18.234 -35.045  22.459  1.00  0.00     0.014 C 
BRANCH   7   9
ATOM      9  C   UNL     1      17.516 -36.459  20.543  1.00  0.00     0.044 C 
ATOM     10  O   UNL     1      18.033 -37.487  21.055  1.00  0.00    -0.550 OA
ATOM     11  O   UNL     1      17.284 -36.420  19.174  1.00  0.00    -0.550 OA
ENDBRANCH   7   9
ENDBRANCH   6   7
ENDBRANCH   5   6
ENDBRANCH   4   5
ENDBRANCH   3   4
ENDBRANCH   2   3
ENDBRANCH   1   2
BRANCH   1  12
ATOM     12  C   UNL     1      15.859 -32.609  24.012  1.00  0.00     0.000 C 
BRANCH  12  13
ATOM     13  C   UNL     1      14.393 -32.731  23.562  1.00  0.00    -0.000 C 
BRANCH  13  14
ATOM     14  C   UNL     1      14.229 -32.588  22.040  1.00  0.00    -0.000 C 
BRANCH  14  15
ATOM     15  C   UNL     1      13.466 -31.314  21.634  1.00  0.00    -0.000 C 
BRANCH  15  16
ATOM     16  C   UNL     1      12.767 -30.574  22.791  1.00  0.00    -0.000 C 
BRANCH  16  17
ATOM     17  C   UNL     1      13.384 -29.199  23.085  1.00  0.00    -0.000 C 
BRANCH  17  18
ATOM     18  C   UNL     1      12.650 -28.504  24.237  1.00  0.00    -0.003 C 
ATOM     19  C   UNL     1      13.193 -27.097  24.468  1.00  0.00     0.004 C 
ENDBRANCH  17  18
ENDBRANCH  16  17
ENDBRANCH  15  16
ENDBRANCH  14  15
ENDBRANCH  13  14
ENDBRANCH  12  13
ENDBRANCH   1  12
TORSDOF 14
ENDMDL
