MODEL 1
REMARK VINA RESULT:    -5.319      0.000      0.000
REMARK INTER + INTRA:         -16.233
REMARK INTER:                 -12.159
REMARK INTRA:                  -4.074
REMARK UNBOUND:                -4.074
REMARK SMILES CCCCCCCCCCCCCCCCCCCCCCCC(=O)[O-]
REMARK SMILES IDX 13 1 14 2 15 3 16 4 17 5 18 6 19 7 20 8 21 9 22 10 23 11
REMARK SMILES IDX 24 12 25 13 26 14 12 15 11 16 10 17 9 18 8 19 7 20 6 21 5 22
REMARK SMILES IDX 4 23 3 24 2 25 1 26
REMARK H PARENT
REMARK Flexibility Score: inf
ROOT
ATOM      1  C   UNL     1      11.135 -13.940  36.218  1.00  0.00     0.000 C 
ENDROOT
BRANCH   1   2
ATOM      2  C   UNL     1      10.222 -15.099  36.645  1.00  0.00     0.000 C 
BRANCH   2   3
ATOM      3  C   UNL     1      10.422 -15.511  38.113  1.00  0.00     0.000 C 
BRANCH   3   4
ATOM      4  C   UNL     1       9.167 -15.315  38.991  1.00  0.00     0.000 C 
BRANCH   4   5
ATOM      5  C   UNL     1       8.142 -14.374  38.336  1.00  0.00     0.000 C 
BRANCH   5   6
ATOM      6  C   UNL     1       8.027 -13.026  39.067  1.00  0.00     0.000 C 
BRANCH   6   7
ATOM      7  C   UNL     1       9.099 -12.018  38.616  1.00  0.00     0.000 C 
BRANCH   7   8
ATOM      8  C   UNL     1       8.887 -11.537  37.172  1.00  0.00     0.000 C 
BRANCH   8   9
ATOM      9  C   UNL     1       7.425 -11.151  36.889  1.00  0.00     0.000 C 
BRANCH   9  10
ATOM     10  C   UNL     1       6.971 -11.549  35.476  1.00  0.00     0.006 C 
BRANCH  10  11
ATOM     11  C   UNL     1       7.353 -12.990  35.112  1.00  0.00     0.053 C 
BRANCH  11  12
ATOM     12  C   UNL     1       8.087 -13.024  33.809  1.00  0.00     0.041 C 
ATOM     13  O   UNL     1       8.964 -12.157  33.553  1.00  0.00    -0.550 OA
ATOM     14  O   UNL     1       7.768 -13.983  32.856  1.00  0.00    -0.550 OA
ENDBRANCH  11  12
ENDBRANCH  10  11
ENDBRANCH   9  10
ENDBRANCH   8   9
ENDBRANCH   7   8
ENDBRANCH   6   7
ENDBRANCH   5   6
ENDBRANCH   4   5
ENDBRANCH   3   4
ENDBRANCH   2   3
ENDBRANCH   1   2
BRANCH   1  15
ATOM     15  C   UNL     1      12.200 -13.657  37.285  1.00  0.00     0.000 C 
BRANCH  15  16
ATOM     16  C   UNL     1      13.604 -13.629  36.661  1.00  0.00     0.000 C 
BRANCH  16  17
ATOM     17  C   UNL     1      13.577 -13.306  35.157  1.00  0.00     0.000 C 
BRANCH  17  18
ATOM     18  C   UNL     1      14.554 -12.196  34.724  1.00  0.00    -0.000 C 
BRANCH  18  19
ATOM     19  C   UNL     1      13.922 -10.786  34.718  1.00  0.00    -0.000 C 
BRANCH  19  20
ATOM     20  C   UNL     1      12.443 -10.780  34.269  1.00  0.00    -0.000 C 
BRANCH  20  21
ATOM     21  C   UNL     1      11.454 -10.531  35.421  1.00  0.00    -0.000 C 
BRANCH  21  22
ATOM     22  C   UNL     1      11.380  -9.049  35.829  1.00  0.00    -0.000 C 
BRANCH  22  23
ATOM     23  C   UNL     1      11.927  -8.809  37.247  1.00  0.00    -0.000 C 
BRANCH  23  24
ATOM     24  C   UNL     1      12.647 -10.040  37.842  1.00  0.00    -0.000 C 
BRANCH  24  25
ATOM     25  C   UNL     1      12.276 -10.320  39.307  1.00  0.00    -0.003 C 
ATOM     26  C   UNL     1      13.486 -10.323  40.240  1.00  0.00     0.004 C 
ENDBRANCH  24  25
ENDBRANCH  23  24
ENDBRANCH  22  23
ENDBRANCH  21  22
ENDBRANCH  20  21
ENDBRANCH  19  20
ENDBRANCH  18  19
ENDBRANCH  17  18
ENDBRANCH  16  17
ENDBRANCH  15  16
ENDBRANCH   1  15
TORSDOF 22
ENDMDL
MODEL 2
REMARK VINA RESULT:    -4.956      2.162      6.181
REMARK INTER + INTRA:         -15.403
REMARK INTER:                 -11.690
REMARK INTRA:                  -3.713
REMARK UNBOUND:                -4.074
REMARK SMILES CCCCCCCCCCCCCCCCCCCCCCCC(=O)[O-]
REMARK SMILES IDX 13 1 14 2 15 3 16 4 17 5 18 6 19 7 20 8 21 9 22 10 23 11
REMARK SMILES IDX 24 12 25 13 26 14 12 15 11 16 10 17 9 18 8 19 7 20 6 21 5 22
REMARK SMILES IDX 4 23 3 24 2 25 1 26
REMARK H PARENT
REMARK Flexibility Score: inf
ROOT
ATOM      1  C   UNL     1      11.261 -13.840  36.849  1.00  0.00     0.000 C 
ENDROOT
BRANCH   1   2
ATOM      2  C   UNL     1      12.698 -13.595  37.329  1.00  0.00     0.000 C 
BRANCH   2   3
ATOM      3  C   UNL     1      13.755 -13.978  36.280  1.00  0.00     0.000 C 
BRANCH   3   4
ATOM      4  C   UNL     1      13.591 -13.243  34.932  1.00  0.00     0.000 C 
BRANCH   4   5
ATOM      5  C   UNL     1      14.309 -11.883  34.922  1.00  0.00     0.000 C 
BRANCH   5   6
ATOM      6  C   UNL     1      13.385 -10.732  34.490  1.00  0.00     0.000 C 
BRANCH   6   7
ATOM      7  C   UNL     1      11.901 -11.143  34.470  1.00  0.00     0.000 C 
BRANCH   7   8
ATOM      8  C   UNL     1      11.114 -10.575  35.661  1.00  0.00     0.000 C 
BRANCH   8   9
ATOM      9  C   UNL     1      11.419  -9.088  35.912  1.00  0.00     0.000 C 
BRANCH   9  10
ATOM     10  C   UNL     1      12.058  -8.839  37.287  1.00  0.00     0.006 C 
BRANCH  10  11
ATOM     11  C   UNL     1      12.807 -10.066  37.826  1.00  0.00     0.053 C 
BRANCH  11  12
ATOM     12  C   UNL     1      12.415 -10.336  39.244  1.00  0.00     0.041 C 
ATOM     13  O   UNL     1      11.214 -10.574  39.536  1.00  0.00    -0.550 OA
ATOM     14  O   UNL     1      13.370 -10.277  40.252  1.00  0.00    -0.550 OA
ENDBRANCH  11  12
ENDBRANCH  10  11
ENDBRANCH   9  10
ENDBRANCH   8   9
ENDBRANCH   7   8
ENDBRANCH   6   7
ENDBRANCH   5   6
ENDBRANCH   4   5
ENDBRANCH   3   4
ENDBRANCH   2   3
ENDBRANCH   1   2
BRANCH   1  15
ATOM     15  C   UNL     1      11.013 -15.331  36.591  1.00  0.00     0.000 C 
BRANCH  15  16
ATOM     16  C   UNL     1      10.525 -16.033  37.868  1.00  0.00     0.000 C 
BRANCH  16  17
ATOM     17  C   UNL     1       9.660 -15.119  38.752  1.00  0.00     0.000 C 
BRANCH  17  18
ATOM     18  C   UNL     1       8.147 -15.201  38.468  1.00  0.00    -0.000 C 
BRANCH  18  19
ATOM     19  C   UNL     1       7.437 -13.829  38.507  1.00  0.00    -0.000 C 
BRANCH  19  20
ATOM     20  C   UNL     1       8.402 -12.647  38.755  1.00  0.00    -0.000 C 
BRANCH  20  21
ATOM     21  C   UNL     1       8.583 -11.736  37.528  1.00  0.00    -0.000 C 
BRANCH  21  22
ATOM     22  C   UNL     1       7.271 -11.062  37.090  1.00  0.00    -0.000 C 
BRANCH  22  23
ATOM     23  C   UNL     1       6.826 -11.512  35.688  1.00  0.00    -0.000 C 
BRANCH  23  24
ATOM     24  C   UNL     1       7.986 -12.057  34.823  1.00  0.00    -0.000 C 
BRANCH  24  25
ATOM     25  C   UNL     1       7.903 -13.571  34.569  1.00  0.00    -0.003 C 
ATOM     26  C   UNL     1       7.650 -13.917  33.102  1.00  0.00     0.004 C 
ENDBRANCH  24  25
ENDBRANCH  23  24
ENDBRANCH  22  23
ENDBRANCH  21  22
ENDBRANCH  20  21
ENDBRANCH  19  20
ENDBRANCH  18  19
ENDBRANCH  17  18
ENDBRANCH  16  17
ENDBRANCH  15  16
ENDBRANCH   1  15
TORSDOF 22
ENDMDL
MODEL 3
REMARK VINA RESULT:    -4.910      2.270      5.929
REMARK INTER + INTRA:         -15.299
REMARK INTER:                 -11.765
REMARK INTRA:                  -3.534
REMARK UNBOUND:                -4.074
REMARK SMILES CCCCCCCCCCCCCCCCCCCCCCCC(=O)[O-]
REMARK SMILES IDX 13 1 14 2 15 3 16 4 17 5 18 6 19 7 20 8 21 9 22 10 23 11
REMARK SMILES IDX 24 12 25 13 26 14 12 15 11 16 10 17 9 18 8 19 7 20 6 21 5 22
REMARK SMILES IDX 4 23 3 24 2 25 1 26
REMARK H PARENT
REMARK Flexibility Score: inf
ROOT
ATOM      1  C   UNL     1       7.344 -11.274  37.143  1.00  0.00     0.000 C 
ENDROOT
BRANCH   1   2
ATOM      2  C   UNL     1       6.853 -11.759  35.771  1.00  0.00     0.000 C 
BRANCH   2   3
ATOM      3  C   UNL     1       7.282 -13.201  35.455  1.00  0.00     0.000 C 
BRANCH   3   4
ATOM      4  C   UNL     1       8.002 -13.354  34.097  1.00  0.00     0.000 C 
BRANCH   4   5
ATOM      5  C   UNL     1       8.790 -12.090  33.713  1.00  0.00     0.000 C 
BRANCH   5   6
ATOM      6  C   UNL     1      10.171 -12.030  34.386  1.00  0.00     0.000 C 
BRANCH   6   7
ATOM      7  C   UNL     1      10.551 -10.604  34.825  1.00  0.00     0.000 C 
BRANCH   7   8
ATOM      8  C   UNL     1      11.154 -10.561  36.238  1.00  0.00     0.000 C 
BRANCH   8   9
ATOM      9  C   UNL     1      12.071  -9.344  36.449  1.00  0.00     0.000 C 
BRANCH   9  10
ATOM     10  C   UNL     1      13.400  -9.715  37.125  1.00  0.00     0.006 C 
BRANCH  10  11
ATOM     11  C   UNL     1      13.260 -10.884  38.110  1.00  0.00     0.053 C 
BRANCH  11  12
ATOM     12  C   UNL     1      12.711 -10.403  39.417  1.00  0.00     0.041 C 
ATOM     13  O   UNL     1      13.490 -10.057  40.343  1.00  0.00    -0.550 OA
ATOM     14  O   UNL     1      11.338 -10.386  39.629  1.00  0.00    -0.550 OA
ENDBRANCH  11  12
ENDBRANCH  10  11
ENDBRANCH   9  10
ENDBRANCH   8   9
ENDBRANCH   7   8
ENDBRANCH   6   7
ENDBRANCH   5   6
ENDBRANCH   4   5
ENDBRANCH   3   4
ENDBRANCH   2   3
ENDBRANCH   1   2
BRANCH   1  15
ATOM     15  C   UNL     1       8.521 -12.123  37.638  1.00  0.00     0.000 C 
BRANCH  15  16
ATOM     16  C   UNL     1       8.206 -12.751  39.004  1.00  0.00     0.000 C 
BRANCH  16  17
ATOM     17  C   UNL     1       7.604 -14.162  38.882  1.00  0.00     0.000 C 
BRANCH  17  18
ATOM     18  C   UNL     1       8.613 -15.308  39.088  1.00  0.00    -0.000 C 
BRANCH  18  19
ATOM     19  C   UNL     1      10.012 -15.011  38.502  1.00  0.00    -0.000 C 
BRANCH  19  20
ATOM     20  C   UNL     1      10.132 -15.358  37.001  1.00  0.00    -0.000 C 
BRANCH  20  21
ATOM     21  C   UNL     1      11.334 -14.688  36.312  1.00  0.00    -0.000 C 
BRANCH  21  22
ATOM     22  C   UNL     1      12.569 -14.602  37.224  1.00  0.00    -0.000 C 
BRANCH  22  23
ATOM     23  C   UNL     1      13.607 -13.592  36.704  1.00  0.00    -0.000 C 
BRANCH  23  24
ATOM     24  C   UNL     1      13.448 -13.270  35.200  1.00  0.00    -0.000 C 
BRANCH  24  25
ATOM     25  C   UNL     1      14.645 -12.510  34.605  1.00  0.00    -0.003 C 
ATOM     26  C   UNL     1      14.291 -11.090  34.166  1.00  0.00     0.004 C 
ENDBRANCH  24  25
ENDBRANCH  23  24
ENDBRANCH  22  23
ENDBRANCH  21  22
ENDBRANCH  20  21
ENDBRANCH  19  20
ENDBRANCH  18  19
ENDBRANCH  17  18
ENDBRANCH  16  17
ENDBRANCH  15  16
ENDBRANCH   1  15
TORSDOF 22
ENDMDL
MODEL 4
REMARK VINA RESULT:    -4.829      0.706      1.707
REMARK INTER + INTRA:         -15.113
REMARK INTER:                 -11.482
REMARK INTRA:                  -3.630
REMARK UNBOUND:                -4.074
REMARK SMILES CCCCCCCCCCCCCCCCCCCCCCCC(=O)[O-]
REMARK SMILES IDX 13 1 14 2 15 3 16 4 17 5 18 6 19 7 20 8 21 9 22 10 23 11
REMARK SMILES IDX 24 12 25 13 26 14 12 15 11 16 10 17 9 18 8 19 7 20 6 21 5 22
REMARK SMILES IDX 4 23 3 24 2 25 1 26
REMARK H PARENT
REMARK Flexibility Score: inf
ROOT
ATOM      1  C   UNL     1      12.737 -14.056  37.376  1.00  0.00     0.000 C 
ENDROOT
BRANCH   1   2
ATOM      2  C   UNL     1      11.450 -13.898  36.554  1.00  0.00     0.000 C 
BRANCH   2   3
ATOM      3  C   UNL     1      10.717 -15.231  36.326  1.00  0.00     0.000 C 
BRANCH   3   4
ATOM      4  C   UNL     1      10.299 -15.944  37.630  1.00  0.00     0.000 C 
BRANCH   4   5
ATOM      5  C   UNL     1       9.837 -14.952  38.711  1.00  0.00     0.000 C 
BRANCH   5   6
ATOM      6  C   UNL     1       8.335 -15.073  39.020  1.00  0.00     0.000 C 
BRANCH   6   7
ATOM      7  C   UNL     1       7.548 -13.812  38.622  1.00  0.00     0.000 C 
BRANCH   7   8
ATOM      8  C   UNL     1       8.453 -12.582  38.444  1.00  0.00     0.000 C 
BRANCH   8   9
ATOM      9  C   UNL     1       8.239 -11.887  37.088  1.00  0.00     0.000 C 
BRANCH   9  10
ATOM     10  C   UNL     1       7.219 -12.619  36.202  1.00  0.00     0.006 C 
BRANCH  10  11
ATOM     11  C   UNL     1       7.869 -13.671  35.293  1.00  0.00     0.053 C 
BRANCH  11  12
ATOM     12  C   UNL     1       7.949 -13.169  33.886  1.00  0.00     0.041 C 
ATOM     13  O   UNL     1       7.449 -13.840  32.944  1.00  0.00    -0.550 OA
ATOM     14  O   UNL     1       8.618 -11.984  33.608  1.00  0.00    -0.550 OA
ENDBRANCH  11  12
ENDBRANCH  10  11
ENDBRANCH   9  10
ENDBRANCH   8   9
ENDBRANCH   7   8
ENDBRANCH   6   7
ENDBRANCH   5   6
ENDBRANCH   4   5
ENDBRANCH   3   4
ENDBRANCH   2   3
ENDBRANCH   1   2
BRANCH   1  15
ATOM     15  C   UNL     1      13.977 -13.771  36.519  1.00  0.00     0.000 C 
BRANCH  15  16
ATOM     16  C   UNL     1      13.573 -13.261  35.127  1.00  0.00     0.000 C 
BRANCH  16  17
ATOM     17  C   UNL     1      14.354 -12.004  34.708  1.00  0.00     0.000 C 
BRANCH  17  18
ATOM     18  C   UNL     1      13.550 -10.692  34.798  1.00  0.00    -0.000 C 
BRANCH  18  19
ATOM     19  C   UNL     1      12.063 -10.853  34.411  1.00  0.00    -0.000 C 
BRANCH  19  20
ATOM     20  C   UNL     1      11.089 -10.371  35.510  1.00  0.00    -0.000 C 
BRANCH  20  21
ATOM     21  C   UNL     1      11.351  -8.926  35.969  1.00  0.00    -0.000 C 
BRANCH  21  22
ATOM     22  C   UNL     1      12.081  -8.855  37.321  1.00  0.00    -0.000 C 
BRANCH  22  23
ATOM     23  C   UNL     1      11.270  -9.509  38.454  1.00  0.00    -0.000 C 
BRANCH  23  24
ATOM     24  C   UNL     1      11.798 -10.904  38.857  1.00  0.00    -0.000 C 
BRANCH  24  25
ATOM     25  C   UNL     1      13.316 -10.939  39.104  1.00  0.00    -0.003 C 
ATOM     26  C   UNL     1      13.726 -10.234  40.396  1.00  0.00     0.004 C 
ENDBRANCH  24  25
ENDBRANCH  23  24
ENDBRANCH  22  23
ENDBRANCH  21  22
ENDBRANCH  20  21
ENDBRANCH  19  20
ENDBRANCH  18  19
ENDBRANCH  17  18
ENDBRANCH  16  17
ENDBRANCH  15  16
ENDBRANCH   1  15
TORSDOF 22
ENDMDL
MODEL 5
REMARK VINA RESULT:    -4.618      0.910      4.145
REMARK INTER + INTRA:         -14.632
REMARK INTER:                 -11.217
REMARK INTRA:                  -3.415
REMARK UNBOUND:                -4.074
REMARK SMILES CCCCCCCCCCCCCCCCCCCCCCCC(=O)[O-]
REMARK SMILES IDX 13 1 14 2 15 3 16 4 17 5 18 6 19 7 20 8 21 9 22 10 23 11
REMARK SMILES IDX 24 12 25 13 26 14 12 15 11 16 10 17 9 18 8 19 7 20 6 21 5 22
REMARK SMILES IDX 4 23 3 24 2 25 1 26
REMARK H PARENT
REMARK Flexibility Score: inf
ROOT
ATOM      1  C   UNL     1      12.149  -8.882  37.017  1.00  0.00     0.000 C 
ENDROOT
BRANCH   1   2
ATOM      2  C   UNL     1      13.400  -9.718  37.319  1.00  0.00     0.000 C 
BRANCH   2   3
ATOM      3  C   UNL     1      13.115 -10.911  38.247  1.00  0.00     0.000 C 
BRANCH   3   4
ATOM      4  C   UNL     1      12.419 -10.520  39.569  1.00  0.00     0.000 C 
BRANCH   4   5
ATOM      5  C   UNL     1      10.887 -10.524  39.441  1.00  0.00     0.000 C 
BRANCH   5   6
ATOM      6  C   UNL     1      10.375 -11.641  38.517  1.00  0.00     0.000 C 
BRANCH   6   7
ATOM      7  C   UNL     1       8.838 -11.723  38.488  1.00  0.00     0.000 C 
BRANCH   7   8
ATOM      8  C   UNL     1       8.268 -11.633  37.063  1.00  0.00     0.000 C 
BRANCH   8   9
ATOM      9  C   UNL     1       7.005 -12.492  36.881  1.00  0.00     0.000 C 
BRANCH   9  10
ATOM     10  C   UNL     1       7.283 -13.800  36.123  1.00  0.00     0.006 C 
BRANCH  10  11
ATOM     11  C   UNL     1       8.481 -13.691  35.170  1.00  0.00     0.053 C 
BRANCH  11  12
ATOM     12  C   UNL     1       8.056 -13.101  33.862  1.00  0.00     0.041 C 
ATOM     13  O   UNL     1       7.439 -13.805  33.020  1.00  0.00    -0.550 OA
ATOM     14  O   UNL     1       8.385 -11.788  33.552  1.00  0.00    -0.550 OA
ENDBRANCH  11  12
ENDBRANCH  10  11
ENDBRANCH   9  10
ENDBRANCH   8   9
ENDBRANCH   7   8
ENDBRANCH   6   7
ENDBRANCH   5   6
ENDBRANCH   4   5
ENDBRANCH   3   4
ENDBRANCH   2   3
ENDBRANCH   1   2
BRANCH   1  15
ATOM     15  C   UNL     1      11.696  -9.073  35.564  1.00  0.00     0.000 C 
BRANCH  15  16
ATOM     16  C   UNL     1      10.974 -10.417  35.388  1.00  0.00     0.000 C 
BRANCH  16  17
ATOM     17  C   UNL     1      11.814 -11.442  34.606  1.00  0.00     0.000 C 
BRANCH  17  18
ATOM     18  C   UNL     1      13.273 -11.014  34.355  1.00  0.00    -0.000 C 
BRANCH  18  19
ATOM     19  C   UNL     1      14.301 -12.136  34.624  1.00  0.00    -0.000 C 
BRANCH  19  20
ATOM     20  C   UNL     1      13.654 -13.456  35.101  1.00  0.00    -0.000 C 
BRANCH  20  21
ATOM     21  C   UNL     1      14.028 -13.834  36.545  1.00  0.00    -0.000 C 
BRANCH  21  22
ATOM     22  C   UNL     1      12.811 -14.269  37.379  1.00  0.00    -0.000 C 
BRANCH  22  23
ATOM     23  C   UNL     1      11.596 -14.612  36.499  1.00  0.00    -0.000 C 
BRANCH  23  24
ATOM     24  C   UNL     1      10.617 -15.605  37.167  1.00  0.00    -0.000 C 
BRANCH  24  25
ATOM     25  C   UNL     1       9.938 -15.043  38.427  1.00  0.00    -0.003 C 
ATOM     26  C   UNL     1       9.302 -16.128  39.295  1.00  0.00     0.004 C 
ENDBRANCH  24  25
ENDBRANCH  23  24
ENDBRANCH  22  23
ENDBRANCH  21  22
ENDBRANCH  20  21
ENDBRANCH  19  20
ENDBRANCH  18  19
ENDBRANCH  17  18
ENDBRANCH  16  17
ENDBRANCH  15  16
ENDBRANCH   1  15
TORSDOF 22
ENDMDL
MODEL 6
REMARK VINA RESULT:    -4.294      2.165      5.804
REMARK INTER + INTRA:         -13.890
REMARK INTER:                 -11.304
REMARK INTRA:                  -2.587
REMARK UNBOUND:                -4.074
REMARK SMILES CCCCCCCCCCCCCCCCCCCCCCCC(=O)[O-]
REMARK SMILES IDX 13 1 14 2 15 3 16 4 17 5 18 6 19 7 20 8 21 9 22 10 23 11
REMARK SMILES IDX 24 12 25 13 26 14 12 15 11 16 10 17 9 18 8 19 7 20 6 21 5 22
REMARK SMILES IDX 4 23 3 24 2 25 1 26
REMARK H PARENT
REMARK Flexibility Score: inf
ROOT
ATOM      1  C   UNL     1      12.890 -10.395  38.452  1.00  0.00     0.000 C 
ENDROOT
BRANCH   1   2
ATOM      2  C   UNL     1      13.174  -9.706  37.110  1.00  0.00     0.000 C 
BRANCH   2   3
ATOM      3  C   UNL     1      14.321 -10.366  36.327  1.00  0.00     0.000 C 
BRANCH   3   4
ATOM      4  C   UNL     1      13.894 -10.935  34.956  1.00  0.00     0.000 C 
BRANCH   4   5
ATOM      5  C   UNL     1      14.668 -12.213  34.592  1.00  0.00     0.000 C 
BRANCH   5   6
ATOM      6  C   UNL     1      13.882 -13.492  34.922  1.00  0.00     0.000 C 
BRANCH   6   7
ATOM      7  C   UNL     1      12.841 -13.274  36.036  1.00  0.00     0.000 C 
BRANCH   7   8
ATOM      8  C   UNL     1      13.113 -14.140  37.276  1.00  0.00     0.000 C 
BRANCH   8   9
ATOM      9  C   UNL     1      12.241 -15.407  37.311  1.00  0.00     0.000 C 
BRANCH   9  10
ATOM     10  C   UNL     1      10.760 -15.114  37.024  1.00  0.00     0.006 C 
BRANCH  10  11
ATOM     11  C   UNL     1      10.101 -14.259  38.116  1.00  0.00     0.053 C 
BRANCH  11  12
ATOM     12  C   UNL     1       9.138 -15.082  38.914  1.00  0.00     0.041 C 
ATOM     13  O   UNL     1       9.450 -16.247  39.278  1.00  0.00    -0.550 OA
ATOM     14  O   UNL     1       7.878 -14.581  39.213  1.00  0.00    -0.550 OA
ENDBRANCH  11  12
ENDBRANCH  10  11
ENDBRANCH   9  10
ENDBRANCH   8   9
ENDBRANCH   7   8
ENDBRANCH   6   7
ENDBRANCH   5   6
ENDBRANCH   4   5
ENDBRANCH   3   4
ENDBRANCH   2   3
ENDBRANCH   1   2
BRANCH   1  15
ATOM     15  C   UNL     1      11.391 -10.671  38.624  1.00  0.00     0.000 C 
BRANCH  15  16
ATOM     16  C   UNL     1      10.787 -11.236  37.329  1.00  0.00     0.000 C 
BRANCH  16  17
ATOM     17  C   UNL     1      10.562 -10.154  36.259  1.00  0.00     0.000 C 
BRANCH  17  18
ATOM     18  C   UNL     1      10.619 -10.668  34.807  1.00  0.00    -0.000 C 
BRANCH  18  19
ATOM     19  C   UNL     1      10.010 -12.077  34.627  1.00  0.00    -0.000 C 
BRANCH  19  20
ATOM     20  C   UNL     1       8.725 -12.082  33.768  1.00  0.00    -0.000 C 
BRANCH  20  21
ATOM     21  C   UNL     1       7.877 -13.354  33.943  1.00  0.00    -0.000 C 
BRANCH  21  22
ATOM     22  C   UNL     1       7.825 -13.837  35.402  1.00  0.00    -0.000 C 
BRANCH  22  23
ATOM     23  C   UNL     1       6.759 -13.091  36.224  1.00  0.00    -0.000 C 
BRANCH  23  24
ATOM     24  C   UNL     1       7.351 -12.013  37.159  1.00  0.00    -0.000 C 
BRANCH  24  25
ATOM     25  C   UNL     1       7.168 -10.578  36.636  1.00  0.00    -0.003 C 
ATOM     26  C   UNL     1       5.766 -10.317  36.087  1.00  0.00     0.004 C 
ENDBRANCH  24  25
ENDBRANCH  23  24
ENDBRANCH  22  23
ENDBRANCH  21  22
ENDBRANCH  20  21
ENDBRANCH  19  20
ENDBRANCH  18  19
ENDBRANCH  17  18
ENDBRANCH  16  17
ENDBRANCH  15  16
ENDBRANCH   1  15
TORSDOF 22
ENDMDL
MODEL 7
REMARK VINA RESULT:    -4.281      2.148      5.504
REMARK INTER + INTRA:         -13.861
REMARK INTER:                 -10.496
REMARK INTRA:                  -3.365
REMARK UNBOUND:                -4.074
REMARK SMILES CCCCCCCCCCCCCCCCCCCCCCCC(=O)[O-]
REMARK SMILES IDX 13 1 14 2 15 3 16 4 17 5 18 6 19 7 20 8 21 9 22 10 23 11
REMARK SMILES IDX 24 12 25 13 26 14 12 15 11 16 10 17 9 18 8 19 7 20 6 21 5 22
REMARK SMILES IDX 4 23 3 24 2 25 1 26
REMARK H PARENT
REMARK Flexibility Score: inf
ROOT
ATOM      1  C   UNL     1      10.438 -11.626  34.671  1.00  0.00     0.000 C 
ENDROOT
BRANCH   1   2
ATOM      2  C   UNL     1      11.462 -10.529  34.347  1.00  0.00     0.000 C 
BRANCH   2   3
ATOM      3  C   UNL     1      12.199 -10.010  35.593  1.00  0.00     0.000 C 
BRANCH   3   4
ATOM      4  C   UNL     1      13.652 -10.520  35.715  1.00  0.00     0.000 C 
BRANCH   4   5
ATOM      5  C   UNL     1      13.954 -11.654  34.720  1.00  0.00     0.000 C 
BRANCH   5   6
ATOM      6  C   UNL     1      13.846 -13.046  35.363  1.00  0.00     0.000 C 
BRANCH   6   7
ATOM      7  C   UNL     1      13.386 -12.983  36.831  1.00  0.00     0.000 C 
BRANCH   7   8
ATOM      8  C   UNL     1      12.793 -14.313  37.322  1.00  0.00     0.000 C 
BRANCH   8   9
ATOM      9  C   UNL     1      11.823 -14.936  36.304  1.00  0.00     0.000 C 
BRANCH   9  10
ATOM     10  C   UNL     1      10.428 -15.192  36.896  1.00  0.00     0.006 C 
BRANCH  10  11
ATOM     11  C   UNL     1      10.296 -14.696  38.343  1.00  0.00     0.053 C 
BRANCH  11  12
ATOM     12  C   UNL     1       9.160 -15.386  39.030  1.00  0.00     0.041 C 
ATOM     13  O   UNL     1       8.026 -14.842  39.081  1.00  0.00    -0.550 OA
ATOM     14  O   UNL     1       9.367 -16.608  39.659  1.00  0.00    -0.550 OA
ENDBRANCH  11  12
ENDBRANCH  10  11
ENDBRANCH   9  10
ENDBRANCH   8   9
ENDBRANCH   7   8
ENDBRANCH   6   7
ENDBRANCH   5   6
ENDBRANCH   4   5
ENDBRANCH   3   4
ENDBRANCH   2   3
ENDBRANCH   1   2
BRANCH   1  15
ATOM     15  C   UNL     1       9.162 -11.452  33.837  1.00  0.00     0.000 C 
BRANCH  15  16
ATOM     16  C   UNL     1       8.724 -12.790  33.222  1.00  0.00     0.000 C 
BRANCH  16  17
ATOM     17  C   UNL     1       7.540 -13.427  33.970  1.00  0.00     0.000 C 
BRANCH  17  18
ATOM     18  C   UNL     1       7.875 -13.923  35.391  1.00  0.00    -0.000 C 
BRANCH  18  19
ATOM     19  C   UNL     1       6.992 -13.290  36.489  1.00  0.00    -0.000 C 
BRANCH  19  20
ATOM     20  C   UNL     1       6.737 -11.781  36.276  1.00  0.00    -0.000 C 
BRANCH  20  21
ATOM     21  C   UNL     1       7.694 -10.879  37.075  1.00  0.00    -0.000 C 
BRANCH  21  22
ATOM     22  C   UNL     1       8.500 -11.656  38.129  1.00  0.00    -0.000 C 
BRANCH  22  23
ATOM     23  C   UNL     1      10.016 -11.445  37.974  1.00  0.00    -0.000 C 
BRANCH  23  24
ATOM     24  C   UNL     1      10.691 -10.890  39.249  1.00  0.00    -0.000 C 
BRANCH  24  25
ATOM     25  C   UNL     1      11.886  -9.967  38.959  1.00  0.00    -0.003 C 
ATOM     26  C   UNL     1      13.193 -10.474  39.567  1.00  0.00     0.004 C 
ENDBRANCH  24  25
ENDBRANCH  23  24
ENDBRANCH  22  23
ENDBRANCH  21  22
ENDBRANCH  20  21
ENDBRANCH  19  20
ENDBRANCH  18  19
ENDBRANCH  17  18
ENDBRANCH  16  17
ENDBRANCH  15  16
ENDBRANCH   1  15
TORSDOF 22
ENDMDL
MODEL 8
REMARK VINA RESULT:    -4.149      0.903      2.811
REMARK INTER + INTRA:         -13.559
REMARK INTER:                  -9.999
REMARK INTRA:                  -3.560
REMARK UNBOUND:                -4.074
REMARK SMILES CCCCCCCCCCCCCCCCCCCCCCCC(=O)[O-]
REMARK SMILES IDX 13 1 14 2 15 3 16 4 17 5 18 6 19 7 20 8 21 9 22 10 23 11
REMARK SMILES IDX 24 12 25 13 26 14 12 15 11 16 10 17 9 18 8 19 7 20 6 21 5 22
REMARK SMILES IDX 4 23 3 24 2 25 1 26
REMARK H PARENT
REMARK Flexibility Score: inf
ROOT
ATOM      1  C   UNL     1      13.057 -14.268  37.364  1.00  0.00     0.000 C 
ENDROOT
BRANCH   1   2
ATOM      2  C   UNL     1      11.785 -14.536  36.547  1.00  0.00     0.000 C 
BRANCH   2   3
ATOM      3  C   UNL     1      11.068 -15.832  36.962  1.00  0.00     0.000 C 
BRANCH   3   4
ATOM      4  C   UNL     1       9.607 -15.618  37.415  1.00  0.00     0.000 C 
BRANCH   4   5
ATOM      5  C   UNL     1       9.516 -15.166  38.883  1.00  0.00     0.000 C 
BRANCH   5   6
ATOM      6  C   UNL     1       8.071 -14.873  39.320  1.00  0.00     0.000 C 
BRANCH   6   7
ATOM      7  C   UNL     1       7.363 -13.875  38.385  1.00  0.00     0.000 C 
BRANCH   7   8
ATOM      8  C   UNL     1       7.977 -12.468  38.449  1.00  0.00     0.000 C 
BRANCH   8   9
ATOM      9  C   UNL     1       8.106 -11.819  37.060  1.00  0.00     0.000 C 
BRANCH   9  10
ATOM     10  C   UNL     1       7.196 -12.479  36.013  1.00  0.00     0.006 C 
BRANCH  10  11
ATOM     11  C   UNL     1       7.915 -13.563  35.199  1.00  0.00     0.053 C 
BRANCH  11  12
ATOM     12  C   UNL     1       8.072 -13.131  33.775  1.00  0.00     0.041 C 
ATOM     13  O   UNL     1       8.650 -12.046  33.502  1.00  0.00    -0.550 OA
ATOM     14  O   UNL     1       7.534 -13.901  32.751  1.00  0.00    -0.550 OA
ENDBRANCH  11  12
ENDBRANCH  10  11
ENDBRANCH   9  10
ENDBRANCH   8   9
ENDBRANCH   7   8
ENDBRANCH   6   7
ENDBRANCH   5   6
ENDBRANCH   4   5
ENDBRANCH   3   4
ENDBRANCH   2   3
ENDBRANCH   1   2
BRANCH   1  15
ATOM     15  C   UNL     1      12.962 -12.931  38.109  1.00  0.00     0.000 C 
BRANCH  15  16
ATOM     16  C   UNL     1      11.541 -12.354  38.018  1.00  0.00     0.000 C 
BRANCH  16  17
ATOM     17  C   UNL     1      11.379 -11.050  38.819  1.00  0.00     0.000 C 
BRANCH  17  18
ATOM     18  C   UNL     1      12.638 -10.161  38.854  1.00  0.00    -0.000 C 
BRANCH  18  19
ATOM     19  C   UNL     1      12.928  -9.449  37.513  1.00  0.00    -0.000 C 
BRANCH  19  20
ATOM     20  C   UNL     1      11.875  -8.378  37.149  1.00  0.00    -0.000 C 
BRANCH  20  21
ATOM     21  C   UNL     1      11.322  -8.524  35.721  1.00  0.00    -0.000 C 
BRANCH  21  22
ATOM     22  C   UNL     1      10.901  -9.967  35.392  1.00  0.00    -0.000 C 
BRANCH  22  23
ATOM     23  C   UNL     1      11.791 -10.600  34.309  1.00  0.00    -0.000 C 
BRANCH  23  24
ATOM     24  C   UNL     1      12.340 -11.990  34.704  1.00  0.00    -0.000 C 
BRANCH  24  25
ATOM     25  C   UNL     1      13.870 -12.098  34.599  1.00  0.00    -0.003 C 
ATOM     26  C   UNL     1      14.572 -10.743  34.677  1.00  0.00     0.004 C 
ENDBRANCH  24  25
ENDBRANCH  23  24
ENDBRANCH  22  23
ENDBRANCH  21  22
ENDBRANCH  20  21
ENDBRANCH  19  20
ENDBRANCH  18  19
ENDBRANCH  17  18
ENDBRANCH  16  17
ENDBRANCH  15  16
ENDBRANCH   1  15
TORSDOF 22
ENDMDL
MODEL 9
REMARK VINA RESULT:    -4.063      2.235      5.893
REMARK INTER + INTRA:         -13.361
REMARK INTER:                  -9.703
REMARK INTRA:                  -3.658
REMARK UNBOUND:                -4.074
REMARK SMILES CCCCCCCCCCCCCCCCCCCCCCCC(=O)[O-]
REMARK SMILES IDX 13 1 14 2 15 3 16 4 17 5 18 6 19 7 20 8 21 9 22 10 23 11
REMARK SMILES IDX 24 12 25 13 26 14 12 15 11 16 10 17 9 18 8 19 7 20 6 21 5 22
REMARK SMILES IDX 4 23 3 24 2 25 1 26
REMARK H PARENT
REMARK Flexibility Score: inf
ROOT
ATOM      1  C   UNL     1      10.763 -13.823  36.864  1.00  0.00     0.000 C 
ENDROOT
BRANCH   1   2
ATOM      2  C   UNL     1      12.030 -14.515  37.386  1.00  0.00     0.000 C 
BRANCH   2   3
ATOM      3  C   UNL     1      13.284 -13.632  37.278  1.00  0.00     0.000 C 
BRANCH   3   4
ATOM      4  C   UNL     1      14.159 -13.940  36.043  1.00  0.00     0.000 C 
BRANCH   4   5
ATOM      5  C   UNL     1      13.688 -13.176  34.794  1.00  0.00     0.000 C 
BRANCH   5   6
ATOM      6  C   UNL     1      14.155 -11.711  34.788  1.00  0.00     0.000 C 
BRANCH   6   7
ATOM      7  C   UNL     1      13.032 -10.737  34.388  1.00  0.00     0.000 C 
BRANCH   7   8
ATOM      8  C   UNL     1      11.836 -10.786  35.352  1.00  0.00     0.000 C 
BRANCH   8   9
ATOM      9  C   UNL     1      11.397  -9.387  35.816  1.00  0.00     0.000 C 
BRANCH   9  10
ATOM     10  C   UNL     1      12.023  -8.986  37.161  1.00  0.00     0.006 C 
BRANCH  10  11
ATOM     11  C   UNL     1      12.860 -10.111  37.785  1.00  0.00     0.053 C 
BRANCH  11  12
ATOM     12  C   UNL     1      12.471 -10.321  39.215  1.00  0.00     0.041 C 
ATOM     13  O   UNL     1      11.259 -10.452  39.529  1.00  0.00    -0.550 OA
ATOM     14  O   UNL     1      13.443 -10.321  40.207  1.00  0.00    -0.550 OA
ENDBRANCH  11  12
ENDBRANCH  10  11
ENDBRANCH   9  10
ENDBRANCH   8   9
ENDBRANCH   7   8
ENDBRANCH   6   7
ENDBRANCH   5   6
ENDBRANCH   4   5
ENDBRANCH   3   4
ENDBRANCH   2   3
ENDBRANCH   1   2
BRANCH   1  15
ATOM     15  C   UNL     1      10.138 -14.615  35.709  1.00  0.00     0.000 C 
BRANCH  15  16
ATOM     16  C   UNL     1       8.666 -14.223  35.511  1.00  0.00     0.000 C 
BRANCH  16  17
ATOM     17  C   UNL     1       8.431 -13.447  34.204  1.00  0.00     0.000 C 
BRANCH  17  18
ATOM     18  C   UNL     1       8.070 -11.961  34.398  1.00  0.00    -0.000 C 
BRANCH  18  19
ATOM     19  C   UNL     1       6.913 -11.733  35.397  1.00  0.00    -0.000 C 
BRANCH  19  20
ATOM     20  C   UNL     1       7.291 -10.798  36.567  1.00  0.00    -0.000 C 
BRANCH  20  21
ATOM     21  C   UNL     1       8.598 -11.198  37.274  1.00  0.00    -0.000 C 
BRANCH  21  22
ATOM     22  C   UNL     1       8.353 -11.903  38.620  1.00  0.00    -0.000 C 
BRANCH  22  23
ATOM     23  C   UNL     1       7.575 -13.220  38.453  1.00  0.00    -0.000 C 
BRANCH  23  24
ATOM     24  C   UNL     1       7.974 -14.300  39.484  1.00  0.00    -0.000 C 
BRANCH  24  25
ATOM     25  C   UNL     1       8.385 -15.637  38.844  1.00  0.00    -0.003 C 
ATOM     26  C   UNL     1       9.581 -16.288  39.537  1.00  0.00     0.004 C 
ENDBRANCH  24  25
ENDBRANCH  23  24
ENDBRANCH  22  23
ENDBRANCH  21  22
ENDBRANCH  20  21
ENDBRANCH  19  20
ENDBRANCH  18  19
ENDBRANCH  17  18
ENDBRANCH  16  17
ENDBRANCH  15  16
ENDBRANCH   1  15
TORSDOF 22
ENDMDL
