MODEL 1
REMARK VINA RESULT:    -6.062      0.000      0.000
REMARK INTER + INTRA:          -6.062
REMARK INTER:                  -6.062
REMARK INTRA:                   0.000
REMARK UNBOUND:                 0.000
REMARK SMILES CC(C)=C1CC[C@H](C)CC1=O
REMARK SMILES IDX 8 1 7 2 6 3 5 4 4 5 2 6 1 7 3 8 10 9 11 10 9 11
REMARK H PARENT
REMARK Flexibility Score: inf
ROOT
ATOM      1  C   UNL     1      -9.401  28.943  24.921  1.00  0.00     0.008 C 
ATOM      2  C   UNL     1      -8.545  29.998  24.211  1.00  0.00    -0.006 C 
ATOM      3  C   UNL     1      -8.579  29.786  22.689  1.00  0.00     0.008 C 
ATOM      4  C   UNL     1      -7.648  30.770  21.968  1.00  0.00     0.039 C 
ATOM      5  C   UNL     1      -7.908  32.218  22.363  1.00  0.00    -0.006 C 
ATOM      6  C   UNL     1      -7.715  33.240  21.479  1.00  0.00    -0.070 C 
ATOM      7  C   UNL     1      -7.216  32.979  20.076  1.00  0.00     0.039 C 
ATOM      8  C   UNL     1      -8.024  34.675  21.842  1.00  0.00     0.039 C 
ATOM      9  C   UNL     1      -8.271  32.452  23.792  1.00  0.00     0.159 C 
ATOM     10  O   UNL     1      -7.938  33.513  24.387  1.00  0.00    -0.295 OA
ATOM     11  C   UNL     1      -9.039  31.411  24.554  1.00  0.00     0.084 C 
ENDROOT
TORSDOF 0
ENDMDL
MODEL 2
REMARK VINA RESULT:    -5.934      2.010      3.694
REMARK INTER + INTRA:          -5.934
REMARK INTER:                  -5.934
REMARK INTRA:                   0.000
REMARK UNBOUND:                 0.000
REMARK SMILES CC(C)=C1CC[C@H](C)CC1=O
REMARK SMILES IDX 8 1 7 2 6 3 5 4 4 5 2 6 1 7 3 8 10 9 11 10 9 11
REMARK H PARENT
REMARK Flexibility Score: inf
ROOT
ATOM      1  C   UNL     1      -8.285  35.670  25.998  1.00  0.00     0.008 C 
ATOM      2  C   UNL     1      -8.621  35.020  24.650  1.00  0.00    -0.006 C 
ATOM      3  C   UNL     1      -7.451  35.180  23.666  1.00  0.00     0.008 C 
ATOM      4  C   UNL     1      -7.808  34.626  22.281  1.00  0.00     0.039 C 
ATOM      5  C   UNL     1      -8.332  33.197  22.340  1.00  0.00    -0.006 C 
ATOM      6  C   UNL     1      -8.110  32.318  21.319  1.00  0.00    -0.070 C 
ATOM      7  C   UNL     1      -7.352  32.732  20.078  1.00  0.00     0.039 C 
ATOM      8  C   UNL     1      -8.576  30.882  21.391  1.00  0.00     0.039 C 
ATOM      9  C   UNL     1      -9.188  32.861  23.516  1.00  0.00     0.159 C 
ATOM     10  O   UNL     1     -10.125  32.022  23.425  1.00  0.00    -0.295 OA
ATOM     11  C   UNL     1      -8.949  33.532  24.837  1.00  0.00     0.084 C 
ENDROOT
TORSDOF 0
ENDMDL
MODEL 3
REMARK VINA RESULT:    -5.929      1.684      4.179
REMARK INTER + INTRA:          -5.929
REMARK INTER:                  -5.929
REMARK INTRA:                   0.000
REMARK UNBOUND:                 0.000
REMARK SMILES CC(C)=C1CC[C@H](C)CC1=O
REMARK SMILES IDX 8 1 7 2 6 3 5 4 4 5 2 6 1 7 3 8 10 9 11 10 9 11
REMARK H PARENT
REMARK Flexibility Score: inf
ROOT
ATOM      1  C   UNL     1      -7.203  33.403  19.852  1.00  0.00     0.008 C 
ATOM      2  C   UNL     1      -7.963  33.409  21.183  1.00  0.00    -0.006 C 
ATOM      3  C   UNL     1      -7.774  32.073  21.920  1.00  0.00     0.008 C 
ATOM      4  C   UNL     1      -8.610  32.023  23.205  1.00  0.00     0.039 C 
ATOM      5  C   UNL     1      -8.371  33.228  24.106  1.00  0.00    -0.006 C 
ATOM      6  C   UNL     1      -8.455  33.126  25.465  1.00  0.00    -0.070 C 
ATOM      7  C   UNL     1      -8.810  31.816  26.132  1.00  0.00     0.039 C 
ATOM      8  C   UNL     1      -8.164  34.300  26.371  1.00  0.00     0.039 C 
ATOM      9  C   UNL     1      -8.155  34.532  23.413  1.00  0.00     0.159 C 
ATOM     10  O   UNL     1      -8.531  35.619  23.930  1.00  0.00    -0.295 OA
ATOM     11  C   UNL     1      -7.486  34.569  22.069  1.00  0.00     0.084 C 
ENDROOT
TORSDOF 0
ENDMDL
MODEL 4
REMARK VINA RESULT:    -5.859      1.832      4.344
REMARK INTER + INTRA:          -5.859
REMARK INTER:                  -5.859
REMARK INTRA:                   0.000
REMARK UNBOUND:                 0.000
REMARK SMILES CC(C)=C1CC[C@H](C)CC1=O
REMARK SMILES IDX 8 1 7 2 6 3 5 4 4 5 2 6 1 7 3 8 10 9 11 10 9 11
REMARK H PARENT
REMARK Flexibility Score: inf
ROOT
ATOM      1  C   UNL     1      -7.717  32.998  19.779  1.00  0.00     0.008 C 
ATOM      2  C   UNL     1      -7.465  33.155  21.284  1.00  0.00    -0.006 C 
ATOM      3  C   UNL     1      -7.920  34.542  21.766  1.00  0.00     0.008 C 
ATOM      4  C   UNL     1      -7.581  34.754  23.248  1.00  0.00     0.039 C 
ATOM      5  C   UNL     1      -8.098  33.628  24.133  1.00  0.00    -0.006 C 
ATOM      6  C   UNL     1      -8.491  33.860  25.419  1.00  0.00    -0.070 C 
ATOM      7  C   UNL     1      -8.411  35.243  26.026  1.00  0.00     0.039 C 
ATOM      8  C   UNL     1      -9.059  32.762  26.289  1.00  0.00     0.039 C 
ATOM      9  C   UNL     1      -8.038  32.255  23.549  1.00  0.00     0.159 C 
ATOM     10  O   UNL     1      -7.846  31.242  24.275  1.00  0.00    -0.295 OA
ATOM     11  C   UNL     1      -8.200  32.059  22.069  1.00  0.00     0.084 C 
ENDROOT
TORSDOF 0
ENDMDL
MODEL 5
REMARK VINA RESULT:    -5.811      1.076      4.032
REMARK INTER + INTRA:          -5.811
REMARK INTER:                  -5.811
REMARK INTRA:                   0.000
REMARK UNBOUND:                 0.000
REMARK SMILES CC(C)=C1CC[C@H](C)CC1=O
REMARK SMILES IDX 8 1 7 2 6 3 5 4 4 5 2 6 1 7 3 8 10 9 11 10 9 11
REMARK H PARENT
REMARK Flexibility Score: inf
ROOT
ATOM      1  C   UNL     1      -7.390  35.382  21.632  1.00  0.00     0.008 C 
ATOM      2  C   UNL     1      -8.118  34.104  22.066  1.00  0.00    -0.006 C 
ATOM      3  C   UNL     1      -7.733  32.928  21.154  1.00  0.00     0.008 C 
ATOM      4  C   UNL     1      -8.529  31.665  21.509  1.00  0.00     0.039 C 
ATOM      5  C   UNL     1      -8.438  31.313  22.989  1.00  0.00    -0.006 C 
ATOM      6  C   UNL     1      -8.480  30.016  23.413  1.00  0.00    -0.070 C 
ATOM      7  C   UNL     1      -8.639  28.875  22.434  1.00  0.00     0.039 C 
ATOM      8  C   UNL     1      -8.334  29.652  24.873  1.00  0.00     0.039 C 
ATOM      9  C   UNL     1      -8.417  32.467  23.936  1.00  0.00     0.159 C 
ATOM     10  O   UNL     1      -8.928  32.379  25.085  1.00  0.00    -0.295 OA
ATOM     11  C   UNL     1      -7.787  33.766  23.526  1.00  0.00     0.084 C 
ENDROOT
TORSDOF 0
ENDMDL
MODEL 6
REMARK VINA RESULT:    -5.778      1.521      2.398
REMARK INTER + INTRA:          -5.778
REMARK INTER:                  -5.778
REMARK INTRA:                   0.000
REMARK UNBOUND:                 0.000
REMARK SMILES CC(C)=C1CC[C@H](C)CC1=O
REMARK SMILES IDX 8 1 7 2 6 3 5 4 4 5 2 6 1 7 3 8 10 9 11 10 9 11
REMARK H PARENT
REMARK Flexibility Score: inf
ROOT
ATOM      1  C   UNL     1      -8.849  29.596  25.798  1.00  0.00     0.008 C 
ATOM      2  C   UNL     1      -9.053  30.629  24.684  1.00  0.00    -0.006 C 
ATOM      3  C   UNL     1      -8.333  31.943  25.026  1.00  0.00     0.008 C 
ATOM      4  C   UNL     1      -8.610  33.022  23.972  1.00  0.00     0.039 C 
ATOM      5  C   UNL     1      -8.316  32.545  22.556  1.00  0.00    -0.006 C 
ATOM      6  C   UNL     1      -7.874  33.408  21.594  1.00  0.00    -0.070 C 
ATOM      7  C   UNL     1      -7.678  34.878  21.889  1.00  0.00     0.039 C 
ATOM      8  C   UNL     1      -7.524  32.936  20.201  1.00  0.00     0.039 C 
ATOM      9  C   UNL     1      -8.647  31.119  22.262  1.00  0.00     0.159 C 
ATOM     10  O   UNL     1      -9.026  30.758  21.115  1.00  0.00    -0.295 OA
ATOM     11  C   UNL     1      -8.539  30.084  23.344  1.00  0.00     0.084 C 
ENDROOT
TORSDOF 0
ENDMDL
MODEL 7
REMARK VINA RESULT:    -5.664      1.990      3.672
REMARK INTER + INTRA:          -5.664
REMARK INTER:                  -5.664
REMARK INTRA:                   0.000
REMARK UNBOUND:                 0.000
REMARK SMILES CC(C)=C1CC[C@H](C)CC1=O
REMARK SMILES IDX 8 1 7 2 6 3 5 4 4 5 2 6 1 7 3 8 10 9 11 10 9 11
REMARK H PARENT
REMARK Flexibility Score: inf
ROOT
ATOM      1  C   UNL     1      -8.627  35.646  26.171  1.00  0.00     0.008 C 
ATOM      2  C   UNL     1      -8.059  34.701  25.105  1.00  0.00    -0.006 C 
ATOM      3  C   UNL     1      -8.642  33.288  25.268  1.00  0.00     0.008 C 
ATOM      4  C   UNL     1      -8.009  32.306  24.275  1.00  0.00     0.039 C 
ATOM      5  C   UNL     1      -8.075  32.804  22.837  1.00  0.00    -0.006 C 
ATOM      6  C   UNL     1      -8.189  31.935  21.790  1.00  0.00    -0.070 C 
ATOM      7  C   UNL     1      -8.232  30.440  22.012  1.00  0.00     0.039 C 
ATOM      8  C   UNL     1      -8.313  32.420  20.363  1.00  0.00     0.039 C 
ATOM      9  C   UNL     1      -7.895  34.273  22.643  1.00  0.00     0.159 C 
ATOM     10  O   UNL     1      -7.347  34.735  21.606  1.00  0.00    -0.295 OA
ATOM     11  C   UNL     1      -8.363  35.234  23.697  1.00  0.00     0.084 C 
ENDROOT
TORSDOF 0
ENDMDL
MODEL 8
REMARK VINA RESULT:    -5.662      2.114      4.021
REMARK INTER + INTRA:          -5.662
REMARK INTER:                  -5.662
REMARK INTRA:                   0.000
REMARK UNBOUND:                 0.000
REMARK SMILES CC(C)=C1CC[C@H](C)CC1=O
REMARK SMILES IDX 8 1 7 2 6 3 5 4 4 5 2 6 1 7 3 8 10 9 11 10 9 11
REMARK H PARENT
REMARK Flexibility Score: inf
ROOT
ATOM      1  C   UNL     1      -8.603  36.151  25.717  1.00  0.00     0.008 C 
ATOM      2  C   UNL     1      -8.829  34.814  25.001  1.00  0.00    -0.006 C 
ATOM      3  C   UNL     1      -7.936  34.710  23.755  1.00  0.00     0.008 C 
ATOM      4  C   UNL     1      -8.223  33.423  22.970  1.00  0.00     0.039 C 
ATOM      5  C   UNL     1      -8.156  32.178  23.844  1.00  0.00    -0.006 C 
ATOM      6  C   UNL     1      -7.744  30.978  23.339  1.00  0.00    -0.070 C 
ATOM      7  C   UNL     1      -7.357  30.831  21.885  1.00  0.00     0.039 C 
ATOM      8  C   UNL     1      -7.619  29.749  24.210  1.00  0.00     0.039 C 
ATOM      9  C   UNL     1      -8.671  32.327  25.237  1.00  0.00     0.159 C 
ATOM     10  O   UNL     1      -9.224  31.365  25.837  1.00  0.00    -0.295 OA
ATOM     11  C   UNL     1      -8.544  33.642  25.950  1.00  0.00     0.084 C 
ENDROOT
TORSDOF 0
ENDMDL
MODEL 9
REMARK VINA RESULT:    -5.618      1.622      2.715
REMARK INTER + INTRA:          -5.618
REMARK INTER:                  -5.618
REMARK INTRA:                   0.000
REMARK UNBOUND:                 0.000
REMARK SMILES CC(C)=C1CC[C@H](C)CC1=O
REMARK SMILES IDX 8 1 7 2 6 3 5 4 4 5 2 6 1 7 3 8 10 9 11 10 9 11
REMARK H PARENT
REMARK Flexibility Score: inf
ROOT
ATOM      1  C   UNL     1      -7.993  28.875  23.096  1.00  0.00     0.008 C 
ATOM      2  C   UNL     1      -8.407  30.351  23.049  1.00  0.00    -0.006 C 
ATOM      3  C   UNL     1      -8.027  31.061  24.358  1.00  0.00     0.008 C 
ATOM      4  C   UNL     1      -8.523  32.512  24.369  1.00  0.00     0.039 C 
ATOM      5  C   UNL     1      -8.087  33.289  23.133  1.00  0.00    -0.006 C 
ATOM      6  C   UNL     1      -7.836  34.630  23.190  1.00  0.00    -0.070 C 
ATOM      7  C   UNL     1      -8.001  35.404  24.479  1.00  0.00     0.039 C 
ATOM      8  C   UNL     1      -7.348  35.401  21.985  1.00  0.00     0.039 C 
ATOM      9  C   UNL     1      -8.064  32.523  21.852  1.00  0.00     0.159 C 
ATOM     10  O   UNL     1      -8.317  33.082  20.750  1.00  0.00    -0.295 OA
ATOM     11  C   UNL     1      -7.743  31.057  21.857  1.00  0.00     0.084 C 
ENDROOT
TORSDOF 0
ENDMDL
