MODEL 1
REMARK VINA RESULT:    -5.036      0.000      0.000
REMARK INTER + INTRA:          -8.555
REMARK INTER:                  -6.803
REMARK INTRA:                  -1.752
REMARK UNBOUND:                -1.752
REMARK SMILES CC(=O)CCC=C(C)CCC=C(C)C
REMARK SMILES IDX 7 1 6 2 8 3 9 4 10 5 11 6 13 7 12 8 14 9 5 10 4 11 2 12 3 13
REMARK SMILES IDX 1 14
REMARK H PARENT
REMARK Flexibility Score: inf
ROOT
ATOM      1  C   UNL     1     118.123 176.480 128.719  1.00  0.00    -0.077 C 
ATOM      2  C   UNL     1     116.895 176.041 128.361  1.00  0.00    -0.028 C 
ATOM      3  C   UNL     1     119.073 175.504 129.367  1.00  0.00     0.039 C 
ENDROOT
BRANCH   1   4
ATOM      4  C   UNL     1     118.589 177.906 128.478  1.00  0.00     0.034 C 
BRANCH   4   5
ATOM      5  C   UNL     1     119.844 177.959 127.593  1.00  0.00     0.032 C 
BRANCH   5   6
ATOM      6  C   UNL     1     119.538 178.501 126.217  1.00  0.00    -0.028 C 
ATOM      7  C   UNL     1     119.363 176.231 125.174  1.00  0.00     0.039 C 
ATOM      8  C   UNL     1     119.291 177.739 125.128  1.00  0.00    -0.080 C 
ATOM      9  C   UNL     1     118.951 178.428 123.832  1.00  0.00     0.039 C 
ENDBRANCH   5   6
ENDBRANCH   4   5
ENDBRANCH   1   4
BRANCH   2  10
ATOM     10  C   UNL     1     115.838 176.920 127.737  1.00  0.00     0.035 C 
BRANCH  10  11
ATOM     11  C   UNL     1     115.808 176.755 126.214  1.00  0.00     0.079 C 
BRANCH  11  12
ATOM     12  C   UNL     1     115.608 178.086 125.537  1.00  0.00     0.130 C 
ATOM     13  O   UNL     1     115.148 178.121 124.406  1.00  0.00    -0.300 OA
ATOM     14  C   UNL     1     115.952 179.373 126.225  1.00  0.00     0.087 C 
ENDBRANCH  11  12
ENDBRANCH  10  11
ENDBRANCH   2  10
TORSDOF 6
ENDMDL
MODEL 2
REMARK VINA RESULT:    -5.007      1.647      3.800
REMARK INTER + INTRA:          -8.515
REMARK INTER:                  -7.165
REMARK INTRA:                  -1.350
REMARK UNBOUND:                -1.752
REMARK SMILES CC(=O)CCC=C(C)CCC=C(C)C
REMARK SMILES IDX 7 1 6 2 8 3 9 4 10 5 11 6 13 7 12 8 14 9 5 10 4 11 2 12 3 13
REMARK SMILES IDX 1 14
REMARK H PARENT
REMARK Flexibility Score: inf
ROOT
ATOM      1  C   UNL     1     119.130 178.033 124.546  1.00  0.00    -0.077 C 
ATOM      2  C   UNL     1     118.583 179.079 125.206  1.00  0.00    -0.028 C 
ATOM      3  C   UNL     1     119.672 178.266 123.157  1.00  0.00     0.039 C 
ENDROOT
BRANCH   1   4
ATOM      4  C   UNL     1     119.236 176.644 125.150  1.00  0.00     0.034 C 
BRANCH   4   5
ATOM      5  C   UNL     1     120.635 176.373 125.727  1.00  0.00     0.032 C 
BRANCH   5   6
ATOM      6  C   UNL     1     120.696 176.653 127.209  1.00  0.00    -0.028 C 
ATOM      7  C   UNL     1     122.068 178.730 126.934  1.00  0.00     0.039 C 
ATOM      8  C   UNL     1     121.309 177.722 127.765  1.00  0.00    -0.080 C 
ATOM      9  C   UNL     1     121.241 177.891 129.260  1.00  0.00     0.039 C 
ENDBRANCH   5   6
ENDBRANCH   4   5
ENDBRANCH   1   4
BRANCH   2  10
ATOM     10  C   UNL     1     117.974 178.976 126.584  1.00  0.00     0.035 C 
BRANCH  10  11
ATOM     11  C   UNL     1     116.497 179.386 126.569  1.00  0.00     0.079 C 
BRANCH  11  12
ATOM     12  C   UNL     1     115.658 178.334 125.891  1.00  0.00     0.130 C 
ATOM     13  O   UNL     1     114.955 178.646 124.942  1.00  0.00    -0.300 OA
ATOM     14  C   UNL     1     115.674 176.906 126.348  1.00  0.00     0.087 C 
ENDBRANCH  11  12
ENDBRANCH  10  11
ENDBRANCH   2  10
TORSDOF 6
ENDMDL
MODEL 3
REMARK VINA RESULT:    -4.979      1.803      2.835
REMARK INTER + INTRA:          -8.478
REMARK INTER:                  -7.390
REMARK INTRA:                  -1.088
REMARK UNBOUND:                -1.752
REMARK SMILES CC(=O)CCC=C(C)CCC=C(C)C
REMARK SMILES IDX 7 1 6 2 8 3 9 4 10 5 11 6 13 7 12 8 14 9 5 10 4 11 2 12 3 13
REMARK SMILES IDX 1 14
REMARK H PARENT
REMARK Flexibility Score: inf
ROOT
ATOM      1  C   UNL     1     118.512 178.645 126.628  1.00  0.00    -0.077 C 
ATOM      2  C   UNL     1     117.300 178.893 127.176  1.00  0.00    -0.028 C 
ATOM      3  C   UNL     1     119.564 177.985 127.484  1.00  0.00     0.039 C 
ENDROOT
BRANCH   1   4
ATOM      4  C   UNL     1     118.848 178.986 125.187  1.00  0.00     0.034 C 
BRANCH   4   5
ATOM      5  C   UNL     1     118.960 177.729 124.310  1.00  0.00     0.032 C 
BRANCH   5   6
ATOM      6  C   UNL     1     120.374 177.498 123.834  1.00  0.00    -0.028 C 
ATOM      7  C   UNL     1     120.552 175.245 124.914  1.00  0.00     0.039 C 
ATOM      8  C   UNL     1     121.091 176.377 124.071  1.00  0.00    -0.080 C 
ATOM      9  C   UNL     1     122.476 176.274 123.486  1.00  0.00     0.039 C 
ENDBRANCH   5   6
ENDBRANCH   4   5
ENDBRANCH   1   4
BRANCH   2  10
ATOM     10  C   UNL     1     116.173 179.579 126.442  1.00  0.00     0.035 C 
BRANCH  10  11
ATOM     11  C   UNL     1     114.976 178.638 126.262  1.00  0.00     0.079 C 
BRANCH  11  12
ATOM     12  C   UNL     1     115.280 177.579 125.234  1.00  0.00     0.130 C 
ATOM     13  O   UNL     1     115.558 176.448 125.602  1.00  0.00    -0.300 OA
ATOM     14  C   UNL     1     115.237 177.880 123.766  1.00  0.00     0.087 C 
ENDBRANCH  11  12
ENDBRANCH  10  11
ENDBRANCH   2  10
TORSDOF 6
ENDMDL
MODEL 4
REMARK VINA RESULT:    -4.967      2.154      3.840
REMARK INTER + INTRA:          -8.462
REMARK INTER:                  -6.731
REMARK INTRA:                  -1.731
REMARK UNBOUND:                -1.752
REMARK SMILES CC(=O)CCC=C(C)CCC=C(C)C
REMARK SMILES IDX 7 1 6 2 8 3 9 4 10 5 11 6 13 7 12 8 14 9 5 10 4 11 2 12 3 13
REMARK SMILES IDX 1 14
REMARK H PARENT
REMARK Flexibility Score: inf
ROOT
ATOM      1  C   UNL     1     115.865 177.505 125.636  1.00  0.00    -0.077 C 
ATOM      2  C   UNL     1     115.976 176.187 125.918  1.00  0.00    -0.028 C 
ATOM      3  C   UNL     1     115.263 177.906 124.312  1.00  0.00     0.039 C 
ENDROOT
BRANCH   1   4
ATOM      4  C   UNL     1     116.303 178.593 126.601  1.00  0.00     0.034 C 
BRANCH   4   5
ATOM      5  C   UNL     1     117.474 179.418 126.046  1.00  0.00     0.032 C 
BRANCH   5   6
ATOM      6  C   UNL     1     118.789 178.689 126.181  1.00  0.00    -0.028 C 
ATOM      7  C   UNL     1     118.999 178.258 123.723  1.00  0.00     0.039 C 
ATOM      8  C   UNL     1     119.501 178.189 125.146  1.00  0.00    -0.080 C 
ATOM      9  C   UNL     1     120.824 177.530 125.436  1.00  0.00     0.039 C 
ENDBRANCH   5   6
ENDBRANCH   4   5
ENDBRANCH   1   4
BRANCH   2  10
ATOM     10  C   UNL     1     116.590 175.651 127.189  1.00  0.00     0.035 C 
BRANCH  10  11
ATOM     11  C   UNL     1     117.997 175.098 126.934  1.00  0.00     0.079 C 
BRANCH  11  12
ATOM     12  C   UNL     1     118.942 175.517 128.030  1.00  0.00     0.130 C 
ATOM     13  O   UNL     1     120.094 175.109 128.019  1.00  0.00    -0.300 OA
ATOM     14  C   UNL     1     118.503 176.434 129.132  1.00  0.00     0.087 C 
ENDBRANCH  11  12
ENDBRANCH  10  11
ENDBRANCH   2  10
TORSDOF 6
ENDMDL
MODEL 5
REMARK VINA RESULT:    -4.866      2.079      4.128
REMARK INTER + INTRA:          -8.325
REMARK INTER:                  -6.610
REMARK INTRA:                  -1.714
REMARK UNBOUND:                -1.752
REMARK SMILES CC(=O)CCC=C(C)CCC=C(C)C
REMARK SMILES IDX 7 1 6 2 8 3 9 4 10 5 11 6 13 7 12 8 14 9 5 10 4 11 2 12 3 13
REMARK SMILES IDX 1 14
REMARK H PARENT
REMARK Flexibility Score: inf
ROOT
ATOM      1  C   UNL     1     120.142 177.894 128.396  1.00  0.00    -0.077 C 
ATOM      2  C   UNL     1     119.830 177.868 127.081  1.00  0.00    -0.028 C 
ATOM      3  C   UNL     1     121.592 178.036 128.787  1.00  0.00     0.039 C 
ENDROOT
BRANCH   1   4
ATOM      4  C   UNL     1     119.093 177.807 129.492  1.00  0.00     0.034 C 
BRANCH   4   5
ATOM      5  C   UNL     1     119.414 176.698 130.507  1.00  0.00     0.032 C 
BRANCH   5   6
ATOM      6  C   UNL     1     118.428 175.558 130.425  1.00  0.00    -0.028 C 
ATOM      7  C   UNL     1     119.817 174.248 128.804  1.00  0.00     0.039 C 
ATOM      8  C   UNL     1     118.608 174.438 129.689  1.00  0.00    -0.080 C 
ATOM      9  C   UNL     1     117.554 173.363 129.749  1.00  0.00     0.039 C 
ENDBRANCH   5   6
ENDBRANCH   4   5
ENDBRANCH   1   4
BRANCH   2  10
ATOM     10  C   UNL     1     118.425 177.696 126.555  1.00  0.00     0.035 C 
BRANCH  10  11
ATOM     11  C   UNL     1     118.211 176.284 125.998  1.00  0.00     0.079 C 
BRANCH  11  12
ATOM     12  C   UNL     1     117.008 175.637 126.633  1.00  0.00     0.130 C 
ATOM     13  O   UNL     1     116.744 174.473 126.372  1.00  0.00    -0.300 OA
ATOM     14  C   UNL     1     116.131 176.387 127.591  1.00  0.00     0.087 C 
ENDBRANCH  11  12
ENDBRANCH  10  11
ENDBRANCH   2  10
TORSDOF 6
ENDMDL
MODEL 6
REMARK VINA RESULT:    -4.842      2.767      4.506
REMARK INTER + INTRA:          -8.292
REMARK INTER:                  -6.827
REMARK INTRA:                  -1.465
REMARK UNBOUND:                -1.752
REMARK SMILES CC(=O)CCC=C(C)CCC=C(C)C
REMARK SMILES IDX 7 1 6 2 8 3 9 4 10 5 11 6 13 7 12 8 14 9 5 10 4 11 2 12 3 13
REMARK SMILES IDX 1 14
REMARK H PARENT
REMARK Flexibility Score: inf
ROOT
ATOM      1  C   UNL     1     120.850 178.252 127.225  1.00  0.00    -0.077 C 
ATOM      2  C   UNL     1     120.678 177.798 128.488  1.00  0.00    -0.028 C 
ATOM      3  C   UNL     1     122.241 178.241 126.642  1.00  0.00     0.039 C 
ENDROOT
BRANCH   1   4
ATOM      4  C   UNL     1     119.701 178.753 126.368  1.00  0.00     0.034 C 
BRANCH   4   5
ATOM      5  C   UNL     1     119.298 177.731 125.293  1.00  0.00     0.032 C 
BRANCH   5   6
ATOM      6  C   UNL     1     118.191 176.821 125.767  1.00  0.00    -0.028 C 
ATOM      7  C   UNL     1     119.714 174.863 126.109  1.00  0.00     0.039 C 
ATOM      8  C   UNL     1     118.365 175.541 126.165  1.00  0.00    -0.080 C 
ATOM      9  C   UNL     1     117.168 174.774 126.662  1.00  0.00     0.039 C 
ENDBRANCH   5   6
ENDBRANCH   4   5
ENDBRANCH   1   4
BRANCH   2  10
ATOM     10  C   UNL     1     119.348 177.787 129.201  1.00  0.00     0.035 C 
BRANCH  10  11
ATOM     11  C   UNL     1     119.386 176.870 130.429  1.00  0.00     0.079 C 
BRANCH  11  12
ATOM     12  C   UNL     1     118.793 175.523 130.107  1.00  0.00     0.130 C 
ATOM     13  O   UNL     1     119.498 174.660 129.608  1.00  0.00    -0.300 OA
ATOM     14  C   UNL     1     117.355 175.212 130.397  1.00  0.00     0.087 C 
ENDBRANCH  11  12
ENDBRANCH  10  11
ENDBRANCH   2  10
TORSDOF 6
ENDMDL
MODEL 7
REMARK VINA RESULT:    -4.840      2.557      5.209
REMARK INTER + INTRA:          -8.290
REMARK INTER:                  -6.865
REMARK INTRA:                  -1.425
REMARK UNBOUND:                -1.752
REMARK SMILES CC(=O)CCC=C(C)CCC=C(C)C
REMARK SMILES IDX 7 1 6 2 8 3 9 4 10 5 11 6 13 7 12 8 14 9 5 10 4 11 2 12 3 13
REMARK SMILES IDX 1 14
REMARK H PARENT
REMARK Flexibility Score: inf
ROOT
ATOM      1  C   UNL     1     119.422 178.253 124.316  1.00  0.00    -0.077 C 
ATOM      2  C   UNL     1     120.158 177.141 124.542  1.00  0.00    -0.028 C 
ATOM      3  C   UNL     1     119.023 178.573 122.897  1.00  0.00     0.039 C 
ENDROOT
BRANCH   1   4
ATOM      4  C   UNL     1     118.966 179.178 125.431  1.00  0.00     0.034 C 
BRANCH   4   5
ATOM      5  C   UNL     1     117.538 178.857 125.897  1.00  0.00     0.032 C 
BRANCH   5   6
ATOM      6  C   UNL     1     117.527 178.159 127.236  1.00  0.00    -0.028 C 
ATOM      7  C   UNL     1     116.956 175.924 126.259  1.00  0.00     0.039 C 
ATOM      8  C   UNL     1     117.297 176.838 127.413  1.00  0.00    -0.080 C 
ATOM      9  C   UNL     1     117.370 176.277 128.809  1.00  0.00     0.039 C 
ENDBRANCH   5   6
ENDBRANCH   4   5
ENDBRANCH   1   4
BRANCH   2  10
ATOM     10  C   UNL     1     120.652 176.725 125.906  1.00  0.00     0.035 C 
BRANCH  10  11
ATOM     11  C   UNL     1     121.981 177.408 126.247  1.00  0.00     0.079 C 
BRANCH  11  12
ATOM     12  C   UNL     1     121.823 178.323 127.433  1.00  0.00     0.130 C 
ATOM     13  O   UNL     1     122.278 179.455 127.384  1.00  0.00    -0.300 OA
ATOM     14  C   UNL     1     121.107 177.878 128.674  1.00  0.00     0.087 C 
ENDBRANCH  11  12
ENDBRANCH  10  11
ENDBRANCH   2  10
TORSDOF 6
ENDMDL
MODEL 8
REMARK VINA RESULT:    -4.834      1.431      3.047
REMARK INTER + INTRA:          -8.282
REMARK INTER:                  -6.603
REMARK INTRA:                  -1.679
REMARK UNBOUND:                -1.752
REMARK SMILES CC(=O)CCC=C(C)CCC=C(C)C
REMARK SMILES IDX 7 1 6 2 8 3 9 4 10 5 11 6 13 7 12 8 14 9 5 10 4 11 2 12 3 13
REMARK SMILES IDX 1 14
REMARK H PARENT
REMARK Flexibility Score: inf
ROOT
ATOM      1  C   UNL     1     119.946 178.276 127.318  1.00  0.00    -0.077 C 
ATOM      2  C   UNL     1     119.440 178.715 126.143  1.00  0.00    -0.028 C 
ATOM      3  C   UNL     1     121.443 178.145 127.450  1.00  0.00     0.039 C 
ENDROOT
BRANCH   1   4
ATOM      4  C   UNL     1     119.072 177.929 128.511  1.00  0.00     0.034 C 
BRANCH   4   5
ATOM      5  C   UNL     1     119.117 176.429 128.840  1.00  0.00     0.032 C 
BRANCH   5   6
ATOM      6  C   UNL     1     118.029 175.664 128.126  1.00  0.00    -0.028 C 
ATOM      7  C   UNL     1     119.572 174.771 126.367  1.00  0.00     0.039 C 
ATOM      8  C   UNL     1     118.222 174.892 127.034  1.00  0.00    -0.080 C 
ATOM      9  C   UNL     1     117.043 174.148 126.463  1.00  0.00     0.039 C 
ENDBRANCH   5   6
ENDBRANCH   4   5
ENDBRANCH   1   4
BRANCH   2  10
ATOM     10  C   UNL     1     117.962 178.859 125.868  1.00  0.00     0.035 C 
BRANCH  10  11
ATOM     11  C   UNL     1     117.469 177.769 124.909  1.00  0.00     0.079 C 
BRANCH  11  12
ATOM     12  C   UNL     1     115.970 177.640 124.974  1.00  0.00     0.130 C 
ATOM     13  O   UNL     1     115.315 177.709 123.945  1.00  0.00    -0.300 OA
ATOM     14  C   UNL     1     115.260 177.416 126.276  1.00  0.00     0.087 C 
ENDBRANCH  11  12
ENDBRANCH  10  11
ENDBRANCH   2  10
TORSDOF 6
ENDMDL
MODEL 9
REMARK VINA RESULT:    -4.793      1.359      3.633
REMARK INTER + INTRA:          -8.226
REMARK INTER:                  -6.454
REMARK INTRA:                  -1.772
REMARK UNBOUND:                -1.752
REMARK SMILES CC(=O)CCC=C(C)CCC=C(C)C
REMARK SMILES IDX 7 1 6 2 8 3 9 4 10 5 11 6 13 7 12 8 14 9 5 10 4 11 2 12 3 13
REMARK SMILES IDX 1 14
REMARK H PARENT
REMARK Flexibility Score: inf
ROOT
ATOM      1  C   UNL     1     119.773 177.784 126.080  1.00  0.00    -0.077 C 
ATOM      2  C   UNL     1     119.163 178.984 126.212  1.00  0.00    -0.028 C 
ATOM      3  C   UNL     1     121.142 177.605 126.687  1.00  0.00     0.039 C 
ENDROOT
BRANCH   1   4
ATOM      4  C   UNL     1     119.130 176.609 125.364  1.00  0.00     0.034 C 
BRANCH   4   5
ATOM      5  C   UNL     1     118.916 175.411 126.303  1.00  0.00     0.032 C 
BRANCH   5   6
ATOM      6  C   UNL     1     117.599 175.498 127.036  1.00  0.00    -0.028 C 
ATOM      7  C   UNL     1     118.648 176.254 129.181  1.00  0.00     0.039 C 
ATOM      8  C   UNL     1     117.459 175.903 128.318  1.00  0.00    -0.080 C 
ATOM      9  C   UNL     1     116.071 175.986 128.897  1.00  0.00     0.039 C 
ENDBRANCH   5   6
ENDBRANCH   4   5
ENDBRANCH   1   4
BRANCH   2  10
ATOM     10  C   UNL     1     117.811 179.307 125.624  1.00  0.00     0.035 C 
BRANCH  10  11
ATOM     11  C   UNL     1     116.694 179.100 126.654  1.00  0.00     0.079 C 
BRANCH  11  12
ATOM     12  C   UNL     1     115.535 178.357 126.043  1.00  0.00     0.130 C 
ATOM     13  O   UNL     1     114.482 178.277 126.657  1.00  0.00    -0.300 OA
ATOM     14  C   UNL     1     115.640 177.721 124.689  1.00  0.00     0.087 C 
ENDBRANCH  11  12
ENDBRANCH  10  11
ENDBRANCH   2  10
TORSDOF 6
ENDMDL
