MODEL 1
REMARK VINA RESULT:    -5.162      0.000      0.000
REMARK INTER + INTRA:          -7.051
REMARK INTER:                  -6.520
REMARK INTRA:                  -0.530
REMARK UNBOUND:                -0.530
REMARK SMILES Oc1cc(O)cc(CCc2ccccc2O)c1
REMARK SMILES IDX 9 1 10 2 12 3 13 4 11 5 14 6 15 7 16 8 8 10 7 11 6 12 17 13
REMARK SMILES IDX 4 14 2 15 3 16 5 17 1 19
REMARK H PARENT 16 9 5 18 1 20
REMARK Flexibility Score: inf
ROOT
ATOM      1  C   UNL     1      -8.473  -2.894  -8.364  1.00  0.00     0.044 C 
ENDROOT
BRANCH   1   2
ATOM      2  C   UNL     1      -8.728  -1.941  -7.221  1.00  0.00    -0.006 A 
ATOM      3  C   UNL     1      -9.300  -1.621  -4.875  1.00  0.00     0.001 A 
ATOM      4  C   UNL     1      -9.185  -0.240  -5.028  1.00  0.00     0.004 A 
ATOM      5  C   UNL     1      -9.068  -2.467  -5.961  1.00  0.00     0.007 A 
ATOM      6  C   UNL     1      -8.834   0.300  -6.267  1.00  0.00     0.046 A 
ATOM      7  C   UNL     1      -8.594  -0.537  -7.366  1.00  0.00     0.118 A 
BRANCH   7   8
ATOM      8  O   UNL     1      -8.223   0.061  -8.573  1.00  0.00    -0.508 OA
ATOM      9  H   UNL     1      -7.661  -0.401  -9.276  1.00  0.00     0.293 HD
ENDBRANCH   7   8
ENDBRANCH   1   2
BRANCH   1  10
ATOM     10  C   UNL     1      -9.760  -3.624  -8.760  1.00  0.00     0.040 C 
BRANCH  10  11
ATOM     11  C   UNL     1     -10.280  -3.104 -10.073  1.00  0.00    -0.040 A 
ATOM     12  C   UNL     1     -10.387  -3.958 -11.182  1.00  0.00     0.050 A 
ATOM     13  C   UNL     1     -10.716  -1.773 -10.182  1.00  0.00     0.050 A 
ATOM     14  C   UNL     1     -10.901  -3.483 -12.393  1.00  0.00     0.119 A 
ATOM     15  C   UNL     1     -11.233  -1.296 -11.394  1.00  0.00     0.119 A 
ATOM     16  C   UNL     1     -11.321  -2.150 -12.498  1.00  0.00     0.092 A 
BRANCH  14  17
ATOM     17  O   UNL     1     -10.994  -4.344 -13.485  1.00  0.00    -0.508 OA
ATOM     18  H   UNL     1     -11.797  -4.332 -14.103  1.00  0.00     0.293 HD
ENDBRANCH  14  17
BRANCH  15  19
ATOM     19  O   UNL     1     -11.662   0.025 -11.512  1.00  0.00    -0.508 OA
ATOM     20  H   UNL     1     -11.611   0.521 -12.395  1.00  0.00     0.293 HD
ENDBRANCH  15  19
ENDBRANCH  10  11
ENDBRANCH   1  10
TORSDOF 6
ENDMDL
MODEL 2
REMARK VINA RESULT:    -5.153      0.071      2.036
REMARK INTER + INTRA:          -7.038
REMARK INTER:                  -6.503
REMARK INTRA:                  -0.535
REMARK UNBOUND:                -0.530
REMARK SMILES Oc1cc(O)cc(CCc2ccccc2O)c1
REMARK SMILES IDX 9 1 10 2 12 3 13 4 11 5 14 6 15 7 16 8 8 10 7 11 6 12 17 13
REMARK SMILES IDX 4 14 2 15 3 16 5 17 1 19
REMARK H PARENT 16 9 5 18 1 20
REMARK Flexibility Score: inf
ROOT
ATOM      1  C   UNL     1      -8.485  -2.871  -8.412  1.00  0.00     0.044 C 
ENDROOT
BRANCH   1   2
ATOM      2  C   UNL     1      -8.723  -1.940  -7.247  1.00  0.00    -0.006 A 
ATOM      3  C   UNL     1      -9.225  -1.667  -4.880  1.00  0.00     0.001 A 
ATOM      4  C   UNL     1      -9.146  -0.281  -5.017  1.00  0.00     0.004 A 
ATOM      5  C   UNL     1      -9.010  -2.492  -5.985  1.00  0.00     0.007 A 
ATOM      6  C   UNL     1      -8.847   0.284  -6.258  1.00  0.00     0.046 A 
ATOM      7  C   UNL     1      -8.625  -0.531  -7.376  1.00  0.00     0.118 A 
BRANCH   7   8
ATOM      8  O   UNL     1      -8.307   0.091  -8.586  1.00  0.00    -0.508 OA
ATOM      9  H   UNL     1      -7.433  -0.051  -9.074  1.00  0.00     0.293 HD
ENDBRANCH   7   8
ENDBRANCH   1   2
BRANCH   1  10
ATOM     10  C   UNL     1      -9.761  -3.642  -8.762  1.00  0.00     0.040 C 
BRANCH  10  11
ATOM     11  C   UNL     1     -10.328  -3.159 -10.071  1.00  0.00    -0.040 A 
ATOM     12  C   UNL     1     -10.738  -1.825 -10.217  1.00  0.00     0.050 A 
ATOM     13  C   UNL     1     -10.397  -4.028 -11.172  1.00  0.00     0.050 A 
ATOM     14  C   UNL     1     -11.233  -1.367 -11.443  1.00  0.00     0.119 A 
ATOM     15  C   UNL     1     -10.892  -3.571 -12.402  1.00  0.00     0.119 A 
ATOM     16  C   UNL     1     -11.313  -2.244 -12.533  1.00  0.00     0.092 A 
BRANCH  14  17
ATOM     17  O   UNL     1     -11.641  -0.041 -11.567  1.00  0.00    -0.508 OA
ATOM     18  H   UNL     1     -11.416   0.651 -10.863  1.00  0.00     0.293 HD
ENDBRANCH  14  17
BRANCH  15  19
ATOM     19  O   UNL     1     -10.970  -4.429 -13.498  1.00  0.00    -0.508 OA
ATOM     20  H   UNL     1     -10.184  -4.562 -14.122  1.00  0.00     0.293 HD
ENDBRANCH  15  19
ENDBRANCH  10  11
ENDBRANCH   1  10
TORSDOF 6
ENDMDL
MODEL 3
REMARK VINA RESULT:    -5.009      1.916      2.773
REMARK INTER + INTRA:          -6.857
REMARK INTER:                  -6.342
REMARK INTRA:                  -0.515
REMARK UNBOUND:                -0.530
REMARK SMILES Oc1cc(O)cc(CCc2ccccc2O)c1
REMARK SMILES IDX 9 1 10 2 12 3 13 4 11 5 14 6 15 7 16 8 8 10 7 11 6 12 17 13
REMARK SMILES IDX 4 14 2 15 3 16 5 17 1 19
REMARK H PARENT 16 9 5 18 1 20
REMARK Flexibility Score: inf
ROOT
ATOM      1  C   UNL     1      -7.947  -1.166  -8.148  1.00  0.00     0.044 C 
ENDROOT
BRANCH   1   2
ATOM      2  C   UNL     1      -8.742  -0.464  -7.073  1.00  0.00    -0.006 A 
ATOM      3  C   UNL     1      -9.980   1.510  -6.364  1.00  0.00     0.001 A 
ATOM      4  C   UNL     1     -10.262   0.902  -5.140  1.00  0.00     0.004 A 
ATOM      5  C   UNL     1      -9.230   0.831  -7.326  1.00  0.00     0.007 A 
ATOM      6  C   UNL     1      -9.799  -0.389  -4.878  1.00  0.00     0.046 A 
ATOM      7  C   UNL     1      -9.048  -1.084  -5.835  1.00  0.00     0.118 A 
BRANCH   7   8
ATOM      8  O   UNL     1      -8.633  -2.381  -5.523  1.00  0.00    -0.508 OA
ATOM      9  H   UNL     1      -7.971  -2.595  -4.788  1.00  0.00     0.293 HD
ENDBRANCH   7   8
ENDBRANCH   1   2
BRANCH   1  10
ATOM     10  C   UNL     1      -8.529  -0.872  -9.534  1.00  0.00     0.040 C 
BRANCH  10  11
ATOM     11  C   UNL     1      -9.374  -2.024 -10.007  1.00  0.00    -0.040 A 
ATOM     12  C   UNL     1      -9.774  -2.105 -11.350  1.00  0.00     0.050 A 
ATOM     13  C   UNL     1      -9.720  -3.056  -9.120  1.00  0.00     0.050 A 
ATOM     14  C   UNL     1     -10.532  -3.192 -11.798  1.00  0.00     0.119 A 
ATOM     15  C   UNL     1     -10.478  -4.147  -9.567  1.00  0.00     0.119 A 
ATOM     16  C   UNL     1     -10.886  -4.212 -10.904  1.00  0.00     0.092 A 
BRANCH  14  17
ATOM     17  O   UNL     1     -10.926  -3.252 -13.133  1.00  0.00    -0.508 OA
ATOM     18  H   UNL     1     -10.318  -2.936 -13.880  1.00  0.00     0.293 HD
ENDBRANCH  14  17
BRANCH  15  19
ATOM     19  O   UNL     1     -10.831  -5.173  -8.692  1.00  0.00    -0.508 OA
ATOM     20  H   UNL     1     -10.151  -5.596  -8.071  1.00  0.00     0.293 HD
ENDBRANCH  15  19
ENDBRANCH  10  11
ENDBRANCH   1  10
TORSDOF 6
ENDMDL
MODEL 4
REMARK VINA RESULT:    -5.008      1.914      2.794
REMARK INTER + INTRA:          -6.856
REMARK INTER:                  -6.346
REMARK INTRA:                  -0.510
REMARK UNBOUND:                -0.530
REMARK SMILES Oc1cc(O)cc(CCc2ccccc2O)c1
REMARK SMILES IDX 9 1 10 2 12 3 13 4 11 5 14 6 15 7 16 8 8 10 7 11 6 12 17 13
REMARK SMILES IDX 4 14 2 15 3 16 5 17 1 19
REMARK H PARENT 16 9 5 18 1 20
REMARK Flexibility Score: inf
ROOT
ATOM      1  C   UNL     1      -7.941  -1.091  -8.190  1.00  0.00     0.044 C 
ENDROOT
BRANCH   1   2
ATOM      2  C   UNL     1      -8.739  -0.432  -7.090  1.00  0.00    -0.006 A 
ATOM      3  C   UNL     1     -10.027   1.489  -6.327  1.00  0.00     0.001 A 
ATOM      4  C   UNL     1     -10.266   0.853  -5.109  1.00  0.00     0.004 A 
ATOM      5  C   UNL     1      -9.274   0.850  -7.314  1.00  0.00     0.007 A 
ATOM      6  C   UNL     1      -9.756  -0.425  -4.875  1.00  0.00     0.046 A 
ATOM      7  C   UNL     1      -9.001  -1.081  -5.857  1.00  0.00     0.118 A 
BRANCH   7   8
ATOM      8  O   UNL     1      -8.537  -2.368  -5.573  1.00  0.00    -0.508 OA
ATOM      9  H   UNL     1      -9.124  -3.105  -5.203  1.00  0.00     0.293 HD
ENDBRANCH   7   8
ENDBRANCH   1   2
BRANCH   1  10
ATOM     10  C   UNL     1      -8.574  -0.817  -9.558  1.00  0.00     0.040 C 
BRANCH  10  11
ATOM     11  C   UNL     1      -9.345  -2.020 -10.034  1.00  0.00    -0.040 A 
ATOM     12  C   UNL     1      -9.706  -3.033  -9.132  1.00  0.00     0.050 A 
ATOM     13  C   UNL     1      -9.758  -2.108 -11.373  1.00  0.00     0.050 A 
ATOM     14  C   UNL     1     -10.451  -4.134  -9.566  1.00  0.00     0.119 A 
ATOM     15  C   UNL     1     -10.506  -3.210 -11.810  1.00  0.00     0.119 A 
ATOM     16  C   UNL     1     -10.848  -4.223 -10.907  1.00  0.00     0.092 A 
BRANCH  14  17
ATOM     17  O   UNL     1     -10.795  -5.133  -8.658  1.00  0.00    -0.508 OA
ATOM     18  H   UNL     1     -10.101  -5.568  -8.060  1.00  0.00     0.293 HD
ENDBRANCH  14  17
BRANCH  15  19
ATOM     19  O   UNL     1     -10.915  -3.309 -13.139  1.00  0.00    -0.508 OA
ATOM     20  H   UNL     1     -11.464  -2.580 -13.579  1.00  0.00     0.293 HD
ENDBRANCH  15  19
ENDBRANCH  10  11
ENDBRANCH   1  10
TORSDOF 6
ENDMDL
MODEL 5
REMARK VINA RESULT:    -4.701      2.124      5.946
REMARK INTER + INTRA:          -6.468
REMARK INTER:                  -5.946
REMARK INTRA:                  -0.522
REMARK UNBOUND:                -0.530
REMARK SMILES Oc1cc(O)cc(CCc2ccccc2O)c1
REMARK SMILES IDX 9 1 10 2 12 3 13 4 11 5 14 6 15 7 16 8 8 10 7 11 6 12 17 13
REMARK SMILES IDX 4 14 2 15 3 16 5 17 1 19
REMARK H PARENT 16 9 5 18 1 20
REMARK Flexibility Score: inf
ROOT
ATOM      1  C   UNL     1      -9.002  -2.815  -8.005  1.00  0.00     0.044 C 
ENDROOT
BRANCH   1   2
ATOM      2  C   UNL     1      -9.437  -2.619  -9.437  1.00  0.00    -0.006 A 
ATOM      3  C   UNL     1      -9.044  -1.567 -11.598  1.00  0.00     0.001 A 
ATOM      4  C   UNL     1     -10.155  -2.225 -12.128  1.00  0.00     0.004 A 
ATOM      5  C   UNL     1      -8.684  -1.766 -10.265  1.00  0.00     0.007 A 
ATOM      6  C   UNL     1     -10.905  -3.087 -11.326  1.00  0.00     0.046 A 
ATOM      7  C   UNL     1     -10.553  -3.299  -9.986  1.00  0.00     0.118 A 
BRANCH   7   8
ATOM      8  O   UNL     1     -11.328  -4.192  -9.241  1.00  0.00    -0.508 OA
ATOM      9  H   UNL     1     -12.204  -4.580  -9.567  1.00  0.00     0.293 HD
ENDBRANCH   7   8
ENDBRANCH   1   2
BRANCH   1  10
ATOM     10  C   UNL     1      -7.875  -1.843  -7.641  1.00  0.00     0.040 C 
BRANCH  10  11
ATOM     11  C   UNL     1      -8.441  -0.545  -7.128  1.00  0.00    -0.040 A 
ATOM     12  C   UNL     1      -7.935   0.681  -7.589  1.00  0.00     0.050 A 
ATOM     13  C   UNL     1      -9.518  -0.554  -6.227  1.00  0.00     0.050 A 
ATOM     14  C   UNL     1      -8.482   1.886  -7.137  1.00  0.00     0.119 A 
ATOM     15  C   UNL     1     -10.069   0.654  -5.774  1.00  0.00     0.119 A 
ATOM     16  C   UNL     1      -9.548   1.870  -6.227  1.00  0.00     0.092 A 
BRANCH  14  17
ATOM     17  O   UNL     1      -7.963   3.093  -7.601  1.00  0.00    -0.508 OA
ATOM     18  H   UNL     1      -8.543   3.768  -8.084  1.00  0.00     0.293 HD
ENDBRANCH  14  17
BRANCH  15  19
ATOM     19  O   UNL     1     -11.134   0.655  -4.875  1.00  0.00    -0.508 OA
ATOM     20  H   UNL     1     -11.572   1.518  -4.575  1.00  0.00     0.293 HD
ENDBRANCH  15  19
ENDBRANCH  10  11
ENDBRANCH   1  10
TORSDOF 6
ENDMDL
MODEL 6
REMARK VINA RESULT:    -4.677      1.566      2.516
REMARK INTER + INTRA:          -6.438
REMARK INTER:                  -6.445
REMARK INTRA:                   0.007
REMARK UNBOUND:                -0.530
REMARK SMILES Oc1cc(O)cc(CCc2ccccc2O)c1
REMARK SMILES IDX 9 1 10 2 12 3 13 4 11 5 14 6 15 7 16 8 8 10 7 11 6 12 17 13
REMARK SMILES IDX 4 14 2 15 3 16 5 17 1 19
REMARK H PARENT 16 9 5 18 1 20
REMARK Flexibility Score: inf
ROOT
ATOM      1  C   UNL     1      -8.673  -0.434  -9.397  1.00  0.00     0.044 C 
ENDROOT
BRANCH   1   2
ATOM      2  C   UNL     1      -8.597  -0.914  -7.967  1.00  0.00    -0.006 A 
ATOM      3  C   UNL     1      -7.876  -2.623  -6.390  1.00  0.00     0.001 A 
ATOM      4  C   UNL     1      -8.378  -1.867  -5.331  1.00  0.00     0.004 A 
ATOM      5  C   UNL     1      -7.979  -2.149  -7.698  1.00  0.00     0.007 A 
ATOM      6  C   UNL     1      -8.981  -0.632  -5.577  1.00  0.00     0.046 A 
ATOM      7  C   UNL     1      -9.088  -0.141  -6.885  1.00  0.00     0.118 A 
BRANCH   7   8
ATOM      8  O   UNL     1      -9.680   1.112  -7.066  1.00  0.00    -0.508 OA
ATOM      9  H   UNL     1      -9.153   1.964  -7.210  1.00  0.00     0.293 HD
ENDBRANCH   7   8
ENDBRANCH   1   2
BRANCH   1  10
ATOM     10  C   UNL     1     -10.098  -0.576  -9.942  1.00  0.00     0.040 C 
BRANCH  10  11
ATOM     11  C   UNL     1     -10.338  -1.977 -10.437  1.00  0.00    -0.040 A 
ATOM     12  C   UNL     1     -10.411  -3.046  -9.530  1.00  0.00     0.050 A 
ATOM     13  C   UNL     1     -10.548  -2.215 -11.805  1.00  0.00     0.050 A 
ATOM     14  C   UNL     1     -10.667  -4.344  -9.986  1.00  0.00     0.119 A 
ATOM     15  C   UNL     1     -10.806  -3.515 -12.264  1.00  0.00     0.119 A 
ATOM     16  C   UNL     1     -10.861  -4.576 -11.354  1.00  0.00     0.092 A 
BRANCH  14  17
ATOM     17  O   UNL     1     -10.729  -5.394  -9.072  1.00  0.00    -0.508 OA
ATOM     18  H   UNL     1      -9.972  -5.578  -8.424  1.00  0.00     0.293 HD
ENDBRANCH  14  17
BRANCH  15  19
ATOM     19  O   UNL     1     -11.009  -3.761 -13.620  1.00  0.00    -0.508 OA
ATOM     20  H   UNL     1     -10.359  -3.427 -14.322  1.00  0.00     0.293 HD
ENDBRANCH  15  19
ENDBRANCH  10  11
ENDBRANCH   1  10
TORSDOF 6
ENDMDL
MODEL 7
REMARK VINA RESULT:    -4.666      1.989      5.545
REMARK INTER + INTRA:          -6.424
REMARK INTER:                  -5.758
REMARK INTRA:                  -0.666
REMARK UNBOUND:                -0.530
REMARK SMILES Oc1cc(O)cc(CCc2ccccc2O)c1
REMARK SMILES IDX 9 1 10 2 12 3 13 4 11 5 14 6 15 7 16 8 8 10 7 11 6 12 17 13
REMARK SMILES IDX 4 14 2 15 3 16 5 17 1 19
REMARK H PARENT 16 9 5 18 1 20
REMARK Flexibility Score: inf
ROOT
ATOM      1  C   UNL     1      -9.016  -0.265 -10.738  1.00  0.00     0.044 C 
ENDROOT
BRANCH   1   2
ATOM      2  C   UNL     1      -9.793  -1.554 -10.620  1.00  0.00    -0.006 A 
ATOM      3  C   UNL     1      -9.767  -3.984 -10.460  1.00  0.00     0.001 A 
ATOM      4  C   UNL     1     -11.159  -4.000 -10.366  1.00  0.00     0.004 A 
ATOM      5  C   UNL     1      -9.088  -2.771 -10.581  1.00  0.00     0.007 A 
ATOM      6  C   UNL     1     -11.874  -2.801 -10.387  1.00  0.00     0.046 A 
ATOM      7  C   UNL     1     -11.206  -1.575 -10.505  1.00  0.00     0.118 A 
BRANCH   7   8
ATOM      8  O   UNL     1     -11.975  -0.408 -10.497  1.00  0.00    -0.508 OA
ATOM      9  H   UNL     1     -11.793   0.378  -9.886  1.00  0.00     0.293 HD
ENDBRANCH   7   8
ENDBRANCH   1   2
BRANCH   1  10
ATOM     10  C   UNL     1      -7.875  -0.223  -9.717  1.00  0.00     0.040 C 
BRANCH  10  11
ATOM     11  C   UNL     1      -8.421  -0.224  -8.314  1.00  0.00    -0.040 A 
ATOM     12  C   UNL     1      -8.086  -1.256  -7.423  1.00  0.00     0.050 A 
ATOM     13  C   UNL     1      -9.224   0.839  -7.869  1.00  0.00     0.050 A 
ATOM     14  C   UNL     1      -8.567  -1.240  -6.110  1.00  0.00     0.119 A 
ATOM     15  C   UNL     1      -9.706   0.857  -6.553  1.00  0.00     0.119 A 
ATOM     16  C   UNL     1      -9.379  -0.183  -5.677  1.00  0.00     0.092 A 
BRANCH  14  17
ATOM     17  O   UNL     1      -8.229  -2.276  -5.242  1.00  0.00    -0.508 OA
ATOM     18  H   UNL     1      -7.299  -2.679  -5.233  1.00  0.00     0.293 HD
ENDBRANCH  14  17
BRANCH  15  19
ATOM     19  O   UNL     1     -10.508   1.905  -6.105  1.00  0.00    -0.508 OA
ATOM     20  H   UNL     1     -10.753   2.680  -6.710  1.00  0.00     0.293 HD
ENDBRANCH  15  19
ENDBRANCH  10  11
ENDBRANCH   1  10
TORSDOF 6
ENDMDL
MODEL 8
REMARK VINA RESULT:    -4.654      1.984      5.819
REMARK INTER + INTRA:          -6.408
REMARK INTER:                  -5.753
REMARK INTRA:                  -0.655
REMARK UNBOUND:                -0.530
REMARK SMILES Oc1cc(O)cc(CCc2ccccc2O)c1
REMARK SMILES IDX 9 1 10 2 12 3 13 4 11 5 14 6 15 7 16 8 8 10 7 11 6 12 17 13
REMARK SMILES IDX 4 14 2 15 3 16 5 17 1 19
REMARK H PARENT 16 9 5 18 1 20
REMARK Flexibility Score: inf
ROOT
ATOM      1  C   UNL     1      -9.038  -0.268 -10.719  1.00  0.00     0.044 C 
ENDROOT
BRANCH   1   2
ATOM      2  C   UNL     1      -9.806  -1.564 -10.606  1.00  0.00    -0.006 A 
ATOM      3  C   UNL     1      -9.762  -3.993 -10.445  1.00  0.00     0.001 A 
ATOM      4  C   UNL     1     -11.154  -4.020 -10.362  1.00  0.00     0.004 A 
ATOM      5  C   UNL     1      -9.091  -2.775 -10.562  1.00  0.00     0.007 A 
ATOM      6  C   UNL     1     -11.879  -2.827 -10.388  1.00  0.00     0.046 A 
ATOM      7  C   UNL     1     -11.220  -1.595 -10.501  1.00  0.00     0.118 A 
BRANCH   7   8
ATOM      8  O   UNL     1     -11.998  -0.435 -10.499  1.00  0.00    -0.508 OA
ATOM      9  H   UNL     1     -12.599  -0.163 -11.267  1.00  0.00     0.293 HD
ENDBRANCH   7   8
ENDBRANCH   1   2
BRANCH   1  10
ATOM     10  C   UNL     1      -7.875  -0.238  -9.722  1.00  0.00     0.040 C 
BRANCH  10  11
ATOM     11  C   UNL     1      -8.391  -0.198  -8.309  1.00  0.00    -0.040 A 
ATOM     12  C   UNL     1      -9.204   0.863  -7.880  1.00  0.00     0.050 A 
ATOM     13  C   UNL     1      -8.110  -1.253  -7.426  1.00  0.00     0.050 A 
ATOM     14  C   UNL     1      -9.711   0.884  -6.577  1.00  0.00     0.119 A 
ATOM     15  C   UNL     1      -8.618  -1.235  -6.119  1.00  0.00     0.119 A 
ATOM     16  C   UNL     1      -9.414  -0.165  -5.696  1.00  0.00     0.092 A 
BRANCH  14  17
ATOM     17  O   UNL     1     -10.511   1.949  -6.167  1.00  0.00    -0.508 OA
ATOM     18  H   UNL     1     -10.270   2.908  -6.386  1.00  0.00     0.293 HD
ENDBRANCH  14  17
BRANCH  15  19
ATOM     19  O   UNL     1      -8.339  -2.275  -5.234  1.00  0.00    -0.508 OA
ATOM     20  H   UNL     1      -7.821  -2.115  -4.378  1.00  0.00     0.293 HD
ENDBRANCH  15  19
ENDBRANCH  10  11
ENDBRANCH   1  10
TORSDOF 6
ENDMDL
MODEL 9
REMARK VINA RESULT:    -4.614      1.358      1.882
REMARK INTER + INTRA:          -6.359
REMARK INTER:                  -5.810
REMARK INTRA:                  -0.549
REMARK UNBOUND:                -0.530
REMARK SMILES Oc1cc(O)cc(CCc2ccccc2O)c1
REMARK SMILES IDX 9 1 10 2 12 3 13 4 11 5 14 6 15 7 16 8 8 10 7 11 6 12 17 13
REMARK SMILES IDX 4 14 2 15 3 16 5 17 1 19
REMARK H PARENT 16 9 5 18 1 20
REMARK Flexibility Score: inf
ROOT
ATOM      1  C   UNL     1      -8.087  -0.225  -8.950  1.00  0.00     0.044 C 
ENDROOT
BRANCH   1   2
ATOM      2  C   UNL     1      -8.422  -1.019  -7.710  1.00  0.00    -0.006 A 
ATOM      3  C   UNL     1      -8.420  -3.165  -6.559  1.00  0.00     0.001 A 
ATOM      4  C   UNL     1      -8.981  -2.567  -5.430  1.00  0.00     0.004 A 
ATOM      5  C   UNL     1      -8.138  -2.397  -7.690  1.00  0.00     0.007 A 
ATOM      6  C   UNL     1      -9.254  -1.199  -5.426  1.00  0.00     0.046 A 
ATOM      7  C   UNL     1      -8.973  -0.414  -6.553  1.00  0.00     0.118 A 
BRANCH   7   8
ATOM      8  O   UNL     1      -9.248   0.954  -6.481  1.00  0.00    -0.508 OA
ATOM      9  H   UNL     1      -9.710   1.471  -7.217  1.00  0.00     0.293 HD
ENDBRANCH   7   8
ENDBRANCH   1   2
BRANCH   1  10
ATOM     10  C   UNL     1      -7.907  -1.151 -10.157  1.00  0.00     0.040 C 
BRANCH  10  11
ATOM     11  C   UNL     1      -9.209  -1.315 -10.895  1.00  0.00    -0.040 A 
ATOM     12  C   UNL     1      -9.434  -2.449 -11.693  1.00  0.00     0.050 A 
ATOM     13  C   UNL     1     -10.230  -0.363 -10.744  1.00  0.00     0.050 A 
ATOM     14  C   UNL     1     -10.655  -2.618 -12.353  1.00  0.00     0.119 A 
ATOM     15  C   UNL     1     -11.456  -0.532 -11.404  1.00  0.00     0.119 A 
ATOM     16  C   UNL     1     -11.664  -1.656 -12.209  1.00  0.00     0.092 A 
BRANCH  14  17
ATOM     17  O   UNL     1     -10.858  -3.746 -13.145  1.00  0.00    -0.508 OA
ATOM     18  H   UNL     1     -10.101  -4.382 -13.365  1.00  0.00     0.293 HD
ENDBRANCH  14  17
BRANCH  15  19
ATOM     19  O   UNL     1     -12.472   0.412 -11.265  1.00  0.00    -0.508 OA
ATOM     20  H   UNL     1     -12.927   0.821 -12.073  1.00  0.00     0.293 HD
ENDBRANCH  15  19
ENDBRANCH  10  11
ENDBRANCH   1  10
TORSDOF 6
ENDMDL
