MODEL 1
REMARK VINA RESULT:    -4.851      0.000      0.000
REMARK INTER + INTRA:          -7.957
REMARK INTER:                  -7.119
REMARK INTRA:                  -0.838
REMARK UNBOUND:                -0.838
REMARK SMILES O=C([O-])CCCCCCCC(=O)[O-]
REMARK SMILES IDX 7 1 6 2 5 3 4 4 2 5 1 6 3 7 8 8 9 9 10 10 11 11 12 12 13 13
REMARK H PARENT
REMARK Flexibility Score: inf
ROOT
ATOM      1  C   UNL     1     -11.642  -8.739  10.791  1.00  0.00     0.000 C 
ENDROOT
BRANCH   1   2
ATOM      2  C   UNL     1     -13.032  -9.109  10.247  1.00  0.00     0.000 C 
BRANCH   2   3
ATOM      3  C   UNL     1     -13.530 -10.465  10.770  1.00  0.00     0.006 C 
BRANCH   3   4
ATOM      4  C   UNL     1     -12.366 -11.305  11.305  1.00  0.00     0.053 C 
BRANCH   4   5
ATOM      5  C   UNL     1     -12.126 -12.490  10.423  1.00  0.00     0.041 C 
ATOM      6  O   UNL     1     -13.065 -12.968   9.735  1.00  0.00    -0.550 OA
ATOM      7  O   UNL     1     -10.852 -13.035  10.323  1.00  0.00    -0.550 OA
ENDBRANCH   4   5
ENDBRANCH   3   4
ENDBRANCH   2   3
ENDBRANCH   1   2
BRANCH   1   8
ATOM      8  C   UNL     1     -10.964  -7.628   9.975  1.00  0.00     0.000 C 
BRANCH   8   9
ATOM      9  C   UNL     1     -10.216  -8.212   8.768  1.00  0.00     0.006 C 
BRANCH   9  10
ATOM     10  C   UNL     1      -9.540  -9.551   9.095  1.00  0.00     0.053 C 
BRANCH  10  11
ATOM     11  C   UNL     1      -9.823 -10.587   8.050  1.00  0.00     0.041 C 
ATOM     12  O   UNL     1      -8.890 -11.303   7.599  1.00  0.00    -0.550 OA
ATOM     13  O   UNL     1     -11.110 -10.738   7.549  1.00  0.00    -0.550 OA
ENDBRANCH  10  11
ENDBRANCH   9  10
ENDBRANCH   8   9
ENDBRANCH   1   8
TORSDOF 8
ENDMDL
MODEL 2
REMARK VINA RESULT:    -4.771      1.281      3.747
REMARK INTER + INTRA:          -7.839
REMARK INTER:                  -6.927
REMARK INTRA:                  -0.912
REMARK UNBOUND:                -0.838
REMARK SMILES O=C([O-])CCCCCCCC(=O)[O-]
REMARK SMILES IDX 7 1 6 2 5 3 4 4 2 5 1 6 3 7 8 8 9 9 10 10 11 11 12 12 13 13
REMARK H PARENT
REMARK Flexibility Score: inf
ROOT
ATOM      1  C   UNL     1     -11.788 -10.467  11.417  1.00  0.00     0.000 C 
ENDROOT
BRANCH   1   2
ATOM      2  C   UNL     1     -11.699  -8.960  11.125  1.00  0.00     0.000 C 
BRANCH   2   3
ATOM      3  C   UNL     1     -11.247  -8.662   9.687  1.00  0.00     0.006 C 
BRANCH   3   4
ATOM      4  C   UNL     1      -9.988  -9.460   9.334  1.00  0.00     0.053 C 
BRANCH   4   5
ATOM      5  C   UNL     1     -10.172 -10.182   8.035  1.00  0.00     0.041 C 
ATOM      6  O   UNL     1     -11.320 -10.297   7.532  1.00  0.00    -0.550 OA
ATOM      7  O   UNL     1      -9.069 -10.683   7.357  1.00  0.00    -0.550 OA
ENDBRANCH   4   5
ENDBRANCH   3   4
ENDBRANCH   2   3
ENDBRANCH   1   2
BRANCH   1   8
ATOM      8  C   UNL     1     -13.071 -11.104  10.860  1.00  0.00     0.000 C 
BRANCH   8   9
ATOM      9  C   UNL     1     -12.752 -12.389  10.083  1.00  0.00     0.006 C 
BRANCH   9  10
ATOM     10  C   UNL     1     -11.303 -12.851  10.292  1.00  0.00     0.053 C 
BRANCH  10  11
ATOM     11  C   UNL     1     -10.899 -13.886   9.287  1.00  0.00     0.041 C 
ATOM     12  O   UNL     1     -11.039 -13.662   8.055  1.00  0.00    -0.550 OA
ATOM     13  O   UNL     1     -10.399 -15.112   9.710  1.00  0.00    -0.550 OA
ENDBRANCH  10  11
ENDBRANCH   9  10
ENDBRANCH   8   9
ENDBRANCH   1   8
TORSDOF 8
ENDMDL
MODEL 3
REMARK VINA RESULT:    -4.749      1.678      3.824
REMARK INTER + INTRA:          -7.807
REMARK INTER:                  -7.046
REMARK INTRA:                  -0.762
REMARK UNBOUND:                -0.838
REMARK SMILES O=C([O-])CCCCCCCC(=O)[O-]
REMARK SMILES IDX 7 1 6 2 5 3 4 4 2 5 1 6 3 7 8 8 9 9 10 10 11 11 12 12 13 13
REMARK H PARENT
REMARK Flexibility Score: inf
ROOT
ATOM      1  C   UNL     1     -12.853 -10.766  10.632  1.00  0.00     0.000 C 
ENDROOT
BRANCH   1   2
ATOM      2  C   UNL     1     -11.984  -9.628  11.194  1.00  0.00     0.000 C 
BRANCH   2   3
ATOM      3  C   UNL     1     -12.138  -8.320  10.403  1.00  0.00     0.006 C 
BRANCH   3   4
ATOM      4  C   UNL     1     -10.774  -7.801   9.936  1.00  0.00     0.053 C 
BRANCH   4   5
ATOM      5  C   UNL     1     -10.182  -8.725   8.918  1.00  0.00     0.041 C 
ATOM      6  O   UNL     1     -10.817  -9.000   7.867  1.00  0.00    -0.550 OA
ATOM      7  O   UNL     1      -8.907  -9.242   9.107  1.00  0.00    -0.550 OA
ENDBRANCH   4   5
ENDBRANCH   3   4
ENDBRANCH   2   3
ENDBRANCH   1   2
BRANCH   1   8
ATOM      8  C   UNL     1     -12.192 -12.144  10.778  1.00  0.00     0.000 C 
BRANCH   8   9
ATOM      9  C   UNL     1     -10.738 -12.110  10.286  1.00  0.00     0.006 C 
BRANCH   9  10
ATOM     10  C   UNL     1     -10.610 -12.546   8.819  1.00  0.00     0.053 C 
BRANCH  10  11
ATOM     11  C   UNL     1     -11.148 -13.927   8.601  1.00  0.00     0.041 C 
ATOM     12  O   UNL     1     -10.556 -14.923   9.097  1.00  0.00    -0.550 OA
ATOM     13  O   UNL     1     -12.283 -14.119   7.822  1.00  0.00    -0.550 OA
ENDBRANCH  10  11
ENDBRANCH   9  10
ENDBRANCH   8   9
ENDBRANCH   1   8
TORSDOF 8
ENDMDL
MODEL 4
REMARK VINA RESULT:    -4.746      1.197      1.584
REMARK INTER + INTRA:          -7.803
REMARK INTER:                  -7.039
REMARK INTRA:                  -0.764
REMARK UNBOUND:                -0.838
REMARK SMILES O=C([O-])CCCCCCCC(=O)[O-]
REMARK SMILES IDX 7 1 6 2 5 3 4 4 2 5 1 6 3 7 8 8 9 9 10 10 11 11 12 12 13 13
REMARK H PARENT
REMARK Flexibility Score: inf
ROOT
ATOM      1  C   UNL     1     -11.620 -10.009  11.408  1.00  0.00     0.000 C 
ENDROOT
BRANCH   1   2
ATOM      2  C   UNL     1     -12.813 -10.977  11.471  1.00  0.00     0.000 C 
BRANCH   2   3
ATOM      3  C   UNL     1     -12.742 -12.074  10.398  1.00  0.00     0.006 C 
BRANCH   3   4
ATOM      4  C   UNL     1     -11.329 -12.657  10.306  1.00  0.00     0.053 C 
BRANCH   4   5
ATOM      5  C   UNL     1     -11.249 -13.669   9.205  1.00  0.00     0.041 C 
ATOM      6  O   UNL     1     -11.828 -13.457   8.108  1.00  0.00    -0.550 OA
ATOM      7  O   UNL     1     -10.494 -14.822   9.374  1.00  0.00    -0.550 OA
ENDBRANCH   4   5
ENDBRANCH   3   4
ENDBRANCH   2   3
ENDBRANCH   1   2
BRANCH   1   8
ATOM      8  C   UNL     1     -11.948  -8.712  10.654  1.00  0.00     0.000 C 
BRANCH   8   9
ATOM      9  C   UNL     1     -10.779  -8.292   9.752  1.00  0.00     0.006 C 
BRANCH   9  10
ATOM     10  C   UNL     1      -9.806  -9.448   9.483  1.00  0.00     0.053 C 
BRANCH  10  11
ATOM     11  C   UNL     1      -9.950  -9.985   8.092  1.00  0.00     0.041 C 
ATOM     12  O   UNL     1      -8.929 -10.198   7.386  1.00  0.00    -0.550 OA
ATOM     13  O   UNL     1     -11.214 -10.220   7.563  1.00  0.00    -0.550 OA
ENDBRANCH  10  11
ENDBRANCH   9  10
ENDBRANCH   8   9
ENDBRANCH   1   8
TORSDOF 8
ENDMDL
MODEL 5
REMARK VINA RESULT:    -4.743      1.454      4.040
REMARK INTER + INTRA:          -7.800
REMARK INTER:                  -7.093
REMARK INTRA:                  -0.706
REMARK UNBOUND:                -0.838
REMARK SMILES O=C([O-])CCCCCCCC(=O)[O-]
REMARK SMILES IDX 7 1 6 2 5 3 4 4 2 5 1 6 3 7 8 8 9 9 10 10 11 11 12 12 13 13
REMARK H PARENT
REMARK Flexibility Score: inf
ROOT
ATOM      1  C   UNL     1     -12.361  -9.523  10.718  1.00  0.00     0.000 C 
ENDROOT
BRANCH   1   2
ATOM      2  C   UNL     1     -11.235  -8.520  10.416  1.00  0.00     0.000 C 
BRANCH   2   3
ATOM      3  C   UNL     1     -10.583  -8.757   9.045  1.00  0.00     0.006 C 
BRANCH   3   4
ATOM      4  C   UNL     1      -9.237  -9.472   9.197  1.00  0.00     0.053 C 
BRANCH   4   5
ATOM      5  C   UNL     1      -8.514  -9.512   7.887  1.00  0.00     0.041 C 
ATOM      6  O   UNL     1      -8.310  -8.450   7.244  1.00  0.00    -0.550 OA
ATOM      7  O   UNL     1      -8.021 -10.717   7.402  1.00  0.00    -0.550 OA
ENDBRANCH   4   5
ENDBRANCH   3   4
ENDBRANCH   2   3
ENDBRANCH   1   2
BRANCH   1   8
ATOM      8  C   UNL     1     -11.855 -10.779  11.445  1.00  0.00     0.000 C 
BRANCH   8   9
ATOM      9  C   UNL     1     -12.296 -12.053  10.710  1.00  0.00     0.006 C 
BRANCH   9  10
ATOM     10  C   UNL     1     -11.134 -12.726   9.966  1.00  0.00     0.053 C 
BRANCH  10  11
ATOM     11  C   UNL     1     -11.435 -12.903   8.509  1.00  0.00     0.041 C 
ATOM     12  O   UNL     1     -11.276 -11.943   7.709  1.00  0.00    -0.550 OA
ATOM     13  O   UNL     1     -11.921 -14.117   8.040  1.00  0.00    -0.550 OA
ENDBRANCH  10  11
ENDBRANCH   9  10
ENDBRANCH   8   9
ENDBRANCH   1   8
TORSDOF 8
ENDMDL
MODEL 6
REMARK VINA RESULT:    -4.733      1.634      2.658
REMARK INTER + INTRA:          -7.785
REMARK INTER:                  -7.015
REMARK INTRA:                  -0.770
REMARK UNBOUND:                -0.838
REMARK SMILES O=C([O-])CCCCCCCC(=O)[O-]
REMARK SMILES IDX 7 1 6 2 5 3 4 4 2 5 1 6 3 7 8 8 9 9 10 10 11 11 12 12 13 13
REMARK H PARENT
REMARK Flexibility Score: inf
ROOT
ATOM      1  C   UNL     1     -12.920 -10.666  10.718  1.00  0.00     0.000 C 
ENDROOT
BRANCH   1   2
ATOM      2  C   UNL     1     -12.350 -12.094  10.734  1.00  0.00     0.000 C 
BRANCH   2   3
ATOM      3  C   UNL     1     -10.890 -12.153  10.260  1.00  0.00     0.006 C 
BRANCH   3   4
ATOM      4  C   UNL     1     -10.813 -12.491   8.768  1.00  0.00     0.053 C 
BRANCH   4   5
ATOM      5  C   UNL     1     -11.337 -13.869   8.514  1.00  0.00     0.041 C 
ATOM      6  O   UNL     1     -12.330 -14.040   7.760  1.00  0.00    -0.550 OA
ATOM      7  O   UNL     1     -10.698 -14.970   9.071  1.00  0.00    -0.550 OA
ENDBRANCH   4   5
ENDBRANCH   3   4
ENDBRANCH   2   3
ENDBRANCH   1   2
BRANCH   1   8
ATOM      8  C   UNL     1     -11.924  -9.624  11.249  1.00  0.00     0.000 C 
BRANCH   8   9
ATOM      9  C   UNL     1     -12.019  -8.317  10.449  1.00  0.00     0.006 C 
BRANCH   9  10
ATOM     10  C   UNL     1     -10.652  -7.858   9.921  1.00  0.00     0.053 C 
BRANCH  10  11
ATOM     11  C   UNL     1     -10.137  -8.766   8.847  1.00  0.00     0.041 C 
ATOM     12  O   UNL     1     -10.855  -9.039   7.849  1.00  0.00    -0.550 OA
ATOM     13  O   UNL     1      -8.876  -9.339   8.964  1.00  0.00    -0.550 OA
ENDBRANCH  10  11
ENDBRANCH   9  10
ENDBRANCH   8   9
ENDBRANCH   1   8
TORSDOF 8
ENDMDL
MODEL 7
REMARK VINA RESULT:    -4.731      1.795      3.127
REMARK INTER + INTRA:          -7.781
REMARK INTER:                  -7.106
REMARK INTRA:                  -0.675
REMARK UNBOUND:                -0.838
REMARK SMILES O=C([O-])CCCCCCCC(=O)[O-]
REMARK SMILES IDX 7 1 6 2 5 3 4 4 2 5 1 6 3 7 8 8 9 9 10 10 11 11 12 12 13 13
REMARK H PARENT
REMARK Flexibility Score: inf
ROOT
ATOM      1  C   UNL     1      -9.355  -9.950   9.272  1.00  0.00     0.000 C 
ENDROOT
BRANCH   1   2
ATOM      2  C   UNL     1     -10.080  -8.595   9.330  1.00  0.00     0.000 C 
BRANCH   2   3
ATOM      3  C   UNL     1     -11.555  -8.730   9.736  1.00  0.00     0.006 C 
BRANCH   3   4
ATOM      4  C   UNL     1     -11.683  -9.361  11.126  1.00  0.00     0.053 C 
BRANCH   4   5
ATOM      5  C   UNL     1     -12.567 -10.568  11.075  1.00  0.00     0.041 C 
ATOM      6  O   UNL     1     -12.122 -11.694  11.418  1.00  0.00    -0.550 OA
ATOM      7  O   UNL     1     -13.897 -10.440  10.695  1.00  0.00    -0.550 OA
ENDBRANCH   4   5
ENDBRANCH   3   4
ENDBRANCH   2   3
ENDBRANCH   1   2
BRANCH   1   8
ATOM      8  C   UNL     1      -8.856 -10.296   7.861  1.00  0.00     0.000 C 
BRANCH   8   9
ATOM      9  C   UNL     1      -9.409 -11.652   7.401  1.00  0.00     0.006 C 
BRANCH   9  10
ATOM     10  C   UNL     1     -10.895 -11.823   7.748  1.00  0.00     0.053 C 
BRANCH  10  11
ATOM     11  C   UNL     1     -11.188 -13.193   8.279  1.00  0.00     0.041 C 
ATOM     12  O   UNL     1     -10.482 -13.679   9.202  1.00  0.00    -0.550 OA
ATOM     13  O   UNL     1     -12.220 -13.946   7.733  1.00  0.00    -0.550 OA
ENDBRANCH  10  11
ENDBRANCH   9  10
ENDBRANCH   8   9
ENDBRANCH   1   8
TORSDOF 8
ENDMDL
MODEL 8
REMARK VINA RESULT:    -4.728      2.508      3.830
REMARK INTER + INTRA:          -7.778
REMARK INTER:                  -7.281
REMARK INTRA:                  -0.497
REMARK UNBOUND:                -0.838
REMARK SMILES O=C([O-])CCCCCCCC(=O)[O-]
REMARK SMILES IDX 7 1 6 2 5 3 4 4 2 5 1 6 3 7 8 8 9 9 10 10 11 11 12 12 13 13
REMARK H PARENT
REMARK Flexibility Score: inf
ROOT
ATOM      1  C   UNL     1     -12.583 -12.509  10.038  1.00  0.00     0.000 C 
ENDROOT
BRANCH   1   2
ATOM      2  C   UNL     1     -11.061 -12.711  10.133  1.00  0.00     0.000 C 
BRANCH   2   3
ATOM      3  C   UNL     1     -10.494 -13.503   8.946  1.00  0.00     0.006 C 
BRANCH   3   4
ATOM      4  C   UNL     1     -11.310 -14.776   8.699  1.00  0.00     0.053 C 
BRANCH   4   5
ATOM      5  C   UNL     1     -10.460 -15.992   8.900  1.00  0.00     0.041 C 
ATOM      6  O   UNL     1     -10.975 -17.063   9.312  1.00  0.00    -0.550 OA
ATOM      7  O   UNL     1      -9.108 -15.954   8.583  1.00  0.00    -0.550 OA
ENDBRANCH   4   5
ENDBRANCH   3   4
ENDBRANCH   2   3
ENDBRANCH   1   2
BRANCH   1   8
ATOM      8  C   UNL     1     -13.076 -11.319  10.875  1.00  0.00     0.000 C 
BRANCH   8   9
ATOM      9  C   UNL     1     -11.895 -10.545  11.477  1.00  0.00     0.006 C 
BRANCH   9  10
ATOM     10  C   UNL     1     -11.793  -9.117  10.922  1.00  0.00     0.053 C 
BRANCH  10  11
ATOM     11  C   UNL     1     -11.087  -9.083   9.601  1.00  0.00     0.041 C 
ATOM     12  O   UNL     1      -9.828  -9.107   9.555  1.00  0.00    -0.550 OA
ATOM     13  O   UNL     1     -11.817  -8.990   8.423  1.00  0.00    -0.550 OA
ENDBRANCH  10  11
ENDBRANCH   9  10
ENDBRANCH   8   9
ENDBRANCH   1   8
TORSDOF 8
ENDMDL
MODEL 9
REMARK VINA RESULT:    -4.698      1.645      3.616
REMARK INTER + INTRA:          -7.733
REMARK INTER:                  -7.063
REMARK INTRA:                  -0.671
REMARK UNBOUND:                -0.838
REMARK SMILES O=C([O-])CCCCCCCC(=O)[O-]
REMARK SMILES IDX 7 1 6 2 5 3 4 4 2 5 1 6 3 7 8 8 9 9 10 10 11 11 12 12 13 13
REMARK H PARENT
REMARK Flexibility Score: inf
ROOT
ATOM      1  C   UNL     1      -9.362  -9.919   9.277  1.00  0.00     0.000 C 
ENDROOT
BRANCH   1   2
ATOM      2  C   UNL     1      -8.851 -10.271   7.870  1.00  0.00     0.000 C 
BRANCH   2   3
ATOM      3  C   UNL     1      -9.313 -11.660   7.403  1.00  0.00     0.006 C 
BRANCH   3   4
ATOM      4  C   UNL     1     -10.812 -11.850   7.652  1.00  0.00     0.053 C 
BRANCH   4   5
ATOM      5  C   UNL     1     -11.094 -13.243   8.120  1.00  0.00     0.041 C 
ATOM      6  O   UNL     1     -12.230 -13.754   7.941  1.00  0.00    -0.550 OA
ATOM      7  O   UNL     1     -10.086 -13.995   8.710  1.00  0.00    -0.550 OA
ENDBRANCH   4   5
ENDBRANCH   3   4
ENDBRANCH   2   3
ENDBRANCH   1   2
BRANCH   1   8
ATOM      8  C   UNL     1     -10.204  -8.635   9.298  1.00  0.00     0.000 C 
BRANCH   8   9
ATOM      9  C   UNL     1     -11.280  -8.702  10.391  1.00  0.00     0.006 C 
BRANCH   9  10
ATOM     10  C   UNL     1     -12.464  -9.592   9.989  1.00  0.00     0.053 C 
BRANCH  10  11
ATOM     11  C   UNL     1     -12.577 -10.798  10.869  1.00  0.00     0.041 C 
ATOM     12  O   UNL     1     -11.944 -10.850  11.958  1.00  0.00    -0.550 OA
ATOM     13  O   UNL     1     -13.354 -11.880  10.474  1.00  0.00    -0.550 OA
ENDBRANCH  10  11
ENDBRANCH   9  10
ENDBRANCH   8   9
ENDBRANCH   1   8
TORSDOF 8
ENDMDL
