MODEL 1
REMARK VINA RESULT:    -6.136      0.000      0.000
REMARK INTER + INTRA:          -6.674
REMARK INTER:                  -6.674
REMARK INTRA:                   0.000
REMARK UNBOUND:                 0.000
REMARK SMILES Cc1cc(O)c2c(c1)C(=O)c1cc(O)cc(O)c1C2=O
REMARK SMILES IDX 1 1 2 2 8 3 7 4 6 5 4 6 3 7 19 8 20 9 18 10 11 11 9 12 10 13
REMARK SMILES IDX 12 14 13 15 15 16 16 17 5 18 17 20 14 22
REMARK H PARENT 5 19 17 21 14 23
REMARK Flexibility Score: inf
ROOT
ATOM      1  C   UNL     1     -12.903   8.430 -21.182  1.00  0.00     0.044 C 
ATOM      2  C   UNL     1     -12.921   9.775 -20.515  1.00  0.00    -0.047 A 
ATOM      3  C   UNL     1     -13.267   9.886 -19.164  1.00  0.00     0.016 A 
ATOM      4  C   UNL     1     -13.313  11.143 -18.537  1.00  0.00     0.038 A 
ATOM      5  C   UNL     1     -13.008  12.307 -19.276  1.00  0.00     0.076 A 
ATOM      6  C   UNL     1     -12.741  12.196 -20.664  1.00  0.00     0.127 A 
ATOM      7  C   UNL     1     -12.680  10.933 -21.262  1.00  0.00     0.050 A 
ATOM      8  C   UNL     1     -12.923  13.600 -18.546  1.00  0.00     0.201 C 
ATOM      9  O   UNL     1     -12.146  14.502 -18.958  1.00  0.00    -0.288 OA
ATOM     10  C   UNL     1     -13.606  13.754 -17.236  1.00  0.00     0.076 A 
ATOM     11  C   UNL     1     -13.912  12.585 -16.501  1.00  0.00     0.041 A 
ATOM     12  C   UNL     1     -13.688  11.252 -17.108  1.00  0.00     0.194 C 
ATOM     13  O   UNL     1     -13.840  10.209 -16.413  1.00  0.00    -0.289 OA
ATOM     14  C   UNL     1     -14.432  12.695 -15.200  1.00  0.00     0.059 A 
ATOM     15  C   UNL     1     -14.664  13.947 -14.632  1.00  0.00     0.120 A 
ATOM     16  C   UNL     1     -14.402  15.104 -15.369  1.00  0.00     0.093 A 
ATOM     17  C   UNL     1     -13.902  15.023 -16.673  1.00  0.00     0.131 A 
ENDROOT
BRANCH   6  18
ATOM     18  O   UNL     1     -12.567  13.309 -21.491  1.00  0.00    -0.507 OA
ATOM     19  H   UNL     1     -11.666  13.715 -21.699  1.00  0.00     0.293 HD
ENDBRANCH   6  18
BRANCH  17  20
ATOM     20  O   UNL     1     -13.751  16.218 -17.381  1.00  0.00    -0.507 OA
ATOM     21  H   UNL     1     -13.474  17.090 -16.951  1.00  0.00     0.293 HD
ENDBRANCH  17  20
BRANCH  15  22
ATOM     22  O   UNL     1     -15.168  14.030 -13.336  1.00  0.00    -0.508 OA
ATOM     23  H   UNL     1     -14.901  13.366 -12.619  1.00  0.00     0.293 HD
ENDBRANCH  15  22
TORSDOF 3
ENDMDL
MODEL 2
REMARK VINA RESULT:    -6.088      6.284      7.531
REMARK INTER + INTRA:          -6.622
REMARK INTER:                  -6.622
REMARK INTRA:                   0.000
REMARK UNBOUND:                 0.000
REMARK SMILES Cc1cc(O)c2c(c1)C(=O)c1cc(O)cc(O)c1C2=O
REMARK SMILES IDX 1 1 2 2 8 3 7 4 6 5 4 6 3 7 19 8 20 9 18 10 11 11 9 12 10 13
REMARK SMILES IDX 12 14 13 15 15 16 16 17 5 18 17 20 14 22
REMARK H PARENT 5 19 17 21 14 23
REMARK Flexibility Score: inf
ROOT
ATOM      1  C   UNL     1     -12.551   6.273 -15.225  1.00  0.00     0.044 C 
ATOM      2  C   UNL     1     -12.152   7.536 -14.518  1.00  0.00    -0.047 A 
ATOM      3  C   UNL     1     -10.996   7.568 -13.732  1.00  0.00     0.016 A 
ATOM      4  C   UNL     1     -10.629   8.736 -13.044  1.00  0.00     0.038 A 
ATOM      5  C   UNL     1     -11.434   9.892 -13.144  1.00  0.00     0.076 A 
ATOM      6  C   UNL     1     -12.649   9.828 -13.873  1.00  0.00     0.127 A 
ATOM      7  C   UNL     1     -12.983   8.661 -14.566  1.00  0.00     0.050 A 
ATOM      8  C   UNL     1     -10.939  11.150 -12.525  1.00  0.00     0.201 C 
ATOM      9  O   UNL     1     -11.257  12.262 -13.024  1.00  0.00    -0.288 OA
ATOM     10  C   UNL     1      -9.924  11.088 -11.441  1.00  0.00     0.076 A 
ATOM     11  C   UNL     1      -9.121   9.928 -11.344  1.00  0.00     0.041 A 
ATOM     12  C   UNL     1      -9.406   8.759 -12.208  1.00  0.00     0.194 C 
ATOM     13  O   UNL     1      -8.618   7.772 -12.214  1.00  0.00    -0.289 OA
ATOM     14  C   UNL     1      -8.061   9.889 -10.422  1.00  0.00     0.059 A 
ATOM     15  C   UNL     1      -7.801  10.978  -9.592  1.00  0.00     0.120 A 
ATOM     16  C   UNL     1      -8.616  12.111  -9.657  1.00  0.00     0.093 A 
ATOM     17  C   UNL     1      -9.690  12.169 -10.551  1.00  0.00     0.131 A 
ENDROOT
BRANCH   6  18
ATOM     18  O   UNL     1     -13.566  10.882 -13.905  1.00  0.00    -0.507 OA
ATOM     19  H   UNL     1     -13.487  11.672 -14.530  1.00  0.00     0.293 HD
ENDBRANCH   6  18
BRANCH  17  20
ATOM     20  O   UNL     1     -10.515  13.294 -10.495  1.00  0.00    -0.507 OA
ATOM     21  H   UNL     1     -10.922  13.647  -9.639  1.00  0.00     0.293 HD
ENDBRANCH  17  20
BRANCH  15  22
ATOM     22  O   UNL     1      -6.736  10.921  -8.695  1.00  0.00    -0.508 OA
ATOM     23  H   UNL     1      -6.379  11.754  -8.243  1.00  0.00     0.293 HD
ENDBRANCH  15  22
TORSDOF 3
ENDMDL
MODEL 3
REMARK VINA RESULT:    -6.047     11.789     12.659
REMARK INTER + INTRA:          -6.577
REMARK INTER:                  -6.577
REMARK INTRA:                   0.000
REMARK UNBOUND:                 0.000
REMARK SMILES Cc1cc(O)c2c(c1)C(=O)c1cc(O)cc(O)c1C2=O
REMARK SMILES IDX 1 1 2 2 8 3 7 4 6 5 4 6 3 7 19 8 20 9 18 10 11 11 9 12 10 13
REMARK SMILES IDX 12 14 13 15 15 16 16 17 5 18 17 20 14 22
REMARK H PARENT 5 19 17 21 14 23
REMARK Flexibility Score: inf
ROOT
ATOM      1  C   UNL     1      -6.229   5.018 -12.078  1.00  0.00     0.044 C 
ATOM      2  C   UNL     1      -5.777   6.437 -11.896  1.00  0.00    -0.047 A 
ATOM      3  C   UNL     1      -4.563   6.866 -12.442  1.00  0.00     0.016 A 
ATOM      4  C   UNL     1      -4.118   8.184 -12.253  1.00  0.00     0.038 A 
ATOM      5  C   UNL     1      -4.901   9.090 -11.504  1.00  0.00     0.076 A 
ATOM      6  C   UNL     1      -6.089   8.627 -10.882  1.00  0.00     0.127 A 
ATOM      7  C   UNL     1      -6.522   7.316 -11.101  1.00  0.00     0.050 A 
ATOM      8  C   UNL     1      -4.473  10.513 -11.450  1.00  0.00     0.201 C 
ATOM      9  O   UNL     1      -5.335  11.422 -11.328  1.00  0.00    -0.288 OA
ATOM     10  C   UNL     1      -3.057  10.868 -11.729  1.00  0.00     0.076 A 
ATOM     11  C   UNL     1      -2.276   9.958 -12.477  1.00  0.00     0.041 A 
ATOM     12  C   UNL     1      -2.826   8.628 -12.829  1.00  0.00     0.194 C 
ATOM     13  O   UNL     1      -2.183   7.863 -13.601  1.00  0.00    -0.289 OA
ATOM     14  C   UNL     1      -0.978  10.317 -12.878  1.00  0.00     0.059 A 
ATOM     15  C   UNL     1      -0.447  11.559 -12.532  1.00  0.00     0.120 A 
ATOM     16  C   UNL     1      -1.200  12.446 -11.759  1.00  0.00     0.093 A 
ATOM     17  C   UNL     1      -2.487  12.105 -11.330  1.00  0.00     0.131 A 
ENDROOT
BRANCH   6  18
ATOM     18  O   UNL     1      -6.845   9.419 -10.015  1.00  0.00    -0.507 OA
ATOM     19  H   UNL     1      -7.582   9.057  -9.427  1.00  0.00     0.293 HD
ENDBRANCH   6  18
BRANCH  17  20
ATOM     20  O   UNL     1      -3.144  13.002 -10.485  1.00  0.00    -0.507 OA
ATOM     21  H   UNL     1      -2.822  13.946 -10.314  1.00  0.00     0.293 HD
ENDBRANCH  17  20
BRANCH  15  22
ATOM     22  O   UNL     1       0.838  11.899 -12.952  1.00  0.00    -0.508 OA
ATOM     23  H   UNL     1       1.239  11.512 -13.798  1.00  0.00     0.293 HD
ENDBRANCH  15  22
TORSDOF 3
ENDMDL
MODEL 4
REMARK VINA RESULT:    -6.047     13.546     14.442
REMARK INTER + INTRA:          -6.577
REMARK INTER:                  -6.577
REMARK INTRA:                   0.000
REMARK UNBOUND:                 0.000
REMARK SMILES Cc1cc(O)c2c(c1)C(=O)c1cc(O)cc(O)c1C2=O
REMARK SMILES IDX 1 1 2 2 8 3 7 4 6 5 4 6 3 7 19 8 20 9 18 10 11 11 9 12 10 13
REMARK SMILES IDX 12 14 13 15 15 16 16 17 5 18 17 20 14 22
REMARK H PARENT 5 19 17 21 14 23
REMARK Flexibility Score: inf
ROOT
ATOM      1  C   UNL     1      -1.054   6.165 -15.892  1.00  0.00     0.044 C 
ATOM      2  C   UNL     1      -0.763   7.629 -16.054  1.00  0.00    -0.047 A 
ATOM      3  C   UNL     1      -0.665   8.190 -17.331  1.00  0.00     0.016 A 
ATOM      4  C   UNL     1      -0.366   9.553 -17.494  1.00  0.00     0.038 A 
ATOM      5  C   UNL     1      -0.160  10.368 -16.359  1.00  0.00     0.076 A 
ATOM      6  C   UNL     1      -0.178   9.775 -15.070  1.00  0.00     0.127 A 
ATOM      7  C   UNL     1      -0.498   8.421 -14.932  1.00  0.00     0.050 A 
ATOM      8  C   UNL     1       0.007  11.831 -16.564  1.00  0.00     0.201 C 
ATOM      9  O   UNL     1      -0.371  12.635 -15.672  1.00  0.00    -0.288 OA
ATOM     10  C   UNL     1       0.441  12.345 -17.889  1.00  0.00     0.076 A 
ATOM     11  C   UNL     1       0.236  11.525 -19.022  1.00  0.00     0.041 A 
ATOM     12  C   UNL     1      -0.256  10.138 -18.852  1.00  0.00     0.194 C 
ATOM     13  O   UNL     1      -0.560   9.447 -19.864  1.00  0.00    -0.289 OA
ATOM     14  C   UNL     1       0.506  12.029 -20.306  1.00  0.00     0.059 A 
ATOM     15  C   UNL     1       0.988  13.326 -20.472  1.00  0.00     0.120 A 
ATOM     16  C   UNL     1       1.231  14.127 -19.353  1.00  0.00     0.093 A 
ATOM     17  C   UNL     1       0.990  13.642 -18.063  1.00  0.00     0.131 A 
ENDROOT
BRANCH   6  18
ATOM     18  O   UNL     1       0.151  10.482 -13.910  1.00  0.00    -0.507 OA
ATOM     19  H   UNL     1      -0.505  10.668 -13.165  1.00  0.00     0.293 HD
ENDBRANCH   6  18
BRANCH  17  20
ATOM     20  O   UNL     1       1.341  14.464 -16.990  1.00  0.00    -0.507 OA
ATOM     21  H   UNL     1       2.288  14.563 -16.649  1.00  0.00     0.293 HD
ENDBRANCH  17  20
BRANCH  15  22
ATOM     22  O   UNL     1       1.236  13.809 -21.756  1.00  0.00    -0.508 OA
ATOM     23  H   UNL     1       1.062  14.777 -22.001  1.00  0.00     0.293 HD
ENDBRANCH  15  22
TORSDOF 3
ENDMDL
MODEL 5
REMARK VINA RESULT:    -6.040     11.978     12.811
REMARK INTER + INTRA:          -6.570
REMARK INTER:                  -6.570
REMARK INTRA:                   0.000
REMARK UNBOUND:                 0.000
REMARK SMILES Cc1cc(O)c2c(c1)C(=O)c1cc(O)cc(O)c1C2=O
REMARK SMILES IDX 1 1 2 2 8 3 7 4 6 5 4 6 3 7 19 8 20 9 18 10 11 11 9 12 10 13
REMARK SMILES IDX 12 14 13 15 15 16 16 17 5 18 17 20 14 22
REMARK H PARENT 5 19 17 21 14 23
REMARK Flexibility Score: inf
ROOT
ATOM      1  C   UNL     1      -0.879   8.239 -22.507  1.00  0.00     0.044 C 
ATOM      2  C   UNL     1      -1.143   9.715 -22.427  1.00  0.00    -0.047 A 
ATOM      3  C   UNL     1      -2.126  10.299 -23.232  1.00  0.00     0.016 A 
ATOM      4  C   UNL     1      -2.362  11.683 -23.184  1.00  0.00     0.038 A 
ATOM      5  C   UNL     1      -1.599  12.496 -22.316  1.00  0.00     0.076 A 
ATOM      6  C   UNL     1      -0.548  11.911 -21.566  1.00  0.00     0.127 A 
ATOM      7  C   UNL     1      -0.345  10.528 -21.614  1.00  0.00     0.050 A 
ATOM      8  C   UNL     1      -1.975  13.928 -22.183  1.00  0.00     0.201 C 
ATOM      9  O   UNL     1      -1.767  14.532 -21.098  1.00  0.00    -0.288 OA
ATOM     10  C   UNL     1      -2.761  14.588 -23.258  1.00  0.00     0.076 A 
ATOM     11  C   UNL     1      -3.521  13.770 -24.126  1.00  0.00     0.041 A 
ATOM     12  C   UNL     1      -3.400  12.296 -24.046  1.00  0.00     0.194 C 
ATOM     13  O   UNL     1      -4.167  11.562 -24.729  1.00  0.00    -0.289 OA
ATOM     14  C   UNL     1      -4.383  14.362 -25.065  1.00  0.00     0.059 A 
ATOM     15  C   UNL     1      -4.485  15.749 -25.160  1.00  0.00     0.120 A 
ATOM     16  C   UNL     1      -3.706  16.561 -24.332  1.00  0.00     0.093 A 
ATOM     17  C   UNL     1      -2.825  15.998 -23.402  1.00  0.00     0.131 A 
ENDROOT
BRANCH   6  18
ATOM     18  O   UNL     1       0.338  12.665 -20.792  1.00  0.00    -0.507 OA
ATOM     19  H   UNL     1       0.820  12.302 -19.982  1.00  0.00     0.293 HD
ENDBRANCH   6  18
BRANCH  17  20
ATOM     20  O   UNL     1      -2.013  16.871 -22.674  1.00  0.00    -0.507 OA
ATOM     21  H   UNL     1      -1.703  16.688 -21.729  1.00  0.00     0.293 HD
ENDBRANCH  17  20
BRANCH  15  22
ATOM     22  O   UNL     1      -5.356  16.312 -26.090  1.00  0.00    -0.508 OA
ATOM     23  H   UNL     1      -5.150  16.304 -27.082  1.00  0.00     0.293 HD
ENDBRANCH  15  22
TORSDOF 3
ENDMDL
MODEL 6
REMARK VINA RESULT:    -5.994     12.104     13.258
REMARK INTER + INTRA:          -6.520
REMARK INTER:                  -6.520
REMARK INTRA:                   0.000
REMARK UNBOUND:                 0.000
REMARK SMILES Cc1cc(O)c2c(c1)C(=O)c1cc(O)cc(O)c1C2=O
REMARK SMILES IDX 1 1 2 2 8 3 7 4 6 5 4 6 3 7 19 8 20 9 18 10 11 11 9 12 10 13
REMARK SMILES IDX 12 14 13 15 15 16 16 17 5 18 17 20 14 22
REMARK H PARENT 5 19 17 21 14 23
REMARK Flexibility Score: inf
ROOT
ATOM      1  C   UNL     1      -5.138   9.732 -25.899  1.00  0.00     0.044 C 
ATOM      2  C   UNL     1      -4.139  10.527 -25.109  1.00  0.00    -0.047 A 
ATOM      3  C   UNL     1      -3.254   9.881 -24.240  1.00  0.00     0.016 A 
ATOM      4  C   UNL     1      -2.333  10.618 -23.477  1.00  0.00     0.038 A 
ATOM      5  C   UNL     1      -2.299  12.026 -23.585  1.00  0.00     0.076 A 
ATOM      6  C   UNL     1      -3.254  12.680 -24.404  1.00  0.00     0.127 A 
ATOM      7  C   UNL     1      -4.147  11.925 -25.170  1.00  0.00     0.050 A 
ATOM      8  C   UNL     1      -1.217  12.759 -22.877  1.00  0.00     0.201 C 
ATOM      9  O   UNL     1      -0.781  13.842 -23.349  1.00  0.00    -0.288 OA
ATOM     10  C   UNL     1      -0.526  12.123 -21.725  1.00  0.00     0.076 A 
ATOM     11  C   UNL     1      -0.565  10.714 -21.619  1.00  0.00     0.041 A 
ATOM     12  C   UNL     1      -1.405   9.926 -22.552  1.00  0.00     0.194 C 
ATOM     13  O   UNL     1      -1.346   8.665 -22.543  1.00  0.00    -0.289 OA
ATOM     14  C   UNL     1       0.188  10.067 -20.625  1.00  0.00     0.059 A 
ATOM     15  C   UNL     1       0.964  10.804 -19.731  1.00  0.00     0.120 A 
ATOM     16  C   UNL     1       0.975  12.199 -19.806  1.00  0.00     0.093 A 
ATOM     17  C   UNL     1       0.218  12.868 -20.774  1.00  0.00     0.131 A 
ENDROOT
BRANCH   6  18
ATOM     18  O   UNL     1      -3.375  14.071 -24.458  1.00  0.00    -0.507 OA
ATOM     19  H   UNL     1      -2.845  14.654 -25.090  1.00  0.00     0.293 HD
ENDBRANCH   6  18
BRANCH  17  20
ATOM     20  O   UNL     1       0.206  14.264 -20.730  1.00  0.00    -0.507 OA
ATOM     21  H   UNL     1       0.330  14.850 -21.545  1.00  0.00     0.293 HD
ENDBRANCH  17  20
BRANCH  15  22
ATOM     22  O   UNL     1       1.713  10.140 -18.761  1.00  0.00    -0.508 OA
ATOM     23  H   UNL     1       1.275   9.711 -17.955  1.00  0.00     0.293 HD
ENDBRANCH  15  22
TORSDOF 3
ENDMDL
MODEL 7
REMARK VINA RESULT:    -5.926     11.043     11.796
REMARK INTER + INTRA:          -6.446
REMARK INTER:                  -6.446
REMARK INTRA:                   0.000
REMARK UNBOUND:                 0.000
REMARK SMILES Cc1cc(O)c2c(c1)C(=O)c1cc(O)cc(O)c1C2=O
REMARK SMILES IDX 1 1 2 2 8 3 7 4 6 5 4 6 3 7 19 8 20 9 18 10 11 11 9 12 10 13
REMARK SMILES IDX 12 14 13 15 15 16 16 17 5 18 17 20 14 22
REMARK H PARENT 5 19 17 21 14 23
REMARK Flexibility Score: inf
ROOT
ATOM      1  C   UNL     1      -0.750   6.723 -13.803  1.00  0.00     0.044 C 
ATOM      2  C   UNL     1      -1.712   7.558 -13.010  1.00  0.00    -0.047 A 
ATOM      3  C   UNL     1      -3.005   7.090 -12.752  1.00  0.00     0.016 A 
ATOM      4  C   UNL     1      -3.921   7.875 -12.034  1.00  0.00     0.038 A 
ATOM      5  C   UNL     1      -3.538   9.152 -11.566  1.00  0.00     0.076 A 
ATOM      6  C   UNL     1      -2.256   9.656 -11.904  1.00  0.00     0.127 A 
ATOM      7  C   UNL     1      -1.353   8.848 -12.601  1.00  0.00     0.050 A 
ATOM      8  C   UNL     1      -4.481   9.891 -10.686  1.00  0.00     0.201 C 
ATOM      9  O   UNL     1      -4.035  10.685  -9.816  1.00  0.00    -0.288 OA
ATOM     10  C   UNL     1      -5.928   9.552 -10.705  1.00  0.00     0.076 A 
ATOM     11  C   UNL     1      -6.307   8.274 -11.176  1.00  0.00     0.041 A 
ATOM     12  C   UNL     1      -5.292   7.374 -11.771  1.00  0.00     0.194 C 
ATOM     13  O   UNL     1      -5.600   6.189 -12.077  1.00  0.00    -0.289 OA
ATOM     14  C   UNL     1      -7.649   7.865 -11.082  1.00  0.00     0.059 A 
ATOM     15  C   UNL     1      -8.613   8.715 -10.542  1.00  0.00     0.120 A 
ATOM     16  C   UNL     1      -8.250   9.994 -10.112  1.00  0.00     0.093 A 
ATOM     17  C   UNL     1      -6.926  10.432 -10.213  1.00  0.00     0.131 A 
ENDROOT
BRANCH   6  18
ATOM     18  O   UNL     1      -1.853  10.958 -11.599  1.00  0.00    -0.507 OA
ATOM     19  H   UNL     1      -2.141  11.452 -10.767  1.00  0.00     0.293 HD
ENDBRANCH   6  18
BRANCH  17  20
ATOM     20  O   UNL     1      -6.655  11.754  -9.849  1.00  0.00    -0.507 OA
ATOM     21  H   UNL     1      -6.368  12.467 -10.506  1.00  0.00     0.293 HD
ENDBRANCH  17  20
BRANCH  15  22
ATOM     22  O   UNL     1      -9.935   8.283 -10.447  1.00  0.00    -0.508 OA
ATOM     23  H   UNL     1     -10.388   7.793 -11.209  1.00  0.00     0.293 HD
ENDBRANCH  15  22
TORSDOF 3
ENDMDL
MODEL 8
REMARK VINA RESULT:    -5.918      2.213      5.456
REMARK INTER + INTRA:          -6.437
REMARK INTER:                  -6.437
REMARK INTRA:                   0.000
REMARK UNBOUND:                 0.000
REMARK SMILES Cc1cc(O)c2c(c1)C(=O)c1cc(O)cc(O)c1C2=O
REMARK SMILES IDX 1 1 2 2 8 3 7 4 6 5 4 6 3 7 19 8 20 9 18 10 11 11 9 12 10 13
REMARK SMILES IDX 12 14 13 15 15 16 16 17 5 18 17 20 14 22
REMARK H PARENT 5 19 17 21 14 23
REMARK Flexibility Score: inf
ROOT
ATOM      1  C   UNL     1     -13.788   7.618 -15.425  1.00  0.00     0.044 C 
ATOM      2  C   UNL     1     -13.771   8.806 -16.342  1.00  0.00    -0.047 A 
ATOM      3  C   UNL     1     -13.392   8.657 -17.680  1.00  0.00     0.016 A 
ATOM      4  C   UNL     1     -13.346   9.768 -18.539  1.00  0.00     0.038 A 
ATOM      5  C   UNL     1     -13.685  11.049 -18.051  1.00  0.00     0.076 A 
ATOM      6  C   UNL     1     -13.987  11.206 -16.674  1.00  0.00     0.127 A 
ATOM      7  C   UNL     1     -14.046  10.084 -15.842  1.00  0.00     0.050 A 
ATOM      8  C   UNL     1     -13.768  12.172 -19.021  1.00  0.00     0.201 C 
ATOM      9  O   UNL     1     -14.568  13.122 -18.812  1.00  0.00    -0.288 OA
ATOM     10  C   UNL     1     -13.053  12.079 -20.320  1.00  0.00     0.076 A 
ATOM     11  C   UNL     1     -12.714  10.795 -20.804  1.00  0.00     0.041 A 
ATOM     12  C   UNL     1     -12.935   9.602 -19.954  1.00  0.00     0.194 C 
ATOM     13  O   UNL     1     -12.752   8.446 -20.427  1.00  0.00    -0.289 OA
ATOM     14  C   UNL     1     -12.161  10.657 -22.089  1.00  0.00     0.059 A 
ATOM     15  C   UNL     1     -11.931  11.777 -22.887  1.00  0.00     0.120 A 
ATOM     16  C   UNL     1     -12.228  13.052 -22.397  1.00  0.00     0.093 A 
ATOM     17  C   UNL     1     -12.760  13.218 -21.114  1.00  0.00     0.131 A 
ENDROOT
BRANCH   6  18
ATOM     18  O   UNL     1     -14.197  12.456 -16.086  1.00  0.00    -0.507 OA
ATOM     19  H   UNL     1     -15.113  12.835 -15.892  1.00  0.00     0.293 HD
ENDBRANCH   6  18
BRANCH  17  20
ATOM     20  O   UNL     1     -12.945  14.526 -20.658  1.00  0.00    -0.507 OA
ATOM     21  H   UNL     1     -12.201  15.096 -20.280  1.00  0.00     0.293 HD
ENDBRANCH  17  20
BRANCH  15  22
ATOM     22  O   UNL     1     -11.394  11.615 -24.162  1.00  0.00    -0.508 OA
ATOM     23  H   UNL     1     -10.524  11.118 -24.312  1.00  0.00     0.293 HD
ENDBRANCH  15  22
TORSDOF 3
ENDMDL
MODEL 9
REMARK VINA RESULT:    -5.905     10.849     12.204
REMARK INTER + INTRA:          -6.423
REMARK INTER:                  -6.423
REMARK INTRA:                   0.000
REMARK UNBOUND:                 0.000
REMARK SMILES Cc1cc(O)c2c(c1)C(=O)c1cc(O)cc(O)c1C2=O
REMARK SMILES IDX 1 1 2 2 8 3 7 4 6 5 4 6 3 7 19 8 20 9 18 10 11 11 9 12 10 13
REMARK SMILES IDX 12 14 13 15 15 16 16 17 5 18 17 20 14 22
REMARK H PARENT 5 19 17 21 14 23
REMARK Flexibility Score: inf
ROOT
ATOM      1  C   UNL     1     -10.026   8.294 -10.151  1.00  0.00     0.044 C 
ATOM      2  C   UNL     1      -8.700   8.936 -10.435  1.00  0.00    -0.047 A 
ATOM      3  C   UNL     1      -7.661   8.188 -10.997  1.00  0.00     0.016 A 
ATOM      4  C   UNL     1      -6.407   8.772 -11.242  1.00  0.00     0.038 A 
ATOM      5  C   UNL     1      -6.190  10.130 -10.918  1.00  0.00     0.076 A 
ATOM      6  C   UNL     1      -7.219  10.860 -10.271  1.00  0.00     0.127 A 
ATOM      7  C   UNL     1      -8.466  10.263 -10.057  1.00  0.00     0.050 A 
ATOM      8  C   UNL     1      -4.903  10.753 -11.326  1.00  0.00     0.201 C 
ATOM      9  O   UNL     1      -4.860  11.983 -11.596  1.00  0.00    -0.288 OA
ATOM     10  C   UNL     1      -3.721   9.895 -11.597  1.00  0.00     0.076 A 
ATOM     11  C   UNL     1      -3.943   8.536 -11.919  1.00  0.00     0.041 A 
ATOM     12  C   UNL     1      -5.309   7.970 -11.831  1.00  0.00     0.194 C 
ATOM     13  O   UNL     1      -5.533   6.795 -12.236  1.00  0.00    -0.289 OA
ATOM     14  C   UNL     1      -2.864   7.727 -12.314  1.00  0.00     0.059 A 
ATOM     15  C   UNL     1      -1.572   8.249 -12.379  1.00  0.00     0.120 A 
ATOM     16  C   UNL     1      -1.342   9.580 -12.024  1.00  0.00     0.093 A 
ATOM     17  C   UNL     1      -2.395  10.401 -11.607  1.00  0.00     0.131 A 
ENDROOT
BRANCH   6  18
ATOM     18  O   UNL     1      -7.038  12.161  -9.795  1.00  0.00    -0.507 OA
ATOM     19  H   UNL     1      -6.534  12.876 -10.301  1.00  0.00     0.293 HD
ENDBRANCH   6  18
BRANCH  17  20
ATOM     20  O   UNL     1      -2.076  11.692 -11.180  1.00  0.00    -0.507 OA
ATOM     21  H   UNL     1      -2.737  12.457 -11.171  1.00  0.00     0.293 HD
ENDBRANCH  17  20
BRANCH  15  22
ATOM     22  O   UNL     1      -0.520   7.431 -12.786  1.00  0.00    -0.508 OA
ATOM     23  H   UNL     1       0.031   7.646 -13.609  1.00  0.00     0.293 HD
ENDBRANCH  15  22
TORSDOF 3
ENDMDL
