MODEL 1
REMARK VINA RESULT:     1.447      0.000      0.000
REMARK INTER + INTRA:           3.447
REMARK INTER:                   2.504
REMARK INTRA:                   0.943
REMARK UNBOUND:                 0.943
REMARK SMILES OC[C@H]1O[C@@H](O[C@H]2[C@@H](O)[C@@H](O)[C@@H](O[C@H]3[C@@H](O)[C@@H](O)[C@H](O)O[C@@H]3CO)O[C@@H]2CO)[C@H](O)[C@@H](O)[C@@H]1O
REMARK SMILES IDX 7 1 26 2 25 3 12 4 10 5 8 6 6 7 5 8 3 9 33 10 4 11 31 12
REMARK SMILES IDX 29 13 2 14 1 15 34 17 32 19 30 21 27 23 28 24 9 26 11 28
REMARK SMILES IDX 13 30 14 31 22 32 15 33 21 34 17 35 19 36 23 37 24 38 16 40
REMARK SMILES IDX 18 42 20 44
REMARK H PARENT 1 16 34 18 32 20 30 22 28 25 9 27 11 29 24 39 16 41 18 43
REMARK H PARENT 20 45
REMARK Flexibility Score: inf
ROOT
ATOM      1  C   UNL     1       7.888  -6.407   3.849  1.00  0.00     0.184 C 
ATOM      2  C   UNL     1       8.351  -6.396   5.335  1.00  0.00     0.178 C 
ATOM      3  O   UNL     1       9.649  -5.843   5.539  1.00  0.00    -0.341 OA
ATOM      4  C   UNL     1      10.570  -6.228   4.537  1.00  0.00     0.282 C 
ATOM      5  C   UNL     1      10.192  -5.576   3.177  1.00  0.00     0.202 C 
ATOM      6  C   UNL     1       8.665  -5.336   3.056  1.00  0.00     0.180 C 
ENDROOT
BRANCH   1   7
ATOM      7  O   UNL     1       6.495  -6.145   3.823  1.00  0.00    -0.341 OA
BRANCH   7   8
ATOM      8  C   UNL     1       6.177  -4.763   3.932  1.00  0.00     0.282 C 
ATOM      9  C   UNL     1       4.539  -5.108   5.645  1.00  0.00     0.178 C 
ATOM     10  C   UNL     1       3.362  -4.877   4.653  1.00  0.00     0.177 C 
ATOM     11  O   UNL     1       5.746  -4.460   5.254  1.00  0.00    -0.341 OA
ATOM     12  C   UNL     1       3.772  -5.055   3.178  1.00  0.00     0.179 C 
ATOM     13  C   UNL     1       5.122  -4.373   2.885  1.00  0.00     0.202 C 
BRANCH   9  14
ATOM     14  C   UNL     1       4.755  -6.596   6.019  1.00  0.00     0.191 C 
BRANCH  14  15
ATOM     15  O   UNL     1       5.294  -6.714   7.311  1.00  0.00    -0.394 OA
ATOM     16  H   UNL     1       4.707  -6.190   7.915  1.00  0.00     0.210 HD
ENDBRANCH  14  15
ENDBRANCH   9  14
BRANCH  10  17
ATOM     17  O   UNL     1       2.775  -3.611   4.852  1.00  0.00    -0.387 OA
ATOM     18  H   UNL     1       3.485  -2.922   4.778  1.00  0.00     0.211 HD
ENDBRANCH  10  17
BRANCH  12  19
ATOM     19  O   UNL     1       3.855  -6.426   2.875  1.00  0.00    -0.387 OA
ATOM     20  H   UNL     1       4.807  -6.628   2.691  1.00  0.00     0.211 HD
ENDBRANCH  12  19
BRANCH  13  21
ATOM     21  O   UNL     1       4.974  -2.975   2.876  1.00  0.00    -0.385 OA
ATOM     22  H   UNL     1       5.098  -2.676   1.938  1.00  0.00     0.211 HD
ENDBRANCH  13  21
ENDBRANCH   7   8
ENDBRANCH   1   7
BRANCH   2  23
ATOM     23  C   UNL     1       8.224  -7.780   5.997  1.00  0.00     0.191 C 
BRANCH  23  24
ATOM     24  O   UNL     1       6.940  -8.298   5.780  1.00  0.00    -0.394 OA
ATOM     25  H   UNL     1       6.304  -7.625   6.142  1.00  0.00     0.210 HD
ENDBRANCH  23  24
ENDBRANCH   2  23
BRANCH   6  26
ATOM     26  O   UNL     1       8.280  -4.045   3.472  1.00  0.00    -0.387 OA
ATOM     27  H   UNL     1       8.093  -4.062   4.445  1.00  0.00     0.211 HD
ENDBRANCH   6  26
BRANCH   5  28
ATOM     28  O   UNL     1      10.873  -4.360   2.987  1.00  0.00    -0.385 OA
ATOM     29  H   UNL     1      10.323  -3.813   2.368  1.00  0.00     0.211 HD
ENDBRANCH   5  28
BRANCH   4  30
ATOM     30  O   UNL     1      11.891  -5.831   4.879  1.00  0.00    -0.341 OA
BRANCH  30  31
ATOM     31  C   UNL     1      12.928  -6.207   3.971  1.00  0.00     0.184 C 
ATOM     32  C   UNL     1      13.362  -7.696   3.984  1.00  0.00     0.178 C 
ATOM     33  C   UNL     1      14.149  -5.230   3.971  1.00  0.00     0.180 C 
ATOM     34  O   UNL     1      14.484  -7.839   3.134  1.00  0.00    -0.342 OA
ATOM     35  C   UNL     1      15.507  -5.892   4.330  1.00  0.00     0.201 C 
ATOM     36  C   UNL     1      15.654  -7.346   3.774  1.00  0.00     0.279 C 
BRANCH  32  37
ATOM     37  C   UNL     1      12.240  -8.630   3.502  1.00  0.00     0.191 C 
BRANCH  37  38
ATOM     38  O   UNL     1      12.759  -9.813   2.954  1.00  0.00    -0.394 OA
ATOM     39  H   UNL     1      12.447 -10.557   3.533  1.00  0.00     0.210 HD
ENDBRANCH  37  38
ENDBRANCH  32  37
BRANCH  33  40
ATOM     40  O   UNL     1      13.916  -4.111   4.790  1.00  0.00    -0.387 OA
ATOM     41  H   UNL     1      14.177  -3.313   4.259  1.00  0.00     0.211 HD
ENDBRANCH  33  40
BRANCH  35  42
ATOM     42  O   UNL     1      15.709  -5.911   5.721  1.00  0.00    -0.385 OA
ATOM     43  H   UNL     1      14.992  -6.473   6.116  1.00  0.00     0.211 HD
ENDBRANCH  35  42
BRANCH  36  44
ATOM     44  O   UNL     1      16.730  -7.414   2.875  1.00  0.00    -0.366 OA
ATOM     45  H   UNL     1      16.635  -8.266   2.377  1.00  0.00     0.213 HD
ENDBRANCH  36  44
ENDBRANCH  30  31
ENDBRANCH   4  30
TORSDOF 18
ENDMDL
MODEL 2
REMARK VINA RESULT:     3.529      1.521      2.540
REMARK INTER + INTRA:           7.052
REMARK INTER:                   8.320
REMARK INTRA:                  -1.268
REMARK UNBOUND:                 0.943
REMARK SMILES OC[C@H]1O[C@@H](O[C@H]2[C@@H](O)[C@@H](O)[C@@H](O[C@H]3[C@@H](O)[C@@H](O)[C@H](O)O[C@@H]3CO)O[C@@H]2CO)[C@H](O)[C@@H](O)[C@@H]1O
REMARK SMILES IDX 7 1 26 2 25 3 12 4 10 5 8 6 6 7 5 8 3 9 33 10 4 11 31 12
REMARK SMILES IDX 29 13 2 14 1 15 34 17 32 19 30 21 27 23 28 24 9 26 11 28
REMARK SMILES IDX 13 30 14 31 22 32 15 33 21 34 17 35 19 36 23 37 24 38 16 40
REMARK SMILES IDX 18 42 20 44
REMARK H PARENT 1 16 34 18 32 20 30 22 28 25 9 27 11 29 24 39 16 41 18 43
REMARK H PARENT 20 45
REMARK Flexibility Score: inf
ROOT
ATOM      1  C   UNL     1       8.948  -5.943   5.102  1.00  0.00     0.184 C 
ATOM      2  C   UNL     1       9.865  -6.372   3.919  1.00  0.00     0.178 C 
ATOM      3  O   UNL     1      11.126  -6.902   4.320  1.00  0.00    -0.341 OA
ATOM      4  C   UNL     1      11.695  -6.197   5.405  1.00  0.00     0.282 C 
ATOM      5  C   UNL     1      10.862  -6.433   6.697  1.00  0.00     0.202 C 
ATOM      6  C   UNL     1       9.367  -6.694   6.381  1.00  0.00     0.180 C 
ENDROOT
BRANCH   1   7
ATOM      7  O   UNL     1       7.609  -6.247   4.750  1.00  0.00    -0.341 OA
BRANCH   7   8
ATOM      8  C   UNL     1       6.764  -5.105   4.700  1.00  0.00     0.282 C 
ATOM      9  C   UNL     1       4.893  -6.245   5.667  1.00  0.00     0.178 C 
ATOM     10  C   UNL     1       4.160  -6.335   4.297  1.00  0.00     0.177 C 
ATOM     11  O   UNL     1       5.807  -5.153   5.751  1.00  0.00    -0.341 OA
ATOM     12  C   UNL     1       5.106  -6.159   3.094  1.00  0.00     0.179 C 
ATOM     13  C   UNL     1       6.092  -4.998   3.321  1.00  0.00     0.202 C 
BRANCH   9  14
ATOM     14  C   UNL     1       5.520  -7.584   6.128  1.00  0.00     0.191 C 
BRANCH  14  15
ATOM     15  O   UNL     1       4.545  -8.593   6.204  1.00  0.00    -0.394 OA
ATOM     16  H   UNL     1       5.028  -9.447   6.351  1.00  0.00     0.210 HD
ENDBRANCH  14  15
ENDBRANCH   9  14
BRANCH  10  17
ATOM     17  O   UNL     1       3.099  -5.410   4.229  1.00  0.00    -0.387 OA
ATOM     18  H   UNL     1       2.469  -5.603   4.972  1.00  0.00     0.211 HD
ENDBRANCH  10  17
BRANCH  12  19
ATOM     19  O   UNL     1       5.817  -7.353   2.875  1.00  0.00    -0.387 OA
ATOM     20  H   UNL     1       5.377  -8.058   3.414  1.00  0.00     0.211 HD
ENDBRANCH  12  19
BRANCH  13  21
ATOM     21  O   UNL     1       5.427  -3.763   3.226  1.00  0.00    -0.385 OA
ATOM     22  H   UNL     1       6.124  -3.065   3.116  1.00  0.00     0.211 HD
ENDBRANCH  13  21
ENDBRANCH   7   8
ENDBRANCH   1   7
BRANCH   2  23
ATOM     23  C   UNL     1      10.035  -5.253   2.875  1.00  0.00     0.191 C 
BRANCH  23  24
ATOM     24  O   UNL     1      11.343  -4.751   2.922  1.00  0.00    -0.394 OA
ATOM     25  H   UNL     1      11.730  -4.900   2.019  1.00  0.00     0.210 HD
ENDBRANCH  23  24
ENDBRANCH   2  23
BRANCH   6  26
ATOM     26  O   UNL     1       9.066  -8.066   6.263  1.00  0.00    -0.387 OA
ATOM     27  H   UNL     1       8.115  -8.167   6.003  1.00  0.00     0.211 HD
ENDBRANCH   6  26
BRANCH   5  28
ATOM     28  O   UNL     1      11.377  -7.506   7.447  1.00  0.00    -0.385 OA
ATOM     29  H   UNL     1      12.280  -7.705   7.085  1.00  0.00     0.211 HD
ENDBRANCH   5  28
BRANCH   4  30
ATOM     30  O   UNL     1      13.031  -6.617   5.643  1.00  0.00    -0.341 OA
BRANCH  30  31
ATOM     31  C   UNL     1      14.030  -6.109   4.756  1.00  0.00     0.184 C 
ATOM     32  C   UNL     1      14.788  -7.148   3.890  1.00  0.00     0.178 C 
ATOM     33  C   UNL     1      14.992  -5.071   5.420  1.00  0.00     0.180 C 
ATOM     34  O   UNL     1      15.822  -6.477   3.195  1.00  0.00    -0.342 OA
ATOM     35  C   UNL     1      16.493  -5.465   5.385  1.00  0.00     0.201 C 
ATOM     36  C   UNL     1      16.909  -6.205   4.071  1.00  0.00     0.279 C 
BRANCH  32  37
ATOM     37  C   UNL     1      13.864  -7.841   2.875  1.00  0.00     0.191 C 
BRANCH  37  38
ATOM     38  O   UNL     1      13.253  -8.976   3.431  1.00  0.00    -0.394 OA
ATOM     39  H   UNL     1      13.650  -9.101   4.332  1.00  0.00     0.210 HD
ENDBRANCH  37  38
ENDBRANCH  32  37
BRANCH  33  40
ATOM     40  O   UNL     1      14.595  -4.766   6.734  1.00  0.00    -0.387 OA
ATOM     41  H   UNL     1      14.218  -5.602   7.118  1.00  0.00     0.211 HD
ENDBRANCH  33  40
BRANCH  35  42
ATOM     42  O   UNL     1      16.833  -6.267   6.489  1.00  0.00    -0.385 OA
ATOM     43  H   UNL     1      16.069  -6.237   7.122  1.00  0.00     0.211 HD
ENDBRANCH  35  42
BRANCH  36  44
ATOM     44  O   UNL     1      17.876  -5.458   3.381  1.00  0.00    -0.366 OA
ATOM     45  H   UNL     1      18.511  -6.107   2.984  1.00  0.00     0.213 HD
ENDBRANCH  36  44
ENDBRANCH  30  31
ENDBRANCH   4  30
TORSDOF 18
ENDMDL
MODEL 3
REMARK VINA RESULT:     3.777      1.814      3.914
REMARK INTER + INTRA:           7.481
REMARK INTER:                   7.815
REMARK INTRA:                  -0.335
REMARK UNBOUND:                 0.943
REMARK SMILES OC[C@H]1O[C@@H](O[C@H]2[C@@H](O)[C@@H](O)[C@@H](O[C@H]3[C@@H](O)[C@@H](O)[C@H](O)O[C@@H]3CO)O[C@@H]2CO)[C@H](O)[C@@H](O)[C@@H]1O
REMARK SMILES IDX 7 1 26 2 25 3 12 4 10 5 8 6 6 7 5 8 3 9 33 10 4 11 31 12
REMARK SMILES IDX 29 13 2 14 1 15 34 17 32 19 30 21 27 23 28 24 9 26 11 28
REMARK SMILES IDX 13 30 14 31 22 32 15 33 21 34 17 35 19 36 23 37 24 38 16 40
REMARK SMILES IDX 18 42 20 44
REMARK H PARENT 1 16 34 18 32 20 30 22 28 25 9 27 11 29 24 39 16 41 18 43
REMARK H PARENT 20 45
REMARK Flexibility Score: inf
ROOT
ATOM      1  C   UNL     1      10.965  -7.297   4.428  1.00  0.00     0.184 C 
ATOM      2  C   UNL     1      11.600  -6.269   3.446  1.00  0.00     0.178 C 
ATOM      3  O   UNL     1      12.835  -6.693   2.875  1.00  0.00    -0.341 OA
ATOM      4  C   UNL     1      13.669  -7.355   3.806  1.00  0.00     0.282 C 
ATOM      5  C   UNL     1      13.051  -8.727   4.202  1.00  0.00     0.202 C 
ATOM      6  C   UNL     1      11.503  -8.708   4.120  1.00  0.00     0.180 C 
ENDROOT
BRANCH   1   7
ATOM      7  O   UNL     1       9.557  -7.244   4.266  1.00  0.00    -0.341 OA
BRANCH   7   8
ATOM      8  C   UNL     1       9.040  -5.920   4.243  1.00  0.00     0.282 C 
ATOM      9  C   UNL     1       7.175  -6.449   5.650  1.00  0.00     0.178 C 
ATOM     10  C   UNL     1       6.183  -6.415   4.451  1.00  0.00     0.177 C 
ATOM     11  O   UNL     1       8.335  -5.645   5.448  1.00  0.00    -0.341 OA
ATOM     12  C   UNL     1       6.878  -6.573   3.086  1.00  0.00     0.179 C 
ATOM     13  C   UNL     1       8.154  -5.713   3.004  1.00  0.00     0.202 C 
BRANCH   9  14
ATOM     14  C   UNL     1       7.519  -7.880   6.134  1.00  0.00     0.191 C 
BRANCH  14  15
ATOM     15  O   UNL     1       6.424  -8.744   5.959  1.00  0.00    -0.394 OA
ATOM     16  H   UNL     1       6.654  -9.347   5.205  1.00  0.00     0.210 HD
ENDBRANCH  14  15
ENDBRANCH   9  14
BRANCH  10  17
ATOM     17  O   UNL     1       5.402  -5.242   4.475  1.00  0.00    -0.387 OA
ATOM     18  H   UNL     1       5.271  -4.937   3.540  1.00  0.00     0.211 HD
ENDBRANCH  10  17
BRANCH  12  19
ATOM     19  O   UNL     1       7.201  -7.926   2.875  1.00  0.00    -0.387 OA
ATOM     20  H   UNL     1       6.403  -8.458   3.122  1.00  0.00     0.211 HD
ENDBRANCH  12  19
BRANCH  13  21
ATOM     21  O   UNL     1       7.822  -4.352   2.895  1.00  0.00    -0.385 OA
ATOM     22  H   UNL     1       8.594  -3.897   2.468  1.00  0.00     0.211 HD
ENDBRANCH  13  21
ENDBRANCH   7   8
ENDBRANCH   1   7
BRANCH   2  23
ATOM     23  C   UNL     1      11.724  -4.866   4.068  1.00  0.00     0.191 C 
BRANCH  23  24
ATOM     24  O   UNL     1      12.603  -4.082   3.308  1.00  0.00    -0.394 OA
ATOM     25  H   UNL     1      12.936  -4.668   2.577  1.00  0.00     0.210 HD
ENDBRANCH  23  24
ENDBRANCH   2  23
BRANCH   6  26
ATOM     26  O   UNL     1      11.016  -9.156   2.875  1.00  0.00    -0.387 OA
ATOM     27  H   UNL     1      10.486  -8.432   2.457  1.00  0.00     0.211 HD
ENDBRANCH   6  26
BRANCH   5  28
ATOM     28  O   UNL     1      13.551  -9.763   3.393  1.00  0.00    -0.385 OA
ATOM     29  H   UNL     1      14.103  -9.338   2.686  1.00  0.00     0.211 HD
ENDBRANCH   5  28
BRANCH   4  30
ATOM     30  O   UNL     1      14.962  -7.579   3.264  1.00  0.00    -0.341 OA
BRANCH  30  31
ATOM     31  C   UNL     1      16.063  -7.016   3.979  1.00  0.00     0.184 C 
ATOM     32  C   UNL     1      16.483  -7.728   5.291  1.00  0.00     0.178 C 
ATOM     33  C   UNL     1      15.978  -5.463   4.145  1.00  0.00     0.180 C 
ATOM     34  O   UNL     1      17.481  -6.948   5.920  1.00  0.00    -0.342 OA
ATOM     35  C   UNL     1      15.978  -4.969   5.617  1.00  0.00     0.201 C 
ATOM     36  C   UNL     1      16.897  -5.818   6.555  1.00  0.00     0.279 C 
BRANCH  32  37
ATOM     37  C   UNL     1      17.033  -9.141   5.032  1.00  0.00     0.191 C 
BRANCH  37  38
ATOM     38  O   UNL     1      16.894  -9.959   6.163  1.00  0.00    -0.394 OA
ATOM     39  H   UNL     1      17.545  -9.629   6.837  1.00  0.00     0.210 HD
ENDBRANCH  37  38
ENDBRANCH  32  37
BRANCH  33  40
ATOM     40  O   UNL     1      14.880  -4.929   3.447  1.00  0.00    -0.387 OA
ATOM     41  H   UNL     1      14.582  -4.130   3.958  1.00  0.00     0.211 HD
ENDBRANCH  33  40
BRANCH  35  42
ATOM     42  O   UNL     1      14.676  -4.951   6.145  1.00  0.00    -0.385 OA
ATOM     43  H   UNL     1      14.609  -5.702   6.791  1.00  0.00     0.211 HD
ENDBRANCH  35  42
BRANCH  36  44
ATOM     44  O   UNL     1      17.917  -5.015   7.089  1.00  0.00    -0.366 OA
ATOM     45  H   UNL     1      18.751  -5.253   6.609  1.00  0.00     0.213 HD
ENDBRANCH  36  44
ENDBRANCH  30  31
ENDBRANCH   4  30
TORSDOF 18
ENDMDL
