MODEL 1
REMARK VINA RESULT:    -6.034      0.000      0.000
REMARK INTER + INTRA:          -9.311
REMARK INTER:                  -8.503
REMARK INTRA:                  -0.808
REMARK UNBOUND:                -0.808
REMARK SMILES COc1c(O[C@@H]2O[C@H](C(=O)[O-])[C@@H](O)[C@H](O)[C@H]2O)cc(O)c2c(=O)cc(-c3ccccc3)oc12
REMARK SMILES IDX 5 1 6 2 8 3 12 4 7 5 14 6 16 7 9 8 10 9 11 10 13 11 15 13
REMARK SMILES IDX 17 15 4 17 3 18 18 19 33 20 19 21 21 22 32 23 22 24 25 25
REMARK SMILES IDX 24 26 23 27 2 28 1 29 20 30 26 32 27 33 31 34 28 35 30 36
REMARK SMILES IDX 29 37
REMARK H PARENT 13 12 15 14 17 16 20 31
REMARK Flexibility Score: inf
ROOT
ATOM      1  O   UNL     1       5.339  -5.990  25.916  1.00  0.00    -0.458 OA
ENDROOT
BRANCH   1   2
ATOM      2  C   UNL     1       4.785  -4.816  26.517  1.00  0.00     0.339 C 
ATOM      3  C   UNL     1       2.845  -3.534  26.592  1.00  0.00     0.199 C 
ATOM      4  C   UNL     1       3.677  -2.219  26.737  1.00  0.00     0.180 C 
ATOM      5  O   UNL     1       3.553  -4.537  25.879  1.00  0.00    -0.328 OA
ATOM      6  C   UNL     1       5.036  -2.317  26.002  1.00  0.00     0.181 C 
ATOM      7  C   UNL     1       5.773  -3.641  26.322  1.00  0.00     0.214 C 
BRANCH   3   8
ATOM      8  C   UNL     1       1.552  -3.266  25.878  1.00  0.00     0.073 C 
ATOM      9  O   UNL     1       1.297  -3.841  24.786  1.00  0.00    -0.547 OA
ATOM     10  O   UNL     1       0.654  -2.341  26.394  1.00  0.00    -0.547 OA
ENDBRANCH   3   8
BRANCH   4  11
ATOM     11  O   UNL     1       3.862  -1.887  28.092  1.00  0.00    -0.387 OA
ATOM     12  H   UNL     1       4.476  -1.109  28.142  1.00  0.00     0.211 HD
ENDBRANCH   4  11
BRANCH   6  13
ATOM     13  O   UNL     1       4.821  -2.243  24.614  1.00  0.00    -0.387 OA
ATOM     14  H   UNL     1       3.859  -2.041  24.479  1.00  0.00     0.211 HD
ENDBRANCH   6  13
BRANCH   7  15
ATOM     15  O   UNL     1       6.553  -3.497  27.482  1.00  0.00    -0.384 OA
ATOM     16  H   UNL     1       5.970  -3.725  28.252  1.00  0.00     0.211 HD
ENDBRANCH   7  15
ENDBRANCH   1   2
BRANCH   1  17
ATOM     17  C   UNL     1       6.577  -6.582  26.217  1.00  0.00     0.172 A 
ATOM     18  C   UNL     1       7.541  -6.744  25.197  1.00  0.00     0.205 A 
ATOM     19  C   UNL     1       6.883  -7.009  27.520  1.00  0.00     0.097 A 
ATOM     20  C   UNL     1       8.758  -7.377  25.487  1.00  0.00     0.188 A 
ATOM     21  C   UNL     1       8.081  -7.668  27.816  1.00  0.00     0.134 A 
ATOM     22  C   UNL     1       9.060  -7.839  26.796  1.00  0.00     0.111 A 
ATOM     23  O   UNL     1       9.632  -7.532  24.497  1.00  0.00    -0.452 OA
ATOM     24  C   UNL     1      10.342  -8.408  26.993  1.00  0.00     0.197 A 
ATOM     25  C   UNL     1      10.817  -8.110  24.644  1.00  0.00     0.138 A 
ATOM     26  C   UNL     1      11.208  -8.563  25.910  1.00  0.00     0.100 A 
ATOM     27  O   UNL     1      10.755  -8.748  28.130  1.00  0.00    -0.289 OA
BRANCH  18  28
ATOM     28  O   UNL     1       7.358  -6.305  23.871  1.00  0.00    -0.490 OA
ATOM     29  C   UNL     1       7.006  -4.991  23.452  1.00  0.00     0.278 C 
ENDBRANCH  18  28
BRANCH  21  30
ATOM     30  O   UNL     1       8.212  -8.146  29.125  1.00  0.00    -0.507 OA
ATOM     31  H   UNL     1       7.671  -7.847  29.919  1.00  0.00     0.293 HD
ENDBRANCH  21  30
BRANCH  25  32
ATOM     32  C   UNL     1      11.696  -8.242  23.456  1.00  0.00     0.017 A 
ATOM     33  C   UNL     1      11.318  -9.010  22.336  1.00  0.00     0.012 A 
ATOM     34  C   UNL     1      12.925  -7.554  23.426  1.00  0.00     0.012 A 
ATOM     35  C   UNL     1      12.157  -9.093  21.220  1.00  0.00     0.001 A 
ATOM     36  C   UNL     1      13.760  -7.644  22.310  1.00  0.00     0.001 A 
ATOM     37  C   UNL     1      13.379  -8.414  21.209  1.00  0.00     0.000 A 
ENDBRANCH  25  32
ENDBRANCH   1  17
TORSDOF 9
ENDMDL
MODEL 2
REMARK VINA RESULT:    -5.836      1.668      2.334
REMARK INTER + INTRA:          -9.032
REMARK INTER:                  -7.811
REMARK INTRA:                  -1.222
REMARK UNBOUND:                -0.808
REMARK SMILES COc1c(O[C@@H]2O[C@H](C(=O)[O-])[C@@H](O)[C@H](O)[C@H]2O)cc(O)c2c(=O)cc(-c3ccccc3)oc12
REMARK SMILES IDX 5 1 6 2 8 3 12 4 7 5 14 6 16 7 9 8 10 9 11 10 13 11 15 13
REMARK SMILES IDX 17 15 4 17 3 18 18 19 33 20 19 21 21 22 32 23 22 24 25 25
REMARK SMILES IDX 24 26 23 27 2 28 1 29 20 30 26 32 27 33 31 34 28 35 30 36
REMARK SMILES IDX 29 37
REMARK H PARENT 13 12 15 14 17 16 20 31
REMARK Flexibility Score: inf
ROOT
ATOM      1  O   UNL     1       6.489  -3.759  26.462  1.00  0.00    -0.458 OA
ENDROOT
BRANCH   1   2
ATOM      2  C   UNL     1       5.201  -3.697  27.083  1.00  0.00     0.339 C 
ATOM      3  C   UNL     1       3.410  -5.034  27.728  1.00  0.00     0.199 C 
ATOM      4  C   UNL     1       2.393  -3.896  27.391  1.00  0.00     0.180 C 
ATOM      5  O   UNL     1       4.579  -4.959  26.927  1.00  0.00    -0.328 OA
ATOM      6  C   UNL     1       2.887  -3.017  26.216  1.00  0.00     0.181 C 
ATOM      7  C   UNL     1       4.365  -2.594  26.391  1.00  0.00     0.214 C 
BRANCH   3   8
ATOM      8  C   UNL     1       2.781  -6.382  27.528  1.00  0.00     0.073 C 
ATOM      9  O   UNL     1       2.122  -6.628  26.482  1.00  0.00    -0.547 OA
ATOM     10  O   UNL     1       2.879  -7.347  28.521  1.00  0.00    -0.547 OA
ENDBRANCH   3   8
BRANCH   4  11
ATOM     11  O   UNL     1       2.122  -3.110  28.527  1.00  0.00    -0.387 OA
ATOM     12  H   UNL     1       1.966  -2.176  28.230  1.00  0.00     0.211 HD
ENDBRANCH   4  11
BRANCH   6  13
ATOM     13  O   UNL     1       2.761  -3.735  25.013  1.00  0.00    -0.387 OA
ATOM     14  H   UNL     1       3.648  -4.133  24.817  1.00  0.00     0.211 HD
ENDBRANCH   6  13
BRANCH   7  15
ATOM     15  O   UNL     1       4.449  -1.411  27.146  1.00  0.00    -0.384 OA
ATOM     16  H   UNL     1       3.518  -1.109  27.313  1.00  0.00     0.211 HD
ENDBRANCH   7  15
ENDBRANCH   1   2
BRANCH   1  17
ATOM     17  C   UNL     1       7.401  -4.826  26.528  1.00  0.00     0.172 A 
ATOM     18  C   UNL     1       7.749  -5.520  25.348  1.00  0.00     0.205 A 
ATOM     19  C   UNL     1       7.983  -5.214  27.745  1.00  0.00     0.097 A 
ATOM     20  C   UNL     1       8.622  -6.614  25.419  1.00  0.00     0.188 A 
ATOM     21  C   UNL     1       8.831  -6.322  27.836  1.00  0.00     0.134 A 
ATOM     22  C   UNL     1       9.190  -7.031  26.653  1.00  0.00     0.111 A 
ATOM     23  O   UNL     1       8.911  -7.258  24.292  1.00  0.00    -0.452 OA
ATOM     24  C   UNL     1      10.107  -8.109  26.604  1.00  0.00     0.197 A 
ATOM     25  C   UNL     1       9.724  -8.304  24.227  1.00  0.00     0.138 A 
ATOM     26  C   UNL     1      10.353  -8.758  25.394  1.00  0.00     0.100 A 
ATOM     27  O   UNL     1      10.751  -8.487  27.616  1.00  0.00    -0.289 OA
BRANCH  18  28
ATOM     28  O   UNL     1       7.266  -5.181  24.069  1.00  0.00    -0.490 OA
ATOM     29  C   UNL     1       5.914  -5.248  23.626  1.00  0.00     0.278 C 
ENDBRANCH  18  28
BRANCH  21  30
ATOM     30  O   UNL     1       9.251  -6.672  29.124  1.00  0.00    -0.507 OA
ATOM     31  H   UNL     1       9.442  -7.605  29.450  1.00  0.00     0.293 HD
ENDBRANCH  21  30
BRANCH  25  32
ATOM     32  C   UNL     1       9.951  -8.948  22.911  1.00  0.00     0.017 A 
ATOM     33  C   UNL     1       8.879  -9.358  22.092  1.00  0.00     0.012 A 
ATOM     34  C   UNL     1      11.269  -9.125  22.445  1.00  0.00     0.012 A 
ATOM     35  C   UNL     1       9.125  -9.938  20.843  1.00  0.00     0.001 A 
ATOM     36  C   UNL     1      11.508  -9.709  21.199  1.00  0.00     0.001 A 
ATOM     37  C   UNL     1      10.439 -10.118  20.399  1.00  0.00     0.000 A 
ENDBRANCH  25  32
ENDBRANCH   1  17
TORSDOF 9
ENDMDL
MODEL 3
REMARK VINA RESULT:    -5.645      2.750      8.926
REMARK INTER + INTRA:          -8.763
REMARK INTER:                  -7.722
REMARK INTRA:                  -1.041
REMARK UNBOUND:                -0.808
REMARK SMILES COc1c(O[C@@H]2O[C@H](C(=O)[O-])[C@@H](O)[C@H](O)[C@H]2O)cc(O)c2c(=O)cc(-c3ccccc3)oc12
REMARK SMILES IDX 5 1 6 2 8 3 12 4 7 5 14 6 16 7 9 8 10 9 11 10 13 11 15 13
REMARK SMILES IDX 17 15 4 17 3 18 18 19 33 20 19 21 21 22 32 23 22 24 25 25
REMARK SMILES IDX 24 26 23 27 2 28 1 29 20 30 26 32 27 33 31 34 28 35 30 36
REMARK SMILES IDX 29 37
REMARK H PARENT 13 12 15 14 17 16 20 31
REMARK Flexibility Score: inf
ROOT
ATOM      1  O   UNL     1       6.658  -5.969  24.065  1.00  0.00    -0.458 OA
ENDROOT
BRANCH   1   2
ATOM      2  C   UNL     1       7.591  -6.740  24.829  1.00  0.00     0.339 C 
ATOM      3  C   UNL     1       7.779  -7.973  26.792  1.00  0.00     0.199 C 
ATOM      4  C   UNL     1       9.259  -7.511  26.983  1.00  0.00     0.180 C 
ATOM      5  O   UNL     1       7.006  -7.013  26.089  1.00  0.00    -0.328 OA
ATOM      6  C   UNL     1       9.492  -6.088  26.420  1.00  0.00     0.181 C 
ATOM      7  C   UNL     1       8.892  -5.921  25.003  1.00  0.00     0.214 C 
BRANCH   3   8
ATOM      8  C   UNL     1       7.128  -8.227  28.121  1.00  0.00     0.073 C 
ATOM      9  O   UNL     1       7.167  -7.351  29.026  1.00  0.00    -0.547 OA
ATOM     10  O   UNL     1       6.526  -9.452  28.375  1.00  0.00    -0.547 OA
ENDBRANCH   3   8
BRANCH   4  11
ATOM     11  O   UNL     1      10.153  -8.432  26.405  1.00  0.00    -0.387 OA
ATOM     12  H   UNL     1      11.021  -7.974  26.256  1.00  0.00     0.211 HD
ENDBRANCH   4  11
BRANCH   6  13
ATOM     13  O   UNL     1       8.896  -5.145  27.278  1.00  0.00    -0.387 OA
ATOM     14  H   UNL     1       7.998  -5.495  27.516  1.00  0.00     0.211 HD
ENDBRANCH   6  13
BRANCH   7  15
ATOM     15  O   UNL     1       9.823  -6.322  24.029  1.00  0.00    -0.384 OA
ATOM     16  H   UNL     1      10.649  -6.586  24.510  1.00  0.00     0.211 HD
ENDBRANCH   7  15
ENDBRANCH   1   2
BRANCH   1  17
ATOM     17  C   UNL     1       5.297  -5.776  24.353  1.00  0.00     0.172 A 
ATOM     18  C   UNL     1       4.896  -4.659  25.121  1.00  0.00     0.205 A 
ATOM     19  C   UNL     1       4.319  -6.669  23.885  1.00  0.00     0.097 A 
ATOM     20  C   UNL     1       3.544  -4.492  25.447  1.00  0.00     0.188 A 
ATOM     21  C   UNL     1       2.970  -6.531  24.230  1.00  0.00     0.134 A 
ATOM     22  C   UNL     1       2.553  -5.409  25.003  1.00  0.00     0.111 A 
ATOM     23  O   UNL     1       3.206  -3.441  26.189  1.00  0.00    -0.452 OA
ATOM     24  C   UNL     1       1.210  -5.112  25.339  1.00  0.00     0.197 A 
ATOM     25  C   UNL     1       1.962  -3.171  26.562  1.00  0.00     0.138 A 
ATOM     26  C   UNL     1       0.921  -4.006  26.138  1.00  0.00     0.100 A 
ATOM     27  O   UNL     1       0.246  -5.793  24.905  1.00  0.00    -0.289 OA
BRANCH  18  28
ATOM     28  O   UNL     1       5.787  -3.676  25.594  1.00  0.00    -0.490 OA
ATOM     29  C   UNL     1       6.182  -3.468  26.946  1.00  0.00     0.278 C 
ENDBRANCH  18  28
BRANCH  21  30
ATOM     30  O   UNL     1       2.116  -7.551  23.795  1.00  0.00    -0.507 OA
ATOM     31  H   UNL     1       1.110  -7.530  23.821  1.00  0.00     0.293 HD
ENDBRANCH  21  30
BRANCH  25  32
ATOM     32  C   UNL     1       1.716  -1.977  27.408  1.00  0.00     0.017 A 
ATOM     33  C   UNL     1       0.414  -1.488  27.639  1.00  0.00     0.012 A 
ATOM     34  C   UNL     1       2.805  -1.334  28.029  1.00  0.00     0.012 A 
ATOM     35  C   UNL     1       0.213  -0.376  28.465  1.00  0.00     0.001 A 
ATOM     36  C   UNL     1       2.598  -0.223  28.849  1.00  0.00     0.001 A 
ATOM     37  C   UNL     1       1.304   0.259  29.065  1.00  0.00     0.000 A 
ENDBRANCH  25  32
ENDBRANCH   1  17
TORSDOF 9
ENDMDL
MODEL 4
REMARK VINA RESULT:    -5.609      2.501      9.055
REMARK INTER + INTRA:          -8.713
REMARK INTER:                  -7.766
REMARK INTRA:                  -0.947
REMARK UNBOUND:                -0.808
REMARK SMILES COc1c(O[C@@H]2O[C@H](C(=O)[O-])[C@@H](O)[C@H](O)[C@H]2O)cc(O)c2c(=O)cc(-c3ccccc3)oc12
REMARK SMILES IDX 5 1 6 2 8 3 12 4 7 5 14 6 16 7 9 8 10 9 11 10 13 11 15 13
REMARK SMILES IDX 17 15 4 17 3 18 18 19 33 20 19 21 21 22 32 23 22 24 25 25
REMARK SMILES IDX 24 26 23 27 2 28 1 29 20 30 26 32 27 33 31 34 28 35 30 36
REMARK SMILES IDX 29 37
REMARK H PARENT 13 12 15 14 17 16 20 31
REMARK Flexibility Score: inf
ROOT
ATOM      1  O   UNL     1       5.986  -7.937  25.877  1.00  0.00    -0.458 OA
ENDROOT
BRANCH   1   2
ATOM      2  C   UNL     1       7.344  -7.750  25.465  1.00  0.00     0.339 C 
ATOM      3  C   UNL     1       9.536  -8.002  26.200  1.00  0.00     0.199 C 
ATOM      4  C   UNL     1       9.984  -6.728  25.415  1.00  0.00     0.180 C 
ATOM      5  O   UNL     1       8.174  -7.934  26.596  1.00  0.00    -0.328 OA
ATOM      6  C   UNL     1       8.849  -5.679  25.329  1.00  0.00     0.181 C 
ATOM      7  C   UNL     1       7.503  -6.316  24.905  1.00  0.00     0.214 C 
BRANCH   3   8
ATOM      8  C   UNL     1      10.378  -8.191  27.428  1.00  0.00     0.073 C 
ATOM      9  O   UNL     1      11.322  -9.026  27.431  1.00  0.00    -0.547 OA
ATOM     10  O   UNL     1      10.084  -7.483  28.586  1.00  0.00    -0.547 OA
ENDBRANCH   3   8
BRANCH   4  11
ATOM     11  O   UNL     1      10.453  -7.067  24.131  1.00  0.00    -0.387 OA
ATOM     12  H   UNL     1      10.047  -7.934  23.869  1.00  0.00     0.211 HD
ENDBRANCH   4  11
BRANCH   6  13
ATOM     13  O   UNL     1       8.684  -5.068  26.585  1.00  0.00    -0.387 OA
ATOM     14  H   UNL     1       9.481  -5.300  27.129  1.00  0.00     0.211 HD
ENDBRANCH   6  13
BRANCH   7  15
ATOM     15  O   UNL     1       7.402  -6.355  23.503  1.00  0.00    -0.384 OA
ATOM     16  H   UNL     1       8.281  -6.068  23.142  1.00  0.00     0.211 HD
ENDBRANCH   7  15
ENDBRANCH   1   2
BRANCH   1  17
ATOM     17  C   UNL     1       4.901  -7.091  25.594  1.00  0.00     0.172 A 
ATOM     18  C   UNL     1       4.746  -5.887  26.316  1.00  0.00     0.205 A 
ATOM     19  C   UNL     1       3.965  -7.415  24.598  1.00  0.00     0.097 A 
ATOM     20  C   UNL     1       3.638  -5.066  26.066  1.00  0.00     0.188 A 
ATOM     21  C   UNL     1       2.839  -6.620  24.359  1.00  0.00     0.134 A 
ATOM     22  C   UNL     1       2.672  -5.403  25.081  1.00  0.00     0.111 A 
ATOM     23  O   UNL     1       3.513  -3.951  26.780  1.00  0.00    -0.452 OA
ATOM     24  C   UNL     1       1.625  -4.474  24.867  1.00  0.00     0.197 A 
ATOM     25  C   UNL     1       2.514  -3.091  26.636  1.00  0.00     0.138 A 
ATOM     26  C   UNL     1       1.536  -3.331  25.662  1.00  0.00     0.100 A 
ATOM     27  O   UNL     1       0.780  -4.617  23.947  1.00  0.00    -0.289 OA
BRANCH  18  28
ATOM     28  O   UNL     1       5.653  -5.442  27.298  1.00  0.00    -0.490 OA
ATOM     29  C   UNL     1       5.745  -5.903  28.642  1.00  0.00     0.278 C 
ENDBRANCH  18  28
BRANCH  21  30
ATOM     30  O   UNL     1       1.925  -7.113  23.421  1.00  0.00    -0.507 OA
ATOM     31  H   UNL     1       1.318  -7.906  23.548  1.00  0.00     0.293 HD
ENDBRANCH  21  30
BRANCH  25  32
ATOM     32  C   UNL     1       2.476  -1.891  27.508  1.00  0.00     0.017 A 
ATOM     33  C   UNL     1       3.648  -1.184  27.847  1.00  0.00     0.012 A 
ATOM     34  C   UNL     1       1.236  -1.420  27.981  1.00  0.00     0.012 A 
ATOM     35  C   UNL     1       3.576  -0.040  28.649  1.00  0.00     0.001 A 
ATOM     36  C   UNL     1       1.171  -0.279  28.785  1.00  0.00     0.001 A 
ATOM     37  C   UNL     1       2.339   0.410  29.121  1.00  0.00     0.000 A 
ENDBRANCH  25  32
ENDBRANCH   1  17
TORSDOF 9
ENDMDL
MODEL 5
REMARK VINA RESULT:    -5.458      2.251      9.298
REMARK INTER + INTRA:          -8.500
REMARK INTER:                  -7.204
REMARK INTRA:                  -1.296
REMARK UNBOUND:                -0.808
REMARK SMILES COc1c(O[C@@H]2O[C@H](C(=O)[O-])[C@@H](O)[C@H](O)[C@H]2O)cc(O)c2c(=O)cc(-c3ccccc3)oc12
REMARK SMILES IDX 5 1 6 2 8 3 12 4 7 5 14 6 16 7 9 8 10 9 11 10 13 11 15 13
REMARK SMILES IDX 17 15 4 17 3 18 18 19 33 20 19 21 21 22 32 23 22 24 25 25
REMARK SMILES IDX 24 26 23 27 2 28 1 29 20 30 26 32 27 33 31 34 28 35 30 36
REMARK SMILES IDX 29 37
REMARK H PARENT 13 12 15 14 17 16 20 31
REMARK Flexibility Score: inf
ROOT
ATOM      1  O   UNL     1       6.350  -7.445  25.843  1.00  0.00    -0.458 OA
ENDROOT
BRANCH   1   2
ATOM      2  C   UNL     1       7.603  -7.262  25.175  1.00  0.00     0.339 C 
ATOM      3  C   UNL     1       9.010  -8.256  23.612  1.00  0.00     0.199 C 
ATOM      4  C   UNL     1      10.275  -7.744  24.372  1.00  0.00     0.180 C 
ATOM      5  O   UNL     1       7.909  -8.460  24.485  1.00  0.00    -0.328 OA
ATOM      6  C   UNL     1      10.030  -7.656  25.898  1.00  0.00     0.181 C 
ATOM      7  C   UNL     1       8.691  -6.953  26.230  1.00  0.00     0.214 C 
BRANCH   3   8
ATOM      8  C   UNL     1       9.303  -9.549  22.908  1.00  0.00     0.073 C 
ATOM      9  O   UNL     1      10.412 -10.124  23.069  1.00  0.00    -0.547 OA
ATOM     10  O   UNL     1       8.370 -10.088  22.032  1.00  0.00    -0.547 OA
ENDBRANCH   3   8
BRANCH   4  11
ATOM     11  O   UNL     1      10.703  -6.504  23.861  1.00  0.00    -0.387 OA
ATOM     12  H   UNL     1      11.151  -6.664  22.990  1.00  0.00     0.211 HD
ENDBRANCH   4  11
BRANCH   6  13
ATOM     13  O   UNL     1      10.006  -8.954  26.441  1.00  0.00    -0.387 OA
ATOM     14  H   UNL     1       9.747  -9.571  25.709  1.00  0.00     0.211 HD
ENDBRANCH   6  13
BRANCH   7  15
ATOM     15  O   UNL     1       8.876  -5.562  26.307  1.00  0.00    -0.384 OA
ATOM     16  H   UNL     1       8.747  -5.306  27.257  1.00  0.00     0.211 HD
ENDBRANCH   7  15
ENDBRANCH   1   2
BRANCH   1  17
ATOM     17  C   UNL     1       5.163  -6.732  25.607  1.00  0.00     0.172 A 
ATOM     18  C   UNL     1       4.915  -5.534  26.314  1.00  0.00     0.205 A 
ATOM     19  C   UNL     1       4.216  -7.182  24.672  1.00  0.00     0.097 A 
ATOM     20  C   UNL     1       3.709  -4.847  26.112  1.00  0.00     0.188 A 
ATOM     21  C   UNL     1       2.996  -6.523  24.484  1.00  0.00     0.134 A 
ATOM     22  C   UNL     1       2.734  -5.314  25.191  1.00  0.00     0.111 A 
ATOM     23  O   UNL     1       3.500  -3.735  26.811  1.00  0.00    -0.452 OA
ATOM     24  C   UNL     1       1.579  -4.512  25.020  1.00  0.00     0.197 A 
ATOM     25  C   UNL     1       2.404  -2.995  26.708  1.00  0.00     0.138 A 
ATOM     26  C   UNL     1       1.408  -3.366  25.797  1.00  0.00     0.100 A 
ATOM     27  O   UNL     1       0.707  -4.771  24.152  1.00  0.00    -0.289 OA
BRANCH  18  28
ATOM     28  O   UNL     1       5.818  -4.967  27.233  1.00  0.00    -0.490 OA
ATOM     29  C   UNL     1       5.926  -5.275  28.618  1.00  0.00     0.278 C 
ENDBRANCH  18  28
BRANCH  21  30
ATOM     30  O   UNL     1       2.093  -7.138  23.609  1.00  0.00    -0.507 OA
ATOM     31  H   UNL     1       1.120  -6.905  23.505  1.00  0.00     0.293 HD
ENDBRANCH  21  30
BRANCH  25  32
ATOM     32  C   UNL     1       2.281  -1.785  27.558  1.00  0.00     0.017 A 
ATOM     33  C   UNL     1       3.410  -1.043  27.959  1.00  0.00     0.012 A 
ATOM     34  C   UNL     1       1.001  -1.341  27.945  1.00  0.00     0.012 A 
ATOM     35  C   UNL     1       3.259   0.110  28.738  1.00  0.00     0.001 A 
ATOM     36  C   UNL     1       0.857  -0.192  28.726  1.00  0.00     0.001 A 
ATOM     37  C   UNL     1       1.983   0.533  29.124  1.00  0.00     0.000 A 
ENDBRANCH  25  32
ENDBRANCH   1  17
TORSDOF 9
ENDMDL
MODEL 6
REMARK VINA RESULT:    -5.445      1.760      2.246
REMARK INTER + INTRA:          -8.481
REMARK INTER:                  -7.473
REMARK INTRA:                  -1.009
REMARK UNBOUND:                -0.808
REMARK SMILES COc1c(O[C@@H]2O[C@H](C(=O)[O-])[C@@H](O)[C@H](O)[C@H]2O)cc(O)c2c(=O)cc(-c3ccccc3)oc12
REMARK SMILES IDX 5 1 6 2 8 3 12 4 7 5 14 6 16 7 9 8 10 9 11 10 13 11 15 13
REMARK SMILES IDX 17 15 4 17 3 18 18 19 33 20 19 21 21 22 32 23 22 24 25 25
REMARK SMILES IDX 24 26 23 27 2 28 1 29 20 30 26 32 27 33 31 34 28 35 30 36
REMARK SMILES IDX 29 37
REMARK H PARENT 13 12 15 14 17 16 20 31
REMARK Flexibility Score: inf
ROOT
ATOM      1  O   UNL     1       5.111  -5.760  27.659  1.00  0.00    -0.458 OA
ENDROOT
BRANCH   1   2
ATOM      2  C   UNL     1       4.771  -4.378  27.808  1.00  0.00     0.339 C 
ATOM      3  C   UNL     1       2.954  -2.959  28.117  1.00  0.00     0.199 C 
ATOM      4  C   UNL     1       3.622  -1.853  27.239  1.00  0.00     0.180 C 
ATOM      5  O   UNL     1       3.362  -4.263  27.735  1.00  0.00    -0.328 OA
ATOM      6  C   UNL     1       4.505  -2.464  26.124  1.00  0.00     0.181 C 
ATOM      7  C   UNL     1       5.437  -3.574  26.666  1.00  0.00     0.214 C 
BRANCH   3   8
ATOM      8  C   UNL     1       1.458  -2.881  28.020  1.00  0.00     0.073 C 
ATOM      9  O   UNL     1       0.776  -2.485  29.003  1.00  0.00    -0.547 OA
ATOM     10  O   UNL     1       0.816  -3.298  26.862  1.00  0.00    -0.547 OA
ENDBRANCH   3   8
BRANCH   4  11
ATOM     11  O   UNL     1       4.364  -0.958  28.033  1.00  0.00    -0.387 OA
ATOM     12  H   UNL     1       4.800  -1.473  28.760  1.00  0.00     0.211 HD
ENDBRANCH   4  11
BRANCH   6  13
ATOM     13  O   UNL     1       3.680  -3.014  25.126  1.00  0.00    -0.387 OA
ATOM     14  H   UNL     1       3.892  -3.982  25.074  1.00  0.00     0.211 HD
ENDBRANCH   6  13
BRANCH   7  15
ATOM     15  O   UNL     1       6.639  -3.015  27.137  1.00  0.00    -0.384 OA
ATOM     16  H   UNL     1       7.314  -3.743  27.140  1.00  0.00     0.211 HD
ENDBRANCH   7  15
ENDBRANCH   1   2
BRANCH   1  17
ATOM     17  C   UNL     1       6.365  -6.281  27.301  1.00  0.00     0.172 A 
ATOM     18  C   UNL     1       6.549  -6.837  26.015  1.00  0.00     0.205 A 
ATOM     19  C   UNL     1       7.448  -6.251  28.194  1.00  0.00     0.097 A 
ATOM     20  C   UNL     1       7.788  -7.399  25.674  1.00  0.00     0.188 A 
ATOM     21  C   UNL     1       8.680  -6.836  27.877  1.00  0.00     0.134 A 
ATOM     22  C   UNL     1       8.878  -7.400  26.585  1.00  0.00     0.111 A 
ATOM     23  O   UNL     1       7.918  -7.933  24.464  1.00  0.00    -0.452 OA
ATOM     24  C   UNL     1      10.102  -7.938  26.117  1.00  0.00     0.197 A 
ATOM     25  C   UNL     1       9.037  -8.491  24.021  1.00  0.00     0.138 A 
ATOM     26  C   UNL     1      10.171  -8.503  24.843  1.00  0.00     0.100 A 
ATOM     27  O   UNL     1      11.158  -7.890  26.797  1.00  0.00    -0.289 OA
BRANCH  18  28
ATOM     28  O   UNL     1       5.547  -6.870  25.026  1.00  0.00    -0.490 OA
ATOM     29  C   UNL     1       5.312  -5.888  24.023  1.00  0.00     0.278 C 
ENDBRANCH  18  28
BRANCH  21  30
ATOM     30  O   UNL     1       9.638  -6.841  28.897  1.00  0.00    -0.507 OA
ATOM     31  H   UNL     1       9.902  -7.637  29.455  1.00  0.00     0.293 HD
ENDBRANCH  21  30
BRANCH  25  32
ATOM     32  C   UNL     1       9.051  -9.071  22.656  1.00  0.00     0.017 A 
ATOM     33  C   UNL     1       7.860  -9.414  21.984  1.00  0.00     0.012 A 
ATOM     34  C   UNL     1      10.282  -9.253  21.994  1.00  0.00     0.012 A 
ATOM     35  C   UNL     1       7.905  -9.934  20.686  1.00  0.00     0.001 A 
ATOM     36  C   UNL     1      10.320  -9.776  20.700  1.00  0.00     0.001 A 
ATOM     37  C   UNL     1       9.134 -10.119  20.046  1.00  0.00     0.000 A 
ENDBRANCH  25  32
ENDBRANCH   1  17
TORSDOF 9
ENDMDL
MODEL 7
REMARK VINA RESULT:    -5.435      1.520      2.048
REMARK INTER + INTRA:          -8.467
REMARK INTER:                  -7.666
REMARK INTRA:                  -0.801
REMARK UNBOUND:                -0.808
REMARK SMILES COc1c(O[C@@H]2O[C@H](C(=O)[O-])[C@@H](O)[C@H](O)[C@H]2O)cc(O)c2c(=O)cc(-c3ccccc3)oc12
REMARK SMILES IDX 5 1 6 2 8 3 12 4 7 5 14 6 16 7 9 8 10 9 11 10 13 11 15 13
REMARK SMILES IDX 17 15 4 17 3 18 18 19 33 20 19 21 21 22 32 23 22 24 25 25
REMARK SMILES IDX 24 26 23 27 2 28 1 29 20 30 26 32 27 33 31 34 28 35 30 36
REMARK SMILES IDX 29 37
REMARK H PARENT 13 12 15 14 17 16 20 31
REMARK Flexibility Score: inf
ROOT
ATOM      1  O   UNL     1       5.478  -4.033  26.057  1.00  0.00    -0.458 OA
ENDROOT
BRANCH   1   2
ATOM      2  C   UNL     1       4.157  -4.221  26.575  1.00  0.00     0.339 C 
ATOM      3  C   UNL     1       1.914  -4.062  25.979  1.00  0.00     0.199 C 
ATOM      4  C   UNL     1       1.527  -3.601  27.421  1.00  0.00     0.180 C 
ATOM      5  O   UNL     1       3.240  -3.688  25.637  1.00  0.00    -0.328 OA
ATOM      6  C   UNL     1       2.664  -2.788  28.087  1.00  0.00     0.181 C 
ATOM      7  C   UNL     1       4.039  -3.479  27.927  1.00  0.00     0.214 C 
BRANCH   3   8
ATOM      8  C   UNL     1       0.977  -3.472  24.965  1.00  0.00     0.073 C 
ATOM      9  O   UNL     1       0.607  -2.271  25.064  1.00  0.00    -0.547 OA
ATOM     10  O   UNL     1       0.472  -4.265  23.944  1.00  0.00    -0.547 OA
ENDBRANCH   3   8
BRANCH   4  11
ATOM     11  O   UNL     1       1.161  -4.701  28.220  1.00  0.00    -0.387 OA
ATOM     12  H   UNL     1       1.396  -5.533  27.733  1.00  0.00     0.211 HD
ENDBRANCH   4  11
BRANCH   6  13
ATOM     13  O   UNL     1       2.728  -1.511  27.500  1.00  0.00    -0.387 OA
ATOM     14  H   UNL     1       2.307  -1.581  26.604  1.00  0.00     0.211 HD
ENDBRANCH   6  13
BRANCH   7  15
ATOM     15  O   UNL     1       4.251  -4.393  28.974  1.00  0.00    -0.384 OA
ATOM     16  H   UNL     1       5.160  -4.218  29.331  1.00  0.00     0.211 HD
ENDBRANCH   7  15
ENDBRANCH   1   2
BRANCH   1  17
ATOM     17  C   UNL     1       6.589  -4.865  26.273  1.00  0.00     0.172 A 
ATOM     18  C   UNL     1       7.152  -5.574  25.188  1.00  0.00     0.205 A 
ATOM     19  C   UNL     1       7.160  -5.002  27.548  1.00  0.00     0.097 A 
ATOM     20  C   UNL     1       8.230  -6.441  25.411  1.00  0.00     0.188 A 
ATOM     21  C   UNL     1       8.217  -5.887  27.790  1.00  0.00     0.134 A 
ATOM     22  C   UNL     1       8.793  -6.607  26.704  1.00  0.00     0.111 A 
ATOM     23  O   UNL     1       8.720  -7.108  24.370  1.00  0.00    -0.452 OA
ATOM     24  C   UNL     1       9.919  -7.461  26.807  1.00  0.00     0.197 A 
ATOM     25  C   UNL     1       9.739  -7.953  24.450  1.00  0.00     0.138 A 
ATOM     26  C   UNL     1      10.374  -8.149  25.683  1.00  0.00     0.100 A 
ATOM     27  O   UNL     1      10.562  -7.594  27.880  1.00  0.00    -0.289 OA
BRANCH  18  28
ATOM     28  O   UNL     1       6.690  -5.468  23.861  1.00  0.00    -0.490 OA
ATOM     29  C   UNL     1       6.518  -4.269  23.114  1.00  0.00     0.278 C 
ENDBRANCH  18  28
BRANCH  21  30
ATOM     30  O   UNL     1       8.618  -6.016  29.125  1.00  0.00    -0.507 OA
ATOM     31  H   UNL     1       9.554  -5.894  29.475  1.00  0.00     0.293 HD
ENDBRANCH  21  30
BRANCH  25  32
ATOM     32  C   UNL     1      10.182  -8.653  23.219  1.00  0.00     0.017 A 
ATOM     33  C   UNL     1       9.260  -9.253  22.336  1.00  0.00     0.012 A 
ATOM     34  C   UNL     1      11.553  -8.690  22.900  1.00  0.00     0.012 A 
ATOM     35  C   UNL     1       9.707  -9.882  21.169  1.00  0.00     0.001 A 
ATOM     36  C   UNL     1      11.993  -9.322  21.734  1.00  0.00     0.001 A 
ATOM     37  C   UNL     1      11.072  -9.920  20.870  1.00  0.00     0.000 A 
ENDBRANCH  25  32
ENDBRANCH   1  17
TORSDOF 9
ENDMDL
MODEL 8
REMARK VINA RESULT:    -5.393      1.567      2.618
REMARK INTER + INTRA:          -8.408
REMARK INTER:                  -8.023
REMARK INTRA:                  -0.385
REMARK UNBOUND:                -0.808
REMARK SMILES COc1c(O[C@@H]2O[C@H](C(=O)[O-])[C@@H](O)[C@H](O)[C@H]2O)cc(O)c2c(=O)cc(-c3ccccc3)oc12
REMARK SMILES IDX 5 1 6 2 8 3 12 4 7 5 14 6 16 7 9 8 10 9 11 10 13 11 15 13
REMARK SMILES IDX 17 15 4 17 3 18 18 19 33 20 19 21 21 22 32 23 22 24 25 25
REMARK SMILES IDX 24 26 23 27 2 28 1 29 20 30 26 32 27 33 31 34 28 35 30 36
REMARK SMILES IDX 29 37
REMARK H PARENT 13 12 15 14 17 16 20 31
REMARK Flexibility Score: inf
ROOT
ATOM      1  O   UNL     1       5.650  -3.543  25.578  1.00  0.00    -0.458 OA
ENDROOT
BRANCH   1   2
ATOM      2  C   UNL     1       4.249  -3.683  25.837  1.00  0.00     0.339 C 
ATOM      3  C   UNL     1       2.505  -2.741  27.055  1.00  0.00     0.199 C 
ATOM      4  C   UNL     1       1.849  -4.143  27.267  1.00  0.00     0.180 C 
ATOM      5  O   UNL     1       3.915  -2.828  26.914  1.00  0.00    -0.328 OA
ATOM      6  C   UNL     1       2.911  -5.267  27.344  1.00  0.00     0.181 C 
ATOM      7  C   UNL     1       3.954  -5.157  26.206  1.00  0.00     0.214 C 
BRANCH   3   8
ATOM      8  C   UNL     1       2.198  -1.832  28.209  1.00  0.00     0.073 C 
ATOM      9  O   UNL     1       2.864  -0.777  28.383  1.00  0.00    -0.547 OA
ATOM     10  O   UNL     1       1.212  -2.180  29.123  1.00  0.00    -0.547 OA
ENDBRANCH   3   8
BRANCH   4  11
ATOM     11  O   UNL     1       0.903  -4.415  26.261  1.00  0.00    -0.387 OA
ATOM     12  H   UNL     1       1.384  -4.756  25.464  1.00  0.00     0.211 HD
ENDBRANCH   4  11
BRANCH   6  13
ATOM     13  O   UNL     1       3.580  -5.191  28.579  1.00  0.00    -0.387 OA
ATOM     14  H   UNL     1       4.545  -5.334  28.397  1.00  0.00     0.211 HD
ENDBRANCH   6  13
BRANCH   7  15
ATOM     15  O   UNL     1       3.500  -5.836  25.061  1.00  0.00    -0.384 OA
ATOM     16  H   UNL     1       4.301  -6.223  24.620  1.00  0.00     0.211 HD
ENDBRANCH   7  15
ENDBRANCH   1   2
BRANCH   1  17
ATOM     17  C   UNL     1       6.666  -4.429  25.970  1.00  0.00     0.172 A 
ATOM     18  C   UNL     1       7.368  -5.164  24.988  1.00  0.00     0.205 A 
ATOM     19  C   UNL     1       7.008  -4.595  27.322  1.00  0.00     0.097 A 
ATOM     20  C   UNL     1       8.351  -6.083  25.382  1.00  0.00     0.188 A 
ATOM     21  C   UNL     1       7.965  -5.530  27.730  1.00  0.00     0.134 A 
ATOM     22  C   UNL     1       8.680  -6.278  26.750  1.00  0.00     0.111 A 
ATOM     23  O   UNL     1       8.976  -6.773  24.433  1.00  0.00    -0.452 OA
ATOM     24  C   UNL     1       9.729  -7.186  27.033  1.00  0.00     0.197 A 
ATOM     25  C   UNL     1       9.925  -7.668  24.675  1.00  0.00     0.138 A 
ATOM     26  C   UNL     1      10.333  -7.896  25.996  1.00  0.00     0.100 A 
ATOM     27  O   UNL     1      10.176  -7.350  28.197  1.00  0.00    -0.289 OA
BRANCH  18  28
ATOM     28  O   UNL     1       7.142  -5.036  23.604  1.00  0.00    -0.490 OA
ATOM     29  C   UNL     1       6.231  -4.145  22.971  1.00  0.00     0.278 C 
ENDBRANCH  18  28
BRANCH  21  30
ATOM     30  O   UNL     1       8.129  -5.679  29.112  1.00  0.00    -0.507 OA
ATOM     31  H   UNL     1       8.798  -6.279  29.566  1.00  0.00     0.293 HD
ENDBRANCH  21  30
BRANCH  25  32
ATOM     32  C   UNL     1      10.533  -8.388  23.530  1.00  0.00     0.017 A 
ATOM     33  C   UNL     1      11.910  -8.295  23.242  1.00  0.00     0.012 A 
ATOM     34  C   UNL     1       9.726  -9.218  22.728  1.00  0.00     0.012 A 
ATOM     35  C   UNL     1      12.459  -9.008  22.171  1.00  0.00     0.001 A 
ATOM     36  C   UNL     1      10.279  -9.925  21.658  1.00  0.00     0.001 A 
ATOM     37  C   UNL     1      11.643  -9.819  21.377  1.00  0.00     0.000 A 
ENDBRANCH  25  32
ENDBRANCH   1  17
TORSDOF 9
ENDMDL
MODEL 9
REMARK VINA RESULT:    -5.346      2.036      3.284
REMARK INTER + INTRA:          -8.342
REMARK INTER:                  -7.084
REMARK INTRA:                  -1.257
REMARK UNBOUND:                -0.808
REMARK SMILES COc1c(O[C@@H]2O[C@H](C(=O)[O-])[C@@H](O)[C@H](O)[C@H]2O)cc(O)c2c(=O)cc(-c3ccccc3)oc12
REMARK SMILES IDX 5 1 6 2 8 3 12 4 7 5 14 6 16 7 9 8 10 9 11 10 13 11 15 13
REMARK SMILES IDX 17 15 4 17 3 18 18 19 33 20 19 21 21 22 32 23 22 24 25 25
REMARK SMILES IDX 24 26 23 27 2 28 1 29 20 30 26 32 27 33 31 34 28 35 30 36
REMARK SMILES IDX 29 37
REMARK H PARENT 13 12 15 14 17 16 20 31
REMARK Flexibility Score: inf
ROOT
ATOM      1  O   UNL     1       5.134  -5.597  27.995  1.00  0.00    -0.458 OA
ENDROOT
BRANCH   1   2
ATOM      2  C   UNL     1       4.803  -4.208  27.903  1.00  0.00     0.339 C 
ATOM      3  C   UNL     1       3.002  -2.740  28.011  1.00  0.00     0.199 C 
ATOM      4  C   UNL     1       3.642  -1.817  26.926  1.00  0.00     0.180 C 
ATOM      5  O   UNL     1       3.393  -4.096  27.858  1.00  0.00    -0.328 OA
ATOM      6  C   UNL     1       4.484  -2.627  25.910  1.00  0.00     0.181 C 
ATOM      7  C   UNL     1       5.432  -3.629  26.613  1.00  0.00     0.214 C 
BRANCH   3   8
ATOM      8  C   UNL     1       1.503  -2.668  27.952  1.00  0.00     0.073 C 
ATOM      9  O   UNL     1       0.825  -2.640  29.013  1.00  0.00    -0.547 OA
ATOM     10  O   UNL     1       0.857  -2.689  26.723  1.00  0.00    -0.547 OA
ENDBRANCH   3   8
BRANCH   4  11
ATOM     11  O   UNL     1       4.412  -0.800  27.519  1.00  0.00    -0.387 OA
ATOM     12  H   UNL     1       5.355  -0.913  27.230  1.00  0.00     0.211 HD
ENDBRANCH   4  11
BRANCH   6  13
ATOM     13  O   UNL     1       3.624  -3.342  25.056  1.00  0.00    -0.387 OA
ATOM     14  H   UNL     1       2.717  -3.302  25.457  1.00  0.00     0.211 HD
ENDBRANCH   6  13
BRANCH   7  15
ATOM     15  O   UNL     1       6.650  -3.004  26.935  1.00  0.00    -0.384 OA
ATOM     16  H   UNL     1       6.620  -2.796  27.904  1.00  0.00     0.211 HD
ENDBRANCH   7  15
ENDBRANCH   1   2
BRANCH   1  17
ATOM     17  C   UNL     1       5.252  -6.503  26.928  1.00  0.00     0.172 A 
ATOM     18  C   UNL     1       6.517  -6.729  26.340  1.00  0.00     0.205 A 
ATOM     19  C   UNL     1       4.136  -7.198  26.436  1.00  0.00     0.097 A 
ATOM     20  C   UNL     1       6.627  -7.598  25.245  1.00  0.00     0.188 A 
ATOM     21  C   UNL     1       4.226  -8.044  25.325  1.00  0.00     0.134 A 
ATOM     22  C   UNL     1       5.496  -8.281  24.723  1.00  0.00     0.111 A 
ATOM     23  O   UNL     1       7.829  -7.770  24.704  1.00  0.00    -0.452 OA
ATOM     24  C   UNL     1       5.728  -9.180  23.654  1.00  0.00     0.197 A 
ATOM     25  C   UNL     1       8.064  -8.566  23.669  1.00  0.00     0.138 A 
ATOM     26  C   UNL     1       7.009  -9.303  23.115  1.00  0.00     0.100 A 
ATOM     27  O   UNL     1       4.822  -9.917  23.191  1.00  0.00    -0.289 OA
BRANCH  18  28
ATOM     28  O   UNL     1       7.707  -6.126  26.789  1.00  0.00    -0.490 OA
ATOM     29  C   UNL     1       8.485  -6.515  27.916  1.00  0.00     0.278 C 
ENDBRANCH  18  28
BRANCH  21  30
ATOM     30  O   UNL     1       3.021  -8.585  24.864  1.00  0.00    -0.507 OA
ATOM     31  H   UNL     1       2.602  -8.413  23.964  1.00  0.00     0.293 HD
ENDBRANCH  21  30
BRANCH  25  32
ATOM     32  C   UNL     1       9.448  -8.658  23.142  1.00  0.00     0.017 A 
ATOM     33  C   UNL     1      10.544  -8.107  23.837  1.00  0.00     0.012 A 
ATOM     34  C   UNL     1       9.683  -9.345  21.935  1.00  0.00     0.012 A 
ATOM     35  C   UNL     1      11.840  -8.235  23.328  1.00  0.00     0.001 A 
ATOM     36  C   UNL     1      10.980  -9.466  21.430  1.00  0.00     0.001 A 
ATOM     37  C   UNL     1      12.058  -8.910  22.123  1.00  0.00     0.000 A 
ENDBRANCH  25  32
ENDBRANCH   1  17
TORSDOF 9
ENDMDL
