MODEL 1
REMARK VINA RESULT:    -3.450      0.000      0.000
REMARK INTER + INTRA:          -8.726
REMARK INTER:                  -6.274
REMARK INTRA:                  -2.452
REMARK UNBOUND:                -2.452
REMARK SMILES CCCCCCCCCCCCCCCC(=O)[O-]
REMARK SMILES IDX 9 1 10 2 11 3 12 4 13 5 14 6 15 7 16 8 17 9 18 10 8 11 7 12
REMARK SMILES IDX 6 13 5 14 4 15 3 16 2 17 1 18
REMARK H PARENT
REMARK Flexibility Score: inf
ROOT
ATOM      1  C   UNL     1       4.302  -5.478  -0.271  1.00  0.00     0.000 C 
ENDROOT
BRANCH   1   2
ATOM      2  C   UNL     1       5.623  -5.170   0.451  1.00  0.00     0.000 C 
BRANCH   2   3
ATOM      3  C   UNL     1       5.457  -3.992   1.418  1.00  0.00     0.000 C 
BRANCH   3   4
ATOM      4  C   UNL     1       6.749  -3.166   1.506  1.00  0.00     0.000 C 
BRANCH   4   5
ATOM      5  C   UNL     1       6.544  -1.699   1.096  1.00  0.00     0.000 C 
BRANCH   5   6
ATOM      6  C   UNL     1       5.209  -1.467   0.373  1.00  0.00     0.006 C 
BRANCH   6   7
ATOM      7  C   UNL     1       5.439  -0.901  -1.032  1.00  0.00     0.053 C 
BRANCH   7   8
ATOM      8  C   UNL     1       6.248  -1.854  -1.854  1.00  0.00     0.041 C 
ATOM      9  O   UNL     1       5.718  -2.896  -2.321  1.00  0.00    -0.550 OA
ATOM     10  O   UNL     1       7.575  -1.567  -2.146  1.00  0.00    -0.550 OA
ENDBRANCH   7   8
ENDBRANCH   6   7
ENDBRANCH   5   6
ENDBRANCH   4   5
ENDBRANCH   3   4
ENDBRANCH   2   3
ENDBRANCH   1   2
BRANCH   1  11
ATOM     11  C   UNL     1       3.225  -4.411  -0.014  1.00  0.00     0.000 C 
BRANCH  11  12
ATOM     12  C   UNL     1       1.813  -5.011   0.095  1.00  0.00    -0.000 C 
BRANCH  12  13
ATOM     13  C   UNL     1       1.502  -5.531   1.507  1.00  0.00    -0.000 C 
BRANCH  13  14
ATOM     14  C   UNL     1       1.841  -4.502   2.601  1.00  0.00    -0.000 C 
BRANCH  14  15
ATOM     15  C   UNL     1       2.849  -5.041   3.629  1.00  0.00    -0.000 C 
BRANCH  15  16
ATOM     16  C   UNL     1       2.897  -6.579   3.657  1.00  0.00    -0.000 C 
BRANCH  16  17
ATOM     17  C   UNL     1       4.296  -7.129   3.337  1.00  0.00    -0.003 C 
ATOM     18  C   UNL     1       4.278  -8.193   2.240  1.00  0.00     0.004 C 
ENDBRANCH  16  17
ENDBRANCH  15  16
ENDBRANCH  14  15
ENDBRANCH  13  14
ENDBRANCH  12  13
ENDBRANCH  11  12
ENDBRANCH   1  11
TORSDOF 14
ENDMDL
MODEL 2
REMARK VINA RESULT:    -3.386      1.314      2.176
REMARK INTER + INTRA:          -8.609
REMARK INTER:                  -6.395
REMARK INTRA:                  -2.214
REMARK UNBOUND:                -2.452
REMARK SMILES CCCCCCCCCCCCCCCC(=O)[O-]
REMARK SMILES IDX 9 1 10 2 11 3 12 4 13 5 14 6 15 7 16 8 17 9 18 10 8 11 7 12
REMARK SMILES IDX 6 13 5 14 4 15 3 16 2 17 1 18
REMARK H PARENT
REMARK Flexibility Score: inf
ROOT
ATOM      1  C   UNL     1       1.919  -5.280   0.222  1.00  0.00     0.000 C 
ENDROOT
BRANCH   1   2
ATOM      2  C   UNL     1       3.161  -5.994  -0.333  1.00  0.00     0.000 C 
BRANCH   2   3
ATOM      3  C   UNL     1       4.429  -5.175  -0.068  1.00  0.00     0.000 C 
BRANCH   3   4
ATOM      4  C   UNL     1       4.174  -3.677  -0.297  1.00  0.00     0.000 C 
BRANCH   4   5
ATOM      5  C   UNL     1       4.793  -2.796   0.800  1.00  0.00     0.000 C 
BRANCH   5   6
ATOM      6  C   UNL     1       5.813  -1.790   0.246  1.00  0.00     0.006 C 
BRANCH   6   7
ATOM      7  C   UNL     1       5.832  -1.818  -1.285  1.00  0.00     0.053 C 
BRANCH   7   8
ATOM      8  C   UNL     1       5.844  -0.425  -1.834  1.00  0.00     0.041 C 
ATOM      9  O   UNL     1       4.915  -0.033  -2.587  1.00  0.00    -0.550 OA
ATOM     10  O   UNL     1       6.856   0.455  -1.474  1.00  0.00    -0.550 OA
ENDBRANCH   7   8
ENDBRANCH   6   7
ENDBRANCH   5   6
ENDBRANCH   4   5
ENDBRANCH   3   4
ENDBRANCH   2   3
ENDBRANCH   1   2
BRANCH   1  11
ATOM     11  C   UNL     1       1.241  -6.069   1.355  1.00  0.00     0.000 C 
BRANCH  11  12
ATOM     12  C   UNL     1       1.114  -5.250   2.651  1.00  0.00    -0.000 C 
BRANCH  12  13
ATOM     13  C   UNL     1       2.393  -4.463   2.977  1.00  0.00    -0.000 C 
BRANCH  13  14
ATOM     14  C   UNL     1       3.269  -5.171   4.026  1.00  0.00    -0.000 C 
BRANCH  14  15
ATOM     15  C   UNL     1       4.350  -6.061   3.392  1.00  0.00    -0.000 C 
BRANCH  15  16
ATOM     16  C   UNL     1       4.018  -7.560   3.503  1.00  0.00    -0.000 C 
BRANCH  16  17
ATOM     17  C   UNL     1       4.357  -8.333   2.220  1.00  0.00    -0.003 C 
ATOM     18  C   UNL     1       3.214  -9.232   1.749  1.00  0.00     0.004 C 
ENDBRANCH  16  17
ENDBRANCH  15  16
ENDBRANCH  14  15
ENDBRANCH  13  14
ENDBRANCH  12  13
ENDBRANCH  11  12
ENDBRANCH   1  11
TORSDOF 14
ENDMDL
MODEL 3
REMARK VINA RESULT:    -3.364      2.788      6.304
REMARK INTER + INTRA:          -8.570
REMARK INTER:                  -6.533
REMARK INTRA:                  -2.037
REMARK UNBOUND:                -2.452
REMARK SMILES CCCCCCCCCCCCCCCC(=O)[O-]
REMARK SMILES IDX 9 1 10 2 11 3 12 4 13 5 14 6 15 7 16 8 17 9 18 10 8 11 7 12
REMARK SMILES IDX 6 13 5 14 4 15 3 16 2 17 1 18
REMARK H PARENT
REMARK Flexibility Score: inf
ROOT
ATOM      1  C   UNL     1       7.424  -0.999   1.744  1.00  0.00     0.000 C 
ENDROOT
BRANCH   1   2
ATOM      2  C   UNL     1       8.334  -2.014   2.452  1.00  0.00     0.000 C 
BRANCH   2   3
ATOM      3  C   UNL     1       7.846  -3.447   2.214  1.00  0.00     0.000 C 
BRANCH   3   4
ATOM      4  C   UNL     1       6.508  -3.454   1.460  1.00  0.00     0.000 C 
BRANCH   4   5
ATOM      5  C   UNL     1       6.134  -4.847   0.928  1.00  0.00     0.000 C 
BRANCH   5   6
ATOM      6  C   UNL     1       4.676  -4.928   0.453  1.00  0.00     0.006 C 
BRANCH   6   7
ATOM      7  C   UNL     1       3.843  -3.788   1.047  1.00  0.00     0.053 C 
BRANCH   7   8
ATOM      8  C   UNL     1       2.424  -4.221   1.239  1.00  0.00     0.041 C 
ATOM      9  O   UNL     1       1.880  -4.129   2.370  1.00  0.00    -0.550 OA
ATOM     10  O   UNL     1       1.686  -4.681   0.155  1.00  0.00    -0.550 OA
ENDBRANCH   7   8
ENDBRANCH   6   7
ENDBRANCH   5   6
ENDBRANCH   4   5
ENDBRANCH   3   4
ENDBRANCH   2   3
ENDBRANCH   1   2
BRANCH   1  11
ATOM     11  C   UNL     1       8.050   0.404   1.666  1.00  0.00     0.000 C 
BRANCH  11  12
ATOM     12  C   UNL     1       8.232   0.890   0.219  1.00  0.00    -0.000 C 
BRANCH  12  13
ATOM     13  C   UNL     1       7.674  -0.105  -0.811  1.00  0.00    -0.000 C 
BRANCH  13  14
ATOM     14  C   UNL     1       6.775   0.575  -1.860  1.00  0.00    -0.000 C 
BRANCH  14  15
ATOM     15  C   UNL     1       5.570  -0.292  -2.258  1.00  0.00    -0.000 C 
BRANCH  15  16
ATOM     16  C   UNL     1       5.557  -1.651  -1.537  1.00  0.00    -0.000 C 
BRANCH  16  17
ATOM     17  C   UNL     1       5.852  -2.823  -2.486  1.00  0.00    -0.003 C 
ATOM     18  C   UNL     1       7.241  -3.426  -2.273  1.00  0.00     0.004 C 
ENDBRANCH  16  17
ENDBRANCH  15  16
ENDBRANCH  14  15
ENDBRANCH  13  14
ENDBRANCH  12  13
ENDBRANCH  11  12
ENDBRANCH   1  11
TORSDOF 14
ENDMDL
MODEL 4
REMARK VINA RESULT:    -3.362      2.749      5.924
REMARK INTER + INTRA:          -8.566
REMARK INTER:                  -6.008
REMARK INTRA:                  -2.558
REMARK UNBOUND:                -2.452
REMARK SMILES CCCCCCCCCCCCCCCC(=O)[O-]
REMARK SMILES IDX 9 1 10 2 11 3 12 4 13 5 14 6 15 7 16 8 17 9 18 10 8 11 7 12
REMARK SMILES IDX 6 13 5 14 4 15 3 16 2 17 1 18
REMARK H PARENT
REMARK Flexibility Score: inf
ROOT
ATOM      1  C   UNL     1       6.786  -1.756   0.917  1.00  0.00     0.000 C 
ENDROOT
BRANCH   1   2
ATOM      2  C   UNL     1       6.970  -3.229   1.311  1.00  0.00     0.000 C 
BRANCH   2   3
ATOM      3  C   UNL     1       5.618  -3.944   1.406  1.00  0.00     0.000 C 
BRANCH   3   4
ATOM      4  C   UNL     1       5.625  -5.245   0.590  1.00  0.00     0.000 C 
BRANCH   4   5
ATOM      5  C   UNL     1       4.311  -5.474  -0.174  1.00  0.00     0.000 C 
BRANCH   5   6
ATOM      6  C   UNL     1       3.284  -4.357   0.067  1.00  0.00     0.006 C 
BRANCH   6   7
ATOM      7  C   UNL     1       1.892  -4.942   0.328  1.00  0.00     0.053 C 
BRANCH   7   8
ATOM      8  C   UNL     1       1.578  -4.914   1.791  1.00  0.00     0.041 C 
ATOM      9  O   UNL     1       0.736  -5.715   2.274  1.00  0.00    -0.550 OA
ATOM     10  O   UNL     1       2.252  -4.035   2.629  1.00  0.00    -0.550 OA
ENDBRANCH   7   8
ENDBRANCH   6   7
ENDBRANCH   5   6
ENDBRANCH   4   5
ENDBRANCH   3   4
ENDBRANCH   2   3
ENDBRANCH   1   2
BRANCH   1  11
ATOM     11  C   UNL     1       5.341  -1.430   0.504  1.00  0.00     0.000 C 
BRANCH  11  12
ATOM     12  C   UNL     1       5.229  -1.003  -0.969  1.00  0.00    -0.000 C 
BRANCH  12  13
ATOM     13  C   UNL     1       6.369  -1.565  -1.833  1.00  0.00    -0.000 C 
BRANCH  13  14
ATOM     14  C   UNL     1       5.967  -2.856  -2.569  1.00  0.00    -0.000 C 
BRANCH  14  15
ATOM     15  C   UNL     1       7.057  -3.939  -2.504  1.00  0.00    -0.000 C 
BRANCH  15  16
ATOM     16  C   UNL     1       8.477  -3.351  -2.580  1.00  0.00    -0.000 C 
BRANCH  16  17
ATOM     17  C   UNL     1       9.480  -4.126  -1.712  1.00  0.00    -0.003 C 
ATOM     18  C   UNL     1       8.877  -5.383  -1.085  1.00  0.00     0.004 C 
ENDBRANCH  16  17
ENDBRANCH  15  16
ENDBRANCH  14  15
ENDBRANCH  13  14
ENDBRANCH  12  13
ENDBRANCH  11  12
ENDBRANCH   1  11
TORSDOF 14
ENDMDL
MODEL 5
REMARK VINA RESULT:    -3.361      2.864      6.615
REMARK INTER + INTRA:          -8.564
REMARK INTER:                  -6.832
REMARK INTRA:                  -1.732
REMARK UNBOUND:                -2.452
REMARK SMILES CCCCCCCCCCCCCCCC(=O)[O-]
REMARK SMILES IDX 9 1 10 2 11 3 12 4 13 5 14 6 15 7 16 8 17 9 18 10 8 11 7 12
REMARK SMILES IDX 6 13 5 14 4 15 3 16 2 17 1 18
REMARK H PARENT
REMARK Flexibility Score: inf
ROOT
ATOM      1  C   UNL     1       5.789  -3.196  -0.929  1.00  0.00     0.000 C 
ENDROOT
BRANCH   1   2
ATOM      2  C   UNL     1       4.907  -2.520   0.132  1.00  0.00     0.000 C 
BRANCH   2   3
ATOM      3  C   UNL     1       4.143  -3.563   0.956  1.00  0.00     0.000 C 
BRANCH   3   4
ATOM      4  C   UNL     1       3.099  -4.287   0.094  1.00  0.00     0.000 C 
BRANCH   4   5
ATOM      5  C   UNL     1       2.200  -5.225   0.915  1.00  0.00     0.000 C 
BRANCH   5   6
ATOM      6  C   UNL     1       1.974  -4.725   2.350  1.00  0.00     0.006 C 
BRANCH   6   7
ATOM      7  C   UNL     1       2.177  -5.857   3.362  1.00  0.00     0.053 C 
BRANCH   7   8
ATOM      8  C   UNL     1       3.568  -5.821   3.915  1.00  0.00     0.041 C 
ATOM      9  O   UNL     1       3.784  -5.334   5.055  1.00  0.00    -0.550 OA
ATOM     10  O   UNL     1       4.618  -6.370   3.191  1.00  0.00    -0.550 OA
ENDBRANCH   7   8
ENDBRANCH   6   7
ENDBRANCH   5   6
ENDBRANCH   4   5
ENDBRANCH   3   4
ENDBRANCH   2   3
ENDBRANCH   1   2
BRANCH   1  11
ATOM     11  C   UNL     1       6.031  -2.299  -2.155  1.00  0.00     0.000 C 
BRANCH  11  12
ATOM     12  C   UNL     1       5.314  -0.943  -2.045  1.00  0.00    -0.000 C 
BRANCH  12  13
ATOM     13  C   UNL     1       6.294   0.226  -1.858  1.00  0.00    -0.000 C 
BRANCH  13  14
ATOM     14  C   UNL     1       7.755  -0.243  -1.740  1.00  0.00    -0.000 C 
BRANCH  14  15
ATOM     15  C   UNL     1       8.359   0.041  -0.355  1.00  0.00    -0.000 C 
BRANCH  15  16
ATOM     16  C   UNL     1       8.652  -1.246   0.435  1.00  0.00    -0.000 C 
BRANCH  16  17
ATOM     17  C   UNL     1       7.895  -1.300   1.771  1.00  0.00    -0.003 C 
ATOM     18  C   UNL     1       7.493   0.084   2.283  1.00  0.00     0.004 C 
ENDBRANCH  16  17
ENDBRANCH  15  16
ENDBRANCH  14  15
ENDBRANCH  13  14
ENDBRANCH  12  13
ENDBRANCH  11  12
ENDBRANCH   1  11
TORSDOF 14
ENDMDL
MODEL 6
REMARK VINA RESULT:    -3.356      3.049      6.297
REMARK INTER + INTRA:          -8.554
REMARK INTER:                  -6.396
REMARK INTRA:                  -2.158
REMARK UNBOUND:                -2.452
REMARK SMILES CCCCCCCCCCCCCCCC(=O)[O-]
REMARK SMILES IDX 9 1 10 2 11 3 12 4 13 5 14 6 15 7 16 8 17 9 18 10 8 11 7 12
REMARK SMILES IDX 6 13 5 14 4 15 3 16 2 17 1 18
REMARK H PARENT
REMARK Flexibility Score: inf
ROOT
ATOM      1  C   UNL     1       7.650  -4.260   2.219  1.00  0.00     0.000 C 
ENDROOT
BRANCH   1   2
ATOM      2  C   UNL     1       6.142  -4.552   2.219  1.00  0.00     0.000 C 
BRANCH   2   3
ATOM      3  C   UNL     1       5.549  -4.373   0.817  1.00  0.00     0.000 C 
BRANCH   3   4
ATOM      4  C   UNL     1       4.135  -3.778   0.890  1.00  0.00     0.000 C 
BRANCH   4   5
ATOM      5  C   UNL     1       3.113  -4.574   0.061  1.00  0.00     0.000 C 
BRANCH   5   6
ATOM      6  C   UNL     1       1.763  -4.728   0.776  1.00  0.00     0.006 C 
BRANCH   6   7
ATOM      7  C   UNL     1       1.910  -4.486   2.281  1.00  0.00     0.053 C 
BRANCH   7   8
ATOM      8  C   UNL     1       1.826  -5.779   3.031  1.00  0.00     0.041 C 
ATOM      9  O   UNL     1       2.839  -6.236   3.621  1.00  0.00    -0.550 OA
ATOM     10  O   UNL     1       0.615  -6.453   3.118  1.00  0.00    -0.550 OA
ENDBRANCH   7   8
ENDBRANCH   6   7
ENDBRANCH   5   6
ENDBRANCH   4   5
ENDBRANCH   3   4
ENDBRANCH   2   3
ENDBRANCH   1   2
BRANCH   1  11
ATOM     11  C   UNL     1       8.019  -3.051   1.343  1.00  0.00     0.000 C 
BRANCH  11  12
ATOM     12  C   UNL     1       7.797  -1.710   2.064  1.00  0.00    -0.000 C 
BRANCH  12  13
ATOM     13  C   UNL     1       6.689  -0.868   1.412  1.00  0.00    -0.000 C 
BRANCH  13  14
ATOM     14  C   UNL     1       6.863  -0.745  -0.113  1.00  0.00    -0.000 C 
BRANCH  14  15
ATOM     15  C   UNL     1       5.539  -0.909  -0.875  1.00  0.00    -0.000 C 
BRANCH  15  16
ATOM     16  C   UNL     1       5.710  -1.686  -2.192  1.00  0.00    -0.000 C 
BRANCH  16  17
ATOM     17  C   UNL     1       6.981  -2.548  -2.206  1.00  0.00    -0.003 C 
ATOM     18  C   UNL     1       6.714  -3.994  -2.622  1.00  0.00     0.004 C 
ENDBRANCH  16  17
ENDBRANCH  15  16
ENDBRANCH  14  15
ENDBRANCH  13  14
ENDBRANCH  12  13
ENDBRANCH  11  12
ENDBRANCH   1  11
TORSDOF 14
ENDMDL
MODEL 7
REMARK VINA RESULT:    -3.331      2.335      5.654
REMARK INTER + INTRA:          -8.509
REMARK INTER:                  -6.346
REMARK INTRA:                  -2.163
REMARK UNBOUND:                -2.452
REMARK SMILES CCCCCCCCCCCCCCCC(=O)[O-]
REMARK SMILES IDX 9 1 10 2 11 3 12 4 13 5 14 6 15 7 16 8 17 9 18 10 8 11 7 12
REMARK SMILES IDX 6 13 5 14 4 15 3 16 2 17 1 18
REMARK H PARENT
REMARK Flexibility Score: inf
ROOT
ATOM      1  C   UNL     1       6.642  -4.999   2.696  1.00  0.00     0.000 C 
ENDROOT
BRANCH   1   2
ATOM      2  C   UNL     1       5.458  -5.977   2.733  1.00  0.00     0.000 C 
BRANCH   2   3
ATOM      3  C   UNL     1       4.756  -5.938   4.096  1.00  0.00     0.000 C 
BRANCH   3   4
ATOM      4  C   UNL     1       3.230  -5.921   3.928  1.00  0.00     0.000 C 
BRANCH   4   5
ATOM      5  C   UNL     1       2.693  -4.539   3.519  1.00  0.00     0.000 C 
BRANCH   5   6
ATOM      6  C   UNL     1       1.672  -4.615   2.374  1.00  0.00     0.006 C 
BRANCH   6   7
ATOM      7  C   UNL     1       1.727  -5.980   1.682  1.00  0.00     0.053 C 
BRANCH   7   8
ATOM      8  C   UNL     1       1.940  -5.813   0.210  1.00  0.00     0.041 C 
ATOM      9  O   UNL     1       2.492  -6.725  -0.459  1.00  0.00    -0.550 OA
ATOM     10  O   UNL     1       1.484  -4.668  -0.432  1.00  0.00    -0.550 OA
ENDBRANCH   7   8
ENDBRANCH   6   7
ENDBRANCH   5   6
ENDBRANCH   4   5
ENDBRANCH   3   4
ENDBRANCH   2   3
ENDBRANCH   1   2
BRANCH   1  11
ATOM     11  C   UNL     1       6.510  -3.954   1.576  1.00  0.00     0.000 C 
BRANCH  11  12
ATOM     12  C   UNL     1       5.180  -4.071   0.812  1.00  0.00    -0.000 C 
BRANCH  12  13
ATOM     13  C   UNL     1       4.439  -2.728   0.713  1.00  0.00    -0.000 C 
BRANCH  13  14
ATOM     14  C   UNL     1       5.386  -1.554   0.409  1.00  0.00    -0.000 C 
BRANCH  14  15
ATOM     15  C   UNL     1       5.243  -1.034  -1.031  1.00  0.00    -0.000 C 
BRANCH  15  16
ATOM     16  C   UNL     1       6.593  -0.949  -1.764  1.00  0.00    -0.000 C 
BRANCH  16  17
ATOM     17  C   UNL     1       7.357  -2.282  -1.746  1.00  0.00    -0.003 C 
ATOM     18  C   UNL     1       6.684  -3.364  -2.591  1.00  0.00     0.004 C 
ENDBRANCH  16  17
ENDBRANCH  15  16
ENDBRANCH  14  15
ENDBRANCH  13  14
ENDBRANCH  12  13
ENDBRANCH  11  12
ENDBRANCH   1  11
TORSDOF 14
ENDMDL
MODEL 8
REMARK VINA RESULT:    -3.326      2.722      6.256
REMARK INTER + INTRA:          -8.501
REMARK INTER:                  -6.795
REMARK INTRA:                  -1.707
REMARK UNBOUND:                -2.452
REMARK SMILES CCCCCCCCCCCCCCCC(=O)[O-]
REMARK SMILES IDX 9 1 10 2 11 3 12 4 13 5 14 6 15 7 16 8 17 9 18 10 8 11 7 12
REMARK SMILES IDX 6 13 5 14 4 15 3 16 2 17 1 18
REMARK H PARENT
REMARK Flexibility Score: inf
ROOT
ATOM      1  C   UNL     1       5.215  -5.141   2.078  1.00  0.00     0.000 C 
ENDROOT
BRANCH   1   2
ATOM      2  C   UNL     1       4.882  -5.538   3.524  1.00  0.00     0.000 C 
BRANCH   2   3
ATOM      3  C   UNL     1       3.366  -5.624   3.733  1.00  0.00     0.000 C 
BRANCH   3   4
ATOM      4  C   UNL     1       2.647  -4.469   3.020  1.00  0.00     0.000 C 
BRANCH   4   5
ATOM      5  C   UNL     1       1.495  -4.952   2.123  1.00  0.00     0.000 C 
BRANCH   5   6
ATOM      6  C   UNL     1       1.848  -4.905   0.629  1.00  0.00     0.006 C 
BRANCH   6   7
ATOM      7  C   UNL     1       1.382  -6.179  -0.082  1.00  0.00     0.053 C 
BRANCH   7   8
ATOM      8  C   UNL     1       1.934  -7.392   0.601  1.00  0.00     0.041 C 
ATOM      9  O   UNL     1       1.157  -8.236   1.119  1.00  0.00    -0.550 OA
ATOM     10  O   UNL     1       3.305  -7.613   0.623  1.00  0.00    -0.550 OA
ENDBRANCH   7   8
ENDBRANCH   6   7
ENDBRANCH   5   6
ENDBRANCH   4   5
ENDBRANCH   3   4
ENDBRANCH   2   3
ENDBRANCH   1   2
BRANCH   1  11
ATOM     11  C   UNL     1       6.562  -4.407   1.962  1.00  0.00     0.000 C 
BRANCH  11  12
ATOM     12  C   UNL     1       6.424  -3.016   1.320  1.00  0.00    -0.000 C 
BRANCH  12  13
ATOM     13  C   UNL     1       5.001  -2.744   0.807  1.00  0.00    -0.000 C 
BRANCH  13  14
ATOM     14  C   UNL     1       4.832  -3.108  -0.679  1.00  0.00    -0.000 C 
BRANCH  14  15
ATOM     15  C   UNL     1       5.985  -2.587  -1.552  1.00  0.00    -0.000 C 
BRANCH  15  16
ATOM     16  C   UNL     1       5.544  -1.457  -2.499  1.00  0.00    -0.000 C 
BRANCH  16  17
ATOM     17  C   UNL     1       5.696  -0.066  -1.865  1.00  0.00    -0.003 C 
ATOM     18  C   UNL     1       7.140   0.257  -1.481  1.00  0.00     0.004 C 
ENDBRANCH  16  17
ENDBRANCH  15  16
ENDBRANCH  14  15
ENDBRANCH  13  14
ENDBRANCH  12  13
ENDBRANCH  11  12
ENDBRANCH   1  11
TORSDOF 14
ENDMDL
MODEL 9
REMARK VINA RESULT:    -3.304      2.951      6.121
REMARK INTER + INTRA:          -8.461
REMARK INTER:                  -6.295
REMARK INTRA:                  -2.166
REMARK UNBOUND:                -2.452
REMARK SMILES CCCCCCCCCCCCCCCC(=O)[O-]
REMARK SMILES IDX 9 1 10 2 11 3 12 4 13 5 14 6 15 7 16 8 17 9 18 10 8 11 7 12
REMARK SMILES IDX 6 13 5 14 4 15 3 16 2 17 1 18
REMARK H PARENT
REMARK Flexibility Score: inf
ROOT
ATOM      1  C   UNL     1       7.786  -0.164  -0.686  1.00  0.00     0.000 C 
ENDROOT
BRANCH   1   2
ATOM      2  C   UNL     1       6.903   0.395  -1.812  1.00  0.00     0.000 C 
BRANCH   2   3
ATOM      3  C   UNL     1       5.637  -0.451  -1.987  1.00  0.00     0.000 C 
BRANCH   3   4
ATOM      4  C   UNL     1       5.231  -1.113  -0.662  1.00  0.00     0.000 C 
BRANCH   4   5
ATOM      5  C   UNL     1       4.887  -2.603  -0.825  1.00  0.00     0.000 C 
BRANCH   5   6
ATOM      6  C   UNL     1       4.625  -3.300   0.519  1.00  0.00     0.006 C 
BRANCH   6   7
ATOM      7  C   UNL     1       3.891  -4.628   0.311  1.00  0.00     0.053 C 
BRANCH   7   8
ATOM      8  C   UNL     1       2.457  -4.504   0.724  1.00  0.00     0.041 C 
ATOM      9  O   UNL     1       1.550  -5.032   0.030  1.00  0.00    -0.550 OA
ATOM     10  O   UNL     1       2.128  -3.846   1.902  1.00  0.00    -0.550 OA
ENDBRANCH   7   8
ENDBRANCH   6   7
ENDBRANCH   5   6
ENDBRANCH   4   5
ENDBRANCH   3   4
ENDBRANCH   2   3
ENDBRANCH   1   2
BRANCH   1  11
ATOM     11  C   UNL     1       8.503   0.941   0.107  1.00  0.00     0.000 C 
BRANCH  11  12
ATOM     12  C   UNL     1       8.174   0.899   1.609  1.00  0.00    -0.000 C 
BRANCH  12  13
ATOM     13  C   UNL     1       7.400  -0.368   2.006  1.00  0.00    -0.000 C 
BRANCH  13  14
ATOM     14  C   UNL     1       8.308  -1.438   2.639  1.00  0.00    -0.000 C 
BRANCH  14  15
ATOM     15  C   UNL     1       8.015  -2.851   2.110  1.00  0.00    -0.000 C 
BRANCH  15  16
ATOM     16  C   UNL     1       8.907  -3.229   0.915  1.00  0.00    -0.000 C 
BRANCH  16  17
ATOM     17  C   UNL     1       8.161  -4.071  -0.132  1.00  0.00    -0.003 C 
ATOM     18  C   UNL     1       8.486  -3.657  -1.568  1.00  0.00     0.004 C 
ENDBRANCH  16  17
ENDBRANCH  15  16
ENDBRANCH  14  15
ENDBRANCH  13  14
ENDBRANCH  12  13
ENDBRANCH  11  12
ENDBRANCH   1  11
TORSDOF 14
ENDMDL
