MODEL 1
REMARK VINA RESULT:    -4.483      0.000      0.000
REMARK INTER + INTRA:          -7.317
REMARK INTER:                  -6.842
REMARK INTRA:                  -0.475
REMARK UNBOUND:                -0.475
REMARK SMILES CCCCCCCCCCC(=O)[O-]
REMARK SMILES IDX 7 1 8 2 9 3 10 4 11 5 12 6 13 7 6 8 5 9 4 10 3 11 2 12 1 13
REMARK H PARENT
REMARK Flexibility Score: inf
ROOT
ATOM      1  C   UNL     1      23.207   4.925  15.369  1.00  0.00     0.000 C 
ENDROOT
BRANCH   1   2
ATOM      2  C   UNL     1      24.051   3.687  15.027  1.00  0.00     0.000 C 
BRANCH   2   3
ATOM      3  C   UNL     1      24.781   3.822  13.682  1.00  0.00     0.006 C 
BRANCH   3   4
ATOM      4  C   UNL     1      25.920   2.803  13.572  1.00  0.00     0.053 C 
BRANCH   4   5
ATOM      5  C   UNL     1      26.178   2.459  12.139  1.00  0.00     0.041 C 
ATOM      6  O   UNL     1      25.635   1.447  11.622  1.00  0.00    -0.550 OA
ATOM      7  O   UNL     1      27.059   3.226  11.388  1.00  0.00    -0.550 OA
ENDBRANCH   4   5
ENDBRANCH   3   4
ENDBRANCH   2   3
ENDBRANCH   1   2
BRANCH   1   8
ATOM      8  C   UNL     1      24.051   6.209  15.458  1.00  0.00     0.000 C 
BRANCH   8   9
ATOM      9  C   UNL     1      23.308   7.445  14.928  1.00  0.00    -0.000 C 
BRANCH   9  10
ATOM     10  C   UNL     1      23.438   8.657  15.865  1.00  0.00    -0.000 C 
BRANCH  10  11
ATOM     11  C   UNL     1      23.834   8.265  17.301  1.00  0.00    -0.000 C 
BRANCH  11  12
ATOM     12  C   UNL     1      22.977   8.900  18.409  1.00  0.00    -0.003 C 
ATOM     13  C   UNL     1      21.475   8.765  18.158  1.00  0.00     0.004 C 
ENDBRANCH  11  12
ENDBRANCH  10  11
ENDBRANCH   9  10
ENDBRANCH   8   9
ENDBRANCH   1   8
TORSDOF 9
ENDMDL
MODEL 2
REMARK VINA RESULT:    -4.336      1.933      3.242
REMARK INTER + INTRA:          -7.091
REMARK INTER:                  -6.140
REMARK INTRA:                  -0.951
REMARK UNBOUND:                -0.475
REMARK SMILES CCCCCCCCCCC(=O)[O-]
REMARK SMILES IDX 7 1 8 2 9 3 10 4 11 5 12 6 13 7 6 8 5 9 4 10 3 11 2 12 1 13
REMARK H PARENT
REMARK Flexibility Score: inf
ROOT
ATOM      1  C   UNL     1      22.972   5.035  15.142  1.00  0.00     0.000 C 
ENDROOT
BRANCH   1   2
ATOM      2  C   UNL     1      24.103   4.004  14.997  1.00  0.00     0.000 C 
BRANCH   2   3
ATOM      3  C   UNL     1      24.602   3.874  13.550  1.00  0.00     0.006 C 
BRANCH   3   4
ATOM      4  C   UNL     1      26.003   3.256  13.507  1.00  0.00     0.053 C 
BRANCH   4   5
ATOM      5  C   UNL     1      26.283   2.685  12.153  1.00  0.00     0.041 C 
ATOM      6  O   UNL     1      25.685   1.646  11.767  1.00  0.00    -0.550 OA
ATOM      7  O   UNL     1      27.240   3.271  11.336  1.00  0.00    -0.550 OA
ENDBRANCH   4   5
ENDBRANCH   3   4
ENDBRANCH   2   3
ENDBRANCH   1   2
BRANCH   1   8
ATOM      8  C   UNL     1      23.100   6.196  14.140  1.00  0.00     0.000 C 
BRANCH   8   9
ATOM      9  C   UNL     1      23.768   7.438  14.753  1.00  0.00    -0.000 C 
BRANCH   9  10
ATOM     10  C   UNL     1      25.057   7.837  14.016  1.00  0.00    -0.000 C 
BRANCH  10  11
ATOM     11  C   UNL     1      26.326   7.587  14.851  1.00  0.00    -0.000 C 
BRANCH  11  12
ATOM     12  C   UNL     1      27.330   6.600  14.229  1.00  0.00    -0.003 C 
ATOM     13  C   UNL     1      27.959   7.119  12.937  1.00  0.00     0.004 C 
ENDBRANCH  11  12
ENDBRANCH  10  11
ENDBRANCH   9  10
ENDBRANCH   8   9
ENDBRANCH   1   8
TORSDOF 9
ENDMDL
MODEL 3
REMARK VINA RESULT:    -4.232     10.630     12.213
REMARK INTER + INTRA:          -6.933
REMARK INTER:                  -6.181
REMARK INTRA:                  -0.752
REMARK UNBOUND:                -0.475
REMARK SMILES CCCCCCCCCCC(=O)[O-]
REMARK SMILES IDX 7 1 8 2 9 3 10 4 11 5 12 6 13 7 6 8 5 9 4 10 3 11 2 12 1 13
REMARK H PARENT
REMARK Flexibility Score: inf
ROOT
ATOM      1  C   UNL     1      20.359   6.063   4.759  1.00  0.00     0.000 C 
ENDROOT
BRANCH   1   2
ATOM      2  C   UNL     1      20.628   6.020   3.246  1.00  0.00     0.000 C 
BRANCH   2   3
ATOM      3  C   UNL     1      20.188   7.307   2.531  1.00  0.00     0.006 C 
BRANCH   3   4
ATOM      4  C   UNL     1      18.935   7.896   3.187  1.00  0.00     0.053 C 
BRANCH   4   5
ATOM      5  C   UNL     1      17.709   7.499   2.427  1.00  0.00     0.041 C 
ATOM      6  O   UNL     1      17.219   6.348   2.571  1.00  0.00    -0.550 OA
ATOM      7  O   UNL     1      17.136   8.382   1.522  1.00  0.00    -0.550 OA
ENDBRANCH   4   5
ENDBRANCH   3   4
ENDBRANCH   2   3
ENDBRANCH   1   2
BRANCH   1   8
ATOM      8  C   UNL     1      20.186   4.659   5.367  1.00  0.00     0.000 C 
BRANCH   8   9
ATOM      9  C   UNL     1      20.924   4.497   6.705  1.00  0.00    -0.000 C 
BRANCH   9  10
ATOM     10  C   UNL     1      21.367   5.844   7.300  1.00  0.00    -0.000 C 
BRANCH  10  11
ATOM     11  C   UNL     1      22.897   6.020   7.312  1.00  0.00    -0.000 C 
BRANCH  11  12
ATOM     12  C   UNL     1      23.689   4.875   6.655  1.00  0.00    -0.003 C 
ATOM     13  C   UNL     1      24.479   5.321   5.426  1.00  0.00     0.004 C 
ENDBRANCH  11  12
ENDBRANCH  10  11
ENDBRANCH   9  10
ENDBRANCH   8   9
ENDBRANCH   1   8
TORSDOF 9
ENDMDL
MODEL 4
REMARK VINA RESULT:    -4.201      5.091      7.660
REMARK INTER + INTRA:          -6.886
REMARK INTER:                  -6.117
REMARK INTRA:                  -0.770
REMARK UNBOUND:                -0.475
REMARK SMILES CCCCCCCCCCC(=O)[O-]
REMARK SMILES IDX 7 1 8 2 9 3 10 4 11 5 12 6 13 7 6 8 5 9 4 10 3 11 2 12 1 13
REMARK H PARENT
REMARK Flexibility Score: inf
ROOT
ATOM      1  C   UNL     1      23.044   8.925  15.963  1.00  0.00     0.000 C 
ENDROOT
BRANCH   1   2
ATOM      2  C   UNL     1      22.872   8.146  17.277  1.00  0.00     0.000 C 
BRANCH   2   3
ATOM      3  C   UNL     1      21.718   8.684  18.137  1.00  0.00     0.006 C 
BRANCH   3   4
ATOM      4  C   UNL     1      21.163   9.988  17.555  1.00  0.00     0.053 C 
BRANCH   4   5
ATOM      5  C   UNL     1      21.438  11.133  18.477  1.00  0.00     0.041 C 
ATOM      6  O   UNL     1      22.605  11.338  18.901  1.00  0.00    -0.550 OA
ATOM      7  O   UNL     1      20.396  11.944  18.908  1.00  0.00    -0.550 OA
ENDBRANCH   4   5
ENDBRANCH   3   4
ENDBRANCH   2   3
ENDBRANCH   1   2
BRANCH   1   8
ATOM      8  C   UNL     1      24.450   8.759  15.359  1.00  0.00     0.000 C 
BRANCH   8   9
ATOM      9  C   UNL     1      24.447   7.913  14.076  1.00  0.00    -0.000 C 
BRANCH   9  10
ATOM     10  C   UNL     1      23.048   7.381  13.723  1.00  0.00    -0.000 C 
BRANCH  10  11
ATOM     11  C   UNL     1      22.984   5.843  13.686  1.00  0.00    -0.000 C 
BRANCH  11  12
ATOM     12  C   UNL     1      23.287   5.146  15.024  1.00  0.00    -0.003 C 
ATOM     13  C   UNL     1      24.110   3.868  14.863  1.00  0.00     0.004 C 
ENDBRANCH  11  12
ENDBRANCH  10  11
ENDBRANCH   9  10
ENDBRANCH   8   9
ENDBRANCH   1   8
TORSDOF 9
ENDMDL
MODEL 5
REMARK VINA RESULT:    -4.195     10.409     12.075
REMARK INTER + INTRA:          -6.876
REMARK INTER:                  -6.096
REMARK INTRA:                  -0.780
REMARK UNBOUND:                -0.475
REMARK SMILES CCCCCCCCCCC(=O)[O-]
REMARK SMILES IDX 7 1 8 2 9 3 10 4 11 5 12 6 13 7 6 8 5 9 4 10 3 11 2 12 1 13
REMARK H PARENT
REMARK Flexibility Score: inf
ROOT
ATOM      1  C   UNL     1      15.838  10.226   9.889  1.00  0.00     0.000 C 
ENDROOT
BRANCH   1   2
ATOM      2  C   UNL     1      15.196  11.127   8.822  1.00  0.00     0.000 C 
BRANCH   2   3
ATOM      3  C   UNL     1      14.922  12.549   9.336  1.00  0.00     0.006 C 
BRANCH   3   4
ATOM      4  C   UNL     1      15.846  12.896  10.507  1.00  0.00     0.053 C 
BRANCH   4   5
ATOM      5  C   UNL     1      15.636  14.313  10.939  1.00  0.00     0.041 C 
ATOM      6  O   UNL     1      16.503  14.897  11.640  1.00  0.00    -0.550 OA
ATOM      7  O   UNL     1      14.459  14.972  10.609  1.00  0.00    -0.550 OA
ENDBRANCH   4   5
ENDBRANCH   3   4
ENDBRANCH   2   3
ENDBRANCH   1   2
BRANCH   1   8
ATOM      8  C   UNL     1      17.146   9.577   9.404  1.00  0.00     0.000 C 
BRANCH   8   9
ATOM      9  C   UNL     1      18.396  10.344   9.866  1.00  0.00    -0.000 C 
BRANCH   9  10
ATOM     10  C   UNL     1      18.762  10.045  11.330  1.00  0.00    -0.000 C 
BRANCH  10  11
ATOM     11  C   UNL     1      19.605  11.161  11.976  1.00  0.00    -0.000 C 
BRANCH  11  12
ATOM     12  C   UNL     1      19.326  12.578  11.443  1.00  0.00    -0.003 C 
ATOM     13  C   UNL     1      20.261  13.634  12.031  1.00  0.00     0.004 C 
ENDBRANCH  11  12
ENDBRANCH  10  11
ENDBRANCH   9  10
ENDBRANCH   8   9
ENDBRANCH   1   8
TORSDOF 9
ENDMDL
MODEL 6
REMARK VINA RESULT:    -4.185     10.861     12.196
REMARK INTER + INTRA:          -6.862
REMARK INTER:                  -6.020
REMARK INTRA:                  -0.841
REMARK UNBOUND:                -0.475
REMARK SMILES CCCCCCCCCCC(=O)[O-]
REMARK SMILES IDX 7 1 8 2 9 3 10 4 11 5 12 6 13 7 6 8 5 9 4 10 3 11 2 12 1 13
REMARK H PARENT
REMARK Flexibility Score: inf
ROOT
ATOM      1  C   UNL     1      17.115   9.492   9.345  1.00  0.00     0.000 C 
ENDROOT
BRANCH   1   2
ATOM      2  C   UNL     1      15.937  10.018  10.181  1.00  0.00     0.000 C 
BRANCH   2   3
ATOM      3  C   UNL     1      15.514  11.438   9.777  1.00  0.00     0.006 C 
BRANCH   3   4
ATOM      4  C   UNL     1      14.631  11.412   8.526  1.00  0.00     0.053 C 
BRANCH   4   5
ATOM      5  C   UNL     1      13.654  12.544   8.550  1.00  0.00     0.041 C 
ATOM      6  O   UNL     1      13.741  13.439   9.431  1.00  0.00    -0.550 OA
ATOM      7  O   UNL     1      12.615  12.585   7.629  1.00  0.00    -0.550 OA
ENDBRANCH   4   5
ENDBRANCH   3   4
ENDBRANCH   2   3
ENDBRANCH   1   2
BRANCH   1   8
ATOM      8  C   UNL     1      18.423  10.254   9.621  1.00  0.00     0.000 C 
BRANCH   8   9
ATOM      9  C   UNL     1      18.717  10.403  11.123  1.00  0.00    -0.000 C 
BRANCH   9  10
ATOM     10  C   UNL     1      19.402  11.738  11.459  1.00  0.00    -0.000 C 
BRANCH  10  11
ATOM     11  C   UNL     1      18.634  12.959  10.917  1.00  0.00    -0.000 C 
BRANCH  11  12
ATOM     12  C   UNL     1      17.922  13.807  11.985  1.00  0.00    -0.003 C 
ATOM     13  C   UNL     1      16.591  14.382  11.504  1.00  0.00     0.004 C 
ENDBRANCH  11  12
ENDBRANCH  10  11
ENDBRANCH   9  10
ENDBRANCH   8   9
ENDBRANCH   1   8
TORSDOF 9
ENDMDL
MODEL 7
REMARK VINA RESULT:    -4.152      2.964      5.208
REMARK INTER + INTRA:          -6.811
REMARK INTER:                  -5.782
REMARK INTRA:                  -1.029
REMARK UNBOUND:                -0.475
REMARK SMILES CCCCCCCCCCC(=O)[O-]
REMARK SMILES IDX 7 1 8 2 9 3 10 4 11 5 12 6 13 7 6 8 5 9 4 10 3 11 2 12 1 13
REMARK H PARENT
REMARK Flexibility Score: inf
ROOT
ATOM      1  C   UNL     1      24.346   7.130  15.766  1.00  0.00     0.000 C 
ENDROOT
BRANCH   1   2
ATOM      2  C   UNL     1      25.860   7.350  15.616  1.00  0.00     0.000 C 
BRANCH   2   3
ATOM      3  C   UNL     1      26.298   7.465  14.149  1.00  0.00     0.006 C 
BRANCH   3   4
ATOM      4  C   UNL     1      27.575   6.658  13.893  1.00  0.00     0.053 C 
BRANCH   4   5
ATOM      5  C   UNL     1      28.522   7.433  13.034  1.00  0.00     0.041 C 
ATOM      6  O   UNL     1      29.706   7.632  13.415  1.00  0.00    -0.550 OA
ATOM      7  O   UNL     1      28.085   7.980  11.835  1.00  0.00    -0.550 OA
ENDBRANCH   4   5
ENDBRANCH   3   4
ENDBRANCH   2   3
ENDBRANCH   1   2
BRANCH   1   8
ATOM      8  C   UNL     1      23.611   7.146  14.414  1.00  0.00     0.000 C 
BRANCH   8   9
ATOM      9  C   UNL     1      23.030   5.774  14.038  1.00  0.00    -0.000 C 
BRANCH   9  10
ATOM     10  C   UNL     1      23.202   4.734  15.158  1.00  0.00    -0.000 C 
BRANCH  10  11
ATOM     11  C   UNL     1      24.263   3.668  14.828  1.00  0.00    -0.000 C 
BRANCH  11  12
ATOM     12  C   UNL     1      24.978   3.858  13.479  1.00  0.00    -0.003 C 
ATOM     13  C   UNL     1      26.172   2.921  13.295  1.00  0.00     0.004 C 
ENDBRANCH  11  12
ENDBRANCH  10  11
ENDBRANCH   9  10
ENDBRANCH   8   9
ENDBRANCH   1   8
TORSDOF 9
ENDMDL
MODEL 8
REMARK VINA RESULT:    -4.124      2.210      3.888
REMARK INTER + INTRA:          -6.768
REMARK INTER:                  -5.854
REMARK INTRA:                  -0.914
REMARK UNBOUND:                -0.475
REMARK SMILES CCCCCCCCCCC(=O)[O-]
REMARK SMILES IDX 7 1 8 2 9 3 10 4 11 5 12 6 13 7 6 8 5 9 4 10 3 11 2 12 1 13
REMARK H PARENT
REMARK Flexibility Score: inf
ROOT
ATOM      1  C   UNL     1      23.975   8.446  16.968  1.00  0.00     0.000 C 
ENDROOT
BRANCH   1   2
ATOM      2  C   UNL     1      23.229   7.301  16.265  1.00  0.00     0.000 C 
BRANCH   2   3
ATOM      3  C   UNL     1      23.694   7.094  14.816  1.00  0.00     0.006 C 
BRANCH   3   4
ATOM      4  C   UNL     1      23.185   5.759  14.262  1.00  0.00     0.053 C 
BRANCH   4   5
ATOM      5  C   UNL     1      24.215   4.690  14.443  1.00  0.00     0.041 C 
ATOM      6  O   UNL     1      23.917   3.614  15.026  1.00  0.00    -0.550 OA
ATOM      7  O   UNL     1      25.518   4.900  14.012  1.00  0.00    -0.550 OA
ENDBRANCH   4   5
ENDBRANCH   3   4
ENDBRANCH   2   3
ENDBRANCH   1   2
BRANCH   1   8
ATOM      8  C   UNL     1      23.306   8.864  18.290  1.00  0.00     0.000 C 
BRANCH   8   9
ATOM      9  C   UNL     1      21.771   8.826  18.215  1.00  0.00    -0.000 C 
BRANCH   9  10
ATOM     10  C   UNL     1      21.150  10.232  18.156  1.00  0.00    -0.000 C 
BRANCH  10  11
ATOM     11  C   UNL     1      20.670  10.615  16.743  1.00  0.00    -0.000 C 
BRANCH  11  12
ATOM     12  C   UNL     1      21.756  11.201  15.824  1.00  0.00    -0.003 C 
ATOM     13  C   UNL     1      21.736  10.605  14.417  1.00  0.00     0.004 C 
ENDBRANCH  11  12
ENDBRANCH  10  11
ENDBRANCH   9  10
ENDBRANCH   8   9
ENDBRANCH   1   8
TORSDOF 9
ENDMDL
MODEL 9
REMARK VINA RESULT:    -4.117      8.267     10.243
REMARK INTER + INTRA:          -6.758
REMARK INTER:                  -6.413
REMARK INTRA:                  -0.345
REMARK UNBOUND:                -0.475
REMARK SMILES CCCCCCCCCCC(=O)[O-]
REMARK SMILES IDX 7 1 8 2 9 3 10 4 11 5 12 6 13 7 6 8 5 9 4 10 3 11 2 12 1 13
REMARK H PARENT
REMARK Flexibility Score: inf
ROOT
ATOM      1  C   UNL     1      23.315   5.823   6.715  1.00  0.00     0.000 C 
ENDROOT
BRANCH   1   2
ATOM      2  C   UNL     1      24.451   5.032   6.048  1.00  0.00     0.000 C 
BRANCH   2   3
ATOM      3  C   UNL     1      24.798   3.742   6.806  1.00  0.00     0.006 C 
BRANCH   3   4
ATOM      4  C   UNL     1      26.315   3.534   6.869  1.00  0.00     0.053 C 
BRANCH   4   5
ATOM      5  C   UNL     1      26.685   2.740   8.081  1.00  0.00     0.041 C 
ATOM      6  O   UNL     1      26.817   1.490   8.004  1.00  0.00    -0.550 OA
ATOM      7  O   UNL     1      26.837   3.374   9.307  1.00  0.00    -0.550 OA
ENDBRANCH   4   5
ENDBRANCH   3   4
ENDBRANCH   2   3
ENDBRANCH   1   2
BRANCH   1   8
ATOM      8  C   UNL     1      21.930   5.454   6.153  1.00  0.00     0.000 C 
BRANCH   8   9
ATOM      9  C   UNL     1      21.894   5.452   4.617  1.00  0.00    -0.000 C 
BRANCH   9  10
ATOM     10  C   UNL     1      20.611   4.815   4.058  1.00  0.00    -0.000 C 
BRANCH  10  11
ATOM     11  C   UNL     1      19.458   5.824   3.906  1.00  0.00    -0.000 C 
BRANCH  11  12
ATOM     12  C   UNL     1      19.769   7.038   3.013  1.00  0.00    -0.003 C 
ATOM     13  C   UNL     1      18.514   7.731   2.485  1.00  0.00     0.004 C 
ENDBRANCH  11  12
ENDBRANCH  10  11
ENDBRANCH   9  10
ENDBRANCH   8   9
ENDBRANCH   1   8
TORSDOF 9
ENDMDL
