MODEL 1
REMARK VINA RESULT:    -3.803      0.000      0.000
REMARK INTER + INTRA:          -5.790
REMARK INTER:                  -5.137
REMARK INTRA:                  -0.653
REMARK UNBOUND:                -0.653
REMARK SMILES CCCCCCCC(=O)[O-]
REMARK SMILES IDX 5 1 6 2 7 3 8 4 9 5 10 6 4 7 3 8 2 9 1 10
REMARK H PARENT
REMARK Flexibility Score: inf
ROOT
ATOM      1  C   UNL     1     160.716 161.138 150.633  1.00  0.00     0.000 C 
ENDROOT
BRANCH   1   2
ATOM      2  C   UNL     1     161.341 161.068 149.231  1.00  0.00     0.006 C 
BRANCH   2   3
ATOM      3  C   UNL     1     160.398 161.605 148.147  1.00  0.00     0.053 C 
BRANCH   3   4
ATOM      4  C   UNL     1     159.479 160.540 147.630  1.00  0.00     0.041 C 
ATOM      5  O   UNL     1     158.307 160.442 148.080  1.00  0.00    -0.550 OA
ATOM      6  O   UNL     1     159.906 159.680 146.627  1.00  0.00    -0.550 OA
ENDBRANCH   3   4
ENDBRANCH   2   3
ENDBRANCH   1   2
BRANCH   1   7
ATOM      7  C   UNL     1     160.649 159.746 151.277  1.00  0.00     0.000 C 
BRANCH   7   8
ATOM      8  C   UNL     1     159.231 159.140 151.214  1.00  0.00    -0.000 C 
BRANCH   8   9
ATOM      9  C   UNL     1     159.146 157.862 150.362  1.00  0.00    -0.003 C 
ATOM     10  C   UNL     1     160.488 157.449 149.766  1.00  0.00     0.004 C 
ENDBRANCH   8   9
ENDBRANCH   7   8
ENDBRANCH   1   7
TORSDOF 6
ENDMDL
MODEL 2
REMARK VINA RESULT:    -3.778      1.674      2.466
REMARK INTER + INTRA:          -5.756
REMARK INTER:                  -5.239
REMARK INTRA:                  -0.518
REMARK UNBOUND:                -0.653
REMARK SMILES CCCCCCCC(=O)[O-]
REMARK SMILES IDX 5 1 6 2 7 3 8 4 9 5 10 6 4 7 3 8 2 9 1 10
REMARK H PARENT
REMARK Flexibility Score: inf
ROOT
ATOM      1  C   UNL     1     160.359 162.713 149.518  1.00  0.00     0.000 C 
ENDROOT
BRANCH   1   2
ATOM      2  C   UNL     1     161.091 161.609 148.740  1.00  0.00     0.006 C 
BRANCH   2   3
ATOM      3  C   UNL     1     160.194 160.951 147.683  1.00  0.00     0.053 C 
BRANCH   3   4
ATOM      4  C   UNL     1     160.296 159.457 147.717  1.00  0.00     0.041 C 
ATOM      5  O   UNL     1     161.182 158.899 148.417  1.00  0.00    -0.550 OA
ATOM      6  O   UNL     1     159.391 158.681 147.005  1.00  0.00    -0.550 OA
ENDBRANCH   3   4
ENDBRANCH   2   3
ENDBRANCH   1   2
BRANCH   1   7
ATOM      7  C   UNL     1     158.986 162.227 150.006  1.00  0.00     0.000 C 
BRANCH   7   8
ATOM      8  C   UNL     1     158.889 162.199 151.546  1.00  0.00    -0.000 C 
BRANCH   8   9
ATOM      9  C   UNL     1     159.310 160.856 152.165  1.00  0.00    -0.003 C 
ATOM     10  C   UNL     1     159.008 159.661 151.265  1.00  0.00     0.004 C 
ENDBRANCH   8   9
ENDBRANCH   7   8
ENDBRANCH   1   7
TORSDOF 6
ENDMDL
MODEL 3
REMARK VINA RESULT:    -3.760      1.402      2.773
REMARK INTER + INTRA:          -5.731
REMARK INTER:                  -5.127
REMARK INTRA:                  -0.604
REMARK UNBOUND:                -0.653
REMARK SMILES CCCCCCCC(=O)[O-]
REMARK SMILES IDX 5 1 6 2 7 3 8 4 9 5 10 6 4 7 3 8 2 9 1 10
REMARK H PARENT
REMARK Flexibility Score: inf
ROOT
ATOM      1  C   UNL     1     159.472 156.978 149.166  1.00  0.00     0.000 C 
ENDROOT
BRANCH   1   2
ATOM      2  C   UNL     1     159.180 157.855 147.939  1.00  0.00     0.006 C 
BRANCH   2   3
ATOM      3  C   UNL     1     160.240 158.946 147.739  1.00  0.00     0.053 C 
BRANCH   3   4
ATOM      4  C   UNL     1     159.646 160.319 147.800  1.00  0.00     0.041 C 
ATOM      5  O   UNL     1     158.417 160.468 148.032  1.00  0.00    -0.550 OA
ATOM      6  O   UNL     1     160.456 161.436 147.636  1.00  0.00    -0.550 OA
ENDBRANCH   3   4
ENDBRANCH   2   3
ENDBRANCH   1   2
BRANCH   1   7
ATOM      7  C   UNL     1     160.745 157.445 149.887  1.00  0.00     0.000 C 
BRANCH   7   8
ATOM      8  C   UNL     1     160.467 157.888 151.338  1.00  0.00    -0.000 C 
BRANCH   8   9
ATOM      9  C   UNL     1     160.424 159.416 151.517  1.00  0.00    -0.003 C 
ATOM     10  C   UNL     1     159.005 159.977 151.534  1.00  0.00     0.004 C 
ENDBRANCH   8   9
ENDBRANCH   7   8
ENDBRANCH   1   7
TORSDOF 6
ENDMDL
MODEL 4
REMARK VINA RESULT:    -3.757      1.576      3.205
REMARK INTER + INTRA:          -5.727
REMARK INTER:                  -5.081
REMARK INTRA:                  -0.647
REMARK UNBOUND:                -0.653
REMARK SMILES CCCCCCCC(=O)[O-]
REMARK SMILES IDX 5 1 6 2 7 3 8 4 9 5 10 6 4 7 3 8 2 9 1 10
REMARK H PARENT
REMARK Flexibility Score: inf
ROOT
ATOM      1  C   UNL     1     159.173 159.944 150.421  1.00  0.00     0.000 C 
ENDROOT
BRANCH   1   2
ATOM      2  C   UNL     1     160.309 158.930 150.222  1.00  0.00     0.006 C 
BRANCH   2   3
ATOM      3  C   UNL     1     160.906 158.996 148.809  1.00  0.00     0.053 C 
BRANCH   3   4
ATOM      4  C   UNL     1     159.849 158.892 147.753  1.00  0.00     0.041 C 
ATOM      5  O   UNL     1     159.725 159.801 146.890  1.00  0.00    -0.550 OA
ATOM      6  O   UNL     1     159.026 157.774 147.699  1.00  0.00    -0.550 OA
ENDBRANCH   3   4
ENDBRANCH   2   3
ENDBRANCH   1   2
BRANCH   1   7
ATOM      7  C   UNL     1     159.724 161.316 150.835  1.00  0.00     0.000 C 
BRANCH   7   8
ATOM      8  C   UNL     1     159.480 162.394 149.758  1.00  0.00    -0.000 C 
BRANCH   8   9
ATOM      9  C   UNL     1     160.731 162.728 148.928  1.00  0.00    -0.003 C 
ATOM     10  C   UNL     1     162.034 162.501 149.690  1.00  0.00     0.004 C 
ENDBRANCH   8   9
ENDBRANCH   7   8
ENDBRANCH   1   7
TORSDOF 6
ENDMDL
MODEL 5
REMARK VINA RESULT:    -3.745      1.380      2.062
REMARK INTER + INTRA:          -5.711
REMARK INTER:                  -5.096
REMARK INTRA:                  -0.616
REMARK UNBOUND:                -0.653
REMARK SMILES CCCCCCCC(=O)[O-]
REMARK SMILES IDX 5 1 6 2 7 3 8 4 9 5 10 6 4 7 3 8 2 9 1 10
REMARK H PARENT
REMARK Flexibility Score: inf
ROOT
ATOM      1  C   UNL     1     160.323 159.580 150.325  1.00  0.00     0.000 C 
ENDROOT
BRANCH   1   2
ATOM      2  C   UNL     1     159.240 160.630 150.036  1.00  0.00     0.006 C 
BRANCH   2   3
ATOM      3  C   UNL     1     158.577 160.421 148.668  1.00  0.00     0.053 C 
BRANCH   3   4
ATOM      4  C   UNL     1     159.577 160.460 147.553  1.00  0.00     0.041 C 
ATOM      5  O   UNL     1     160.384 161.423 147.461  1.00  0.00    -0.550 OA
ATOM      6  O   UNL     1     159.641 159.417 146.639  1.00  0.00    -0.550 OA
ENDBRANCH   3   4
ENDBRANCH   2   3
ENDBRANCH   1   2
BRANCH   1   7
ATOM      7  C   UNL     1     159.696 158.225 150.685  1.00  0.00     0.000 C 
BRANCH   7   8
ATOM      8  C   UNL     1     160.087 157.116 149.686  1.00  0.00    -0.000 C 
BRANCH   8   9
ATOM      9  C   UNL     1     158.923 156.654 148.793  1.00  0.00    -0.003 C 
ATOM     10  C   UNL     1     157.556 156.847 149.443  1.00  0.00     0.004 C 
ENDBRANCH   8   9
ENDBRANCH   7   8
ENDBRANCH   1   7
TORSDOF 6
ENDMDL
MODEL 6
REMARK VINA RESULT:    -3.679      2.048      3.987
REMARK INTER + INTRA:          -5.623
REMARK INTER:                  -5.048
REMARK INTRA:                  -0.575
REMARK UNBOUND:                -0.653
REMARK SMILES CCCCCCCC(=O)[O-]
REMARK SMILES IDX 5 1 6 2 7 3 8 4 9 5 10 6 4 7 3 8 2 9 1 10
REMARK H PARENT
REMARK Flexibility Score: inf
ROOT
ATOM      1  C   UNL     1     160.702 157.456 149.805  1.00  0.00     0.000 C 
ENDROOT
BRANCH   1   2
ATOM      2  C   UNL     1     160.295 157.376 151.284  1.00  0.00     0.006 C 
BRANCH   2   3
ATOM      3  C   UNL     1     160.580 158.682 152.036  1.00  0.00     0.053 C 
BRANCH   3   4
ATOM      4  C   UNL     1     160.144 159.883 151.253  1.00  0.00     0.041 C 
ATOM      5  O   UNL     1     160.993 160.732 150.871  1.00  0.00    -0.550 OA
ATOM      6  O   UNL     1     158.807 160.045 150.913  1.00  0.00    -0.550 OA
ENDBRANCH   3   4
ENDBRANCH   2   3
ENDBRANCH   1   2
BRANCH   1   7
ATOM      7  C   UNL     1     159.521 157.104 148.888  1.00  0.00     0.000 C 
BRANCH   7   8
ATOM      8  C   UNL     1     159.327 158.140 147.761  1.00  0.00    -0.000 C 
BRANCH   8   9
ATOM      9  C   UNL     1     160.480 159.152 147.649  1.00  0.00    -0.003 C 
ATOM     10  C   UNL     1     160.001 160.582 147.415  1.00  0.00     0.004 C 
ENDBRANCH   8   9
ENDBRANCH   7   8
ENDBRANCH   1   7
TORSDOF 6
ENDMDL
MODEL 7
REMARK VINA RESULT:    -3.670      2.160      4.062
REMARK INTER + INTRA:          -5.610
REMARK INTER:                  -5.119
REMARK INTRA:                  -0.491
REMARK UNBOUND:                -0.653
REMARK SMILES CCCCCCCC(=O)[O-]
REMARK SMILES IDX 5 1 6 2 7 3 8 4 9 5 10 6 4 7 3 8 2 9 1 10
REMARK H PARENT
REMARK Flexibility Score: inf
ROOT
ATOM      1  C   UNL     1     159.964 158.934 147.546  1.00  0.00     0.000 C 
ENDROOT
BRANCH   1   2
ATOM      2  C   UNL     1     160.703 158.686 148.870  1.00  0.00     0.006 C 
BRANCH   2   3
ATOM      3  C   UNL     1     159.983 157.658 149.753  1.00  0.00     0.053 C 
BRANCH   3   4
ATOM      4  C   UNL     1     158.650 158.160 150.219  1.00  0.00     0.041 C 
ATOM      5  O   UNL     1     158.585 159.110 151.043  1.00  0.00    -0.550 OA
ATOM      6  O   UNL     1     157.482 157.603 149.716  1.00  0.00    -0.550 OA
ENDBRANCH   3   4
ENDBRANCH   2   3
ENDBRANCH   1   2
BRANCH   1   7
ATOM      7  C   UNL     1     159.932 160.430 147.205  1.00  0.00     0.000 C 
BRANCH   7   8
ATOM      8  C   UNL     1     159.728 161.311 148.455  1.00  0.00    -0.000 C 
BRANCH   8   9
ATOM      9  C   UNL     1     160.717 162.485 148.549  1.00  0.00    -0.003 C 
ATOM     10  C   UNL     1     161.846 162.238 149.547  1.00  0.00     0.004 C 
ENDBRANCH   8   9
ENDBRANCH   7   8
ENDBRANCH   1   7
TORSDOF 6
ENDMDL
MODEL 8
REMARK VINA RESULT:    -3.668      1.456      3.132
REMARK INTER + INTRA:          -5.607
REMARK INTER:                  -4.996
REMARK INTRA:                  -0.611
REMARK UNBOUND:                -0.653
REMARK SMILES CCCCCCCC(=O)[O-]
REMARK SMILES IDX 5 1 6 2 7 3 8 4 9 5 10 6 4 7 3 8 2 9 1 10
REMARK H PARENT
REMARK Flexibility Score: inf
ROOT
ATOM      1  C   UNL     1     158.553 158.871 150.734  1.00  0.00     0.000 C 
ENDROOT
BRANCH   1   2
ATOM      2  C   UNL     1     159.211 157.779 149.878  1.00  0.00     0.006 C 
BRANCH   2   3
ATOM      3  C   UNL     1     158.962 157.988 148.378  1.00  0.00     0.053 C 
BRANCH   3   4
ATOM      4  C   UNL     1     159.997 158.878 147.760  1.00  0.00     0.041 C 
ATOM      5  O   UNL     1     161.143 158.968 148.274  1.00  0.00    -0.550 OA
ATOM      6  O   UNL     1     159.707 159.578 146.596  1.00  0.00    -0.550 OA
ENDBRANCH   3   4
ENDBRANCH   2   3
ENDBRANCH   1   2
BRANCH   1   7
ATOM      7  C   UNL     1     159.598 159.616 151.577  1.00  0.00     0.000 C 
BRANCH   7   8
ATOM      8  C   UNL     1     159.488 161.147 151.426  1.00  0.00    -0.000 C 
BRANCH   8   9
ATOM      9  C   UNL     1     158.894 161.592 150.079  1.00  0.00    -0.003 C 
ATOM     10  C   UNL     1     159.896 162.334 149.198  1.00  0.00     0.004 C 
ENDBRANCH   8   9
ENDBRANCH   7   8
ENDBRANCH   1   7
TORSDOF 6
ENDMDL
MODEL 9
REMARK VINA RESULT:    -3.664      2.095      4.238
REMARK INTER + INTRA:          -5.602
REMARK INTER:                  -4.977
REMARK INTRA:                  -0.624
REMARK UNBOUND:                -0.653
REMARK SMILES CCCCCCCC(=O)[O-]
REMARK SMILES IDX 5 1 6 2 7 3 8 4 9 5 10 6 4 7 3 8 2 9 1 10
REMARK H PARENT
REMARK Flexibility Score: inf
ROOT
ATOM      1  C   UNL     1     159.443 158.843 148.035  1.00  0.00     0.000 C 
ENDROOT
BRANCH   1   2
ATOM      2  C   UNL     1     160.723 158.754 148.880  1.00  0.00     0.006 C 
BRANCH   2   3
ATOM      3  C   UNL     1     160.434 158.351 150.332  1.00  0.00     0.053 C 
BRANCH   3   4
ATOM      4  C   UNL     1     160.165 159.543 151.198  1.00  0.00     0.041 C 
ATOM      5  O   UNL     1     161.102 160.080 151.845  1.00  0.00    -0.550 OA
ATOM      6  O   UNL     1     158.887 160.084 151.261  1.00  0.00    -0.550 OA
ENDBRANCH   3   4
ENDBRANCH   2   3
ENDBRANCH   1   2
BRANCH   1   7
ATOM      7  C   UNL     1     159.103 160.303 147.701  1.00  0.00     0.000 C 
BRANCH   7   8
ATOM      8  C   UNL     1     160.353 161.209 147.702  1.00  0.00    -0.000 C 
BRANCH   8   9
ATOM      9  C   UNL     1     160.280 162.357 148.722  1.00  0.00    -0.003 C 
ATOM     10  C   UNL     1     161.612 162.627 149.417  1.00  0.00     0.004 C 
ENDBRANCH   8   9
ENDBRANCH   7   8
ENDBRANCH   1   7
TORSDOF 6
ENDMDL
