MODEL 1
REMARK VINA RESULT:    -3.587      0.000      0.000
REMARK INTER + INTRA:         -14.692
REMARK INTER:                  -9.038
REMARK INTRA:                  -5.655
REMARK UNBOUND:                -5.655
REMARK SMILES CCCCCCCCCCCCCCCCCCCCCCCCCCCC(=O)[O-]
REMARK SMILES IDX 15 1 16 2 17 3 18 4 19 5 20 6 21 7 22 8 23 9 24 10 25 11
REMARK SMILES IDX 26 12 27 13 28 14 29 15 30 16 14 17 13 18 12 19 11 20 10 21
REMARK SMILES IDX 9 22 8 23 7 24 6 25 5 26 4 27 3 28 2 29 1 30
REMARK H PARENT
REMARK Flexibility Score: inf
ROOT
ATOM      1  C   UNL     1      29.099   7.755  26.903  1.00  0.00     0.000 C 
ENDROOT
BRANCH   1   2
ATOM      2  C   UNL     1      27.954   7.174  26.054  1.00  0.00     0.000 C 
BRANCH   2   3
ATOM      3  C   UNL     1      28.416   6.314  24.861  1.00  0.00     0.000 C 
BRANCH   3   4
ATOM      4  C   UNL     1      27.377   6.148  23.733  1.00  0.00     0.000 C 
BRANCH   4   5
ATOM      5  C   UNL     1      25.933   5.892  24.201  1.00  0.00     0.000 C 
BRANCH   5   6
ATOM      6  C   UNL     1      24.888   6.642  23.362  1.00  0.00     0.000 C 
BRANCH   6   7
ATOM      7  C   UNL     1      25.402   8.028  22.955  1.00  0.00     0.000 C 
BRANCH   7   8
ATOM      8  C   UNL     1      24.971   9.093  23.970  1.00  0.00     0.000 C 
BRANCH   8   9
ATOM      9  C   UNL     1      26.032  10.197  24.093  1.00  0.00     0.000 C 
BRANCH   9  10
ATOM     10  C   UNL     1      27.352   9.837  23.385  1.00  0.00     0.000 C 
BRANCH  10  11
ATOM     11  C   UNL     1      28.632  10.193  24.165  1.00  0.00     0.000 C 
BRANCH  11  12
ATOM     12  C   UNL     1      29.939   9.608  23.595  1.00  0.00     0.006 C 
BRANCH  12  13
ATOM     13  C   UNL     1      31.103   9.576  24.602  1.00  0.00     0.053 C 
BRANCH  13  14
ATOM     14  C   UNL     1      31.505  10.946  25.058  1.00  0.00     0.041 C 
ATOM     15  O   UNL     1      31.692  11.864  24.217  1.00  0.00    -0.550 OA
ATOM     16  O   UNL     1      31.700  11.203  26.408  1.00  0.00    -0.550 OA
ENDBRANCH  13  14
ENDBRANCH  12  13
ENDBRANCH  11  12
ENDBRANCH  10  11
ENDBRANCH   9  10
ENDBRANCH   8   9
ENDBRANCH   7   8
ENDBRANCH   6   7
ENDBRANCH   5   6
ENDBRANCH   4   5
ENDBRANCH   3   4
ENDBRANCH   2   3
ENDBRANCH   1   2
BRANCH   1  17
ATOM     17  C   UNL     1      28.625   8.356  28.244  1.00  0.00     0.000 C 
BRANCH  17  18
ATOM     18  C   UNL     1      29.433   9.603  28.638  1.00  0.00     0.000 C 
BRANCH  18  19
ATOM     19  C   UNL     1      28.669  10.923  28.385  1.00  0.00     0.000 C 
BRANCH  19  20
ATOM     20  C   UNL     1      27.412  10.761  27.508  1.00  0.00     0.000 C 
BRANCH  20  21
ATOM     21  C   UNL     1      26.095  11.152  28.202  1.00  0.00     0.000 C 
BRANCH  21  22
ATOM     22  C   UNL     1      24.914  10.217  27.849  1.00  0.00    -0.000 C 
BRANCH  22  23
ATOM     23  C   UNL     1      25.196   8.728  28.124  1.00  0.00    -0.000 C 
BRANCH  23  24
ATOM     24  C   UNL     1      24.392   7.760  27.229  1.00  0.00    -0.000 C 
BRANCH  24  25
ATOM     25  C   UNL     1      24.481   6.283  27.665  1.00  0.00    -0.000 C 
BRANCH  25  26
ATOM     26  C   UNL     1      25.656   5.976  28.616  1.00  0.00    -0.000 C 
BRANCH  26  27
ATOM     27  C   UNL     1      26.079   4.495  28.574  1.00  0.00    -0.000 C 
BRANCH  27  28
ATOM     28  C   UNL     1      27.415   4.287  27.842  1.00  0.00    -0.000 C 
BRANCH  28  29
ATOM     29  C   UNL     1      27.546   2.874  27.253  1.00  0.00    -0.003 C 
ATOM     30  C   UNL     1      27.228   1.809  28.300  1.00  0.00     0.004 C 
ENDBRANCH  28  29
ENDBRANCH  27  28
ENDBRANCH  26  27
ENDBRANCH  25  26
ENDBRANCH  24  25
ENDBRANCH  23  24
ENDBRANCH  22  23
ENDBRANCH  21  22
ENDBRANCH  20  21
ENDBRANCH  19  20
ENDBRANCH  18  19
ENDBRANCH  17  18
ENDBRANCH   1  17
TORSDOF 26
ENDMDL
MODEL 2
REMARK VINA RESULT:    -3.457      1.954      5.098
REMARK INTER + INTRA:         -14.365
REMARK INTER:                  -9.069
REMARK INTRA:                  -5.296
REMARK UNBOUND:                -5.655
REMARK SMILES CCCCCCCCCCCCCCCCCCCCCCCCCCCC(=O)[O-]
REMARK SMILES IDX 15 1 16 2 17 3 18 4 19 5 20 6 21 7 22 8 23 9 24 10 25 11
REMARK SMILES IDX 26 12 27 13 28 14 29 15 30 16 14 17 13 18 12 19 11 20 10 21
REMARK SMILES IDX 9 22 8 23 7 24 6 25 5 26 4 27 3 28 2 29 1 30
REMARK H PARENT
REMARK Flexibility Score: inf
ROOT
ATOM      1  C   UNL     1      26.373   8.546  21.057  1.00  0.00     0.000 C 
ENDROOT
BRANCH   1   2
ATOM      2  C   UNL     1      25.747   9.188  22.308  1.00  0.00     0.000 C 
BRANCH   2   3
ATOM      3  C   UNL     1      24.528   8.431  22.872  1.00  0.00     0.000 C 
BRANCH   3   4
ATOM      4  C   UNL     1      24.658   6.893  22.876  1.00  0.00     0.000 C 
BRANCH   4   5
ATOM      5  C   UNL     1      25.416   6.299  24.076  1.00  0.00     0.000 C 
BRANCH   5   6
ATOM      6  C   UNL     1      25.210   7.097  25.372  1.00  0.00     0.000 C 
BRANCH   6   7
ATOM      7  C   UNL     1      26.509   7.788  25.804  1.00  0.00     0.000 C 
BRANCH   7   8
ATOM      8  C   UNL     1      26.232   9.209  26.311  1.00  0.00     0.000 C 
BRANCH   8   9
ATOM      9  C   UNL     1      26.856   9.430  27.696  1.00  0.00     0.000 C 
BRANCH   9  10
ATOM     10  C   UNL     1      27.631   8.200  28.205  1.00  0.00     0.000 C 
BRANCH  10  11
ATOM     11  C   UNL     1      29.153   8.395  28.345  1.00  0.00     0.000 C 
BRANCH  11  12
ATOM     12  C   UNL     1      29.757   9.523  27.486  1.00  0.00     0.006 C 
BRANCH  12  13
ATOM     13  C   UNL     1      30.558   9.022  26.270  1.00  0.00     0.053 C 
BRANCH  13  14
ATOM     14  C   UNL     1      31.301  10.125  25.578  1.00  0.00     0.041 C 
ATOM     15  O   UNL     1      31.300  10.199  24.321  1.00  0.00    -0.550 OA
ATOM     16  O   UNL     1      32.017  11.055  26.320  1.00  0.00    -0.550 OA
ENDBRANCH  13  14
ENDBRANCH  12  13
ENDBRANCH  11  12
ENDBRANCH  10  11
ENDBRANCH   9  10
ENDBRANCH   8   9
ENDBRANCH   7   8
ENDBRANCH   6   7
ENDBRANCH   5   6
ENDBRANCH   4   5
ENDBRANCH   3   4
ENDBRANCH   2   3
ENDBRANCH   1   2
BRANCH   1  17
ATOM     17  C   UNL     1      27.911   8.425  21.134  1.00  0.00     0.000 C 
BRANCH  17  18
ATOM     18  C   UNL     1      28.383   6.965  21.058  1.00  0.00     0.000 C 
BRANCH  18  19
ATOM     19  C   UNL     1      28.511   6.298  22.447  1.00  0.00     0.000 C 
BRANCH  19  20
ATOM     20  C   UNL     1      29.454   7.040  23.415  1.00  0.00     0.000 C 
BRANCH  20  21
ATOM     21  C   UNL     1      30.529   6.150  24.064  1.00  0.00     0.000 C 
BRANCH  21  22
ATOM     22  C   UNL     1      31.168   5.142  23.079  1.00  0.00    -0.000 C 
BRANCH  22  23
ATOM     23  C   UNL     1      30.853   3.669  23.406  1.00  0.00    -0.000 C 
BRANCH  23  24
ATOM     24  C   UNL     1      30.066   3.472  24.720  1.00  0.00    -0.000 C 
BRANCH  24  25
ATOM     25  C   UNL     1      28.634   2.935  24.519  1.00  0.00    -0.000 C 
BRANCH  25  26
ATOM     26  C   UNL     1      27.575   3.614  25.411  1.00  0.00    -0.000 C 
BRANCH  26  27
ATOM     27  C   UNL     1      28.179   4.695  26.328  1.00  0.00    -0.000 C 
BRANCH  27  28
ATOM     28  C   UNL     1      28.076   4.327  27.817  1.00  0.00    -0.000 C 
BRANCH  28  29
ATOM     29  C   UNL     1      26.667   3.853  28.206  1.00  0.00    -0.003 C 
ATOM     30  C   UNL     1      25.732   5.037  28.442  1.00  0.00     0.004 C 
ENDBRANCH  28  29
ENDBRANCH  27  28
ENDBRANCH  26  27
ENDBRANCH  25  26
ENDBRANCH  24  25
ENDBRANCH  23  24
ENDBRANCH  22  23
ENDBRANCH  21  22
ENDBRANCH  20  21
ENDBRANCH  19  20
ENDBRANCH  18  19
ENDBRANCH  17  18
ENDBRANCH   1  17
TORSDOF 26
ENDMDL
MODEL 3
REMARK VINA RESULT:    -3.442      1.902      5.308
REMARK INTER + INTRA:         -14.329
REMARK INTER:                  -8.574
REMARK INTRA:                  -5.755
REMARK UNBOUND:                -5.655
REMARK SMILES CCCCCCCCCCCCCCCCCCCCCCCCCCCC(=O)[O-]
REMARK SMILES IDX 15 1 16 2 17 3 18 4 19 5 20 6 21 7 22 8 23 9 24 10 25 11
REMARK SMILES IDX 26 12 27 13 28 14 29 15 30 16 14 17 13 18 12 19 11 20 10 21
REMARK SMILES IDX 9 22 8 23 7 24 6 25 5 26 4 27 3 28 2 29 1 30
REMARK H PARENT
REMARK Flexibility Score: inf
ROOT
ATOM      1  C   UNL     1      29.302  12.975  23.387  1.00  0.00     0.000 C 
ENDROOT
BRANCH   1   2
ATOM      2  C   UNL     1      30.731  13.162  23.927  1.00  0.00     0.000 C 
BRANCH   2   3
ATOM      3  C   UNL     1      31.557  11.864  24.009  1.00  0.00     0.000 C 
BRANCH   3   4
ATOM      4  C   UNL     1      31.870  11.376  25.439  1.00  0.00     0.000 C 
BRANCH   4   5
ATOM      5  C   UNL     1      31.373   9.958  25.775  1.00  0.00     0.000 C 
BRANCH   5   6
ATOM      6  C   UNL     1      30.982   9.148  24.530  1.00  0.00     0.000 C 
BRANCH   6   7
ATOM      7  C   UNL     1      29.927   8.090  24.872  1.00  0.00     0.000 C 
BRANCH   7   8
ATOM      8  C   UNL     1      29.297   8.366  26.242  1.00  0.00     0.000 C 
BRANCH   8   9
ATOM      9  C   UNL     1      27.772   8.503  26.130  1.00  0.00     0.000 C 
BRANCH   9  10
ATOM     10  C   UNL     1      27.139   9.158  27.372  1.00  0.00     0.000 C 
BRANCH  10  11
ATOM     11  C   UNL     1      26.773  10.646  27.214  1.00  0.00     0.000 C 
BRANCH  11  12
ATOM     12  C   UNL     1      27.482  11.609  28.186  1.00  0.00     0.006 C 
BRANCH  12  13
ATOM     13  C   UNL     1      29.003  11.715  27.964  1.00  0.00     0.053 C 
BRANCH  13  14
ATOM     14  C   UNL     1      29.787  11.389  29.199  1.00  0.00     0.041 C 
ATOM     15  O   UNL     1      30.153  10.205  29.424  1.00  0.00    -0.550 OA
ATOM     16  O   UNL     1      30.092  12.387  30.116  1.00  0.00    -0.550 OA
ENDBRANCH  13  14
ENDBRANCH  12  13
ENDBRANCH  11  12
ENDBRANCH  10  11
ENDBRANCH   9  10
ENDBRANCH   8   9
ENDBRANCH   7   8
ENDBRANCH   6   7
ENDBRANCH   5   6
ENDBRANCH   4   5
ENDBRANCH   3   4
ENDBRANCH   2   3
ENDBRANCH   1   2
BRANCH   1  17
ATOM     17  C   UNL     1      28.446  12.011  24.238  1.00  0.00     0.000 C 
BRANCH  17  18
ATOM     18  C   UNL     1      27.840  10.877  23.396  1.00  0.00     0.000 C 
BRANCH  18  19
ATOM     19  C   UNL     1      28.505  10.733  22.008  1.00  0.00     0.000 C 
BRANCH  19  20
ATOM     20  C   UNL     1      28.667   9.274  21.538  1.00  0.00     0.000 C 
BRANCH  20  21
ATOM     21  C   UNL     1      27.357   8.469  21.493  1.00  0.00     0.000 C 
BRANCH  21  22
ATOM     22  C   UNL     1      27.380   7.208  22.389  1.00  0.00    -0.000 C 
BRANCH  22  23
ATOM     23  C   UNL     1      26.072   6.975  23.169  1.00  0.00    -0.000 C 
BRANCH  23  24
ATOM     24  C   UNL     1      26.127   5.782  24.147  1.00  0.00    -0.000 C 
BRANCH  24  25
ATOM     25  C   UNL     1      27.552   5.258  24.418  1.00  0.00    -0.000 C 
BRANCH  25  26
ATOM     26  C   UNL     1      27.597   3.854  25.055  1.00  0.00    -0.000 C 
BRANCH  26  27
ATOM     27  C   UNL     1      28.241   3.860  26.454  1.00  0.00    -0.000 C 
BRANCH  27  28
ATOM     28  C   UNL     1      27.818   5.079  27.290  1.00  0.00    -0.000 C 
BRANCH  28  29
ATOM     29  C   UNL     1      26.549   4.812  28.114  1.00  0.00    -0.003 C 
ATOM     30  C   UNL     1      25.499   5.895  27.875  1.00  0.00     0.004 C 
ENDBRANCH  28  29
ENDBRANCH  27  28
ENDBRANCH  26  27
ENDBRANCH  25  26
ENDBRANCH  24  25
ENDBRANCH  23  24
ENDBRANCH  22  23
ENDBRANCH  21  22
ENDBRANCH  20  21
ENDBRANCH  19  20
ENDBRANCH  18  19
ENDBRANCH  17  18
ENDBRANCH   1  17
TORSDOF 26
ENDMDL
MODEL 4
REMARK VINA RESULT:    -3.403      2.840      5.975
REMARK INTER + INTRA:         -14.230
REMARK INTER:                  -8.694
REMARK INTRA:                  -5.537
REMARK UNBOUND:                -5.655
REMARK SMILES CCCCCCCCCCCCCCCCCCCCCCCCCCCC(=O)[O-]
REMARK SMILES IDX 15 1 16 2 17 3 18 4 19 5 20 6 21 7 22 8 23 9 24 10 25 11
REMARK SMILES IDX 26 12 27 13 28 14 29 15 30 16 14 17 13 18 12 19 11 20 10 21
REMARK SMILES IDX 9 22 8 23 7 24 6 25 5 26 4 27 3 28 2 29 1 30
REMARK H PARENT
REMARK Flexibility Score: inf
ROOT
ATOM      1  C   UNL     1      28.688   9.792  22.860  1.00  0.00     0.000 C 
ENDROOT
BRANCH   1   2
ATOM      2  C   UNL     1      27.620  10.065  23.934  1.00  0.00     0.000 C 
BRANCH   2   3
ATOM      3  C   UNL     1      26.227  10.412  23.375  1.00  0.00     0.000 C 
BRANCH   3   4
ATOM      4  C   UNL     1      25.555   9.294  22.551  1.00  0.00     0.000 C 
BRANCH   4   5
ATOM      5  C   UNL     1      24.656   8.335  23.352  1.00  0.00     0.000 C 
BRANCH   5   6
ATOM      6  C   UNL     1      24.889   6.858  23.001  1.00  0.00     0.000 C 
BRANCH   6   7
ATOM      7  C   UNL     1      25.727   6.163  24.081  1.00  0.00     0.000 C 
BRANCH   7   8
ATOM      8  C   UNL     1      27.209   6.129  23.689  1.00  0.00     0.000 C 
BRANCH   8   9
ATOM      9  C   UNL     1      28.098   5.896  24.919  1.00  0.00     0.000 C 
BRANCH   9  10
ATOM     10  C   UNL     1      28.087   4.431  25.394  1.00  0.00     0.000 C 
BRANCH  10  11
ATOM     11  C   UNL     1      28.029   4.238  26.922  1.00  0.00     0.000 C 
BRANCH  11  12
ATOM     12  C   UNL     1      26.849   4.929  27.631  1.00  0.00     0.006 C 
BRANCH  12  13
ATOM     13  C   UNL     1      26.164   4.059  28.701  1.00  0.00     0.053 C 
BRANCH  13  14
ATOM     14  C   UNL     1      24.855   4.630  29.155  1.00  0.00     0.041 C 
ATOM     15  O   UNL     1      23.836   3.895  29.235  1.00  0.00    -0.550 OA
ATOM     16  O   UNL     1      24.752   5.980  29.463  1.00  0.00    -0.550 OA
ENDBRANCH  13  14
ENDBRANCH  12  13
ENDBRANCH  11  12
ENDBRANCH  10  11
ENDBRANCH   9  10
ENDBRANCH   8   9
ENDBRANCH   7   8
ENDBRANCH   6   7
ENDBRANCH   5   6
ENDBRANCH   4   5
ENDBRANCH   3   4
ENDBRANCH   2   3
ENDBRANCH   1   2
BRANCH   1  17
ATOM     17  C   UNL     1      29.902   8.998  23.389  1.00  0.00     0.000 C 
BRANCH  17  18
ATOM     18  C   UNL     1      29.970   8.997  24.925  1.00  0.00     0.000 C 
BRANCH  18  19
ATOM     19  C   UNL     1      31.237   9.691  25.474  1.00  0.00     0.000 C 
BRANCH  19  20
ATOM     20  C   UNL     1      30.949  10.790  26.515  1.00  0.00     0.000 C 
BRANCH  20  21
ATOM     21  C   UNL     1      29.472  10.899  26.935  1.00  0.00     0.000 C 
BRANCH  21  22
ATOM     22  C   UNL     1      29.241  10.624  28.440  1.00  0.00    -0.000 C 
BRANCH  22  23
ATOM     23  C   UNL     1      29.597   9.189  28.871  1.00  0.00    -0.000 C 
BRANCH  23  24
ATOM     24  C   UNL     1      28.729   8.100  28.205  1.00  0.00    -0.000 C 
BRANCH  24  25
ATOM     25  C   UNL     1      27.213   8.376  28.274  1.00  0.00    -0.000 C 
BRANCH  25  26
ATOM     26  C   UNL     1      26.540   8.549  26.896  1.00  0.00    -0.000 C 
BRANCH  26  27
ATOM     27  C   UNL     1      25.009   8.683  26.998  1.00  0.00    -0.000 C 
BRANCH  27  28
ATOM     28  C   UNL     1      24.571  10.098  27.410  1.00  0.00    -0.000 C 
BRANCH  28  29
ATOM     29  C   UNL     1      25.522  11.183  26.881  1.00  0.00    -0.003 C 
ATOM     30  C   UNL     1      25.625  12.350  27.860  1.00  0.00     0.004 C 
ENDBRANCH  28  29
ENDBRANCH  27  28
ENDBRANCH  26  27
ENDBRANCH  25  26
ENDBRANCH  24  25
ENDBRANCH  23  24
ENDBRANCH  22  23
ENDBRANCH  21  22
ENDBRANCH  20  21
ENDBRANCH  19  20
ENDBRANCH  18  19
ENDBRANCH  17  18
ENDBRANCH   1  17
TORSDOF 26
ENDMDL
MODEL 5
REMARK VINA RESULT:    -3.373      2.670      5.156
REMARK INTER + INTRA:         -14.154
REMARK INTER:                  -7.766
REMARK INTRA:                  -6.389
REMARK UNBOUND:                -5.655
REMARK SMILES CCCCCCCCCCCCCCCCCCCCCCCCCCCC(=O)[O-]
REMARK SMILES IDX 15 1 16 2 17 3 18 4 19 5 20 6 21 7 22 8 23 9 24 10 25 11
REMARK SMILES IDX 26 12 27 13 28 14 29 15 30 16 14 17 13 18 12 19 11 20 10 21
REMARK SMILES IDX 9 22 8 23 7 24 6 25 5 26 4 27 3 28 2 29 1 30
REMARK H PARENT
REMARK Flexibility Score: inf
ROOT
ATOM      1  C   UNL     1      31.239  11.558  23.719  1.00  0.00     0.000 C 
ENDROOT
BRANCH   1   2
ATOM      2  C   UNL     1      30.867  10.647  22.535  1.00  0.00     0.000 C 
BRANCH   2   3
ATOM      3  C   UNL     1      29.422  10.818  22.027  1.00  0.00     0.000 C 
BRANCH   3   4
ATOM      4  C   UNL     1      28.531   9.565  22.155  1.00  0.00     0.000 C 
BRANCH   4   5
ATOM      5  C   UNL     1      27.547   9.575  23.339  1.00  0.00     0.000 C 
BRANCH   5   6
ATOM      6  C   UNL     1      27.485  10.931  24.057  1.00  0.00     0.000 C 
BRANCH   6   7
ATOM      7  C   UNL     1      27.050  10.760  25.518  1.00  0.00     0.000 C 
BRANCH   7   8
ATOM      8  C   UNL     1      27.660  11.853  26.403  1.00  0.00     0.000 C 
BRANCH   8   9
ATOM      9  C   UNL     1      27.052  11.821  27.813  1.00  0.00     0.000 C 
BRANCH   9  10
ATOM     10  C   UNL     1      26.077  10.646  28.016  1.00  0.00     0.000 C 
BRANCH  10  11
ATOM     11  C   UNL     1      24.636  11.047  28.386  1.00  0.00     0.000 C 
BRANCH  11  12
ATOM     12  C   UNL     1      23.712  11.367  27.196  1.00  0.00     0.006 C 
BRANCH  12  13
ATOM     13  C   UNL     1      23.418  10.158  26.289  1.00  0.00     0.053 C 
BRANCH  13  14
ATOM     14  C   UNL     1      23.209  10.553  24.857  1.00  0.00     0.041 C 
ATOM     15  O   UNL     1      23.930  10.056  23.952  1.00  0.00    -0.550 OA
ATOM     16  O   UNL     1      22.238  11.488  24.526  1.00  0.00    -0.550 OA
ENDBRANCH  13  14
ENDBRANCH  12  13
ENDBRANCH  11  12
ENDBRANCH  10  11
ENDBRANCH   9  10
ENDBRANCH   8   9
ENDBRANCH   7   8
ENDBRANCH   6   7
ENDBRANCH   5   6
ENDBRANCH   4   5
ENDBRANCH   3   4
ENDBRANCH   2   3
ENDBRANCH   1   2
BRANCH   1  17
ATOM     17  C   UNL     1      31.107  10.863  25.092  1.00  0.00     0.000 C 
BRANCH  17  18
ATOM     18  C   UNL     1      31.112   9.331  24.970  1.00  0.00     0.000 C 
BRANCH  18  19
ATOM     19  C   UNL     1      30.032   8.652  25.843  1.00  0.00     0.000 C 
BRANCH  19  20
ATOM     20  C   UNL     1      29.964   9.187  27.287  1.00  0.00     0.000 C 
BRANCH  20  21
ATOM     21  C   UNL     1      28.972   8.440  28.197  1.00  0.00     0.000 C 
BRANCH  21  22
ATOM     22  C   UNL     1      28.113   7.398  27.443  1.00  0.00    -0.000 C 
BRANCH  22  23
ATOM     23  C   UNL     1      26.778   7.072  28.140  1.00  0.00    -0.000 C 
BRANCH  23  24
ATOM     24  C   UNL     1      25.600   6.848  27.168  1.00  0.00    -0.000 C 
BRANCH  24  25
ATOM     25  C   UNL     1      25.827   7.438  25.761  1.00  0.00    -0.000 C 
BRANCH  25  26
ATOM     26  C   UNL     1      25.372   6.517  24.611  1.00  0.00    -0.000 C 
BRANCH  26  27
ATOM     27  C   UNL     1      26.405   5.422  24.286  1.00  0.00    -0.000 C 
BRANCH  27  28
ATOM     28  C   UNL     1      27.789   6.002  23.950  1.00  0.00    -0.000 C 
BRANCH  28  29
ATOM     29  C   UNL     1      28.927   5.251  24.660  1.00  0.00    -0.003 C 
ATOM     30  C   UNL     1      28.379   4.157  25.573  1.00  0.00     0.004 C 
ENDBRANCH  28  29
ENDBRANCH  27  28
ENDBRANCH  26  27
ENDBRANCH  25  26
ENDBRANCH  24  25
ENDBRANCH  23  24
ENDBRANCH  22  23
ENDBRANCH  21  22
ENDBRANCH  20  21
ENDBRANCH  19  20
ENDBRANCH  18  19
ENDBRANCH  17  18
ENDBRANCH   1  17
TORSDOF 26
ENDMDL
MODEL 6
REMARK VINA RESULT:    -3.350      1.510      5.307
REMARK INTER + INTRA:         -14.095
REMARK INTER:                  -8.383
REMARK INTRA:                  -5.713
REMARK UNBOUND:                -5.655
REMARK SMILES CCCCCCCCCCCCCCCCCCCCCCCCCCCC(=O)[O-]
REMARK SMILES IDX 15 1 16 2 17 3 18 4 19 5 20 6 21 7 22 8 23 9 24 10 25 11
REMARK SMILES IDX 26 12 27 13 28 14 29 15 30 16 14 17 13 18 12 19 11 20 10 21
REMARK SMILES IDX 9 22 8 23 7 24 6 25 5 26 4 27 3 28 2 29 1 30
REMARK H PARENT
REMARK Flexibility Score: inf
ROOT
ATOM      1  C   UNL     1      27.517   4.248  25.186  1.00  0.00     0.000 C 
ENDROOT
BRANCH   1   2
ATOM      2  C   UNL     1      28.199   3.825  26.499  1.00  0.00     0.000 C 
BRANCH   2   3
ATOM      3  C   UNL     1      27.803   4.671  27.725  1.00  0.00     0.000 C 
BRANCH   3   4
ATOM      4  C   UNL     1      26.352   4.478  28.212  1.00  0.00     0.000 C 
BRANCH   4   5
ATOM      5  C   UNL     1      25.645   5.757  28.698  1.00  0.00     0.000 C 
BRANCH   5   6
ATOM      6  C   UNL     1      24.547   6.238  27.738  1.00  0.00     0.000 C 
BRANCH   6   7
ATOM      7  C   UNL     1      24.773   7.699  27.332  1.00  0.00     0.000 C 
BRANCH   7   8
ATOM      8  C   UNL     1      25.169   8.550  28.545  1.00  0.00     0.000 C 
BRANCH   8   9
ATOM      9  C   UNL     1      24.781  10.021  28.334  1.00  0.00     0.000 C 
BRANCH   9  10
ATOM     10  C   UNL     1      25.554  10.682  27.177  1.00  0.00     0.000 C 
BRANCH  10  11
ATOM     11  C   UNL     1      26.147  12.068  27.493  1.00  0.00     0.000 C 
BRANCH  11  12
ATOM     12  C   UNL     1      27.190  12.099  28.627  1.00  0.00     0.006 C 
BRANCH  12  13
ATOM     13  C   UNL     1      28.638  12.296  28.140  1.00  0.00     0.053 C 
BRANCH  13  14
ATOM     14  C   UNL     1      29.649  11.904  29.176  1.00  0.00     0.041 C 
ATOM     15  O   UNL     1      30.642  11.198  28.857  1.00  0.00    -0.550 OA
ATOM     16  O   UNL     1      29.483  12.296  30.497  1.00  0.00    -0.550 OA
ENDBRANCH  13  14
ENDBRANCH  12  13
ENDBRANCH  11  12
ENDBRANCH  10  11
ENDBRANCH   9  10
ENDBRANCH   8   9
ENDBRANCH   7   8
ENDBRANCH   6   7
ENDBRANCH   5   6
ENDBRANCH   4   5
ENDBRANCH   3   4
ENDBRANCH   2   3
ENDBRANCH   1   2
BRANCH   1  17
ATOM     17  C   UNL     1      28.420   5.109  24.276  1.00  0.00     0.000 C 
BRANCH  17  18
ATOM     18  C   UNL     1      27.631   6.213  23.554  1.00  0.00     0.000 C 
BRANCH  18  19
ATOM     19  C   UNL     1      26.252   6.488  24.196  1.00  0.00     0.000 C 
BRANCH  19  20
ATOM     20  C   UNL     1      25.116   6.701  23.177  1.00  0.00     0.000 C 
BRANCH  20  21
ATOM     21  C   UNL     1      24.447   8.085  23.247  1.00  0.00     0.000 C 
BRANCH  21  22
ATOM     22  C   UNL     1      25.358   9.176  23.860  1.00  0.00    -0.000 C 
BRANCH  22  23
ATOM     23  C   UNL     1      26.157   9.977  22.814  1.00  0.00    -0.000 C 
BRANCH  23  24
ATOM     24  C   UNL     1      27.671  10.057  23.108  1.00  0.00    -0.000 C 
BRANCH  24  25
ATOM     25  C   UNL     1      28.040  11.039  24.238  1.00  0.00    -0.000 C 
BRANCH  25  26
ATOM     26  C   UNL     1      29.196  10.558  25.139  1.00  0.00    -0.000 C 
BRANCH  26  27
ATOM     27  C   UNL     1      29.710   9.160  24.746  1.00  0.00    -0.000 C 
BRANCH  27  28
ATOM     28  C   UNL     1      29.693   8.176  25.926  1.00  0.00    -0.000 C 
BRANCH  28  29
ATOM     29  C   UNL     1      28.409   8.288  26.764  1.00  0.00    -0.003 C 
ATOM     30  C   UNL     1      28.724   8.290  28.258  1.00  0.00     0.004 C 
ENDBRANCH  28  29
ENDBRANCH  27  28
ENDBRANCH  26  27
ENDBRANCH  25  26
ENDBRANCH  24  25
ENDBRANCH  23  24
ENDBRANCH  22  23
ENDBRANCH  21  22
ENDBRANCH  20  21
ENDBRANCH  19  20
ENDBRANCH  18  19
ENDBRANCH  17  18
ENDBRANCH   1  17
TORSDOF 26
ENDMDL
MODEL 7
REMARK VINA RESULT:    -3.333      1.412      5.345
REMARK INTER + INTRA:         -14.052
REMARK INTER:                  -8.744
REMARK INTRA:                  -5.309
REMARK UNBOUND:                -5.655
REMARK SMILES CCCCCCCCCCCCCCCCCCCCCCCCCCCC(=O)[O-]
REMARK SMILES IDX 15 1 16 2 17 3 18 4 19 5 20 6 21 7 22 8 23 9 24 10 25 11
REMARK SMILES IDX 26 12 27 13 28 14 29 15 30 16 14 17 13 18 12 19 11 20 10 21
REMARK SMILES IDX 9 22 8 23 7 24 6 25 5 26 4 27 3 28 2 29 1 30
REMARK H PARENT
REMARK Flexibility Score: inf
ROOT
ATOM      1  C   UNL     1      27.827   4.461  27.304  1.00  0.00     0.000 C 
ENDROOT
BRANCH   1   2
ATOM      2  C   UNL     1      26.673   4.057  28.239  1.00  0.00     0.000 C 
BRANCH   2   3
ATOM      3  C   UNL     1      25.973   5.240  28.937  1.00  0.00     0.000 C 
BRANCH   3   4
ATOM      4  C   UNL     1      24.770   5.831  28.173  1.00  0.00     0.000 C 
BRANCH   4   5
ATOM      5  C   UNL     1      24.978   7.251  27.614  1.00  0.00     0.000 C 
BRANCH   5   6
ATOM      6  C   UNL     1      26.169   7.979  28.254  1.00  0.00     0.000 C 
BRANCH   6   7
ATOM      7  C   UNL     1      27.220   8.346  27.199  1.00  0.00     0.000 C 
BRANCH   7   8
ATOM      8  C   UNL     1      28.630   8.327  27.799  1.00  0.00     0.000 C 
BRANCH   8   9
ATOM      9  C   UNL     1      29.697   8.462  26.703  1.00  0.00     0.000 C 
BRANCH   9  10
ATOM     10  C   UNL     1      29.090   8.680  25.304  1.00  0.00     0.000 C 
BRANCH  10  11
ATOM     11  C   UNL     1      29.692   9.851  24.503  1.00  0.00     0.000 C 
BRANCH  11  12
ATOM     12  C   UNL     1      31.193  10.109  24.737  1.00  0.00     0.006 C 
BRANCH  12  13
ATOM     13  C   UNL     1      31.514  11.532  25.230  1.00  0.00     0.053 C 
BRANCH  13  14
ATOM     14  C   UNL     1      31.232  12.577  24.193  1.00  0.00     0.041 C 
ATOM     15  O   UNL     1      32.161  13.014  23.464  1.00  0.00    -0.550 OA
ATOM     16  O   UNL     1      29.949  13.088  24.049  1.00  0.00    -0.550 OA
ENDBRANCH  13  14
ENDBRANCH  12  13
ENDBRANCH  11  12
ENDBRANCH  10  11
ENDBRANCH   9  10
ENDBRANCH   8   9
ENDBRANCH   7   8
ENDBRANCH   6   7
ENDBRANCH   5   6
ENDBRANCH   4   5
ENDBRANCH   3   4
ENDBRANCH   2   3
ENDBRANCH   1   2
BRANCH   1  17
ATOM     17  C   UNL     1      27.504   4.255  25.808  1.00  0.00     0.000 C 
BRANCH  17  18
ATOM     18  C   UNL     1      27.453   5.583  25.037  1.00  0.00     0.000 C 
BRANCH  18  19
ATOM     19  C   UNL     1      26.174   5.736  24.182  1.00  0.00     0.000 C 
BRANCH  19  20
ATOM     20  C   UNL     1      26.210   6.929  23.206  1.00  0.00     0.000 C 
BRANCH  20  21
ATOM     21  C   UNL     1      24.827   7.397  22.721  1.00  0.00     0.000 C 
BRANCH  21  22
ATOM     22  C   UNL     1      24.543   8.888  23.025  1.00  0.00    -0.000 C 
BRANCH  22  23
ATOM     23  C   UNL     1      25.160   9.381  24.347  1.00  0.00    -0.000 C 
BRANCH  23  24
ATOM     24  C   UNL     1      24.124   9.887  25.374  1.00  0.00    -0.000 C 
BRANCH  24  25
ATOM     25  C   UNL     1      24.668  10.964  26.336  1.00  0.00    -0.000 C 
BRANCH  25  26
ATOM     26  C   UNL     1      25.938  11.677  25.830  1.00  0.00    -0.000 C 
BRANCH  26  27
ATOM     27  C   UNL     1      26.752  12.315  26.971  1.00  0.00    -0.000 C 
BRANCH  27  28
ATOM     28  C   UNL     1      28.247  11.967  26.891  1.00  0.00    -0.000 C 
BRANCH  28  29
ATOM     29  C   UNL     1      28.899  11.863  28.279  1.00  0.00    -0.003 C 
ATOM     30  C   UNL     1      28.117  12.665  29.317  1.00  0.00     0.004 C 
ENDBRANCH  28  29
ENDBRANCH  27  28
ENDBRANCH  26  27
ENDBRANCH  25  26
ENDBRANCH  24  25
ENDBRANCH  23  24
ENDBRANCH  22  23
ENDBRANCH  21  22
ENDBRANCH  20  21
ENDBRANCH  19  20
ENDBRANCH  18  19
ENDBRANCH  17  18
ENDBRANCH   1  17
TORSDOF 26
ENDMDL
MODEL 8
REMARK VINA RESULT:    -3.319      2.897      4.470
REMARK INTER + INTRA:         -14.018
REMARK INTER:                  -8.717
REMARK INTRA:                  -5.301
REMARK UNBOUND:                -5.655
REMARK SMILES CCCCCCCCCCCCCCCCCCCCCCCCCCCC(=O)[O-]
REMARK SMILES IDX 15 1 16 2 17 3 18 4 19 5 20 6 21 7 22 8 23 9 24 10 25 11
REMARK SMILES IDX 26 12 27 13 28 14 29 15 30 16 14 17 13 18 12 19 11 20 10 21
REMARK SMILES IDX 9 22 8 23 7 24 6 25 5 26 4 27 3 28 2 29 1 30
REMARK H PARENT
REMARK Flexibility Score: inf
ROOT
ATOM      1  C   UNL     1      28.822   7.989  26.929  1.00  0.00     0.000 C 
ENDROOT
BRANCH   1   2
ATOM      2  C   UNL     1      29.615   8.787  25.878  1.00  0.00     0.000 C 
BRANCH   2   3
ATOM      3  C   UNL     1      28.742   9.513  24.836  1.00  0.00     0.000 C 
BRANCH   3   4
ATOM      4  C   UNL     1      28.794   8.922  23.412  1.00  0.00     0.000 C 
BRANCH   4   5
ATOM      5  C   UNL     1      27.460   8.938  22.643  1.00  0.00     0.000 C 
BRANCH   5   6
ATOM      6  C   UNL     1      26.323   9.611  23.426  1.00  0.00     0.000 C 
BRANCH   6   7
ATOM      7  C   UNL     1      25.010   8.837  23.262  1.00  0.00     0.000 C 
BRANCH   7   8
ATOM      8  C   UNL     1      25.271   7.417  22.745  1.00  0.00     0.000 C 
BRANCH   8   9
ATOM      9  C   UNL     1      24.958   6.372  23.826  1.00  0.00     0.000 C 
BRANCH   9  10
ATOM     10  C   UNL     1      26.100   6.210  24.847  1.00  0.00     0.000 C 
BRANCH  10  11
ATOM     11  C   UNL     1      27.351   5.480  24.320  1.00  0.00     0.000 C 
BRANCH  11  12
ATOM     12  C   UNL     1      28.214   4.788  25.393  1.00  0.00     0.006 C 
BRANCH  12  13
ATOM     13  C   UNL     1      27.454   4.460  26.692  1.00  0.00     0.053 C 
BRANCH  13  14
ATOM     14  C   UNL     1      27.504   3.001  27.033  1.00  0.00     0.041 C 
ATOM     15  O   UNL     1      27.732   2.634  28.217  1.00  0.00    -0.550 OA
ATOM     16  O   UNL     1      27.327   2.045  26.042  1.00  0.00    -0.550 OA
ENDBRANCH  13  14
ENDBRANCH  12  13
ENDBRANCH  11  12
ENDBRANCH  10  11
ENDBRANCH   9  10
ENDBRANCH   8   9
ENDBRANCH   7   8
ENDBRANCH   6   7
ENDBRANCH   5   6
ENDBRANCH   4   5
ENDBRANCH   3   4
ENDBRANCH   2   3
ENDBRANCH   1   2
BRANCH   1  17
ATOM     17  C   UNL     1      28.484   8.807  28.194  1.00  0.00     0.000 C 
BRANCH  17  18
ATOM     18  C   UNL     1      29.746   9.292  28.926  1.00  0.00     0.000 C 
BRANCH  18  19
ATOM     19  C   UNL     1      29.797  10.828  29.089  1.00  0.00     0.000 C 
BRANCH  19  20
ATOM     20  C   UNL     1      28.894  11.594  28.103  1.00  0.00     0.000 C 
BRANCH  20  21
ATOM     21  C   UNL     1      27.826  12.479  28.771  1.00  0.00     0.000 C 
BRANCH  21  22
ATOM     22  C   UNL     1      26.398  12.233  28.228  1.00  0.00    -0.000 C 
BRANCH  22  23
ATOM     23  C   UNL     1      26.357  11.353  26.964  1.00  0.00    -0.000 C 
BRANCH  23  24
ATOM     24  C   UNL     1      25.024  10.599  26.767  1.00  0.00    -0.000 C 
BRANCH  24  25
ATOM     25  C   UNL     1      25.077   9.113  27.176  1.00  0.00    -0.000 C 
BRANCH  25  26
ATOM     26  C   UNL     1      24.939   8.872  28.693  1.00  0.00    -0.000 C 
BRANCH  26  27
ATOM     27  C   UNL     1      25.317   7.436  29.101  1.00  0.00    -0.000 C 
BRANCH  27  28
ATOM     28  C   UNL     1      24.693   6.380  28.175  1.00  0.00    -0.000 C 
BRANCH  28  29
ATOM     29  C   UNL     1      24.450   5.042  28.891  1.00  0.00    -0.003 C 
ATOM     30  C   UNL     1      25.022   5.063  30.307  1.00  0.00     0.004 C 
ENDBRANCH  28  29
ENDBRANCH  27  28
ENDBRANCH  26  27
ENDBRANCH  25  26
ENDBRANCH  24  25
ENDBRANCH  23  24
ENDBRANCH  22  23
ENDBRANCH  21  22
ENDBRANCH  20  21
ENDBRANCH  19  20
ENDBRANCH  18  19
ENDBRANCH  17  18
ENDBRANCH   1  17
TORSDOF 26
ENDMDL
MODEL 9
REMARK VINA RESULT:    -3.319      2.535      6.298
REMARK INTER + INTRA:         -14.017
REMARK INTER:                  -8.870
REMARK INTRA:                  -5.147
REMARK UNBOUND:                -5.655
REMARK SMILES CCCCCCCCCCCCCCCCCCCCCCCCCCCC(=O)[O-]
REMARK SMILES IDX 15 1 16 2 17 3 18 4 19 5 20 6 21 7 22 8 23 9 24 10 25 11
REMARK SMILES IDX 26 12 27 13 28 14 29 15 30 16 14 17 13 18 12 19 11 20 10 21
REMARK SMILES IDX 9 22 8 23 7 24 6 25 5 26 4 27 3 28 2 29 1 30
REMARK H PARENT
REMARK Flexibility Score: inf
ROOT
ATOM      1  C   UNL     1      29.010   8.546  28.191  1.00  0.00     0.000 C 
ENDROOT
BRANCH   1   2
ATOM      2  C   UNL     1      29.733   9.631  29.009  1.00  0.00     0.000 C 
BRANCH   2   3
ATOM      3  C   UNL     1      29.681  11.040  28.386  1.00  0.00     0.000 C 
BRANCH   3   4
ATOM      4  C   UNL     1      29.269  12.169  29.355  1.00  0.00     0.000 C 
BRANCH   4   5
ATOM      5  C   UNL     1      27.834  12.697  29.179  1.00  0.00     0.000 C 
BRANCH   5   6
ATOM      6  C   UNL     1      27.149  12.164  27.912  1.00  0.00     0.000 C 
BRANCH   6   7
ATOM      7  C   UNL     1      25.959  11.265  28.266  1.00  0.00     0.000 C 
BRANCH   7   8
ATOM      8  C   UNL     1      25.258  10.758  27.001  1.00  0.00     0.000 C 
BRANCH   8   9
ATOM      9  C   UNL     1      24.119   9.790  27.353  1.00  0.00     0.000 C 
BRANCH   9  10
ATOM     10  C   UNL     1      24.447   8.328  26.998  1.00  0.00     0.000 C 
BRANCH  10  11
ATOM     11  C   UNL     1      25.338   7.590  28.016  1.00  0.00     0.000 C 
BRANCH  11  12
ATOM     12  C   UNL     1      25.670   6.127  27.666  1.00  0.00     0.006 C 
BRANCH  12  13
ATOM     13  C   UNL     1      26.492   5.962  26.374  1.00  0.00     0.053 C 
BRANCH  13  14
ATOM     14  C   UNL     1      27.585   4.946  26.515  1.00  0.00     0.041 C 
ATOM     15  O   UNL     1      27.949   4.265  25.520  1.00  0.00    -0.550 OA
ATOM     16  O   UNL     1      28.183   4.730  27.749  1.00  0.00    -0.550 OA
ENDBRANCH  13  14
ENDBRANCH  12  13
ENDBRANCH  11  12
ENDBRANCH  10  11
ENDBRANCH   9  10
ENDBRANCH   8   9
ENDBRANCH   7   8
ENDBRANCH   6   7
ENDBRANCH   5   6
ENDBRANCH   4   5
ENDBRANCH   3   4
ENDBRANCH   2   3
ENDBRANCH   1   2
BRANCH   1  17
ATOM     17  C   UNL     1      28.573   9.024  26.788  1.00  0.00     0.000 C 
BRANCH  17  18
ATOM     18  C   UNL     1      29.271   8.240  25.665  1.00  0.00     0.000 C 
BRANCH  18  19
ATOM     19  C   UNL     1      30.803   8.442  25.650  1.00  0.00     0.000 C 
BRANCH  19  20
ATOM     20  C   UNL     1      31.279   9.559  24.699  1.00  0.00     0.000 C 
BRANCH  20  21
ATOM     21  C   UNL     1      31.668  10.872  25.402  1.00  0.00     0.000 C 
BRANCH  21  22
ATOM     22  C   UNL     1      31.150  12.135  24.673  1.00  0.00    -0.000 C 
BRANCH  22  23
ATOM     23  C   UNL     1      29.638  12.374  24.843  1.00  0.00    -0.000 C 
BRANCH  23  24
ATOM     24  C   UNL     1      28.770  11.702  23.756  1.00  0.00    -0.000 C 
BRANCH  24  25
ATOM     25  C   UNL     1      27.392  11.225  24.260  1.00  0.00    -0.000 C 
BRANCH  25  26
ATOM     26  C   UNL     1      26.354  11.006  23.141  1.00  0.00    -0.000 C 
BRANCH  26  27
ATOM     27  C   UNL     1      26.337   9.554  22.627  1.00  0.00    -0.000 C 
BRANCH  27  28
ATOM     28  C   UNL     1      25.469   8.632  23.500  1.00  0.00    -0.000 C 
BRANCH  28  29
ATOM     29  C   UNL     1      24.733   7.566  22.673  1.00  0.00    -0.003 C 
ATOM     30  C   UNL     1      24.626   6.251  23.441  1.00  0.00     0.004 C 
ENDBRANCH  28  29
ENDBRANCH  27  28
ENDBRANCH  26  27
ENDBRANCH  25  26
ENDBRANCH  24  25
ENDBRANCH  23  24
ENDBRANCH  22  23
ENDBRANCH  21  22
ENDBRANCH  20  21
ENDBRANCH  19  20
ENDBRANCH  18  19
ENDBRANCH  17  18
ENDBRANCH   1  17
TORSDOF 26
ENDMDL
