MODEL 1
REMARK VINA RESULT:     2.622      0.000      0.000
REMARK INTER + INTRA:           5.815
REMARK INTER:                   3.848
REMARK INTRA:                   1.966
REMARK UNBOUND:                 1.966
REMARK SMILES C=C1CC=CC(C)(C)CC=C(C)CCC1
REMARK SMILES IDX 2 1 1 2 15 3 14 4 13 5 11 6 12 7 10 8 3 10 4 11 5 12 6 13
REMARK SMILES IDX 7 14 8 15 9 16
REMARK H PARENT
REMARK Flexibility Score: 60.00
ROOT
ATOM      1  C   UNL     1     -14.726  -4.176  15.713  1.00  0.00    -0.074 C 
ATOM      2  C   UNL     1     -14.753  -5.410  15.186  1.00  0.00     0.008 C 
ENDROOT
BRANCH   1   3
ATOM      3  C   UNL     1     -13.382  -3.522  15.993  1.00  0.00     0.031 C 
BRANCH   3   4
ATOM      4  C   UNL     1     -13.479  -2.417  17.057  1.00  0.00     0.009 C 
BRANCH   4   5
ATOM      5  C   UNL     1     -13.428  -2.945  18.504  1.00  0.00     0.030 C 
BRANCH   5   6
ATOM      6  C   UNL     1     -14.073  -1.994  19.506  1.00  0.00    -0.077 C 
ATOM      7  C   UNL     1     -13.312  -1.674  20.770  1.00  0.00     0.039 C 
ATOM      8  C   UNL     1     -15.306  -1.442  19.372  1.00  0.00    -0.027 CG0
ATOM      9  G   UNL     1     -16.328  -1.720  18.285  1.00  0.00     0.000 G0
ENDBRANCH   5   6
ENDBRANCH   4   5
ENDBRANCH   3   4
ENDBRANCH   1   3
BRANCH   1  10
ATOM     10  C   UNL     1     -16.031  -3.514  16.107  1.00  0.00     0.057 C 
BRANCH  10  11
ATOM     11  C   UNL     1     -16.288  -2.253  15.320  1.00  0.00    -0.026 C 
ATOM     12  C   UNL     1     -16.462  -1.004  15.801  1.00  0.00    -0.024 C 
BRANCH  12  13
ATOM     13  C   UNL     1     -16.483  -0.531  17.261  1.00  0.00    -0.014 C 
ATOM     14  C   UNL     1     -15.295   0.446  17.456  1.00  0.00     0.016 C 
ATOM     15  C   UNL     1     -17.771   0.276  17.542  1.00  0.00     0.016 C 
BRANCH  13  16
ATOM     16  C   UNL     1     -16.342  -1.700  18.289  1.00  0.00     0.038 CG0
ATOM     17  G   UNL     1     -15.308  -1.434  19.368  1.00  0.00     0.000 G0
ENDBRANCH  13  16
ENDBRANCH  12  13
ENDBRANCH  10  11
ENDBRANCH   1  10
TORSDOF 0
ENDMDL
MODEL 2
REMARK VINA RESULT:     3.855      0.949      3.540
REMARK INTER + INTRA:           7.624
REMARK INTER:                   6.113
REMARK INTRA:                   1.511
REMARK UNBOUND:                 1.966
REMARK SMILES C=C1CC=CC(C)(C)CC=C(C)CCC1
REMARK SMILES IDX 2 1 1 2 15 3 14 4 13 5 11 6 12 7 10 8 3 10 4 11 5 12 6 13
REMARK SMILES IDX 7 14 8 15 9 16
REMARK H PARENT
REMARK Flexibility Score: 60.00
ROOT
ATOM      1  C   UNL     1     -14.879  -3.371  16.133  1.00  0.00    -0.074 C 
ATOM      2  C   UNL     1     -14.433  -4.554  15.680  1.00  0.00     0.008 C 
ENDROOT
BRANCH   1   3
ATOM      3  C   UNL     1     -16.345  -3.016  15.949  1.00  0.00     0.031 C 
BRANCH   3   4
ATOM      4  C   UNL     1     -16.547  -1.536  15.585  1.00  0.00     0.009 C 
BRANCH   4   5
ATOM      5  C   UNL     1     -17.256  -0.720  16.683  1.00  0.00     0.030 C 
BRANCH   5   6
ATOM      6  C   UNL     1     -16.290   0.106  17.526  1.00  0.00    -0.077 C 
ATOM      7  C   UNL     1     -16.048   1.541  17.124  1.00  0.00     0.039 C 
ATOM      8  C   UNL     1     -15.590  -0.363  18.590  1.00  0.00    -0.027 CG0
ATOM      9  G   UNL     1     -15.532  -1.792  19.100  1.00  0.00     0.000 G0
ENDBRANCH   5   6
ENDBRANCH   4   5
ENDBRANCH   3   4
ENDBRANCH   1   3
BRANCH   1  10
ATOM     10  C   UNL     1     -13.888  -2.386  16.721  1.00  0.00     0.057 C 
BRANCH  10  11
ATOM     11  C   UNL     1     -13.035  -3.013  17.796  1.00  0.00    -0.026 C 
ATOM     12  C   UNL     1     -13.183  -2.901  19.133  1.00  0.00    -0.024 C 
BRANCH  12  13
ATOM     13  C   UNL     1     -14.220  -2.088  19.920  1.00  0.00    -0.014 C 
ATOM     14  C   UNL     1     -14.609  -2.911  21.175  1.00  0.00     0.016 C 
ATOM     15  C   UNL     1     -13.590  -0.772  20.430  1.00  0.00     0.016 C 
BRANCH  13  16
ATOM     16  C   UNL     1     -15.515  -1.785  19.100  1.00  0.00     0.038 CG0
ATOM     17  G   UNL     1     -15.589  -0.357  18.593  1.00  0.00     0.000 G0
ENDBRANCH  13  16
ENDBRANCH  12  13
ENDBRANCH  10  11
ENDBRANCH   1  10
TORSDOF 0
ENDMDL
MODEL 3
REMARK VINA RESULT:     4.543      1.321      3.582
REMARK INTER + INTRA:           8.634
REMARK INTER:                   7.735
REMARK INTRA:                   0.899
REMARK UNBOUND:                 1.966
REMARK SMILES C=C1CC=CC(C)(C)CC=C(C)CCC1
REMARK SMILES IDX 2 1 1 2 15 3 14 4 13 5 11 6 12 7 10 8 3 10 4 11 5 12 6 13
REMARK SMILES IDX 7 14 8 15 9 16
REMARK H PARENT
REMARK Flexibility Score: 60.00
ROOT
ATOM      1  C   UNL     1     -16.553  -1.998  15.775  1.00  0.00    -0.074 C 
ATOM      2  C   UNL     1     -16.391  -1.013  14.876  1.00  0.00     0.008 C 
ENDROOT
BRANCH   1   3
ATOM      3  C   UNL     1     -16.483  -3.442  15.307  1.00  0.00     0.031 C 
BRANCH   3   4
ATOM      4  C   UNL     1     -15.395  -4.243  16.040  1.00  0.00     0.009 C 
BRANCH   4   5
ATOM      5  C   UNL     1     -14.001  -4.128  15.393  1.00  0.00     0.030 C 
BRANCH   5   6
ATOM      6  C   UNL     1     -13.221  -2.910  15.875  1.00  0.00    -0.077 C 
ATOM      7  C   UNL     1     -12.351  -2.184  14.877  1.00  0.00     0.039 C 
ATOM      8  C   UNL     1     -13.213  -2.447  17.152  1.00  0.00    -0.027 CG0
ATOM      9  G   UNL     1     -13.870  -3.079  18.366  1.00  0.00     0.000 G0
ENDBRANCH   5   6
ENDBRANCH   4   5
ENDBRANCH   3   4
ENDBRANCH   1   3
BRANCH   1  10
ATOM     10  C   UNL     1     -16.901  -1.639  17.206  1.00  0.00     0.057 C 
BRANCH  10  11
ATOM     11  C   UNL     1     -15.981  -0.583  17.766  1.00  0.00    -0.026 C 
ATOM     12  C   UNL     1     -14.977  -0.753  18.653  1.00  0.00    -0.024 C 
BRANCH  12  13
ATOM     13  C   UNL     1     -14.524  -2.040  19.356  1.00  0.00    -0.014 C 
ATOM     14  C   UNL     1     -13.479  -1.645  20.431  1.00  0.00     0.016 C 
ATOM     15  C   UNL     1     -15.712  -2.684  20.107  1.00  0.00     0.016 C 
BRANCH  13  16
ATOM     16  C   UNL     1     -13.873  -3.075  18.384  1.00  0.00     0.038 CG0
ATOM     17  G   UNL     1     -13.220  -2.438  17.171  1.00  0.00     0.000 G0
ENDBRANCH  13  16
ENDBRANCH  12  13
ENDBRANCH  10  11
ENDBRANCH   1  10
TORSDOF 0
ENDMDL
MODEL 4
REMARK VINA RESULT:     4.680      1.309      3.625
REMARK INTER + INTRA:           8.835
REMARK INTER:                   6.238
REMARK INTRA:                   2.597
REMARK UNBOUND:                 1.966
REMARK SMILES C=C1CC=CC(C)(C)CC=C(C)CCC1
REMARK SMILES IDX 2 1 1 2 15 3 14 4 13 5 11 6 12 7 10 8 3 10 4 11 5 12 6 13
REMARK SMILES IDX 7 14 8 15 9 16
REMARK H PARENT
REMARK Flexibility Score: 60.00
ROOT
ATOM      1  C   UNL     1     -16.531  -1.011  16.996  1.00  0.00    -0.074 C 
ATOM      2  C   UNL     1     -16.912   0.275  17.058  1.00  0.00     0.008 C 
ENDROOT
BRANCH   1   3
ATOM      3  C   UNL     1     -16.377  -1.799  18.286  1.00  0.00     0.031 C 
BRANCH   3   4
ATOM      4  C   UNL     1     -15.472  -1.085  19.303  1.00  0.00     0.009 C 
BRANCH   4   5
ATOM      5  C   UNL     1     -14.975  -2.002  20.438  1.00  0.00     0.030 C 
BRANCH   5   6
ATOM      6  C   UNL     1     -13.565  -2.532  20.198  1.00  0.00    -0.077 C 
ATOM      7  C   UNL     1     -12.774  -3.007  21.393  1.00  0.00     0.039 C 
ATOM      8  C   UNL     1     -12.944  -2.571  18.991  1.00  0.00    -0.027 CG0
ATOM      9  G   UNL     1     -13.454  -2.017  17.673  1.00  0.00     0.000 G0
ENDBRANCH   5   6
ENDBRANCH   4   5
ENDBRANCH   3   4
ENDBRANCH   1   3
BRANCH   1  10
ATOM     10  C   UNL     1     -16.168  -1.609  15.650  1.00  0.00     0.057 C 
BRANCH  10  11
ATOM     11  C   UNL     1     -15.861  -3.082  15.748  1.00  0.00    -0.026 C 
ATOM     12  C   UNL     1     -14.690  -3.656  16.100  1.00  0.00    -0.024 C 
BRANCH  12  13
ATOM     13  C   UNL     1     -13.358  -2.982  16.455  1.00  0.00    -0.014 C 
ATOM     14  C   UNL     1     -12.349  -4.099  16.824  1.00  0.00     0.016 C 
ATOM     15  C   UNL     1     -12.782  -2.254  15.219  1.00  0.00     0.016 C 
BRANCH  13  16
ATOM     16  C   UNL     1     -13.470  -1.994  17.661  1.00  0.00     0.038 CG0
ATOM     17  G   UNL     1     -12.940  -2.567  18.963  1.00  0.00     0.000 G0
ENDBRANCH  13  16
ENDBRANCH  12  13
ENDBRANCH  10  11
ENDBRANCH   1  10
TORSDOF 0
ENDMDL
MODEL 5
REMARK VINA RESULT:     4.685      1.215      3.764
REMARK INTER + INTRA:           8.843
REMARK INTER:                   6.883
REMARK INTRA:                   1.960
REMARK UNBOUND:                 1.966
REMARK SMILES C=C1CC=CC(C)(C)CC=C(C)CCC1
REMARK SMILES IDX 2 1 1 2 15 3 14 4 13 5 11 6 12 7 10 8 3 10 4 11 5 12 6 13
REMARK SMILES IDX 7 14 8 15 9 16
REMARK H PARENT
REMARK Flexibility Score: 60.00
ROOT
ATOM      1  C   UNL     1     -13.576  -2.326  19.861  1.00  0.00    -0.074 C 
ATOM      2  C   UNL     1     -12.768  -2.363  20.933  1.00  0.00     0.008 C 
ENDROOT
BRANCH   1   3
ATOM      3  C   UNL     1     -13.192  -3.114  18.620  1.00  0.00     0.031 C 
BRANCH   3   4
ATOM      4  C   UNL     1     -13.339  -2.288  17.332  1.00  0.00     0.009 C 
BRANCH   4   5
ATOM      5  C   UNL     1     -13.435  -3.145  16.055  1.00  0.00     0.030 C 
BRANCH   5   6
ATOM      6  C   UNL     1     -14.823  -3.739  15.842  1.00  0.00    -0.077 C 
ATOM      7  C   UNL     1     -14.933  -5.233  15.655  1.00  0.00     0.039 C 
ATOM      8  C   UNL     1     -15.973  -3.021  15.763  1.00  0.00    -0.027 CG0
ATOM      9  G   UNL     1     -16.119  -1.510  15.762  1.00  0.00     0.000 G0
ENDBRANCH   5   6
ENDBRANCH   4   5
ENDBRANCH   3   4
ENDBRANCH   1   3
BRANCH   1  10
ATOM     10  C   UNL     1     -14.792  -1.420  19.885  1.00  0.00     0.057 C 
BRANCH  10  11
ATOM     11  C   UNL     1     -16.031  -2.122  19.390  1.00  0.00    -0.026 C 
ATOM     12  C   UNL     1     -16.696  -1.899  18.236  1.00  0.00    -0.024 C 
BRANCH  12  13
ATOM     13  C   UNL     1     -16.404  -0.863  17.143  1.00  0.00    -0.014 C 
ATOM     14  C   UNL     1     -17.644   0.059  17.025  1.00  0.00     0.016 C 
ATOM     15  C   UNL     1     -15.220   0.038  17.565  1.00  0.00     0.016 C 
BRANCH  13  16
ATOM     16  C   UNL     1     -16.124  -1.504  15.745  1.00  0.00     0.038 CG0
ATOM     17  G   UNL     1     -15.994  -3.016  15.790  1.00  0.00     0.000 G0
ENDBRANCH  13  16
ENDBRANCH  12  13
ENDBRANCH  10  11
ENDBRANCH   1  10
TORSDOF 0
ENDMDL
