MODEL 1
REMARK VINA RESULT:    -3.673      0.000      0.000
REMARK INTER + INTRA:          -4.898
REMARK INTER:                  -4.424
REMARK INTRA:                  -0.473
REMARK UNBOUND:                -0.473
REMARK SMILES NC(=O)C[C@H]([NH3+])C(=O)[O-]
REMARK SMILES IDX 4 1 5 2 6 3 7 7 8 8 9 9 2 10 3 11 1 12
REMARK H PARENT 6 4 6 5 6 6 1 13 1 14
REMARK Flexibility Score: inf
ROOT
ATOM      1  C   UNL     1     195.580 186.573 181.586  1.00  0.00     0.171 C 
ENDROOT
BRANCH   1   2
ATOM      2  C   UNL     1     196.691 185.819 182.344  1.00  0.00     0.237 C 
BRANCH   2   3
ATOM      3  N   UNL     1     196.166 184.622 183.015  1.00  0.00    -0.350 N 
ATOM      4  H   UNL     1     195.195 184.424 182.678  1.00  0.00     0.345 HD
ATOM      5  H   UNL     1     196.772 183.791 182.819  1.00  0.00     0.345 HD
ATOM      6  H   UNL     1     196.122 184.779 184.047  1.00  0.00     0.345 HD
ENDBRANCH   2   3
BRANCH   2   7
ATOM      7  C   UNL     1     197.331 186.738 183.350  1.00  0.00     0.100 C 
ATOM      8  O   UNL     1     196.631 187.576 183.977  1.00  0.00    -0.544 OA
ATOM      9  O   UNL     1     198.694 186.656 183.605  1.00  0.00    -0.544 OA
ENDBRANCH   2   7
ENDBRANCH   1   2
BRANCH   1  10
ATOM     10  C   UNL     1     194.216 186.223 182.108  1.00  0.00     0.223 C 
ATOM     11  O   UNL     1     193.588 185.250 181.612  1.00  0.00    -0.275 OA
ATOM     12  N   UNL     1     193.639 186.963 183.184  1.00  0.00    -0.369 N 
ATOM     13  H   UNL     1     192.695 186.710 183.550  1.00  0.00     0.159 HD
ATOM     14  H   UNL     1     194.155 187.758 183.622  1.00  0.00     0.159 HD
ENDBRANCH   1  10
TORSDOF 4
ENDMDL
MODEL 2
REMARK VINA RESULT:    -3.513      2.275      2.874
REMARK INTER + INTRA:          -4.706
REMARK INTER:                  -4.562
REMARK INTRA:                  -0.143
REMARK UNBOUND:                -0.473
REMARK SMILES NC(=O)C[C@H]([NH3+])C(=O)[O-]
REMARK SMILES IDX 4 1 5 2 6 3 7 7 8 8 9 9 2 10 3 11 1 12
REMARK H PARENT 6 4 6 5 6 6 1 13 1 14
REMARK Flexibility Score: inf
ROOT
ATOM      1  C   UNL     1     195.525 186.617 181.263  1.00  0.00     0.171 C 
ENDROOT
BRANCH   1   2
ATOM      2  C   UNL     1     196.062 186.551 182.707  1.00  0.00     0.237 C 
BRANCH   2   3
ATOM      3  N   UNL     1     196.135 185.165 183.190  1.00  0.00    -0.350 N 
ATOM      4  H   UNL     1     196.516 184.547 182.437  1.00  0.00     0.345 HD
ATOM      5  H   UNL     1     196.752 185.098 184.033  1.00  0.00     0.345 HD
ATOM      6  H   UNL     1     195.180 184.819 183.436  1.00  0.00     0.345 HD
ENDBRANCH   2   3
BRANCH   2   7
ATOM      7  C   UNL     1     195.180 187.369 183.613  1.00  0.00     0.100 C 
ATOM      8  O   UNL     1     194.140 186.863 184.110  1.00  0.00    -0.544 OA
ATOM      9  O   UNL     1     195.515 188.682 183.918  1.00  0.00    -0.544 OA
ENDBRANCH   2   7
ENDBRANCH   1   2
BRANCH   1  10
ATOM     10  C   UNL     1     195.989 187.856 180.554  1.00  0.00     0.223 C 
ATOM     11  O   UNL     1     197.218 188.126 180.506  1.00  0.00    -0.275 OA
ATOM     12  N   UNL     1     195.050 188.713 179.904  1.00  0.00    -0.369 N 
ATOM     13  H   UNL     1     195.378 189.568 179.403  1.00  0.00     0.159 HD
ATOM     14  H   UNL     1     194.030 188.493 179.914  1.00  0.00     0.159 HD
ENDBRANCH   1  10
TORSDOF 4
ENDMDL
MODEL 3
REMARK VINA RESULT:    -3.492      1.674      2.286
REMARK INTER + INTRA:          -4.679
REMARK INTER:                  -4.417
REMARK INTRA:                  -0.263
REMARK UNBOUND:                -0.473
REMARK SMILES NC(=O)C[C@H]([NH3+])C(=O)[O-]
REMARK SMILES IDX 4 1 5 2 6 3 7 7 8 8 9 9 2 10 3 11 1 12
REMARK H PARENT 6 4 6 5 6 6 1 13 1 14
REMARK Flexibility Score: inf
ROOT
ATOM      1  C   UNL     1     194.268 186.381 181.064  1.00  0.00     0.171 C 
ENDROOT
BRANCH   1   2
ATOM      2  C   UNL     1     194.891 186.206 182.463  1.00  0.00     0.237 C 
BRANCH   2   3
ATOM      3  N   UNL     1     193.861 186.192 183.512  1.00  0.00    -0.350 N 
ATOM      4  H   UNL     1     193.599 185.204 183.737  1.00  0.00     0.345 HD
ATOM      5  H   UNL     1     194.210 186.660 184.380  1.00  0.00     0.345 HD
ATOM      6  H   UNL     1     193.001 186.682 183.178  1.00  0.00     0.345 HD
ENDBRANCH   2   3
BRANCH   2   7
ATOM      7  C   UNL     1     195.876 187.315 182.721  1.00  0.00     0.100 C 
ATOM      8  O   UNL     1     197.051 187.234 182.276  1.00  0.00    -0.544 OA
ATOM      9  O   UNL     1     195.491 188.442 183.437  1.00  0.00    -0.544 OA
ENDBRANCH   2   7
ENDBRANCH   1   2
BRANCH   1  10
ATOM     10  C   UNL     1     192.895 185.778 180.987  1.00  0.00     0.223 C 
ATOM     11  O   UNL     1     192.751 184.534 181.120  1.00  0.00    -0.275 OA
ATOM     12  N   UNL     1     191.748 186.606 180.799  1.00  0.00    -0.369 N 
ATOM     13  H   UNL     1     190.795 186.184 180.757  1.00  0.00     0.159 HD
ATOM     14  H   UNL     1     191.846 187.642 180.710  1.00  0.00     0.159 HD
ENDBRANCH   1  10
TORSDOF 4
ENDMDL
MODEL 4
REMARK VINA RESULT:    -3.436      2.022      3.823
REMARK INTER + INTRA:          -4.612
REMARK INTER:                  -4.318
REMARK INTRA:                  -0.294
REMARK UNBOUND:                -0.473
REMARK SMILES NC(=O)C[C@H]([NH3+])C(=O)[O-]
REMARK SMILES IDX 4 1 5 2 6 3 7 7 8 8 9 9 2 10 3 11 1 12
REMARK H PARENT 6 4 6 5 6 6 1 13 1 14
REMARK Flexibility Score: inf
ROOT
ATOM      1  C   UNL     1     197.081 186.376 181.942  1.00  0.00     0.171 C 
ENDROOT
BRANCH   1   2
ATOM      2  C   UNL     1     196.318 187.714 181.869  1.00  0.00     0.237 C 
BRANCH   2   3
ATOM      3  N   UNL     1     195.479 187.919 183.057  1.00  0.00    -0.350 N 
ATOM      4  H   UNL     1     195.973 188.543 183.737  1.00  0.00     0.345 HD
ATOM      5  H   UNL     1     194.565 188.356 182.794  1.00  0.00     0.345 HD
ATOM      6  H   UNL     1     195.299 187.006 183.532  1.00  0.00     0.345 HD
ENDBRANCH   2   3
BRANCH   2   7
ATOM      7  C   UNL     1     195.471 187.745 180.625  1.00  0.00     0.100 C 
ATOM      8  O   UNL     1     194.768 186.749 180.311  1.00  0.00    -0.544 OA
ATOM      9  O   UNL     1     195.447 188.880 179.822  1.00  0.00    -0.544 OA
ENDBRANCH   2   7
ENDBRANCH   1   2
BRANCH   1  10
ATOM     10  C   UNL     1     197.329 185.955 183.362  1.00  0.00     0.223 C 
ATOM     11  O   UNL     1     198.008 186.694 184.123  1.00  0.00    -0.275 OA
ATOM     12  N   UNL     1     196.774 184.740 183.866  1.00  0.00    -0.369 N 
ATOM     13  H   UNL     1     196.940 184.456 184.856  1.00  0.00     0.159 HD
ATOM     14  H   UNL     1     196.190 184.127 183.256  1.00  0.00     0.159 HD
ENDBRANCH   1  10
TORSDOF 4
ENDMDL
MODEL 5
REMARK VINA RESULT:    -3.377      7.900      9.233
REMARK INTER + INTRA:          -4.541
REMARK INTER:                  -4.288
REMARK INTRA:                  -0.254
REMARK UNBOUND:                -0.473
REMARK SMILES NC(=O)C[C@H]([NH3+])C(=O)[O-]
REMARK SMILES IDX 4 1 5 2 6 3 7 7 8 8 9 9 2 10 3 11 1 12
REMARK H PARENT 6 4 6 5 6 6 1 13 1 14
REMARK Flexibility Score: inf
ROOT
ATOM      1  C   UNL     1     194.699 187.965 174.515  1.00  0.00     0.171 C 
ENDROOT
BRANCH   1   2
ATOM      2  C   UNL     1     194.128 186.537 174.419  1.00  0.00     0.237 C 
BRANCH   2   3
ATOM      3  N   UNL     1     194.855 185.733 173.427  1.00  0.00    -0.350 N 
ATOM      4  H   UNL     1     194.192 185.083 172.943  1.00  0.00     0.345 HD
ATOM      5  H   UNL     1     195.312 186.348 172.715  1.00  0.00     0.345 HD
ATOM      6  H   UNL     1     195.585 185.153 173.899  1.00  0.00     0.345 HD
ENDBRANCH   2   3
BRANCH   2   7
ATOM      7  C   UNL     1     192.666 186.599 174.064  1.00  0.00     0.100 C 
ATOM      8  O   UNL     1     192.269 187.366 173.148  1.00  0.00    -0.544 OA
ATOM      9  O   UNL     1     191.748 185.799 174.734  1.00  0.00    -0.544 OA
ENDBRANCH   2   7
ENDBRANCH   1   2
BRANCH   1  10
ATOM     10  C   UNL     1     196.025 187.988 175.221  1.00  0.00     0.223 C 
ATOM     11  O   UNL     1     196.397 186.984 175.884  1.00  0.00    -0.275 OA
ATOM     12  N   UNL     1     196.882 189.124 175.117  1.00  0.00    -0.369 N 
ATOM     13  H   UNL     1     197.807 189.132 175.600  1.00  0.00     0.159 HD
ATOM     14  H   UNL     1     196.601 189.956 174.552  1.00  0.00     0.159 HD
ENDBRANCH   1  10
TORSDOF 4
ENDMDL
MODEL 6
REMARK VINA RESULT:    -3.327      2.407      3.005
REMARK INTER + INTRA:          -4.481
REMARK INTER:                  -4.198
REMARK INTRA:                  -0.283
REMARK UNBOUND:                -0.473
REMARK SMILES NC(=O)C[C@H]([NH3+])C(=O)[O-]
REMARK SMILES IDX 4 1 5 2 6 3 7 7 8 8 9 9 2 10 3 11 1 12
REMARK H PARENT 6 4 6 5 6 6 1 13 1 14
REMARK Flexibility Score: inf
ROOT
ATOM      1  C   UNL     1     195.450 186.894 181.048  1.00  0.00     0.171 C 
ENDROOT
BRANCH   1   2
ATOM      2  C   UNL     1     195.501 187.018 182.584  1.00  0.00     0.237 C 
BRANCH   2   3
ATOM      3  N   UNL     1     195.540 188.425 183.008  1.00  0.00    -0.350 N 
ATOM      4  H   UNL     1     195.027 189.018 182.314  1.00  0.00     0.345 HD
ATOM      5  H   UNL     1     195.099 188.540 183.950  1.00  0.00     0.345 HD
ATOM      6  H   UNL     1     196.528 188.761 183.047  1.00  0.00     0.345 HD
ENDBRANCH   2   3
BRANCH   2   7
ATOM      7  C   UNL     1     196.706 186.286 183.111  1.00  0.00     0.100 C 
ATOM      8  O   UNL     1     197.841 186.831 183.086  1.00  0.00    -0.544 OA
ATOM      9  O   UNL     1     196.572 185.009 183.644  1.00  0.00    -0.544 OA
ENDBRANCH   2   7
ENDBRANCH   1   2
BRANCH   1  10
ATOM     10  C   UNL     1     195.957 188.135 180.373  1.00  0.00     0.223 C 
ATOM     11  O   UNL     1     197.190 188.391 180.377  1.00  0.00    -0.275 OA
ATOM     12  N   UNL     1     195.056 189.011 179.695  1.00  0.00    -0.369 N 
ATOM     13  H   UNL     1     195.413 189.867 179.218  1.00  0.00     0.159 HD
ATOM     14  H   UNL     1     194.033 188.803 179.661  1.00  0.00     0.159 HD
ENDBRANCH   1  10
TORSDOF 4
ENDMDL
MODEL 7
REMARK VINA RESULT:    -3.318      1.944      3.438
REMARK INTER + INTRA:          -4.470
REMARK INTER:                  -4.086
REMARK INTRA:                  -0.385
REMARK UNBOUND:                -0.473
REMARK SMILES NC(=O)C[C@H]([NH3+])C(=O)[O-]
REMARK SMILES IDX 4 1 5 2 6 3 7 7 8 8 9 9 2 10 3 11 1 12
REMARK H PARENT 6 4 6 5 6 6 1 13 1 14
REMARK Flexibility Score: inf
ROOT
ATOM      1  C   UNL     1     196.676 187.329 183.814  1.00  0.00     0.171 C 
ENDROOT
BRANCH   1   2
ATOM      2  C   UNL     1     195.348 187.301 183.030  1.00  0.00     0.237 C 
BRANCH   2   3
ATOM      3  N   UNL     1     194.535 186.132 183.393  1.00  0.00    -0.350 N 
ATOM      4  H   UNL     1     194.060 185.753 182.540  1.00  0.00     0.345 HD
ATOM      5  H   UNL     1     195.131 185.383 183.815  1.00  0.00     0.345 HD
ATOM      6  H   UNL     1     193.794 186.408 184.076  1.00  0.00     0.345 HD
ENDBRANCH   2   3
BRANCH   2   7
ATOM      7  C   UNL     1     195.633 187.296 181.552  1.00  0.00     0.100 C 
ATOM      8  O   UNL     1     194.868 186.683 180.762  1.00  0.00    -0.544 OA
ATOM      9  O   UNL     1     196.733 187.980 181.048  1.00  0.00    -0.544 OA
ENDBRANCH   2   7
ENDBRANCH   1   2
BRANCH   1  10
ATOM     10  C   UNL     1     197.497 186.099 183.559  1.00  0.00     0.223 C 
ATOM     11  O   UNL     1     197.077 184.976 183.945  1.00  0.00    -0.275 OA
ATOM     12  N   UNL     1     198.735 186.186 182.853  1.00  0.00    -0.369 N 
ATOM     13  H   UNL     1     199.297 185.327 182.669  1.00  0.00     0.159 HD
ATOM     14  H   UNL     1     199.088 187.105 182.506  1.00  0.00     0.159 HD
ENDBRANCH   1  10
TORSDOF 4
ENDMDL
MODEL 8
REMARK VINA RESULT:    -3.254      7.662      8.459
REMARK INTER + INTRA:          -4.393
REMARK INTER:                  -4.137
REMARK INTRA:                  -0.256
REMARK UNBOUND:                -0.473
REMARK SMILES NC(=O)C[C@H]([NH3+])C(=O)[O-]
REMARK SMILES IDX 4 1 5 2 6 3 7 7 8 8 9 9 2 10 3 11 1 12
REMARK H PARENT 6 4 6 5 6 6 1 13 1 14
REMARK Flexibility Score: inf
ROOT
ATOM      1  C   UNL     1     195.160 186.750 175.666  1.00  0.00     0.171 C 
ENDROOT
BRANCH   1   2
ATOM      2  C   UNL     1     195.477 185.516 174.798  1.00  0.00     0.237 C 
BRANCH   2   3
ATOM      3  N   UNL     1     195.108 185.738 173.394  1.00  0.00    -0.350 N 
ATOM      4  H   UNL     1     194.864 184.825 172.943  1.00  0.00     0.345 HD
ATOM      5  H   UNL     1     194.289 186.384 173.323  1.00  0.00     0.345 HD
ATOM      6  H   UNL     1     195.915 186.147 172.871  1.00  0.00     0.345 HD
ENDBRANCH   2   3
BRANCH   2   7
ATOM      7  C   UNL     1     194.749 184.315 175.341  1.00  0.00     0.100 C 
ATOM      8  O   UNL     1     193.858 184.458 176.219  1.00  0.00    -0.544 OA
ATOM      9  O   UNL     1     195.044 183.043 174.866  1.00  0.00    -0.544 OA
ENDBRANCH   2   7
ENDBRANCH   1   2
BRANCH   1  10
ATOM     10  C   UNL     1     195.559 188.026 174.983  1.00  0.00     0.223 C 
ATOM     11  O   UNL     1     194.839 188.493 174.061  1.00  0.00    -0.275 OA
ATOM     12  N   UNL     1     196.729 188.734 175.394  1.00  0.00    -0.369 N 
ATOM     13  H   UNL     1     196.996 189.626 174.924  1.00  0.00     0.159 HD
ATOM     14  H   UNL     1     197.325 188.374 176.172  1.00  0.00     0.159 HD
ENDBRANCH   1  10
TORSDOF 4
ENDMDL
MODEL 9
REMARK VINA RESULT:    -3.075      8.332      8.980
REMARK INTER + INTRA:          -4.178
REMARK INTER:                  -3.912
REMARK INTRA:                  -0.265
REMARK UNBOUND:                -0.473
REMARK SMILES NC(=O)C[C@H]([NH3+])C(=O)[O-]
REMARK SMILES IDX 4 1 5 2 6 3 7 7 8 8 9 9 2 10 3 11 1 12
REMARK H PARENT 6 4 6 5 6 6 1 13 1 14
REMARK Flexibility Score: inf
ROOT
ATOM      1  C   UNL     1     193.132 186.522 174.367  1.00  0.00     0.171 C 
ENDROOT
BRANCH   1   2
ATOM      2  C   UNL     1     194.615 186.441 173.953  1.00  0.00     0.237 C 
BRANCH   2   3
ATOM      3  N   UNL     1     195.174 185.108 174.213  1.00  0.00    -0.350 N 
ATOM      4  H   UNL     1     196.105 185.016 173.744  1.00  0.00     0.345 HD
ATOM      5  H   UNL     1     195.290 184.948 175.240  1.00  0.00     0.345 HD
ATOM      6  H   UNL     1     194.544 184.372 173.820  1.00  0.00     0.345 HD
ENDBRANCH   2   3
BRANCH   2   7
ATOM      7  C   UNL     1     195.404 187.486 174.696  1.00  0.00     0.100 C 
ATOM      8  O   UNL     1     195.444 188.671 174.272  1.00  0.00    -0.544 OA
ATOM      9  O   UNL     1     196.082 187.154 175.863  1.00  0.00    -0.544 OA
ENDBRANCH   2   7
ENDBRANCH   1   2
BRANCH   1  10
ATOM     10  C   UNL     1     192.316 187.286 173.364  1.00  0.00     0.223 C 
ATOM     11  O   UNL     1     191.568 186.665 172.563  1.00  0.00    -0.275 OA
ATOM     12  N   UNL     1     192.355 188.713 173.334  1.00  0.00    -0.369 N 
ATOM     13  H   UNL     1     191.778 189.240 172.643  1.00  0.00     0.159 HD
ATOM     14  H   UNL     1     192.951 189.245 174.005  1.00  0.00     0.159 HD
ENDBRANCH   1  10
TORSDOF 4
ENDMDL
