MODEL 1
REMARK VINA RESULT:    -3.263      0.000      0.000
REMARK INTER + INTRA:          -3.657
REMARK INTER:                  -3.644
REMARK INTRA:                  -0.012
REMARK UNBOUND:                -0.012
REMARK SMILES CCCC(=O)[O-]
REMARK SMILES IDX 3 1 4 2 5 3 6 4 2 5 1 6
REMARK H PARENT
REMARK Flexibility Score: inf
ROOT
ATOM      1  C   UNL     1      14.015  44.766   0.246  1.00  0.00     0.052 C 
ENDROOT
BRANCH   1   2
ATOM      2  C   UNL     1      13.077  43.607   0.388  1.00  0.00     0.041 C 
ATOM      3  O   UNL     1      13.144  42.858   1.398  1.00  0.00    -0.550 OA
ATOM      4  O   UNL     1      12.107  43.374  -0.577  1.00  0.00    -0.550 OA
ENDBRANCH   1   2
BRANCH   1   5
ATOM      5  C   UNL     1      13.371  45.929  -0.519  1.00  0.00     0.003 C 
ATOM      6  C   UNL     1      14.408  46.823  -1.199  1.00  0.00     0.004 C 
ENDBRANCH   1   5
TORSDOF 2
ENDMDL
MODEL 2
REMARK VINA RESULT:    -3.254      0.130      1.327
REMARK INTER + INTRA:          -3.647
REMARK INTER:                  -3.632
REMARK INTRA:                  -0.015
REMARK UNBOUND:                -0.012
REMARK SMILES CCCC(=O)[O-]
REMARK SMILES IDX 3 1 4 2 5 3 6 4 2 5 1 6
REMARK H PARENT
REMARK Flexibility Score: inf
ROOT
ATOM      1  C   UNL     1      13.975  44.764   0.346  1.00  0.00     0.052 C 
ENDROOT
BRANCH   1   2
ATOM      2  C   UNL     1      13.072  43.574   0.456  1.00  0.00     0.041 C 
ATOM      3  O   UNL     1      12.227  43.335  -0.446  1.00  0.00    -0.550 OA
ATOM      4  O   UNL     1      13.187  42.710   1.537  1.00  0.00    -0.550 OA
ENDBRANCH   1   2
BRANCH   1   5
ATOM      5  C   UNL     1      13.358  45.870  -0.519  1.00  0.00     0.003 C 
ATOM      6  C   UNL     1      14.418  46.763  -1.164  1.00  0.00     0.004 C 
ENDBRANCH   1   5
TORSDOF 2
ENDMDL
MODEL 3
REMARK VINA RESULT:    -3.064      2.783      3.684
REMARK INTER + INTRA:          -3.434
REMARK INTER:                  -3.419
REMARK INTRA:                  -0.015
REMARK UNBOUND:                -0.012
REMARK SMILES CCCC(=O)[O-]
REMARK SMILES IDX 3 1 4 2 5 3 6 4 2 5 1 6
REMARK H PARENT
REMARK Flexibility Score: inf
ROOT
ATOM      1  C   UNL     1      13.401  45.806  -0.547  1.00  0.00     0.052 C 
ENDROOT
BRANCH   1   2
ATOM      2  C   UNL     1      14.617  46.496  -1.086  1.00  0.00     0.041 C 
ATOM      3  O   UNL     1      15.758  45.991  -0.917  1.00  0.00    -0.550 OA
ATOM      4  O   UNL     1      14.486  47.676  -1.805  1.00  0.00    -0.550 OA
ENDBRANCH   1   2
BRANCH   1   5
ATOM      5  C   UNL     1      13.767  44.553   0.258  1.00  0.00     0.003 C 
ATOM      6  C   UNL     1      12.667  43.492   0.213  1.00  0.00     0.004 C 
ENDBRANCH   1   5
TORSDOF 2
ENDMDL
MODEL 4
REMARK VINA RESULT:    -3.047      2.527      3.176
REMARK INTER + INTRA:          -3.416
REMARK INTER:                  -3.399
REMARK INTRA:                  -0.016
REMARK UNBOUND:                -0.012
REMARK SMILES CCCC(=O)[O-]
REMARK SMILES IDX 3 1 4 2 5 3 6 4 2 5 1 6
REMARK H PARENT
REMARK Flexibility Score: inf
ROOT
ATOM      1  C   UNL     1      14.010  44.371   0.478  1.00  0.00     0.052 C 
ENDROOT
BRANCH   1   2
ATOM      2  C   UNL     1      15.444  44.797   0.412  1.00  0.00     0.041 C 
ATOM      3  O   UNL     1      15.819  45.626  -0.458  1.00  0.00    -0.550 OA
ATOM      4  O   UNL     1      16.359  44.307   1.334  1.00  0.00    -0.550 OA
ENDBRANCH   1   2
BRANCH   1   5
ATOM      5  C   UNL     1      13.114  45.245  -0.409  1.00  0.00     0.003 C 
ATOM      6  C   UNL     1      11.891  44.487  -0.926  1.00  0.00     0.004 C 
ENDBRANCH   1   5
TORSDOF 2
ENDMDL
MODEL 5
REMARK VINA RESULT:    -2.967      1.211      1.947
REMARK INTER + INTRA:          -3.327
REMARK INTER:                  -3.319
REMARK INTRA:                  -0.008
REMARK UNBOUND:                -0.012
REMARK SMILES CCCC(=O)[O-]
REMARK SMILES IDX 3 1 4 2 5 3 6 4 2 5 1 6
REMARK H PARENT
REMARK Flexibility Score: inf
ROOT
ATOM      1  C   UNL     1      13.762  45.205   0.206  1.00  0.00     0.052 C 
ENDROOT
BRANCH   1   2
ATOM      2  C   UNL     1      12.805  44.058   0.103  1.00  0.00     0.041 C 
ATOM      3  O   UNL     1      11.805  44.133  -0.659  1.00  0.00    -0.550 OA
ATOM      4  O   UNL     1      13.036  42.892   0.821  1.00  0.00    -0.550 OA
ENDBRANCH   1   2
BRANCH   1   5
ATOM      5  C   UNL     1      15.199  44.728   0.452  1.00  0.00     0.003 C 
ATOM      6  C   UNL     1      16.233  45.631  -0.221  1.00  0.00     0.004 C 
ENDBRANCH   1   5
TORSDOF 2
ENDMDL
MODEL 6
REMARK VINA RESULT:    -2.652      9.668     10.833
REMARK INTER + INTRA:          -2.975
REMARK INTER:                  -2.946
REMARK INTRA:                  -0.028
REMARK UNBOUND:                -0.012
REMARK SMILES CCCC(=O)[O-]
REMARK SMILES IDX 3 1 4 2 5 3 6 4 2 5 1 6
REMARK H PARENT
REMARK Flexibility Score: inf
ROOT
ATOM      1  C   UNL     1      14.715  39.536   8.752  1.00  0.00     0.052 C 
ENDROOT
BRANCH   1   2
ATOM      2  C   UNL     1      14.460  38.705   7.531  1.00  0.00     0.041 C 
ATOM      3  O   UNL     1      13.362  38.106   7.392  1.00  0.00    -0.550 OA
ATOM      4  O   UNL     1      15.421  38.622   6.533  1.00  0.00    -0.550 OA
ENDBRANCH   1   2
BRANCH   1   5
ATOM      5  C   UNL     1      15.282  38.696   9.903  1.00  0.00     0.003 C 
ATOM      6  C   UNL     1      14.183  38.104  10.786  1.00  0.00     0.004 C 
ENDBRANCH   1   5
TORSDOF 2
ENDMDL
MODEL 7
REMARK VINA RESULT:    -2.623      9.626     10.812
REMARK INTER + INTRA:          -2.942
REMARK INTER:                  -2.918
REMARK INTRA:                  -0.024
REMARK UNBOUND:                -0.012
REMARK SMILES CCCC(=O)[O-]
REMARK SMILES IDX 3 1 4 2 5 3 6 4 2 5 1 6
REMARK H PARENT
REMARK Flexibility Score: inf
ROOT
ATOM      1  C   UNL     1      14.759  39.569   8.742  1.00  0.00     0.052 C 
ENDROOT
BRANCH   1   2
ATOM      2  C   UNL     1      14.500  38.759   7.509  1.00  0.00     0.041 C 
ATOM      3  O   UNL     1      15.359  38.712   6.590  1.00  0.00    -0.550 OA
ATOM      4  O   UNL     1      13.325  38.029   7.390  1.00  0.00    -0.550 OA
ENDBRANCH   1   2
BRANCH   1   5
ATOM      5  C   UNL     1      15.303  38.704   9.887  1.00  0.00     0.003 C 
ATOM      6  C   UNL     1      14.187  38.112  10.748  1.00  0.00     0.004 C 
ENDBRANCH   1   5
TORSDOF 2
ENDMDL
MODEL 8
REMARK VINA RESULT:    -2.544     15.188     15.803
REMARK INTER + INTRA:          -2.854
REMARK INTER:                  -2.847
REMARK INTRA:                  -0.007
REMARK UNBOUND:                -0.012
REMARK SMILES CCCC(=O)[O-]
REMARK SMILES IDX 3 1 4 2 5 3 6 4 2 5 1 6
REMARK H PARENT
REMARK Flexibility Score: inf
ROOT
ATOM      1  C   UNL     1      -1.328  46.652  -3.732  1.00  0.00     0.052 C 
ENDROOT
BRANCH   1   2
ATOM      2  C   UNL     1      -2.470  46.389  -4.666  1.00  0.00     0.041 C 
ATOM      3  O   UNL     1      -3.123  47.348  -5.155  1.00  0.00    -0.550 OA
ATOM      4  O   UNL     1      -2.790  45.086  -5.022  1.00  0.00    -0.550 OA
ENDBRANCH   1   2
BRANCH   1   5
ATOM      5  C   UNL     1      -0.408  47.762  -4.257  1.00  0.00     0.003 C 
ATOM      6  C   UNL     1       0.884  47.877  -3.448  1.00  0.00     0.004 C 
ENDBRANCH   1   5
TORSDOF 2
ENDMDL
MODEL 9
REMARK VINA RESULT:    -2.485      8.861      9.574
REMARK INTER + INTRA:          -2.789
REMARK INTER:                  -2.723
REMARK INTRA:                  -0.065
REMARK UNBOUND:                -0.012
REMARK SMILES CCCC(=O)[O-]
REMARK SMILES IDX 3 1 4 2 5 3 6 4 2 5 1 6
REMARK H PARENT
REMARK Flexibility Score: inf
ROOT
ATOM      1  C   UNL     1      16.057  39.216   7.158  1.00  0.00     0.052 C 
ENDROOT
BRANCH   1   2
ATOM      2  C   UNL     1      15.901  40.604   7.698  1.00  0.00     0.041 C 
ATOM      3  O   UNL     1      16.234  40.863   8.885  1.00  0.00    -0.550 OA
ATOM      4  O   UNL     1      15.422  41.620   6.882  1.00  0.00    -0.550 OA
ENDBRANCH   1   2
BRANCH   1   5
ATOM      5  C   UNL     1      14.733  38.666   6.612  1.00  0.00     0.003 C 
ATOM      6  C   UNL     1      13.739  38.334   7.725  1.00  0.00     0.004 C 
ENDBRANCH   1   5
TORSDOF 2
ENDMDL
