MODEL 1
REMARK VINA RESULT:    -5.045      0.000      0.000
REMARK INTER + INTRA:          -5.762
REMARK INTER:                  -5.635
REMARK INTRA:                  -0.127
REMARK UNBOUND:                -0.127
REMARK SMILES COc1cc2ccc(=O)oc2cc1OC
REMARK SMILES IDX 3 1 13 2 12 3 11 4 5 5 4 6 6 7 7 8 8 9 9 10 10 11 2 12 1 13
REMARK SMILES IDX 14 14 15 15
REMARK H PARENT
REMARK Flexibility Score: inf
ROOT
ATOM      1  C   UNL     1      70.719  50.998  22.945  1.00  0.00     0.161 A 
ATOM      2  C   UNL     1      71.533  52.085  22.584  1.00  0.00     0.164 A 
ATOM      3  C   UNL     1      71.423  52.642  21.294  1.00  0.00     0.098 A 
ATOM      4  C   UNL     1      70.512  52.119  20.373  1.00  0.00     0.142 A 
ATOM      5  C   UNL     1      69.696  51.029  20.736  1.00  0.00     0.022 A 
ATOM      6  C   UNL     1      69.800  50.472  22.016  1.00  0.00     0.062 A 
ATOM      7  C   UNL     1      68.792  50.529  19.791  1.00  0.00     0.019 A 
ATOM      8  C   UNL     1      68.725  51.117  18.529  1.00  0.00     0.094 A 
ATOM      9  C   UNL     1      69.567  52.197  18.240  1.00  0.00     0.336 A 
ATOM     10  O   UNL     1      69.522  52.743  17.106  1.00  0.00    -0.246 OA
ATOM     11  O   UNL     1      70.416  52.653  19.157  1.00  0.00    -0.423 OA
ENDROOT
BRANCH   1  12
ATOM     12  O   UNL     1      70.854  50.469  24.239  1.00  0.00    -0.493 OA
ATOM     13  C   UNL     1      71.766  49.435  24.598  1.00  0.00     0.278 C 
ENDBRANCH   1  12
BRANCH   2  14
ATOM     14  O   UNL     1      72.437  52.584  23.534  1.00  0.00    -0.493 OA
ATOM     15  C   UNL     1      73.848  52.396  23.483  1.00  0.00     0.278 C 
ENDBRANCH   2  14
TORSDOF 2
ENDMDL
MODEL 2
REMARK VINA RESULT:    -5.012      1.408      5.143
REMARK INTER + INTRA:          -5.725
REMARK INTER:                  -5.588
REMARK INTRA:                  -0.137
REMARK UNBOUND:                -0.127
REMARK SMILES COc1cc2ccc(=O)oc2cc1OC
REMARK SMILES IDX 3 1 13 2 12 3 11 4 5 5 4 6 6 7 7 8 8 9 9 10 10 11 2 12 1 13
REMARK SMILES IDX 14 14 15 15
REMARK H PARENT
REMARK Flexibility Score: inf
ROOT
ATOM      1  C   UNL     1      68.632  51.476  19.292  1.00  0.00     0.161 A 
ATOM      2  C   UNL     1      69.495  52.585  19.303  1.00  0.00     0.164 A 
ATOM      3  C   UNL     1      70.383  52.770  20.381  1.00  0.00     0.098 A 
ATOM      4  C   UNL     1      70.411  51.857  21.439  1.00  0.00     0.142 A 
ATOM      5  C   UNL     1      69.546  50.744  21.427  1.00  0.00     0.022 A 
ATOM      6  C   UNL     1      68.661  50.556  20.359  1.00  0.00     0.062 A 
ATOM      7  C   UNL     1      69.598  49.848  22.501  1.00  0.00     0.019 A 
ATOM      8  C   UNL     1      70.496  50.078  23.542  1.00  0.00     0.094 A 
ATOM      9  C   UNL     1      71.324  51.205  23.485  1.00  0.00     0.336 A 
ATOM     10  O   UNL     1      72.142  51.431  24.415  1.00  0.00    -0.246 OA
ATOM     11  O   UNL     1      71.254  52.040  22.453  1.00  0.00    -0.423 OA
ENDROOT
BRANCH   1  12
ATOM     12  O   UNL     1      67.761  51.324  18.201  1.00  0.00    -0.493 OA
ATOM     13  C   UNL     1      66.362  51.591  18.241  1.00  0.00     0.278 C 
ENDBRANCH   1  12
BRANCH   2  14
ATOM     14  O   UNL     1      69.439  53.482  18.224  1.00  0.00    -0.493 OA
ATOM     15  C   UNL     1      70.365  53.501  17.142  1.00  0.00     0.278 C 
ENDBRANCH   2  14
TORSDOF 2
ENDMDL
MODEL 3
REMARK VINA RESULT:    -5.000      1.536      2.728
REMARK INTER + INTRA:          -5.712
REMARK INTER:                  -5.546
REMARK INTRA:                  -0.165
REMARK UNBOUND:                -0.127
REMARK SMILES COc1cc2ccc(=O)oc2cc1OC
REMARK SMILES IDX 3 1 13 2 12 3 11 4 5 5 4 6 6 7 7 8 8 9 9 10 10 11 2 12 1 13
REMARK SMILES IDX 14 14 15 15
REMARK H PARENT
REMARK Flexibility Score: inf
ROOT
ATOM      1  C   UNL     1      71.588  51.999  22.673  1.00  0.00     0.161 A 
ATOM      2  C   UNL     1      70.898  50.945  23.297  1.00  0.00     0.164 A 
ATOM      3  C   UNL     1      69.817  50.329  22.635  1.00  0.00     0.098 A 
ATOM      4  C   UNL     1      69.427  50.760  21.364  1.00  0.00     0.142 A 
ATOM      5  C   UNL     1      70.119  51.817  20.739  1.00  0.00     0.022 A 
ATOM      6  C   UNL     1      71.194  52.433  21.392  1.00  0.00     0.062 A 
ATOM      7  C   UNL     1      69.705  52.225  19.466  1.00  0.00     0.019 A 
ATOM      8  C   UNL     1      68.630  51.581  18.857  1.00  0.00     0.094 A 
ATOM      9  C   UNL     1      67.990  50.538  19.538  1.00  0.00     0.336 A 
ATOM     10  O   UNL     1      67.017  49.943  19.006  1.00  0.00    -0.246 OA
ATOM     11  O   UNL     1      68.405  50.170  20.747  1.00  0.00    -0.423 OA
ENDROOT
BRANCH   1  12
ATOM     12  O   UNL     1      72.660  52.589  23.362  1.00  0.00    -0.493 OA
ATOM     13  C   UNL     1      74.034  52.343  23.082  1.00  0.00     0.278 C 
ENDBRANCH   1  12
BRANCH   2  14
ATOM     14  O   UNL     1      71.317  50.538  24.573  1.00  0.00    -0.493 OA
ATOM     15  C   UNL     1      72.050  49.347  24.841  1.00  0.00     0.278 C 
ENDBRANCH   2  14
TORSDOF 2
ENDMDL
MODEL 4
REMARK VINA RESULT:    -4.949      2.445      4.530
REMARK INTER + INTRA:          -5.654
REMARK INTER:                  -5.495
REMARK INTRA:                  -0.159
REMARK UNBOUND:                -0.127
REMARK SMILES COc1cc2ccc(=O)oc2cc1OC
REMARK SMILES IDX 3 1 13 2 12 3 11 4 5 5 4 6 6 7 7 8 8 9 9 10 10 11 2 12 1 13
REMARK SMILES IDX 14 14 15 15
REMARK H PARENT
REMARK Flexibility Score: inf
ROOT
ATOM      1  C   UNL     1      69.685  52.111  20.109  1.00  0.00     0.161 A 
ATOM      2  C   UNL     1      68.704  52.061  19.103  1.00  0.00     0.164 A 
ATOM      3  C   UNL     1      68.985  52.586  17.826  1.00  0.00     0.098 A 
ATOM      4  C   UNL     1      70.231  53.157  17.554  1.00  0.00     0.142 A 
ATOM      5  C   UNL     1      71.214  53.208  18.563  1.00  0.00     0.022 A 
ATOM      6  C   UNL     1      70.941  52.687  19.834  1.00  0.00     0.062 A 
ATOM      7  C   UNL     1      72.452  53.786  18.259  1.00  0.00     0.019 A 
ATOM      8  C   UNL     1      72.676  54.290  16.980  1.00  0.00     0.094 A 
ATOM      9  C   UNL     1      71.652  54.205  16.029  1.00  0.00     0.336 A 
ATOM     10  O   UNL     1      71.835  54.654  14.867  1.00  0.00    -0.246 OA
ATOM     11  O   UNL     1      70.486  53.650  16.344  1.00  0.00    -0.423 OA
ENDROOT
BRANCH   1  12
ATOM     12  O   UNL     1      69.371  51.578  21.370  1.00  0.00    -0.493 OA
ATOM     13  C   UNL     1      69.761  50.284  21.820  1.00  0.00     0.278 C 
ENDBRANCH   1  12
BRANCH   2  14
ATOM     14  O   UNL     1      67.464  51.480  19.412  1.00  0.00    -0.493 OA
ATOM     15  C   UNL     1      67.102  50.137  19.104  1.00  0.00     0.278 C 
ENDBRANCH   2  14
TORSDOF 2
ENDMDL
MODEL 5
REMARK VINA RESULT:    -4.926      1.700      5.666
REMARK INTER + INTRA:          -5.629
REMARK INTER:                  -5.463
REMARK INTRA:                  -0.166
REMARK UNBOUND:                -0.127
REMARK SMILES COc1cc2ccc(=O)oc2cc1OC
REMARK SMILES IDX 3 1 13 2 12 3 11 4 5 5 4 6 6 7 7 8 8 9 9 10 10 11 2 12 1 13
REMARK SMILES IDX 14 14 15 15
REMARK H PARENT
REMARK Flexibility Score: inf
ROOT
ATOM      1  C   UNL     1      69.412  52.370  20.554  1.00  0.00     0.161 A 
ATOM      2  C   UNL     1      69.140  50.996  20.438  1.00  0.00     0.164 A 
ATOM      3  C   UNL     1      69.621  50.103  21.417  1.00  0.00     0.098 A 
ATOM      4  C   UNL     1      70.367  50.576  22.500  1.00  0.00     0.142 A 
ATOM      5  C   UNL     1      70.639  51.954  22.616  1.00  0.00     0.022 A 
ATOM      6  C   UNL     1      70.164  52.845  21.647  1.00  0.00     0.062 A 
ATOM      7  C   UNL     1      71.388  52.396  23.713  1.00  0.00     0.019 A 
ATOM      8  C   UNL     1      71.839  51.470  24.651  1.00  0.00     0.094 A 
ATOM      9  C   UNL     1      71.530  50.116  24.471  1.00  0.00     0.336 A 
ATOM     10  O   UNL     1      71.927  49.264  25.307  1.00  0.00    -0.246 OA
ATOM     11  O   UNL     1      70.816  49.724  23.420  1.00  0.00    -0.423 OA
ENDROOT
BRANCH   1  12
ATOM     12  O   UNL     1      68.917  53.230  19.561  1.00  0.00    -0.493 OA
ATOM     13  C   UNL     1      67.757  54.044  19.701  1.00  0.00     0.278 C 
ENDBRANCH   1  12
BRANCH   2  14
ATOM     14  O   UNL     1      68.389  50.556  19.337  1.00  0.00    -0.493 OA
ATOM     15  C   UNL     1      67.021  50.163  19.398  1.00  0.00     0.278 C 
ENDBRANCH   2  14
TORSDOF 2
ENDMDL
MODEL 6
REMARK VINA RESULT:    -4.797      2.655      4.791
REMARK INTER + INTRA:          -5.485
REMARK INTER:                  -5.377
REMARK INTRA:                  -0.108
REMARK UNBOUND:                -0.127
REMARK SMILES COc1cc2ccc(=O)oc2cc1OC
REMARK SMILES IDX 3 1 13 2 12 3 11 4 5 5 4 6 6 7 7 8 8 9 9 10 10 11 2 12 1 13
REMARK SMILES IDX 14 14 15 15
REMARK H PARENT
REMARK Flexibility Score: inf
ROOT
ATOM      1  C   UNL     1      68.792  51.704  18.549  1.00  0.00     0.161 A 
ATOM      2  C   UNL     1      69.507  51.716  19.759  1.00  0.00     0.164 A 
ATOM      3  C   UNL     1      70.717  52.434  19.849  1.00  0.00     0.098 A 
ATOM      4  C   UNL     1      71.209  53.131  18.743  1.00  0.00     0.142 A 
ATOM      5  C   UNL     1      70.492  53.118  17.530  1.00  0.00     0.022 A 
ATOM      6  C   UNL     1      69.290  52.407  17.435  1.00  0.00     0.062 A 
ATOM      7  C   UNL     1      71.012  53.828  16.441  1.00  0.00     0.019 A 
ATOM      8  C   UNL     1      72.212  54.520  16.585  1.00  0.00     0.094 A 
ATOM      9  C   UNL     1      72.869  54.488  17.821  1.00  0.00     0.336 A 
ATOM     10  O   UNL     1      73.954  55.107  17.972  1.00  0.00    -0.246 OA
ATOM     11  O   UNL     1      72.353  53.806  18.839  1.00  0.00    -0.423 OA
ENDROOT
BRANCH   1  12
ATOM     12  O   UNL     1      67.591  50.978  18.496  1.00  0.00    -0.493 OA
ATOM     13  C   UNL     1      66.300  51.535  18.725  1.00  0.00     0.278 C 
ENDBRANCH   1  12
BRANCH   2  14
ATOM     14  O   UNL     1      68.983  51.004  20.849  1.00  0.00    -0.493 OA
ATOM     15  C   UNL     1      69.742  50.140  21.690  1.00  0.00     0.278 C 
ENDBRANCH   2  14
TORSDOF 2
ENDMDL
MODEL 7
REMARK VINA RESULT:    -4.774      3.121      5.104
REMARK INTER + INTRA:          -5.459
REMARK INTER:                  -5.298
REMARK INTRA:                  -0.161
REMARK UNBOUND:                -0.127
REMARK SMILES COc1cc2ccc(=O)oc2cc1OC
REMARK SMILES IDX 3 1 13 2 12 3 11 4 5 5 4 6 6 7 7 8 8 9 9 10 10 11 2 12 1 13
REMARK SMILES IDX 14 14 15 15
REMARK H PARENT
REMARK Flexibility Score: inf
ROOT
ATOM      1  C   UNL     1      71.621  53.898  18.627  1.00  0.00     0.161 A 
ATOM      2  C   UNL     1      70.789  53.940  17.494  1.00  0.00     0.164 A 
ATOM      3  C   UNL     1      69.660  53.099  17.425  1.00  0.00     0.098 A 
ATOM      4  C   UNL     1      69.364  52.225  18.474  1.00  0.00     0.142 A 
ATOM      5  C   UNL     1      70.198  52.183  19.609  1.00  0.00     0.022 A 
ATOM      6  C   UNL     1      71.321  53.016  19.683  1.00  0.00     0.062 A 
ATOM      7  C   UNL     1      69.874  51.297  20.642  1.00  0.00     0.019 A 
ATOM      8  C   UNL     1      68.746  50.488  20.522  1.00  0.00     0.094 A 
ATOM      9  C   UNL     1      67.963  50.584  19.365  1.00  0.00     0.336 A 
ATOM     10  O   UNL     1      66.940  49.862  19.236  1.00  0.00    -0.246 OA
ATOM     11  O   UNL     1      68.294  51.435  18.398  1.00  0.00    -0.423 OA
ENDROOT
BRANCH   1  12
ATOM     12  O   UNL     1      72.737  54.750  18.662  1.00  0.00    -0.493 OA
ATOM     13  C   UNL     1      74.074  54.342  18.389  1.00  0.00     0.278 C 
ENDBRANCH   1  12
BRANCH   2  14
ATOM     14  O   UNL     1      71.117  54.830  16.460  1.00  0.00    -0.493 OA
ATOM     15  C   UNL     1      71.833  54.471  15.282  1.00  0.00     0.278 C 
ENDBRANCH   2  14
TORSDOF 2
ENDMDL
MODEL 8
REMARK VINA RESULT:    -4.635      2.087      3.360
REMARK INTER + INTRA:          -5.304
REMARK INTER:                  -5.180
REMARK INTRA:                  -0.124
REMARK UNBOUND:                -0.127
REMARK SMILES COc1cc2ccc(=O)oc2cc1OC
REMARK SMILES IDX 3 1 13 2 12 3 11 4 5 5 4 6 6 7 7 8 8 9 9 10 10 11 2 12 1 13
REMARK SMILES IDX 14 14 15 15
REMARK H PARENT
REMARK Flexibility Score: inf
ROOT
ATOM      1  C   UNL     1      71.652  53.148  20.498  1.00  0.00     0.161 A 
ATOM      2  C   UNL     1      71.358  52.359  21.624  1.00  0.00     0.164 A 
ATOM      3  C   UNL     1      70.268  51.467  21.587  1.00  0.00     0.098 A 
ATOM      4  C   UNL     1      69.477  51.363  20.439  1.00  0.00     0.142 A 
ATOM      5  C   UNL     1      69.772  52.154  19.311  1.00  0.00     0.022 A 
ATOM      6  C   UNL     1      70.854  53.042  19.342  1.00  0.00     0.062 A 
ATOM      7  C   UNL     1      68.962  52.026  18.177  1.00  0.00     0.019 A 
ATOM      8  C   UNL     1      67.896  51.128  18.195  1.00  0.00     0.094 A 
ATOM      9  C   UNL     1      67.664  50.375  19.352  1.00  0.00     0.336 A 
ATOM     10  O   UNL     1      66.707  49.558  19.388  1.00  0.00    -0.246 OA
ATOM     11  O   UNL     1      68.450  50.516  20.415  1.00  0.00    -0.423 OA
ENDROOT
BRANCH   1  12
ATOM     12  O   UNL     1      72.746  54.026  20.570  1.00  0.00    -0.493 OA
ATOM     13  C   UNL     1      73.741  54.160  19.560  1.00  0.00     0.278 C 
ENDBRANCH   1  12
BRANCH   2  14
ATOM     14  O   UNL     1      72.173  52.490  22.759  1.00  0.00    -0.493 OA
ATOM     15  C   UNL     1      71.719  52.945  24.031  1.00  0.00     0.278 C 
ENDBRANCH   2  14
TORSDOF 2
ENDMDL
MODEL 9
REMARK VINA RESULT:    -4.490      3.031      5.568
REMARK INTER + INTRA:          -5.141
REMARK INTER:                  -5.028
REMARK INTRA:                  -0.113
REMARK UNBOUND:                -0.127
REMARK SMILES COc1cc2ccc(=O)oc2cc1OC
REMARK SMILES IDX 3 1 13 2 12 3 11 4 5 5 4 6 6 7 7 8 8 9 9 10 10 11 2 12 1 13
REMARK SMILES IDX 14 14 15 15
REMARK H PARENT
REMARK Flexibility Score: inf
ROOT
ATOM      1  C   UNL     1      71.711  54.204  16.773  1.00  0.00     0.161 A 
ATOM      2  C   UNL     1      72.506  54.105  17.928  1.00  0.00     0.164 A 
ATOM      3  C   UNL     1      72.067  53.319  19.013  1.00  0.00     0.098 A 
ATOM      4  C   UNL     1      70.847  52.640  18.947  1.00  0.00     0.142 A 
ATOM      5  C   UNL     1      70.051  52.740  17.788  1.00  0.00     0.022 A 
ATOM      6  C   UNL     1      70.482  53.519  16.707  1.00  0.00     0.062 A 
ATOM      7  C   UNL     1      68.836  52.048  17.753  1.00  0.00     0.019 A 
ATOM      8  C   UNL     1      68.450  51.285  18.854  1.00  0.00     0.094 A 
ATOM      9  C   UNL     1      69.293  51.233  19.970  1.00  0.00     0.336 A 
ATOM     10  O   UNL     1      68.963  50.550  20.975  1.00  0.00    -0.246 OA
ATOM     11  O   UNL     1      70.443  51.901  19.977  1.00  0.00    -0.423 OA
ENDROOT
BRANCH   1  12
ATOM     12  O   UNL     1      72.180  54.996  15.711  1.00  0.00    -0.493 OA
ATOM     13  C   UNL     1      71.876  56.376  15.537  1.00  0.00     0.278 C 
ENDBRANCH   1  12
BRANCH   2  14
ATOM     14  O   UNL     1      73.724  54.801  17.960  1.00  0.00    -0.493 OA
ATOM     15  C   UNL     1      75.007  54.187  17.877  1.00  0.00     0.278 C 
ENDBRANCH   2  14
TORSDOF 2
ENDMDL
