MODEL 1
REMARK VINA RESULT:     2.007      0.000      0.000
REMARK INTER + INTRA:           2.446
REMARK INTER:                   2.124
REMARK INTRA:                   0.322
REMARK UNBOUND:                 0.322
REMARK SMILES CC1=C[C@@H]2C(=C(C)CC[C@@H]2C(C)C)CC1
REMARK SMILES IDX 1 1 2 2 3 3 4 4 10 5 9 6 8 7 6 8 5 9 14 10 15 11 7 12 11 13
REMARK SMILES IDX 12 14 13 15
REMARK H PARENT
REMARK Flexibility Score: inf
ROOT
ATOM      1  C   UNL     1     153.734 139.556 164.916  1.00  0.00     0.039 C 
ATOM      2  C   UNL     1     153.712 138.251 164.169  1.00  0.00    -0.076 C 
ATOM      3  C   UNL     1     152.568 137.814 163.616  1.00  0.00    -0.020 C 
ATOM      4  C   UNL     1     152.530 136.514 162.835  1.00  0.00     0.041 C 
ATOM      5  C   UNL     1     151.267 136.398 161.940  1.00  0.00     0.003 C 
ATOM      6  C   UNL     1     151.330 135.044 161.207  1.00  0.00     0.009 C 
ATOM      7  C   UNL     1     152.584 134.888 160.345  1.00  0.00     0.031 C 
ATOM      8  C   UNL     1     153.846 135.491 160.941  1.00  0.00    -0.073 C 
ATOM      9  C   UNL     1     153.828 136.272 162.062  1.00  0.00    -0.064 C 
ATOM     10  C   UNL     1     155.116 136.884 162.604  1.00  0.00     0.036 C 
ATOM     11  C   UNL     1     154.959 137.415 164.034  1.00  0.00     0.035 C 
ATOM     12  C   UNL     1     155.125 135.260 160.171  1.00  0.00     0.039 C 
ENDROOT
BRANCH   5  13
ATOM     13  C   UNL     1     150.937 137.653 161.045  1.00  0.00    -0.013 C 
ATOM     14  C   UNL     1     150.165 137.278 159.770  1.00  0.00     0.007 C 
ATOM     15  C   UNL     1     152.125 138.565 160.691  1.00  0.00     0.007 C 
ENDBRANCH   5  13
TORSDOF 1
ENDMDL
MODEL 2
REMARK VINA RESULT:     3.634      1.410      3.254
REMARK INTER + INTRA:           4.168
REMARK INTER:                   3.235
REMARK INTRA:                   0.933
REMARK UNBOUND:                 0.322
REMARK SMILES CC1=C[C@@H]2C(=C(C)CC[C@@H]2C(C)C)CC1
REMARK SMILES IDX 1 1 2 2 3 3 4 4 10 5 9 6 8 7 6 8 5 9 14 10 15 11 7 12 11 13
REMARK SMILES IDX 12 14 13 15
REMARK H PARENT
REMARK Flexibility Score: inf
ROOT
ATOM      1  C   UNL     1     154.986 139.318 163.851  1.00  0.00     0.039 C 
ATOM      2  C   UNL     1     154.258 138.804 162.639  1.00  0.00    -0.076 C 
ATOM      3  C   UNL     1     154.264 137.489 162.361  1.00  0.00    -0.020 C 
ATOM      4  C   UNL     1     153.515 136.945 161.160  1.00  0.00     0.041 C 
ATOM      5  C   UNL     1     153.289 135.412 161.247  1.00  0.00     0.003 C 
ATOM      6  C   UNL     1     152.533 134.973 159.977  1.00  0.00     0.009 C 
ATOM      7  C   UNL     1     151.187 135.679 159.809  1.00  0.00     0.031 C 
ATOM      8  C   UNL     1     151.175 137.138 160.236  1.00  0.00    -0.073 C 
ATOM      9  C   UNL     1     152.223 137.720 160.892  1.00  0.00    -0.064 C 
ATOM     10  C   UNL     1     152.151 139.180 161.332  1.00  0.00     0.036 C 
ATOM     11  C   UNL     1     153.523 139.745 161.720  1.00  0.00     0.035 C 
ATOM     12  C   UNL     1     149.895 137.898 159.982  1.00  0.00     0.039 C 
ENDROOT
BRANCH   5  13
ATOM     13  C   UNL     1     152.716 134.875 162.612  1.00  0.00    -0.013 C 
ATOM     14  C   UNL     1     151.393 135.554 163.002  1.00  0.00     0.007 C 
ATOM     15  C   UNL     1     153.685 134.888 163.808  1.00  0.00     0.007 C 
ENDBRANCH   5  13
TORSDOF 1
ENDMDL
MODEL 3
REMARK VINA RESULT:     4.085     20.733     22.875
REMARK INTER + INTRA:           4.645
REMARK INTER:                   4.377
REMARK INTRA:                   0.268
REMARK UNBOUND:                 0.322
REMARK SMILES CC1=C[C@@H]2C(=C(C)CC[C@@H]2C(C)C)CC1
REMARK SMILES IDX 1 1 2 2 3 3 4 4 10 5 9 6 8 7 6 8 5 9 14 10 15 11 7 12 11 13
REMARK SMILES IDX 12 14 13 15
REMARK H PARENT
REMARK Flexibility Score: inf
ROOT
ATOM      1  C   UNL     1     136.764 151.299 165.374  1.00  0.00     0.039 C 
ATOM      2  C   UNL     1     136.805 152.460 164.418  1.00  0.00    -0.076 C 
ATOM      3  C   UNL     1     137.959 152.791 163.816  1.00  0.00    -0.020 C 
ATOM      4  C   UNL     1     138.019 153.941 162.828  1.00  0.00     0.041 C 
ATOM      5  C   UNL     1     139.294 153.897 161.944  1.00  0.00     0.003 C 
ATOM      6  C   UNL     1     139.252 155.109 160.993  1.00  0.00     0.009 C 
ATOM      7  C   UNL     1     138.010 155.125 160.099  1.00  0.00     0.031 C 
ATOM      8  C   UNL     1     136.736 154.638 160.771  1.00  0.00    -0.073 C 
ATOM      9  C   UNL     1     136.732 154.057 162.007  1.00  0.00    -0.064 C 
ATOM     10  C   UNL     1     135.432 153.552 162.626  1.00  0.00     0.036 C 
ATOM     11  C   UNL     1     135.566 153.268 164.127  1.00  0.00     0.035 C 
ATOM     12  C   UNL     1     135.469 154.743 159.954  1.00  0.00     0.039 C 
ENDROOT
BRANCH   5  13
ATOM     13  C   UNL     1     139.625 152.508 161.278  1.00  0.00    -0.013 C 
ATOM     14  C   UNL     1     140.508 152.652 160.028  1.00  0.00     0.007 C 
ATOM     15  C   UNL     1     138.422 151.599 160.969  1.00  0.00     0.007 C 
ENDBRANCH   5  13
TORSDOF 1
ENDMDL
MODEL 4
REMARK VINA RESULT:     4.563      1.355      4.251
REMARK INTER + INTRA:           5.151
REMARK INTER:                   5.188
REMARK INTRA:                  -0.037
REMARK UNBOUND:                 0.322
REMARK SMILES CC1=C[C@@H]2C(=C(C)CC[C@@H]2C(C)C)CC1
REMARK SMILES IDX 1 1 2 2 3 3 4 4 10 5 9 6 8 7 6 8 5 9 14 10 15 11 7 12 11 13
REMARK SMILES IDX 12 14 13 15
REMARK H PARENT
REMARK Flexibility Score: inf
ROOT
ATOM      1  C   UNL     1     149.485 138.251 160.016  1.00  0.00     0.039 C 
ATOM      2  C   UNL     1     150.869 137.808 160.405  1.00  0.00    -0.076 C 
ATOM      3  C   UNL     1     151.698 138.665 161.025  1.00  0.00    -0.020 C 
ATOM      4  C   UNL     1     153.088 138.233 161.450  1.00  0.00     0.041 C 
ATOM      5  C   UNL     1     153.713 139.194 162.497  1.00  0.00     0.003 C 
ATOM      6  C   UNL     1     155.118 138.664 162.846  1.00  0.00     0.009 C 
ATOM      7  C   UNL     1     155.098 137.241 163.405  1.00  0.00     0.031 C 
ATOM      8  C   UNL     1     154.073 136.318 162.765  1.00  0.00    -0.073 C 
ATOM      9  C   UNL     1     153.120 136.769 161.896  1.00  0.00    -0.064 C 
ATOM     10  C   UNL     1     152.090 135.811 161.305  1.00  0.00     0.036 C 
ATOM     11  C   UNL     1     151.349 136.411 160.104  1.00  0.00     0.035 C 
ATOM     12  C   UNL     1     154.099 134.876 163.215  1.00  0.00     0.039 C 
ENDROOT
BRANCH   5  13
ATOM     13  C   UNL     1     152.795 139.573 163.720  1.00  0.00    -0.013 C 
ATOM     14  C   UNL     1     152.254 141.008 163.626  1.00  0.00     0.007 C 
ATOM     15  C   UNL     1     153.392 139.328 165.118  1.00  0.00     0.007 C 
ENDBRANCH   5  13
TORSDOF 1
ENDMDL
