MODEL 1
REMARK VINA RESULT:    -4.625      0.000      0.000
REMARK INTER + INTRA:          -6.321
REMARK INTER:                  -5.842
REMARK INTRA:                  -0.480
REMARK UNBOUND:                -0.480
REMARK SMILES Oc1cc(O)cc(CCc2ccccc2O)c1
REMARK SMILES IDX 9 1 10 2 12 3 13 4 11 5 14 6 15 7 16 8 8 10 7 11 6 12 17 13
REMARK SMILES IDX 4 14 2 15 3 16 5 17 1 19
REMARK H PARENT 16 9 5 18 1 20
REMARK Flexibility Score: inf
ROOT
ATOM      1  C   UNL     1      40.058 -32.038  12.449  1.00  0.00     0.044 C 
ENDROOT
BRANCH   1   2
ATOM      2  C   UNL     1      39.096 -31.319  11.530  1.00  0.00    -0.006 A 
ATOM      3  C   UNL     1      37.348 -29.642  11.263  1.00  0.00     0.001 A 
ATOM      4  C   UNL     1      37.330 -29.872   9.887  1.00  0.00     0.004 A 
ATOM      5  C   UNL     1      38.226 -30.358  12.080  1.00  0.00     0.007 A 
ATOM      6  C   UNL     1      38.192 -30.815   9.325  1.00  0.00     0.046 A 
ATOM      7  C   UNL     1      39.081 -31.539  10.130  1.00  0.00     0.118 A 
BRANCH   7   8
ATOM      8  O   UNL     1      39.928 -32.457   9.507  1.00  0.00    -0.508 OA
ATOM      9  H   UNL     1      40.366 -33.231   9.990  1.00  0.00     0.293 HD
ENDBRANCH   7   8
ENDBRANCH   1   2
BRANCH   1  10
ATOM     10  C   UNL     1      41.184 -31.114  12.938  1.00  0.00     0.040 C 
BRANCH  10  11
ATOM     11  C   UNL     1      42.530 -31.558  12.423  1.00  0.00    -0.040 A 
ATOM     12  C   UNL     1      42.618 -32.524  11.406  1.00  0.00     0.050 A 
ATOM     13  C   UNL     1      43.705 -30.964  12.912  1.00  0.00     0.050 A 
ATOM     14  C   UNL     1      43.863 -32.898  10.892  1.00  0.00     0.119 A 
ATOM     15  C   UNL     1      44.954 -31.340  12.401  1.00  0.00     0.119 A 
ATOM     16  C   UNL     1      45.031 -32.307  11.394  1.00  0.00     0.092 A 
BRANCH  14  17
ATOM     17  O   UNL     1      43.930 -33.856   9.882  1.00  0.00    -0.508 OA
ATOM     18  H   UNL     1      43.954 -34.847  10.094  1.00  0.00     0.293 HD
ENDBRANCH  14  17
BRANCH  15  19
ATOM     19  O   UNL     1      46.124 -30.757  12.883  1.00  0.00    -0.508 OA
ATOM     20  H   UNL     1      47.022 -30.938  12.450  1.00  0.00     0.293 HD
ENDBRANCH  15  19
ENDBRANCH  10  11
ENDBRANCH   1  10
TORSDOF 6
ENDMDL
MODEL 2
REMARK VINA RESULT:    -4.617      0.107      2.038
REMARK INTER + INTRA:          -6.311
REMARK INTER:                  -5.817
REMARK INTRA:                  -0.495
REMARK UNBOUND:                -0.480
REMARK SMILES Oc1cc(O)cc(CCc2ccccc2O)c1
REMARK SMILES IDX 9 1 10 2 12 3 13 4 11 5 14 6 15 7 16 8 8 10 7 11 6 12 17 13
REMARK SMILES IDX 4 14 2 15 3 16 5 17 1 19
REMARK H PARENT 16 9 5 18 1 20
REMARK Flexibility Score: inf
ROOT
ATOM      1  C   UNL     1      40.060 -32.055  12.402  1.00  0.00     0.044 C 
ENDROOT
BRANCH   1   2
ATOM      2  C   UNL     1      39.080 -31.305  11.527  1.00  0.00    -0.006 A 
ATOM      3  C   UNL     1      37.367 -29.584  11.339  1.00  0.00     0.001 A 
ATOM      4  C   UNL     1      37.288 -29.803   9.964  1.00  0.00     0.004 A 
ATOM      5  C   UNL     1      38.258 -30.327  12.116  1.00  0.00     0.007 A 
ATOM      6  C   UNL     1      38.102 -30.764   9.362  1.00  0.00     0.046 A 
ATOM      7  C   UNL     1      39.004 -31.515  10.126  1.00  0.00     0.118 A 
BRANCH   7   8
ATOM      8  O   UNL     1      39.802 -32.451   9.465  1.00  0.00    -0.508 OA
ATOM      9  H   UNL     1      40.336 -32.242   8.633  1.00  0.00     0.293 HD
ENDBRANCH   7   8
ENDBRANCH   1   2
BRANCH   1  10
ATOM     10  C   UNL     1      41.197 -31.148  12.897  1.00  0.00     0.040 C 
BRANCH  10  11
ATOM     11  C   UNL     1      42.524 -31.546  12.303  1.00  0.00    -0.040 A 
ATOM     12  C   UNL     1      43.718 -30.993  12.798  1.00  0.00     0.050 A 
ATOM     13  C   UNL     1      42.583 -32.521  11.294  1.00  0.00     0.050 A 
ATOM     14  C   UNL     1      44.953 -31.399  12.283  1.00  0.00     0.119 A 
ATOM     15  C   UNL     1      43.820 -32.928  10.775  1.00  0.00     0.119 A 
ATOM     16  C   UNL     1      45.001 -32.365  11.268  1.00  0.00     0.092 A 
BRANCH  14  17
ATOM     17  O   UNL     1      46.125 -30.840  12.787  1.00  0.00    -0.508 OA
ATOM     18  H   UNL     1      46.200 -30.552  13.756  1.00  0.00     0.293 HD
ENDBRANCH  14  17
BRANCH  15  19
ATOM     19  O   UNL     1      43.886 -33.892   9.772  1.00  0.00    -0.508 OA
ATOM     20  H   UNL     1      43.543 -33.707   8.836  1.00  0.00     0.293 HD
ENDBRANCH  15  19
ENDBRANCH  10  11
ENDBRANCH   1  10
TORSDOF 6
ENDMDL
MODEL 3
REMARK VINA RESULT:    -4.491      1.871      6.166
REMARK INTER + INTRA:          -6.152
REMARK INTER:                  -5.541
REMARK INTRA:                  -0.611
REMARK UNBOUND:                -0.480
REMARK SMILES Oc1cc(O)cc(CCc2ccccc2O)c1
REMARK SMILES IDX 9 1 10 2 12 3 13 4 11 5 14 6 15 7 16 8 8 10 7 11 6 12 17 13
REMARK SMILES IDX 4 14 2 15 3 16 5 17 1 19
REMARK H PARENT 16 9 5 18 1 20
REMARK Flexibility Score: inf
ROOT
ATOM      1  C   UNL     1      43.841 -30.809  10.179  1.00  0.00     0.044 C 
ENDROOT
BRANCH   1   2
ATOM      2  C   UNL     1      44.490 -31.831  11.086  1.00  0.00    -0.006 A 
ATOM      3  C   UNL     1      45.746 -32.293  13.122  1.00  0.00     0.001 A 
ATOM      4  C   UNL     1      45.656 -33.662  12.874  1.00  0.00     0.004 A 
ATOM      5  C   UNL     1      45.166 -31.382  12.236  1.00  0.00     0.007 A 
ATOM      6  C   UNL     1      44.983 -34.125  11.742  1.00  0.00     0.046 A 
ATOM      7  C   UNL     1      44.392 -33.225  10.846  1.00  0.00     0.118 A 
BRANCH   7   8
ATOM      8  O   UNL     1      43.720 -33.748   9.740  1.00  0.00    -0.508 OA
ATOM      9  H   UNL     1      42.827 -33.405   9.413  1.00  0.00     0.293 HD
ENDBRANCH   7   8
ENDBRANCH   1   2
BRANCH   1  10
ATOM     10  C   UNL     1      42.877 -29.891  10.946  1.00  0.00     0.040 C 
BRANCH  10  11
ATOM     11  C   UNL     1      41.469 -30.429  10.934  1.00  0.00    -0.040 A 
ATOM     12  C   UNL     1      40.507 -29.923  11.826  1.00  0.00     0.050 A 
ATOM     13  C   UNL     1      41.089 -31.395   9.988  1.00  0.00     0.050 A 
ATOM     14  C   UNL     1      39.188 -30.384  11.781  1.00  0.00     0.119 A 
ATOM     15  C   UNL     1      39.768 -31.862   9.944  1.00  0.00     0.119 A 
ATOM     16  C   UNL     1      38.822 -31.357  10.841  1.00  0.00     0.092 A 
BRANCH  14  17
ATOM     17  O   UNL     1      38.250 -29.869  12.673  1.00  0.00    -0.508 OA
ATOM     18  H   UNL     1      38.490 -29.135  13.328  1.00  0.00     0.293 HD
ENDBRANCH  14  17
BRANCH  15  19
ATOM     19  O   UNL     1      39.385 -32.822   9.011  1.00  0.00    -0.508 OA
ATOM     20  H   UNL     1      39.749 -33.767   9.044  1.00  0.00     0.293 HD
ENDBRANCH  15  19
ENDBRANCH  10  11
ENDBRANCH   1  10
TORSDOF 6
ENDMDL
MODEL 4
REMARK VINA RESULT:    -4.435      2.047      2.968
REMARK INTER + INTRA:          -6.081
REMARK INTER:                  -5.679
REMARK INTRA:                  -0.402
REMARK UNBOUND:                -0.480
REMARK SMILES Oc1cc(O)cc(CCc2ccccc2O)c1
REMARK SMILES IDX 9 1 10 2 12 3 13 4 11 5 14 6 15 7 16 8 8 10 7 11 6 12 17 13
REMARK SMILES IDX 4 14 2 15 3 16 5 17 1 19
REMARK H PARENT 16 9 5 18 1 20
REMARK Flexibility Score: inf
ROOT
ATOM      1  C   UNL     1      39.271 -31.331   9.888  1.00  0.00     0.044 C 
ENDROOT
BRANCH   1   2
ATOM      2  C   UNL     1      37.970 -30.701   9.442  1.00  0.00    -0.006 A 
ATOM      3  C   UNL     1      36.275 -28.985   9.785  1.00  0.00     0.001 A 
ATOM      4  C   UNL     1      35.602 -29.413   8.642  1.00  0.00     0.004 A 
ATOM      5  C   UNL     1      37.453 -29.622  10.184  1.00  0.00     0.007 A 
ATOM      6  C   UNL     1      36.105 -30.476   7.890  1.00  0.00     0.046 A 
ATOM      7  C   UNL     1      37.287 -31.123   8.274  1.00  0.00     0.118 A 
BRANCH   7   8
ATOM      8  O   UNL     1      37.748 -32.171   7.474  1.00  0.00    -0.508 OA
ATOM      9  H   UNL     1      38.648 -32.615   7.599  1.00  0.00     0.293 HD
ENDBRANCH   7   8
ENDBRANCH   1   2
BRANCH   1  10
ATOM     10  C   UNL     1      40.240 -30.294  10.474  1.00  0.00     0.040 C 
BRANCH  10  11
ATOM     11  C   UNL     1      41.678 -30.704  10.280  1.00  0.00    -0.040 A 
ATOM     12  C   UNL     1      42.685 -29.730  10.171  1.00  0.00     0.050 A 
ATOM     13  C   UNL     1      42.030 -32.063  10.269  1.00  0.00     0.050 A 
ATOM     14  C   UNL     1      44.025 -30.109  10.042  1.00  0.00     0.119 A 
ATOM     15  C   UNL     1      43.372 -32.445  10.137  1.00  0.00     0.119 A 
ATOM     16  C   UNL     1      44.366 -31.468  10.022  1.00  0.00     0.092 A 
BRANCH  14  17
ATOM     17  O   UNL     1      45.009 -29.129   9.937  1.00  0.00    -0.508 OA
ATOM     18  H   UNL     1      45.036 -28.336  10.568  1.00  0.00     0.293 HD
ENDBRANCH  14  17
BRANCH  15  19
ATOM     19  O   UNL     1      43.729 -33.792  10.123  1.00  0.00    -0.508 OA
ATOM     20  H   UNL     1      43.038 -34.521   9.990  1.00  0.00     0.293 HD
ENDBRANCH  15  19
ENDBRANCH  10  11
ENDBRANCH   1  10
TORSDOF 6
ENDMDL
MODEL 5
REMARK VINA RESULT:    -4.393      1.865      6.433
REMARK INTER + INTRA:          -6.028
REMARK INTER:                  -5.575
REMARK INTRA:                  -0.454
REMARK UNBOUND:                -0.480
REMARK SMILES Oc1cc(O)cc(CCc2ccccc2O)c1
REMARK SMILES IDX 9 1 10 2 12 3 13 4 11 5 14 6 15 7 16 8 8 10 7 11 6 12 17 13
REMARK SMILES IDX 4 14 2 15 3 16 5 17 1 19
REMARK H PARENT 16 9 5 18 1 20
REMARK Flexibility Score: inf
ROOT
ATOM      1  C   UNL     1      43.218 -31.222  12.177  1.00  0.00     0.044 C 
ENDROOT
BRANCH   1   2
ATOM      2  C   UNL     1      43.973 -32.489  12.509  1.00  0.00    -0.006 A 
ATOM      3  C   UNL     1      43.948 -34.914  12.750  1.00  0.00     0.001 A 
ATOM      4  C   UNL     1      45.313 -34.906  13.032  1.00  0.00     0.004 A 
ATOM      5  C   UNL     1      43.281 -33.715  12.488  1.00  0.00     0.007 A 
ATOM      6  C   UNL     1      46.017 -33.701  13.050  1.00  0.00     0.046 A 
ATOM      7  C   UNL     1      45.364 -32.490  12.785  1.00  0.00     0.118 A 
BRANCH   7   8
ATOM      8  O   UNL     1      46.124 -31.319  12.803  1.00  0.00    -0.508 OA
ATOM      9  H   UNL     1      45.733 -30.400  12.964  1.00  0.00     0.293 HD
ENDBRANCH   7   8
ENDBRANCH   1   2
BRANCH   1  10
ATOM     10  C   UNL     1      41.905 -31.112  12.966  1.00  0.00     0.040 C 
BRANCH  10  11
ATOM     11  C   UNL     1      40.704 -31.133  12.055  1.00  0.00    -0.040 A 
ATOM     12  C   UNL     1      39.588 -30.324  12.332  1.00  0.00     0.050 A 
ATOM     13  C   UNL     1      40.717 -31.912  10.887  1.00  0.00     0.050 A 
ATOM     14  C   UNL     1      38.495 -30.304  11.460  1.00  0.00     0.119 A 
ATOM     15  C   UNL     1      39.621 -31.895  10.013  1.00  0.00     0.119 A 
ATOM     16  C   UNL     1      38.513 -31.093  10.302  1.00  0.00     0.092 A 
BRANCH  14  17
ATOM     17  O   UNL     1      37.399 -29.495  11.752  1.00  0.00    -0.508 OA
ATOM     18  H   UNL     1      36.471 -29.719  11.413  1.00  0.00     0.293 HD
ENDBRANCH  14  17
BRANCH  15  19
ATOM     19  O   UNL     1      39.625 -32.668   8.854  1.00  0.00    -0.508 OA
ATOM     20  H   UNL     1      39.143 -32.366   8.015  1.00  0.00     0.293 HD
ENDBRANCH  15  19
ENDBRANCH  10  11
ENDBRANCH   1  10
TORSDOF 6
ENDMDL
MODEL 6
REMARK VINA RESULT:    -4.381      2.036      2.390
REMARK INTER + INTRA:          -6.013
REMARK INTER:                  -5.602
REMARK INTRA:                  -0.411
REMARK UNBOUND:                -0.480
REMARK SMILES Oc1cc(O)cc(CCc2ccccc2O)c1
REMARK SMILES IDX 9 1 10 2 12 3 13 4 11 5 14 6 15 7 16 8 8 10 7 11 6 12 17 13
REMARK SMILES IDX 4 14 2 15 3 16 5 17 1 19
REMARK H PARENT 16 9 5 18 1 20
REMARK Flexibility Score: inf
ROOT
ATOM      1  C   UNL     1      39.352 -31.350   9.902  1.00  0.00     0.044 C 
ENDROOT
BRANCH   1   2
ATOM      2  C   UNL     1      38.074 -30.700   9.422  1.00  0.00    -0.006 A 
ATOM      3  C   UNL     1      36.424 -28.927   9.690  1.00  0.00     0.001 A 
ATOM      4  C   UNL     1      35.749 -29.374   8.554  1.00  0.00     0.004 A 
ATOM      5  C   UNL     1      37.579 -29.582  10.121  1.00  0.00     0.007 A 
ATOM      6  C   UNL     1      36.230 -30.476   7.844  1.00  0.00     0.046 A 
ATOM      7  C   UNL     1      37.390 -31.142   8.261  1.00  0.00     0.118 A 
BRANCH   7   8
ATOM      8  O   UNL     1      37.829 -32.228   7.502  1.00  0.00    -0.508 OA
ATOM      9  H   UNL     1      38.611 -32.184   6.862  1.00  0.00     0.293 HD
ENDBRANCH   7   8
ENDBRANCH   1   2
BRANCH   1  10
ATOM     10  C   UNL     1      40.296 -30.338  10.568  1.00  0.00     0.040 C 
BRANCH  10  11
ATOM     11  C   UNL     1      41.742 -30.729  10.397  1.00  0.00    -0.040 A 
ATOM     12  C   UNL     1      42.112 -32.084  10.373  1.00  0.00     0.050 A 
ATOM     13  C   UNL     1      42.722 -29.743  10.195  1.00  0.00     0.050 A 
ATOM     14  C   UNL     1      43.446 -32.450  10.163  1.00  0.00     0.119 A 
ATOM     15  C   UNL     1      44.059 -30.108   9.987  1.00  0.00     0.119 A 
ATOM     16  C   UNL     1      44.418 -31.459   9.973  1.00  0.00     0.092 A 
BRANCH  14  17
ATOM     17  O   UNL     1      43.793 -33.799  10.142  1.00  0.00    -0.508 OA
ATOM     18  H   UNL     1      44.476 -34.180  10.786  1.00  0.00     0.293 HD
ENDBRANCH  14  17
BRANCH  15  19
ATOM     19  O   UNL     1      45.037 -29.136   9.789  1.00  0.00    -0.508 OA
ATOM     20  H   UNL     1      44.796 -28.191   9.511  1.00  0.00     0.293 HD
ENDBRANCH  15  19
ENDBRANCH  10  11
ENDBRANCH   1  10
TORSDOF 6
ENDMDL
MODEL 7
REMARK VINA RESULT:    -4.356      1.876      6.260
REMARK INTER + INTRA:          -5.982
REMARK INTER:                  -5.491
REMARK INTRA:                  -0.491
REMARK UNBOUND:                -0.480
REMARK SMILES Oc1cc(O)cc(CCc2ccccc2O)c1
REMARK SMILES IDX 9 1 10 2 12 3 13 4 11 5 14 6 15 7 16 8 8 10 7 11 6 12 17 13
REMARK SMILES IDX 4 14 2 15 3 16 5 17 1 19
REMARK H PARENT 16 9 5 18 1 20
REMARK Flexibility Score: inf
ROOT
ATOM      1  C   UNL     1      43.216 -31.200  12.190  1.00  0.00     0.044 C 
ENDROOT
BRANCH   1   2
ATOM      2  C   UNL     1      43.969 -32.462  12.547  1.00  0.00    -0.006 A 
ATOM      3  C   UNL     1      43.939 -34.881  12.836  1.00  0.00     0.001 A 
ATOM      4  C   UNL     1      45.305 -34.871  13.117  1.00  0.00     0.004 A 
ATOM      5  C   UNL     1      43.274 -33.686  12.551  1.00  0.00     0.007 A 
ATOM      6  C   UNL     1      46.011 -33.667  13.109  1.00  0.00     0.046 A 
ATOM      7  C   UNL     1      45.360 -32.461  12.821  1.00  0.00     0.118 A 
BRANCH   7   8
ATOM      8  O   UNL     1      46.123 -31.291  12.814  1.00  0.00    -0.508 OA
ATOM      9  H   UNL     1      45.734 -30.369  12.957  1.00  0.00     0.293 HD
ENDBRANCH   7   8
ENDBRANCH   1   2
BRANCH   1  10
ATOM     10  C   UNL     1      41.903 -31.073  12.978  1.00  0.00     0.040 C 
BRANCH  10  11
ATOM     11  C   UNL     1      40.705 -31.065  12.063  1.00  0.00    -0.040 A 
ATOM     12  C   UNL     1      40.708 -31.827  10.882  1.00  0.00     0.050 A 
ATOM     13  C   UNL     1      39.551 -30.346  12.417  1.00  0.00     0.050 A 
ATOM     14  C   UNL     1      39.578 -31.860  10.059  1.00  0.00     0.119 A 
ATOM     15  C   UNL     1      38.419 -30.376  11.591  1.00  0.00     0.119 A 
ATOM     16  C   UNL     1      38.435 -31.131  10.415  1.00  0.00     0.092 A 
BRANCH  14  17
ATOM     17  O   UNL     1      39.600 -32.622   8.893  1.00  0.00    -0.508 OA
ATOM     18  H   UNL     1      38.746 -32.878   8.411  1.00  0.00     0.293 HD
ENDBRANCH  14  17
BRANCH  15  19
ATOM     19  O   UNL     1      37.272 -29.664  11.934  1.00  0.00    -0.508 OA
ATOM     20  H   UNL     1      36.353 -29.957  11.620  1.00  0.00     0.293 HD
ENDBRANCH  15  19
ENDBRANCH  10  11
ENDBRANCH   1  10
TORSDOF 6
ENDMDL
MODEL 8
REMARK VINA RESULT:    -4.101      1.820      6.315
REMARK INTER + INTRA:          -5.660
REMARK INTER:                  -5.221
REMARK INTRA:                  -0.439
REMARK UNBOUND:                -0.480
REMARK SMILES Oc1cc(O)cc(CCc2ccccc2O)c1
REMARK SMILES IDX 9 1 10 2 12 3 13 4 11 5 14 6 15 7 16 8 8 10 7 11 6 12 17 13
REMARK SMILES IDX 4 14 2 15 3 16 5 17 1 19
REMARK H PARENT 16 9 5 18 1 20
REMARK Flexibility Score: inf
ROOT
ATOM      1  C   UNL     1      41.636 -31.720  10.442  1.00  0.00     0.044 C 
ENDROOT
BRANCH   1   2
ATOM      2  C   UNL     1      42.953 -31.878  11.168  1.00  0.00    -0.006 A 
ATOM      3  C   UNL     1      44.408 -31.184  12.995  1.00  0.00     0.001 A 
ATOM      4  C   UNL     1      45.340 -32.155  12.631  1.00  0.00     0.004 A 
ATOM      5  C   UNL     1      43.221 -31.046  12.272  1.00  0.00     0.007 A 
ATOM      6  C   UNL     1      45.086 -32.994  11.544  1.00  0.00     0.046 A 
ATOM      7  C   UNL     1      43.899 -32.871  10.810  1.00  0.00     0.118 A 
BRANCH   7   8
ATOM      8  O   UNL     1      43.696 -33.749   9.743  1.00  0.00    -0.508 OA
ATOM      9  H   UNL     1      43.432 -33.448   8.814  1.00  0.00     0.293 HD
ENDBRANCH   7   8
ENDBRANCH   1   2
BRANCH   1  10
ATOM     10  C   UNL     1      40.458 -32.262  11.266  1.00  0.00     0.040 C 
BRANCH  10  11
ATOM     11  C   UNL     1      39.214 -31.434  11.068  1.00  0.00    -0.040 A 
ATOM     12  C   UNL     1      38.735 -31.168   9.774  1.00  0.00     0.050 A 
ATOM     13  C   UNL     1      38.487 -30.975  12.179  1.00  0.00     0.050 A 
ATOM     14  C   UNL     1      37.553 -30.443   9.591  1.00  0.00     0.119 A 
ATOM     15  C   UNL     1      37.304 -30.246  11.998  1.00  0.00     0.119 A 
ATOM     16  C   UNL     1      36.841 -29.980  10.705  1.00  0.00     0.092 A 
BRANCH  14  17
ATOM     17  O   UNL     1      37.095 -30.191   8.300  1.00  0.00    -0.508 OA
ATOM     18  H   UNL     1      36.187 -30.514   7.989  1.00  0.00     0.293 HD
ENDBRANCH  14  17
BRANCH  15  19
ATOM     19  O   UNL     1      36.579 -29.784  13.094  1.00  0.00    -0.508 OA
ATOM     20  H   UNL     1      36.328 -30.400  13.860  1.00  0.00     0.293 HD
ENDBRANCH  15  19
ENDBRANCH  10  11
ENDBRANCH   1  10
TORSDOF 6
ENDMDL
MODEL 9
REMARK VINA RESULT:    -4.091      1.853      6.482
REMARK INTER + INTRA:          -5.647
REMARK INTER:                  -5.180
REMARK INTRA:                  -0.467
REMARK UNBOUND:                -0.480
REMARK SMILES Oc1cc(O)cc(CCc2ccccc2O)c1
REMARK SMILES IDX 9 1 10 2 12 3 13 4 11 5 14 6 15 7 16 8 8 10 7 11 6 12 17 13
REMARK SMILES IDX 4 14 2 15 3 16 5 17 1 19
REMARK H PARENT 16 9 5 18 1 20
REMARK Flexibility Score: inf
ROOT
ATOM      1  C   UNL     1      41.398 -31.866  10.252  1.00  0.00     0.044 C 
ENDROOT
BRANCH   1   2
ATOM      2  C   UNL     1      42.760 -31.774  10.902  1.00  0.00    -0.006 A 
ATOM      3  C   UNL     1      44.218 -30.663  12.507  1.00  0.00     0.001 A 
ATOM      4  C   UNL     1      45.234 -31.576  12.225  1.00  0.00     0.004 A 
ATOM      5  C   UNL     1      42.988 -30.761  11.853  1.00  0.00     0.007 A 
ATOM      6  C   UNL     1      45.022 -32.592  11.291  1.00  0.00     0.046 A 
ATOM      7  C   UNL     1      43.793 -32.706  10.629  1.00  0.00     0.118 A 
BRANCH   7   8
ATOM      8  O   UNL     1      43.636 -33.752   9.717  1.00  0.00    -0.508 OA
ATOM      9  H   UNL     1      43.521 -34.719   9.989  1.00  0.00     0.293 HD
ENDBRANCH   7   8
ENDBRANCH   1   2
BRANCH   1  10
ATOM     10  C   UNL     1      40.305 -32.250  11.260  1.00  0.00     0.040 C 
BRANCH  10  11
ATOM     11  C   UNL     1      39.028 -31.488  11.013  1.00  0.00    -0.040 A 
ATOM     12  C   UNL     1      38.214 -31.098  12.091  1.00  0.00     0.050 A 
ATOM     13  C   UNL     1      38.674 -31.106   9.709  1.00  0.00     0.050 A 
ATOM     14  C   UNL     1      37.056 -30.346  11.867  1.00  0.00     0.119 A 
ATOM     15  C   UNL     1      37.512 -30.355   9.483  1.00  0.00     0.119 A 
ATOM     16  C   UNL     1      36.705 -29.978  10.561  1.00  0.00     0.092 A 
BRANCH  14  17
ATOM     17  O   UNL     1      36.264 -29.968  12.949  1.00  0.00    -0.508 OA
ATOM     18  H   UNL     1      36.468 -29.136  13.490  1.00  0.00     0.293 HD
ENDBRANCH  14  17
BRANCH  15  19
ATOM     19  O   UNL     1      37.152 -29.974   8.192  1.00  0.00    -0.508 OA
ATOM     20  H   UNL     1      36.340 -30.368   7.731  1.00  0.00     0.293 HD
ENDBRANCH  15  19
ENDBRANCH  10  11
ENDBRANCH   1  10
TORSDOF 6
ENDMDL
