MODEL 1
REMARK VINA RESULT:    -5.387      0.000      0.000
REMARK INTER + INTRA:          -6.104
REMARK INTER:                  -5.860
REMARK INTRA:                  -0.245
REMARK UNBOUND:                -0.245
REMARK SMILES O=C([O-])c1ccccc1O
REMARK SMILES IDX 4 1 9 2 5 3 8 4 6 5 7 6 2 7 1 8 3 9 10 10
REMARK H PARENT 10 11
REMARK Flexibility Score: inf
ROOT
ATOM      1  C   UNL     1      51.251 -58.953 319.278  1.00  0.00     0.039 A 
ATOM      2  C   UNL     1      50.348 -59.941 319.745  1.00  0.00     0.124 A 
ATOM      3  C   UNL     1      52.262 -59.327 318.373  1.00  0.00     0.014 A 
ATOM      4  C   UNL     1      50.437 -61.249 319.252  1.00  0.00     0.047 A 
ATOM      5  C   UNL     1      52.350 -60.641 317.906  1.00  0.00     0.001 A 
ATOM      6  C   UNL     1      51.432 -61.598 318.338  1.00  0.00     0.004 A 
ENDROOT
BRANCH   1   7
ATOM      7  C   UNL     1      51.150 -57.532 319.679  1.00  0.00     0.075 C 
ATOM      8  O   UNL     1      50.041 -56.936 319.620  1.00  0.00    -0.545 OA
ATOM      9  O   UNL     1      52.251 -56.856 320.189  1.00  0.00    -0.545 OA
ENDBRANCH   1   7
BRANCH   2  10
ATOM     10  O   UNL     1      49.380 -59.677 320.716  1.00  0.00    -0.507 OA
ATOM     11  H   UNL     1      49.445 -58.912 321.372  1.00  0.00     0.293 HD
ENDBRANCH   2  10
TORSDOF 2
ENDMDL
MODEL 2
REMARK VINA RESULT:    -4.846      1.217      2.425
REMARK INTER + INTRA:          -5.516
REMARK INTER:                  -5.265
REMARK INTRA:                  -0.250
REMARK UNBOUND:                -0.245
REMARK SMILES O=C([O-])c1ccccc1O
REMARK SMILES IDX 4 1 9 2 5 3 8 4 6 5 7 6 2 7 1 8 3 9 10 10
REMARK H PARENT 10 11
REMARK Flexibility Score: inf
ROOT
ATOM      1  C   UNL     1      51.109 -59.341 319.386  1.00  0.00     0.039 A 
ATOM      2  C   UNL     1      52.084 -59.841 318.485  1.00  0.00     0.124 A 
ATOM      3  C   UNL     1      50.301 -60.253 320.089  1.00  0.00     0.014 A 
ATOM      4  C   UNL     1      52.266 -61.224 318.359  1.00  0.00     0.047 A 
ATOM      5  C   UNL     1      50.480 -61.630 319.937  1.00  0.00     0.001 A 
ATOM      6  C   UNL     1      51.469 -62.114 319.080  1.00  0.00     0.004 A 
ENDROOT
BRANCH   1   7
ATOM      7  C   UNL     1      50.935 -57.894 319.643  1.00  0.00     0.075 C 
ATOM      8  O   UNL     1      51.943 -57.154 319.800  1.00  0.00    -0.545 OA
ATOM      9  O   UNL     1      49.670 -57.320 319.648  1.00  0.00    -0.545 OA
ENDBRANCH   1   7
BRANCH   2  10
ATOM     10  O   UNL     1      52.860 -59.007 317.677  1.00  0.00    -0.507 OA
ATOM     11  H   UNL     1      52.693 -58.878 316.690  1.00  0.00     0.293 HD
ENDBRANCH   2  10
TORSDOF 2
ENDMDL
MODEL 3
REMARK VINA RESULT:    -4.795      2.623      3.648
REMARK INTER + INTRA:          -5.461
REMARK INTER:                  -5.207
REMARK INTRA:                  -0.253
REMARK UNBOUND:                -0.245
REMARK SMILES O=C([O-])c1ccccc1O
REMARK SMILES IDX 4 1 9 2 5 3 8 4 6 5 7 6 2 7 1 8 3 9 10 10
REMARK H PARENT 10 11
REMARK Flexibility Score: inf
ROOT
ATOM      1  C   UNL     1      51.778 -60.308 318.543  1.00  0.00     0.039 A 
ATOM      2  C   UNL     1      50.614 -60.818 319.172  1.00  0.00     0.124 A 
ATOM      3  C   UNL     1      52.114 -58.954 318.730  1.00  0.00     0.014 A 
ATOM      4  C   UNL     1      49.860 -59.989 320.012  1.00  0.00     0.047 A 
ATOM      5  C   UNL     1      51.340 -58.134 319.554  1.00  0.00     0.001 A 
ATOM      6  C   UNL     1      50.220 -58.654 320.203  1.00  0.00     0.004 A 
ENDROOT
BRANCH   1   7
ATOM      7  C   UNL     1      52.675 -61.154 317.727  1.00  0.00     0.075 C 
ATOM      8  O   UNL     1      53.922 -61.111 317.906  1.00  0.00    -0.545 OA
ATOM      9  O   UNL     1      52.159 -62.056 316.804  1.00  0.00    -0.545 OA
ENDBRANCH   1   7
BRANCH   2  10
ATOM     10  O   UNL     1      50.156 -62.120 318.962  1.00  0.00    -0.507 OA
ATOM     11  H   UNL     1      49.547 -62.379 318.199  1.00  0.00     0.293 HD
ENDBRANCH   2  10
TORSDOF 2
ENDMDL
MODEL 4
REMARK VINA RESULT:    -4.511      3.154      4.281
REMARK INTER + INTRA:          -5.151
REMARK INTER:                  -4.973
REMARK INTRA:                  -0.178
REMARK UNBOUND:                -0.245
REMARK SMILES O=C([O-])c1ccccc1O
REMARK SMILES IDX 4 1 9 2 5 3 8 4 6 5 7 6 2 7 1 8 3 9 10 10
REMARK H PARENT 10 11
REMARK Flexibility Score: inf
ROOT
ATOM      1  C   UNL     1      52.090 -61.310 317.827  1.00  0.00     0.039 A 
ATOM      2  C   UNL     1      52.184 -59.971 318.285  1.00  0.00     0.124 A 
ATOM      3  C   UNL     1      51.050 -62.125 318.314  1.00  0.00     0.014 A 
ATOM      4  C   UNL     1      51.212 -59.468 319.160  1.00  0.00     0.047 A 
ATOM      5  C   UNL     1      50.100 -61.614 319.202  1.00  0.00     0.001 A 
ATOM      6  C   UNL     1      50.176 -60.284 319.616  1.00  0.00     0.004 A 
ENDROOT
BRANCH   1   7
ATOM      7  C   UNL     1      53.022 -61.874 316.826  1.00  0.00     0.075 C 
ATOM      8  O   UNL     1      52.620 -62.125 315.659  1.00  0.00    -0.545 OA
ATOM      9  O   UNL     1      54.363 -62.068 317.133  1.00  0.00    -0.545 OA
ENDBRANCH   1   7
BRANCH   2  10
ATOM     10  O   UNL     1      53.237 -59.127 317.929  1.00  0.00    -0.507 OA
ATOM     11  H   UNL     1      53.389 -58.221 318.349  1.00  0.00     0.293 HD
ENDBRANCH   2  10
TORSDOF 2
ENDMDL
MODEL 5
REMARK VINA RESULT:    -4.043      2.146      4.014
REMARK INTER + INTRA:          -4.642
REMARK INTER:                  -4.401
REMARK INTRA:                  -0.242
REMARK UNBOUND:                -0.245
REMARK SMILES O=C([O-])c1ccccc1O
REMARK SMILES IDX 4 1 9 2 5 3 8 4 6 5 7 6 2 7 1 8 3 9 10 10
REMARK H PARENT 10 11
REMARK Flexibility Score: inf
ROOT
ATOM      1  C   UNL     1      50.994 -60.015 319.430  1.00  0.00     0.039 A 
ATOM      2  C   UNL     1      51.837 -59.055 318.812  1.00  0.00     0.124 A 
ATOM      3  C   UNL     1      49.990 -59.572 320.310  1.00  0.00     0.014 A 
ATOM      4  C   UNL     1      51.615 -57.691 319.039  1.00  0.00     0.047 A 
ATOM      5  C   UNL     1      49.795 -58.209 320.542  1.00  0.00     0.001 A 
ATOM      6  C   UNL     1      50.600 -57.269 319.899  1.00  0.00     0.004 A 
ENDROOT
BRANCH   1   7
ATOM      7  C   UNL     1      51.107 -61.464 319.154  1.00  0.00     0.075 C 
ATOM      8  O   UNL     1      50.114 -62.104 318.718  1.00  0.00    -0.545 OA
ATOM      9  O   UNL     1      52.320 -62.124 319.304  1.00  0.00    -0.545 OA
ENDBRANCH   1   7
BRANCH   2  10
ATOM     10  O   UNL     1      52.917 -59.413 318.004  1.00  0.00    -0.507 OA
ATOM     11  H   UNL     1      53.247 -58.848 317.234  1.00  0.00     0.293 HD
ENDBRANCH   2  10
TORSDOF 2
ENDMDL
MODEL 6
REMARK VINA RESULT:    -3.972      1.917      3.511
REMARK INTER + INTRA:          -4.565
REMARK INTER:                  -4.357
REMARK INTRA:                  -0.209
REMARK UNBOUND:                -0.245
REMARK SMILES O=C([O-])c1ccccc1O
REMARK SMILES IDX 4 1 9 2 5 3 8 4 6 5 7 6 2 7 1 8 3 9 10 10
REMARK H PARENT 10 11
REMARK Flexibility Score: inf
ROOT
ATOM      1  C   UNL     1      51.422 -58.557 319.404  1.00  0.00     0.039 A 
ATOM      2  C   UNL     1      50.276 -58.464 320.234  1.00  0.00     0.124 A 
ATOM      3  C   UNL     1      52.349 -57.498 319.402  1.00  0.00     0.014 A 
ATOM      4  C   UNL     1      50.119 -57.357 321.077  1.00  0.00     0.047 A 
ATOM      5  C   UNL     1      52.168 -56.391 320.234  1.00  0.00     0.001 A 
ATOM      6  C   UNL     1      51.060 -56.326 321.078  1.00  0.00     0.004 A 
ENDROOT
BRANCH   1   7
ATOM      7  C   UNL     1      51.701 -59.744 318.566  1.00  0.00     0.075 C 
ATOM      8  O   UNL     1      51.036 -60.802 318.727  1.00  0.00    -0.545 OA
ATOM      9  O   UNL     1      52.645 -59.691 317.548  1.00  0.00    -0.545 OA
ENDBRANCH   1   7
BRANCH   2  10
ATOM     10  O   UNL     1      49.260 -59.422 320.223  1.00  0.00    -0.507 OA
ATOM     11  H   UNL     1      48.766 -59.699 319.387  1.00  0.00     0.293 HD
ENDBRANCH   2  10
TORSDOF 2
ENDMDL
MODEL 7
REMARK VINA RESULT:    -3.096     15.557     16.782
REMARK INTER + INTRA:          -3.612
REMARK INTER:                  -3.445
REMARK INTRA:                  -0.168
REMARK UNBOUND:                -0.245
REMARK SMILES O=C([O-])c1ccccc1O
REMARK SMILES IDX 4 1 9 2 5 3 8 4 6 5 7 6 2 7 1 8 3 9 10 10
REMARK H PARENT 10 11
REMARK Flexibility Score: inf
ROOT
ATOM      1  C   UNL     1      61.879 -46.530 318.600  1.00  0.00     0.039 A 
ATOM      2  C   UNL     1      61.811 -47.833 319.157  1.00  0.00     0.124 A 
ATOM      3  C   UNL     1      61.803 -45.418 319.460  1.00  0.00     0.014 A 
ATOM      4  C   UNL     1      61.733 -47.990 320.547  1.00  0.00     0.047 A 
ATOM      5  C   UNL     1      61.705 -45.591 320.843  1.00  0.00     0.001 A 
ATOM      6  C   UNL     1      61.680 -46.876 321.386  1.00  0.00     0.004 A 
ENDROOT
BRANCH   1   7
ATOM      7  C   UNL     1      62.065 -46.294 317.152  1.00  0.00     0.075 C 
ATOM      8  O   UNL     1      62.108 -47.268 316.353  1.00  0.00    -0.545 OA
ATOM      9  O   UNL     1      62.125 -45.003 316.643  1.00  0.00    -0.545 OA
ENDBRANCH   1   7
BRANCH   2  10
ATOM     10  O   UNL     1      61.780 -48.985 318.370  1.00  0.00    -0.507 OA
ATOM     11  H   UNL     1      61.555 -48.980 317.385  1.00  0.00     0.293 HD
ENDBRANCH   2  10
TORSDOF 2
ENDMDL
MODEL 8
REMARK VINA RESULT:    -2.833     16.824     17.967
REMARK INTER + INTRA:          -3.326
REMARK INTER:                  -3.090
REMARK INTRA:                  -0.236
REMARK UNBOUND:                -0.245
REMARK SMILES O=C([O-])c1ccccc1O
REMARK SMILES IDX 4 1 9 2 5 3 8 4 6 5 7 6 2 7 1 8 3 9 10 10
REMARK H PARENT 10 11
REMARK Flexibility Score: inf
ROOT
ATOM      1  C   UNL     1      61.146 -44.641 319.913  1.00  0.00     0.039 A 
ATOM      2  C   UNL     1      61.750 -44.354 321.164  1.00  0.00     0.124 A 
ATOM      3  C   UNL     1      60.995 -45.985 319.523  1.00  0.00     0.014 A 
ATOM      4  C   UNL     1      62.125 -45.406 322.010  1.00  0.00     0.047 A 
ATOM      5  C   UNL     1      61.393 -47.023 320.370  1.00  0.00     0.001 A 
ATOM      6  C   UNL     1      61.948 -46.733 321.616  1.00  0.00     0.004 A 
ENDROOT
BRANCH   1   7
ATOM      7  C   UNL     1      60.634 -43.581 319.017  1.00  0.00     0.075 C 
ATOM      8  O   UNL     1      60.253 -42.479 319.495  1.00  0.00    -0.545 OA
ATOM      9  O   UNL     1      60.628 -43.756 317.639  1.00  0.00    -0.545 OA
ENDBRANCH   1   7
BRANCH   2  10
ATOM     10  O   UNL     1      62.026 -43.052 321.584  1.00  0.00    -0.507 OA
ATOM     11  H   UNL     1      62.553 -42.390 321.033  1.00  0.00     0.293 HD
ENDBRANCH   2  10
TORSDOF 2
ENDMDL
MODEL 9
REMARK VINA RESULT:    -2.794     16.199     17.833
REMARK INTER + INTRA:          -3.284
REMARK INTER:                  -3.065
REMARK INTRA:                  -0.219
REMARK UNBOUND:                -0.245
REMARK SMILES O=C([O-])c1ccccc1O
REMARK SMILES IDX 4 1 9 2 5 3 8 4 6 5 7 6 2 7 1 8 3 9 10 10
REMARK H PARENT 10 11
REMARK Flexibility Score: inf
ROOT
ATOM      1  C   UNL     1      61.353 -45.479 319.780  1.00  0.00     0.039 A 
ATOM      2  C   UNL     1      61.687 -44.867 321.015  1.00  0.00     0.124 A 
ATOM      3  C   UNL     1      60.824 -44.683 318.747  1.00  0.00     0.014 A 
ATOM      4  C   UNL     1      61.544 -43.481 321.163  1.00  0.00     0.047 A 
ATOM      5  C   UNL     1      60.668 -43.305 318.917  1.00  0.00     0.001 A 
ATOM      6  C   UNL     1      61.037 -42.704 320.120  1.00  0.00     0.004 A 
ENDROOT
BRANCH   1   7
ATOM      7  C   UNL     1      61.576 -46.919 319.522  1.00  0.00     0.075 C 
ATOM      8  O   UNL     1      61.663 -47.343 318.339  1.00  0.00    -0.545 OA
ATOM      9  O   UNL     1      61.760 -47.809 320.572  1.00  0.00    -0.545 OA
ENDBRANCH   1   7
BRANCH   2  10
ATOM     10  O   UNL     1      62.125 -45.597 322.121  1.00  0.00    -0.507 OA
ATOM     11  H   UNL     1      61.639 -45.610 323.007  1.00  0.00     0.293 HD
ENDBRANCH   2  10
TORSDOF 2
ENDMDL
