MODEL 1
REMARK VINA RESULT:     3.841      0.000      0.000
REMARK INTER + INTRA:           8.588
REMARK INTER:                  10.128
REMARK INTRA:                  -1.540
REMARK UNBOUND:                -1.540
REMARK SMILES CCCCCCCCCCCCCCCCCCCCCCCCCCCCCC(=O)[O-]
REMARK SMILES IDX 16 1 17 2 18 3 19 4 20 5 21 6 22 7 23 8 24 9 25 10 26 11
REMARK SMILES IDX 27 12 28 13 29 14 30 15 31 16 32 17 15 18 14 19 13 20 12 21
REMARK SMILES IDX 11 22 10 23 9 24 8 25 7 26 6 27 5 28 4 29 3 30 2 31 1 32
REMARK H PARENT
REMARK Flexibility Score: inf
ROOT
ATOM      1  C   UNL     1     103.305 103.438 107.349  1.00  0.00     0.000 C 
ENDROOT
BRANCH   1   2
ATOM      2  C   UNL     1     103.627 101.935 107.349  1.00  0.00     0.000 C 
BRANCH   2   3
ATOM      3  C   UNL     1     103.273 101.251 106.019  1.00  0.00     0.000 C 
BRANCH   3   4
ATOM      4  C   UNL     1     103.245 102.236 104.834  1.00  0.00     0.000 C 
BRANCH   4   5
ATOM      5  C   UNL     1     103.264 101.531 103.466  1.00  0.00     0.000 C 
BRANCH   5   6
ATOM      6  C   UNL     1     103.806 102.377 102.293  1.00  0.00     0.000 C 
BRANCH   6   7
ATOM      7  C   UNL     1     103.487 103.883 102.400  1.00  0.00     0.000 C 
BRANCH   7   8
ATOM      8  C   UNL     1     104.746 104.755 102.270  1.00  0.00     0.000 C 
BRANCH   8   9
ATOM      9  C   UNL     1     104.406 106.245 102.380  1.00  0.00     0.000 C 
BRANCH   9  10
ATOM     10  C   UNL     1     104.499 106.929 101.010  1.00  0.00     0.000 C 
BRANCH  10  11
ATOM     11  C   UNL     1     104.736 105.900  99.895  1.00  0.00     0.000 C 
BRANCH  11  12
ATOM     12  C   UNL     1     104.398 106.447  98.496  1.00  0.00     0.000 C 
BRANCH  12  13
ATOM     13  C   UNL     1     104.261 105.376  97.393  1.00  0.00     0.006 C 
BRANCH  13  14
ATOM     14  C   UNL     1     104.659 103.958  97.831  1.00  0.00     0.053 C 
BRANCH  14  15
ATOM     15  C   UNL     1     103.516 102.993  97.732  1.00  0.00     0.041 C 
ATOM     16  O   UNL     1     103.736 101.765  97.546  1.00  0.00    -0.550 OA
ATOM     17  O   UNL     1     102.208 103.448  97.836  1.00  0.00    -0.550 OA
ENDBRANCH  14  15
ENDBRANCH  13  14
ENDBRANCH  12  13
ENDBRANCH  11  12
ENDBRANCH  10  11
ENDBRANCH   9  10
ENDBRANCH   8   9
ENDBRANCH   7   8
ENDBRANCH   6   7
ENDBRANCH   5   6
ENDBRANCH   4   5
ENDBRANCH   3   4
ENDBRANCH   2   3
ENDBRANCH   1   2
BRANCH   1  18
ATOM     18  C   UNL     1     104.564 104.316 107.430  1.00  0.00     0.000 C 
BRANCH  18  19
ATOM     19  C   UNL     1     104.380 105.777 106.973  1.00  0.00     0.000 C 
BRANCH  19  20
ATOM     20  C   UNL     1     104.607 106.820 108.087  1.00  0.00     0.000 C 
BRANCH  20  21
ATOM     21  C   UNL     1     104.775 106.178 109.476  1.00  0.00     0.000 C 
BRANCH  21  22
ATOM     22  C   UNL     1     104.647 107.191 110.629  1.00  0.00     0.000 C 
BRANCH  22  23
ATOM     23  C   UNL     1     104.420 106.576 112.022  1.00  0.00     0.000 C 
BRANCH  23  24
ATOM     24  C   UNL     1     104.934 105.130 112.136  1.00  0.00    -0.000 C 
BRANCH  24  25
ATOM     25  C   UNL     1     104.135 104.154 111.259  1.00  0.00    -0.000 C 
BRANCH  25  26
ATOM     26  C   UNL     1     103.824 102.828 111.976  1.00  0.00    -0.000 C 
BRANCH  26  27
ATOM     27  C   UNL     1     102.314 102.582 112.128  1.00  0.00    -0.000 C 
BRANCH  27  28
ATOM     28  C   UNL     1     101.473 103.535 111.265  1.00  0.00    -0.000 C 
BRANCH  28  29
ATOM     29  C   UNL     1     100.155 103.895 111.967  1.00  0.00    -0.000 C 
BRANCH  29  30
ATOM     30  C   UNL     1      99.002 104.127 110.977  1.00  0.00    -0.000 C 
BRANCH  30  31
ATOM     31  C   UNL     1      97.708 104.582 111.670  1.00  0.00    -0.003 C 
ATOM     32  C   UNL     1      97.700 106.092 111.884  1.00  0.00     0.004 C 
ENDBRANCH  30  31
ENDBRANCH  29  30
ENDBRANCH  28  29
ENDBRANCH  27  28
ENDBRANCH  26  27
ENDBRANCH  25  26
ENDBRANCH  24  25
ENDBRANCH  23  24
ENDBRANCH  22  23
ENDBRANCH  21  22
ENDBRANCH  20  21
ENDBRANCH  19  20
ENDBRANCH  18  19
ENDBRANCH   1  18
TORSDOF 28
ENDMDL
MODEL 2
REMARK VINA RESULT:     4.014      4.435     11.051
REMARK INTER + INTRA:           9.044
REMARK INTER:                  11.286
REMARK INTRA:                  -2.242
REMARK UNBOUND:                -1.540
REMARK SMILES CCCCCCCCCCCCCCCCCCCCCCCCCCCCCC(=O)[O-]
REMARK SMILES IDX 16 1 17 2 18 3 19 4 20 5 21 6 22 7 23 8 24 9 25 10 26 11
REMARK SMILES IDX 27 12 28 13 29 14 30 15 31 16 32 17 15 18 14 19 13 20 12 21
REMARK SMILES IDX 11 22 10 23 9 24 8 25 7 26 6 27 5 28 4 29 3 30 2 31 1 32
REMARK H PARENT
REMARK Flexibility Score: inf
ROOT
ATOM      1  C   UNL     1     104.355 106.264 107.292  1.00  0.00     0.000 C 
ENDROOT
BRANCH   1   2
ATOM      2  C   UNL     1     104.602 104.747 107.246  1.00  0.00     0.000 C 
BRANCH   2   3
ATOM      3  C   UNL     1     103.299 103.933 107.225  1.00  0.00     0.000 C 
BRANCH   3   4
ATOM      4  C   UNL     1     103.548 102.419 107.085  1.00  0.00     0.000 C 
BRANCH   4   5
ATOM      5  C   UNL     1     103.475 101.672 108.428  1.00  0.00     0.000 C 
BRANCH   5   6
ATOM      6  C   UNL     1     103.160 102.551 109.658  1.00  0.00     0.000 C 
BRANCH   6   7
ATOM      7  C   UNL     1     103.585 101.929 111.005  1.00  0.00     0.000 C 
BRANCH   7   8
ATOM      8  C   UNL     1     103.681 102.977 112.125  1.00  0.00     0.000 C 
BRANCH   8   9
ATOM      9  C   UNL     1     103.049 104.307 111.702  1.00  0.00     0.000 C 
BRANCH   9  10
ATOM     10  C   UNL     1     104.084 105.439 111.736  1.00  0.00     0.000 C 
BRANCH  10  11
ATOM     11  C   UNL     1     105.412 104.955 112.337  1.00  0.00     0.000 C 
BRANCH  11  12
ATOM     12  C   UNL     1     106.484 104.673 111.270  1.00  0.00     0.000 C 
BRANCH  12  13
ATOM     13  C   UNL     1     107.933 104.619 111.799  1.00  0.00     0.006 C 
BRANCH  13  14
ATOM     14  C   UNL     1     108.618 103.254 111.638  1.00  0.00     0.053 C 
BRANCH  14  15
ATOM     15  C   UNL     1     110.112 103.369 111.613  1.00  0.00     0.041 C 
ATOM     16  O   UNL     1     110.831 102.354 111.823  1.00  0.00    -0.550 OA
ATOM     17  O   UNL     1     110.712 104.597 111.368  1.00  0.00    -0.550 OA
ENDBRANCH  14  15
ENDBRANCH  13  14
ENDBRANCH  12  13
ENDBRANCH  11  12
ENDBRANCH  10  11
ENDBRANCH   9  10
ENDBRANCH   8   9
ENDBRANCH   7   8
ENDBRANCH   6   7
ENDBRANCH   5   6
ENDBRANCH   4   5
ENDBRANCH   3   4
ENDBRANCH   2   3
ENDBRANCH   1   2
BRANCH   1  18
ATOM     18  C   UNL     1     104.629 106.953 105.945  1.00  0.00     0.000 C 
BRANCH  18  19
ATOM     19  C   UNL     1     104.735 106.008 104.732  1.00  0.00     0.000 C 
BRANCH  19  20
ATOM     20  C   UNL     1     104.632 106.721 103.367  1.00  0.00     0.000 C 
BRANCH  20  21
ATOM     21  C   UNL     1     104.160 105.782 102.241  1.00  0.00     0.000 C 
BRANCH  21  22
ATOM     22  C   UNL     1     104.487 104.302 102.513  1.00  0.00     0.000 C 
BRANCH  22  23
ATOM     23  C   UNL     1     103.269 103.365 102.595  1.00  0.00     0.000 C 
BRANCH  23  24
ATOM     24  C   UNL     1     103.655 101.876 102.666  1.00  0.00    -0.000 C 
BRANCH  24  25
ATOM     25  C   UNL     1     103.466 101.158 101.322  1.00  0.00    -0.000 C 
BRANCH  25  26
ATOM     26  C   UNL     1     103.277 102.134 100.147  1.00  0.00    -0.000 C 
BRANCH  26  27
ATOM     27  C   UNL     1     103.192 101.415  98.791  1.00  0.00    -0.000 C 
BRANCH  27  28
ATOM     28  C   UNL     1     104.004 102.124  97.697  1.00  0.00    -0.000 C 
BRANCH  28  29
ATOM     29  C   UNL     1     103.341 103.450  97.292  1.00  0.00    -0.000 C 
BRANCH  29  30
ATOM     30  C   UNL     1     104.359 104.584  97.091  1.00  0.00    -0.000 C 
BRANCH  30  31
ATOM     31  C   UNL     1     104.401 105.560  98.275  1.00  0.00    -0.003 C 
ATOM     32  C   UNL     1     104.446 107.008  97.794  1.00  0.00     0.004 C 
ENDBRANCH  30  31
ENDBRANCH  29  30
ENDBRANCH  28  29
ENDBRANCH  27  28
ENDBRANCH  26  27
ENDBRANCH  25  26
ENDBRANCH  24  25
ENDBRANCH  23  24
ENDBRANCH  22  23
ENDBRANCH  21  22
ENDBRANCH  20  21
ENDBRANCH  19  20
ENDBRANCH  18  19
ENDBRANCH   1  18
TORSDOF 28
ENDMDL
MODEL 3
REMARK VINA RESULT:     4.049      3.994     10.985
REMARK INTER + INTRA:           9.138
REMARK INTER:                  11.251
REMARK INTRA:                  -2.113
REMARK UNBOUND:                -1.540
REMARK SMILES CCCCCCCCCCCCCCCCCCCCCCCCCCCCCC(=O)[O-]
REMARK SMILES IDX 16 1 17 2 18 3 19 4 20 5 21 6 22 7 23 8 24 9 25 10 26 11
REMARK SMILES IDX 27 12 28 13 29 14 30 15 31 16 32 17 15 18 14 19 13 20 12 21
REMARK SMILES IDX 11 22 10 23 9 24 8 25 7 26 6 27 5 28 4 29 3 30 2 31 1 32
REMARK H PARENT
REMARK Flexibility Score: inf
ROOT
ATOM      1  C   UNL     1     103.735 102.535 102.240  1.00  0.00     0.000 C 
ENDROOT
BRANCH   1   2
ATOM      2  C   UNL     1     103.307 101.578 103.365  1.00  0.00     0.000 C 
BRANCH   2   3
ATOM      3  C   UNL     1     103.261 102.260 104.741  1.00  0.00     0.000 C 
BRANCH   3   4
ATOM      4  C   UNL     1     103.348 101.255 105.905  1.00  0.00     0.000 C 
BRANCH   4   5
ATOM      5  C   UNL     1     103.676 101.924 107.253  1.00  0.00     0.000 C 
BRANCH   5   6
ATOM      6  C   UNL     1     103.405 103.443 107.320  1.00  0.00     0.000 C 
BRANCH   6   7
ATOM      7  C   UNL     1     104.666 104.317 107.165  1.00  0.00     0.000 C 
BRANCH   7   8
ATOM      8  C   UNL     1     104.325 105.778 106.831  1.00  0.00     0.000 C 
BRANCH   8   9
ATOM      9  C   UNL     1     104.695 106.716 107.986  1.00  0.00     0.000 C 
BRANCH   9  10
ATOM     10  C   UNL     1     104.583 105.992 109.334  1.00  0.00     0.000 C 
BRANCH  10  11
ATOM     11  C   UNL     1     104.653 106.986 110.502  1.00  0.00     0.000 C 
BRANCH  11  12
ATOM     12  C   UNL     1     104.318 106.339 111.858  1.00  0.00     0.000 C 
BRANCH  12  13
ATOM     13  C   UNL     1     104.924 104.938 112.080  1.00  0.00     0.006 C 
BRANCH  13  14
ATOM     14  C   UNL     1     103.989 103.947 112.790  1.00  0.00     0.053 C 
BRANCH  14  15
ATOM     15  C   UNL     1     103.557 102.830 111.889  1.00  0.00     0.041 C 
ATOM     16  O   UNL     1     103.203 103.072 110.703  1.00  0.00    -0.550 OA
ATOM     17  O   UNL     1     103.536 101.523 112.358  1.00  0.00    -0.550 OA
ENDBRANCH  14  15
ENDBRANCH  13  14
ENDBRANCH  12  13
ENDBRANCH  11  12
ENDBRANCH  10  11
ENDBRANCH   9  10
ENDBRANCH   8   9
ENDBRANCH   7   8
ENDBRANCH   6   7
ENDBRANCH   5   6
ENDBRANCH   4   5
ENDBRANCH   3   4
ENDBRANCH   2   3
ENDBRANCH   1   2
BRANCH   1  18
ATOM     18  C   UNL     1     103.444 104.008 102.570  1.00  0.00     0.000 C 
BRANCH  18  19
ATOM     19  C   UNL     1     104.667 104.947 102.529  1.00  0.00     0.000 C 
BRANCH  19  20
ATOM     20  C   UNL     1     104.308 106.445 102.437  1.00  0.00     0.000 C 
BRANCH  20  21
ATOM     21  C   UNL     1     104.554 107.029 101.033  1.00  0.00     0.000 C 
BRANCH  21  22
ATOM     22  C   UNL     1     104.680 105.947  99.944  1.00  0.00     0.000 C 
BRANCH  22  23
ATOM     23  C   UNL     1     104.332 106.408  98.517  1.00  0.00     0.000 C 
BRANCH  23  24
ATOM     24  C   UNL     1     104.847 105.449  97.429  1.00  0.00    -0.000 C 
BRANCH  24  25
ATOM     25  C   UNL     1     104.725 103.975  97.842  1.00  0.00    -0.000 C 
BRANCH  25  26
ATOM     26  C   UNL     1     103.614 103.233  97.079  1.00  0.00    -0.000 C 
BRANCH  26  27
ATOM     27  C   UNL     1     102.318 103.112  97.897  1.00  0.00    -0.000 C 
BRANCH  27  28
ATOM     28  C   UNL     1     101.291 104.196  97.535  1.00  0.00    -0.000 C 
BRANCH  28  29
ATOM     29  C   UNL     1      99.880 103.599  97.415  1.00  0.00    -0.000 C 
BRANCH  29  30
ATOM     30  C   UNL     1      98.780 104.673  97.429  1.00  0.00    -0.000 C 
BRANCH  30  31
ATOM     31  C   UNL     1      97.376 104.086  97.217  1.00  0.00    -0.003 C 
ATOM     32  C   UNL     1      97.442 102.585  96.950  1.00  0.00     0.004 C 
ENDBRANCH  30  31
ENDBRANCH  29  30
ENDBRANCH  28  29
ENDBRANCH  27  28
ENDBRANCH  26  27
ENDBRANCH  25  26
ENDBRANCH  24  25
ENDBRANCH  23  24
ENDBRANCH  22  23
ENDBRANCH  21  22
ENDBRANCH  20  21
ENDBRANCH  19  20
ENDBRANCH  18  19
ENDBRANCH   1  18
TORSDOF 28
ENDMDL
MODEL 4
REMARK VINA RESULT:     4.111      2.446      5.229
REMARK INTER + INTRA:           9.301
REMARK INTER:                  11.271
REMARK INTRA:                  -1.970
REMARK UNBOUND:                -1.540
REMARK SMILES CCCCCCCCCCCCCCCCCCCCCCCCCCCCCC(=O)[O-]
REMARK SMILES IDX 16 1 17 2 18 3 19 4 20 5 21 6 22 7 23 8 24 9 25 10 26 11
REMARK SMILES IDX 27 12 28 13 29 14 30 15 31 16 32 17 15 18 14 19 13 20 12 21
REMARK SMILES IDX 11 22 10 23 9 24 8 25 7 26 6 27 5 28 4 29 3 30 2 31 1 32
REMARK H PARENT
REMARK Flexibility Score: inf
ROOT
ATOM      1  C   UNL     1     103.423 102.549 102.182  1.00  0.00     0.000 C 
ENDROOT
BRANCH   1   2
ATOM      2  C   UNL     1     103.292 104.019 102.615  1.00  0.00     0.000 C 
BRANCH   2   3
ATOM      3  C   UNL     1     104.601 104.806 102.447  1.00  0.00     0.000 C 
BRANCH   3   4
ATOM      4  C   UNL     1     104.387 106.331 102.500  1.00  0.00     0.000 C 
BRANCH   4   5
ATOM      5  C   UNL     1     104.440 106.993 101.111  1.00  0.00     0.000 C 
BRANCH   5   6
ATOM      6  C   UNL     1     104.784 106.047  99.940  1.00  0.00     0.000 C 
BRANCH   6   7
ATOM      7  C   UNL     1     104.676 106.701  98.547  1.00  0.00     0.000 C 
BRANCH   7   8
ATOM      8  C   UNL     1     104.326 105.683  97.451  1.00  0.00     0.000 C 
BRANCH   8   9
ATOM      9  C   UNL     1     104.734 104.262  97.858  1.00  0.00     0.000 C 
BRANCH   9  10
ATOM     10  C   UNL     1     103.941 103.218  97.063  1.00  0.00     0.000 C 
BRANCH  10  11
ATOM     11  C   UNL     1     102.605 102.898  97.750  1.00  0.00     0.000 C 
BRANCH  11  12
ATOM     12  C   UNL     1     101.560 104.015  97.574  1.00  0.00     0.000 C 
BRANCH  12  13
ATOM     13  C   UNL     1     100.092 103.564  97.729  1.00  0.00     0.006 C 
BRANCH  13  14
ATOM     14  C   UNL     1      99.139 104.126  96.663  1.00  0.00     0.053 C 
BRANCH  14  15
ATOM     15  C   UNL     1      97.746 104.306  97.186  1.00  0.00     0.041 C 
ATOM     16  O   UNL     1      97.396 105.406  97.694  1.00  0.00    -0.550 OA
ATOM     17  O   UNL     1      96.837 103.258  97.122  1.00  0.00    -0.550 OA
ENDBRANCH  14  15
ENDBRANCH  13  14
ENDBRANCH  12  13
ENDBRANCH  11  12
ENDBRANCH  10  11
ENDBRANCH   9  10
ENDBRANCH   8   9
ENDBRANCH   7   8
ENDBRANCH   6   7
ENDBRANCH   5   6
ENDBRANCH   4   5
ENDBRANCH   3   4
ENDBRANCH   2   3
ENDBRANCH   1   2
BRANCH   1  18
ATOM     18  C   UNL     1     103.599 101.592 103.372  1.00  0.00     0.000 C 
BRANCH  18  19
ATOM     19  C   UNL     1     103.244 102.183 104.751  1.00  0.00     0.000 C 
BRANCH  19  20
ATOM     20  C   UNL     1     103.628 101.280 105.942  1.00  0.00     0.000 C 
BRANCH  20  21
ATOM     21  C   UNL     1     103.309 101.925 107.304  1.00  0.00     0.000 C 
BRANCH  21  22
ATOM     22  C   UNL     1     103.186 103.458 107.230  1.00  0.00     0.000 C 
BRANCH  22  23
ATOM     23  C   UNL     1     104.521 104.224 107.204  1.00  0.00     0.000 C 
BRANCH  23  24
ATOM     24  C   UNL     1     104.365 105.696 106.782  1.00  0.00    -0.000 C 
BRANCH  24  25
ATOM     25  C   UNL     1     104.595 106.667 107.951  1.00  0.00    -0.000 C 
BRANCH  25  26
ATOM     26  C   UNL     1     104.754 105.945 109.301  1.00  0.00    -0.000 C 
BRANCH  26  27
ATOM     27  C   UNL     1     104.649 106.905 110.497  1.00  0.00    -0.000 C 
BRANCH  27  28
ATOM     28  C   UNL     1     104.097 106.217 111.755  1.00  0.00    -0.000 C 
BRANCH  28  29
ATOM     29  C   UNL     1     104.845 104.905 112.038  1.00  0.00    -0.000 C 
BRANCH  29  30
ATOM     30  C   UNL     1     103.958 103.855 112.726  1.00  0.00    -0.000 C 
BRANCH  30  31
ATOM     31  C   UNL     1     103.251 102.929 111.725  1.00  0.00    -0.003 C 
ATOM     32  C   UNL     1     103.516 101.462 112.050  1.00  0.00     0.004 C 
ENDBRANCH  30  31
ENDBRANCH  29  30
ENDBRANCH  28  29
ENDBRANCH  27  28
ENDBRANCH  26  27
ENDBRANCH  25  26
ENDBRANCH  24  25
ENDBRANCH  23  24
ENDBRANCH  22  23
ENDBRANCH  21  22
ENDBRANCH  20  21
ENDBRANCH  19  20
ENDBRANCH  18  19
ENDBRANCH   1  18
TORSDOF 28
ENDMDL
MODEL 5
REMARK VINA RESULT:     4.180      4.053     11.891
REMARK INTER + INTRA:           9.483
REMARK INTER:                  10.754
REMARK INTRA:                  -1.271
REMARK UNBOUND:                -1.540
REMARK SMILES CCCCCCCCCCCCCCCCCCCCCCCCCCCCCC(=O)[O-]
REMARK SMILES IDX 16 1 17 2 18 3 19 4 20 5 21 6 22 7 23 8 24 9 25 10 26 11
REMARK SMILES IDX 27 12 28 13 29 14 30 15 31 16 32 17 15 18 14 19 13 20 12 21
REMARK SMILES IDX 11 22 10 23 9 24 8 25 7 26 6 27 5 28 4 29 3 30 2 31 1 32
REMARK H PARENT
REMARK Flexibility Score: inf
ROOT
ATOM      1  C   UNL     1     103.648 102.643 102.263  1.00  0.00     0.000 C 
ENDROOT
BRANCH   1   2
ATOM      2  C   UNL     1     103.351 101.585 103.339  1.00  0.00     0.000 C 
BRANCH   2   3
ATOM      3  C   UNL     1     103.263 102.182 104.752  1.00  0.00     0.000 C 
BRANCH   3   4
ATOM      4  C   UNL     1     103.418 101.120 105.857  1.00  0.00     0.000 C 
BRANCH   4   5
ATOM      5  C   UNL     1     103.599 101.731 107.257  1.00  0.00     0.000 C 
BRANCH   5   6
ATOM      6  C   UNL     1     103.339 103.251 107.354  1.00  0.00     0.000 C 
BRANCH   6   7
ATOM      7  C   UNL     1     104.620 104.111 107.371  1.00  0.00     0.000 C 
BRANCH   7   8
ATOM      8  C   UNL     1     104.373 105.533 106.843  1.00  0.00     0.000 C 
BRANCH   8   9
ATOM      9  C   UNL     1     104.489 106.572 107.964  1.00  0.00     0.000 C 
BRANCH   9  10
ATOM     10  C   UNL     1     104.603 105.888 109.333  1.00  0.00     0.000 C 
BRANCH  10  11
ATOM     11  C   UNL     1     104.729 106.924 110.459  1.00  0.00     0.000 C 
BRANCH  11  12
ATOM     12  C   UNL     1     104.189 106.411 111.807  1.00  0.00     0.000 C 
BRANCH  12  13
ATOM     13  C   UNL     1     104.726 105.031 112.241  1.00  0.00     0.006 C 
BRANCH  13  14
ATOM     14  C   UNL     1     104.300 103.868 111.332  1.00  0.00     0.053 C 
BRANCH  14  15
ATOM     15  C   UNL     1     103.254 103.004 111.970  1.00  0.00     0.041 C 
ATOM     16  O   UNL     1     103.577 101.913 112.515  1.00  0.00    -0.550 OA
ATOM     17  O   UNL     1     101.923 103.397 111.957  1.00  0.00    -0.550 OA
ENDBRANCH  14  15
ENDBRANCH  13  14
ENDBRANCH  12  13
ENDBRANCH  11  12
ENDBRANCH  10  11
ENDBRANCH   9  10
ENDBRANCH   8   9
ENDBRANCH   7   8
ENDBRANCH   6   7
ENDBRANCH   5   6
ENDBRANCH   4   5
ENDBRANCH   3   4
ENDBRANCH   2   3
ENDBRANCH   1   2
BRANCH   1  18
ATOM     18  C   UNL     1     103.417 104.079 102.761  1.00  0.00     0.000 C 
BRANCH  18  19
ATOM     19  C   UNL     1     104.662 104.988 102.752  1.00  0.00     0.000 C 
BRANCH  19  20
ATOM     20  C   UNL     1     104.343 106.492 102.611  1.00  0.00     0.000 C 
BRANCH  20  21
ATOM     21  C   UNL     1     104.455 106.988 101.158  1.00  0.00     0.000 C 
BRANCH  21  22
ATOM     22  C   UNL     1     104.664 105.847 100.145  1.00  0.00     0.000 C 
BRANCH  22  23
ATOM     23  C   UNL     1     104.620 106.266  98.664  1.00  0.00     0.000 C 
BRANCH  23  24
ATOM     24  C   UNL     1     104.376 105.084  97.708  1.00  0.00    -0.000 C 
BRANCH  24  25
ATOM     25  C   UNL     1     104.395 103.731  98.434  1.00  0.00    -0.000 C 
BRANCH  25  26
ATOM     26  C   UNL     1     103.422 102.711  97.816  1.00  0.00    -0.000 C 
BRANCH  26  27
ATOM     27  C   UNL     1     102.809 103.208  96.496  1.00  0.00    -0.000 C 
BRANCH  27  28
ATOM     28  C   UNL     1     103.806 103.153  95.328  1.00  0.00    -0.000 C 
BRANCH  28  29
ATOM     29  C   UNL     1     103.077 102.945  93.992  1.00  0.00    -0.000 C 
BRANCH  29  30
ATOM     30  C   UNL     1     103.615 103.855  92.876  1.00  0.00    -0.000 C 
BRANCH  30  31
ATOM     31  C   UNL     1     104.727 104.796  93.363  1.00  0.00    -0.003 C 
ATOM     32  C   UNL     1     104.296 106.257  93.258  1.00  0.00     0.004 C 
ENDBRANCH  30  31
ENDBRANCH  29  30
ENDBRANCH  28  29
ENDBRANCH  27  28
ENDBRANCH  26  27
ENDBRANCH  25  26
ENDBRANCH  24  25
ENDBRANCH  23  24
ENDBRANCH  22  23
ENDBRANCH  21  22
ENDBRANCH  20  21
ENDBRANCH  19  20
ENDBRANCH  18  19
ENDBRANCH   1  18
TORSDOF 28
ENDMDL
MODEL 6
REMARK VINA RESULT:     4.231      4.446     12.349
REMARK INTER + INTRA:           9.617
REMARK INTER:                  11.725
REMARK INTRA:                  -2.108
REMARK UNBOUND:                -1.540
REMARK SMILES CCCCCCCCCCCCCCCCCCCCCCCCCCCCCC(=O)[O-]
REMARK SMILES IDX 16 1 17 2 18 3 19 4 20 5 21 6 22 7 23 8 24 9 25 10 26 11
REMARK SMILES IDX 27 12 28 13 29 14 30 15 31 16 32 17 15 18 14 19 13 20 12 21
REMARK SMILES IDX 11 22 10 23 9 24 8 25 7 26 6 27 5 28 4 29 3 30 2 31 1 32
REMARK H PARENT
REMARK Flexibility Score: inf
ROOT
ATOM      1  C   UNL     1     104.691 104.587 102.407  1.00  0.00     0.000 C 
ENDROOT
BRANCH   1   2
ATOM      2  C   UNL     1     104.439 106.075 102.109  1.00  0.00     0.000 C 
BRANCH   2   3
ATOM      3  C   UNL     1     104.536 106.958 103.362  1.00  0.00     0.000 C 
BRANCH   3   4
ATOM      4  C   UNL     1     104.726 106.138 104.653  1.00  0.00     0.000 C 
BRANCH   4   5
ATOM      5  C   UNL     1     104.532 106.974 105.930  1.00  0.00     0.000 C 
BRANCH   5   6
ATOM      6  C   UNL     1     104.478 106.168 107.246  1.00  0.00     0.000 C 
BRANCH   6   7
ATOM      7  C   UNL     1     104.692 104.651 107.068  1.00  0.00     0.000 C 
BRANCH   7   8
ATOM      8  C   UNL     1     103.386 103.855 107.220  1.00  0.00     0.000 C 
BRANCH   8   9
ATOM      9  C   UNL     1     103.634 102.347 107.102  1.00  0.00     0.000 C 
BRANCH   9  10
ATOM     10  C   UNL     1     103.325 101.638 108.426  1.00  0.00     0.000 C 
BRANCH  10  11
ATOM     11  C   UNL     1     103.221 102.645 109.581  1.00  0.00     0.000 C 
BRANCH  11  12
ATOM     12  C   UNL     1     103.410 101.993 110.962  1.00  0.00     0.000 C 
BRANCH  12  13
ATOM     13  C   UNL     1     103.672 102.980 112.119  1.00  0.00     0.006 C 
BRANCH  13  14
ATOM     14  C   UNL     1     103.354 104.446 111.788  1.00  0.00     0.053 C 
BRANCH  14  15
ATOM     15  C   UNL     1     104.543 105.340 111.976  1.00  0.00     0.041 C 
ATOM     16  O   UNL     1     105.710 104.867 111.906  1.00  0.00    -0.550 OA
ATOM     17  O   UNL     1     104.364 106.691 112.237  1.00  0.00    -0.550 OA
ENDBRANCH  14  15
ENDBRANCH  13  14
ENDBRANCH  12  13
ENDBRANCH  11  12
ENDBRANCH  10  11
ENDBRANCH   9  10
ENDBRANCH   8   9
ENDBRANCH   7   8
ENDBRANCH   6   7
ENDBRANCH   5   6
ENDBRANCH   4   5
ENDBRANCH   3   4
ENDBRANCH   2   3
ENDBRANCH   1   2
BRANCH   1  18
ATOM     18  C   UNL     1     103.393 103.764 102.463  1.00  0.00     0.000 C 
BRANCH  18  19
ATOM     19  C   UNL     1     103.585 102.242 102.613  1.00  0.00     0.000 C 
BRANCH  19  20
ATOM     20  C   UNL     1     103.510 101.463 101.282  1.00  0.00     0.000 C 
BRANCH  20  21
ATOM     21  C   UNL     1     103.324 102.386 100.064  1.00  0.00     0.000 C 
BRANCH  21  22
ATOM     22  C   UNL     1     103.416 101.638  98.721  1.00  0.00     0.000 C 
BRANCH  22  23
ATOM     23  C   UNL     1     103.719 102.521  97.497  1.00  0.00     0.000 C 
BRANCH  23  24
ATOM     24  C   UNL     1     103.080 103.918  97.586  1.00  0.00    -0.000 C 
BRANCH  24  25
ATOM     25  C   UNL     1     104.107 105.045  97.401  1.00  0.00    -0.000 C 
BRANCH  25  26
ATOM     26  C   UNL     1     105.459 104.731  98.066  1.00  0.00    -0.000 C 
BRANCH  26  27
ATOM     27  C   UNL     1     106.615 104.682  97.053  1.00  0.00    -0.000 C 
BRANCH  27  28
ATOM     28  C   UNL     1     107.993 104.752  97.730  1.00  0.00    -0.000 C 
BRANCH  28  29
ATOM     29  C   UNL     1     108.852 103.534  97.358  1.00  0.00    -0.000 C 
BRANCH  29  30
ATOM     30  C   UNL     1     110.349 103.869  97.274  1.00  0.00    -0.000 C 
BRANCH  30  31
ATOM     31  C   UNL     1     110.609 105.351  96.965  1.00  0.00    -0.003 C 
ATOM     32  C   UNL     1     112.092 105.688  97.092  1.00  0.00     0.004 C 
ENDBRANCH  30  31
ENDBRANCH  29  30
ENDBRANCH  28  29
ENDBRANCH  27  28
ENDBRANCH  26  27
ENDBRANCH  25  26
ENDBRANCH  24  25
ENDBRANCH  23  24
ENDBRANCH  22  23
ENDBRANCH  21  22
ENDBRANCH  20  21
ENDBRANCH  19  20
ENDBRANCH  18  19
ENDBRANCH   1  18
TORSDOF 28
ENDMDL
MODEL 7
REMARK VINA RESULT:     4.269      2.850      4.742
REMARK INTER + INTRA:           9.717
REMARK INTER:                  11.608
REMARK INTRA:                  -1.892
REMARK UNBOUND:                -1.540
REMARK SMILES CCCCCCCCCCCCCCCCCCCCCCCCCCCCCC(=O)[O-]
REMARK SMILES IDX 16 1 17 2 18 3 19 4 20 5 21 6 22 7 23 8 24 9 25 10 26 11
REMARK SMILES IDX 27 12 28 13 29 14 30 15 31 16 32 17 15 18 14 19 13 20 12 21
REMARK SMILES IDX 11 22 10 23 9 24 8 25 7 26 6 27 5 28 4 29 3 30 2 31 1 32
REMARK H PARENT
REMARK Flexibility Score: inf
ROOT
ATOM      1  C   UNL     1     104.425 106.113 102.219  1.00  0.00     0.000 C 
ENDROOT
BRANCH   1   2
ATOM      2  C   UNL     1     104.700 104.611 102.403  1.00  0.00     0.000 C 
BRANCH   2   3
ATOM      3  C   UNL     1     103.415 103.770 102.426  1.00  0.00     0.000 C 
BRANCH   3   4
ATOM      4  C   UNL     1     103.695 102.263 102.587  1.00  0.00     0.000 C 
BRANCH   4   5
ATOM      5  C   UNL     1     103.493 101.472 101.283  1.00  0.00     0.000 C 
BRANCH   5   6
ATOM      6  C   UNL     1     103.270 102.329 100.017  1.00  0.00     0.000 C 
BRANCH   6   7
ATOM      7  C   UNL     1     103.502 101.572  98.693  1.00  0.00     0.000 C 
BRANCH   7   8
ATOM      8  C   UNL     1     103.525 102.515  97.479  1.00  0.00     0.000 C 
BRANCH   8   9
ATOM      9  C   UNL     1     102.997 103.907  97.845  1.00  0.00     0.000 C 
BRANCH   9  10
ATOM     10  C   UNL     1     103.949 105.000  97.342  1.00  0.00     0.000 C 
BRANCH  10  11
ATOM     11  C   UNL     1     105.313 104.909  98.041  1.00  0.00     0.000 C 
BRANCH  11  12
ATOM     12  C   UNL     1     106.475 104.685  97.057  1.00  0.00     0.000 C 
BRANCH  12  13
ATOM     13  C   UNL     1     107.876 104.638  97.702  1.00  0.00     0.006 C 
BRANCH  13  14
ATOM     14  C   UNL     1     109.030 104.461  96.704  1.00  0.00     0.053 C 
BRANCH  14  15
ATOM     15  C   UNL     1     110.269 103.927  97.358  1.00  0.00     0.041 C 
ATOM     16  O   UNL     1     110.259 102.791  97.905  1.00  0.00    -0.550 OA
ATOM     17  O   UNL     1     111.431 104.686  97.373  1.00  0.00    -0.550 OA
ENDBRANCH  14  15
ENDBRANCH  13  14
ENDBRANCH  12  13
ENDBRANCH  11  12
ENDBRANCH  10  11
ENDBRANCH   9  10
ENDBRANCH   8   9
ENDBRANCH   7   8
ENDBRANCH   6   7
ENDBRANCH   5   6
ENDBRANCH   4   5
ENDBRANCH   3   4
ENDBRANCH   2   3
ENDBRANCH   1   2
BRANCH   1  18
ATOM     18  C   UNL     1     104.602 106.914 103.520  1.00  0.00     0.000 C 
BRANCH  18  19
ATOM     19  C   UNL     1     104.669 106.070 104.809  1.00  0.00     0.000 C 
BRANCH  19  20
ATOM     20  C   UNL     1     104.617 106.900 106.109  1.00  0.00     0.000 C 
BRANCH  20  21
ATOM     21  C   UNL     1     104.246 106.053 107.340  1.00  0.00     0.000 C 
BRANCH  21  22
ATOM     22  C   UNL     1     104.520 104.550 107.142  1.00  0.00     0.000 C 
BRANCH  22  23
ATOM     23  C   UNL     1     103.271 103.649 107.144  1.00  0.00     0.000 C 
BRANCH  23  24
ATOM     24  C   UNL     1     103.608 102.149 107.083  1.00  0.00    -0.000 C 
BRANCH  24  25
ATOM     25  C   UNL     1     103.242 101.414 108.382  1.00  0.00    -0.000 C 
BRANCH  25  26
ATOM     26  C   UNL     1     103.283 102.332 109.616  1.00  0.00    -0.000 C 
BRANCH  26  27
ATOM     27  C   UNL     1     103.036 101.568 110.926  1.00  0.00    -0.000 C 
BRANCH  27  28
ATOM     28  C   UNL     1     103.243 102.448 112.168  1.00  0.00    -0.000 C 
BRANCH  28  29
ATOM     29  C   UNL     1     104.505 103.312 112.027  1.00  0.00    -0.000 C 
BRANCH  29  30
ATOM     30  C   UNL     1     104.203 104.715 111.474  1.00  0.00    -0.000 C 
BRANCH  30  31
ATOM     31  C   UNL     1     104.616 105.834 112.441  1.00  0.00    -0.003 C 
ATOM     32  C   UNL     1     104.327 107.209 111.845  1.00  0.00     0.004 C 
ENDBRANCH  30  31
ENDBRANCH  29  30
ENDBRANCH  28  29
ENDBRANCH  27  28
ENDBRANCH  26  27
ENDBRANCH  25  26
ENDBRANCH  24  25
ENDBRANCH  23  24
ENDBRANCH  22  23
ENDBRANCH  21  22
ENDBRANCH  20  21
ENDBRANCH  19  20
ENDBRANCH  18  19
ENDBRANCH   1  18
TORSDOF 28
ENDMDL
MODEL 8
REMARK VINA RESULT:     4.387      2.437      5.396
REMARK INTER + INTRA:          10.028
REMARK INTER:                  12.279
REMARK INTRA:                  -2.252
REMARK UNBOUND:                -1.540
REMARK SMILES CCCCCCCCCCCCCCCCCCCCCCCCCCCCCC(=O)[O-]
REMARK SMILES IDX 16 1 17 2 18 3 19 4 20 5 21 6 22 7 23 8 24 9 25 10 26 11
REMARK SMILES IDX 27 12 28 13 29 14 30 15 31 16 32 17 15 18 14 19 13 20 12 21
REMARK SMILES IDX 11 22 10 23 9 24 8 25 7 26 6 27 5 28 4 29 3 30 2 31 1 32
REMARK H PARENT
REMARK Flexibility Score: inf
ROOT
ATOM      1  C   UNL     1     104.354 106.612 107.118  1.00  0.00     0.000 C 
ENDROOT
BRANCH   1   2
ATOM      2  C   UNL     1     104.727 107.174 105.736  1.00  0.00     0.000 C 
BRANCH   2   3
ATOM      3  C   UNL     1     104.719 106.101 104.636  1.00  0.00     0.000 C 
BRANCH   3   4
ATOM      4  C   UNL     1     104.641 106.703 103.220  1.00  0.00     0.000 C 
BRANCH   4   5
ATOM      5  C   UNL     1     104.330 105.654 102.138  1.00  0.00     0.000 C 
BRANCH   5   6
ATOM      6  C   UNL     1     104.407 104.183 102.601  1.00  0.00     0.000 C 
BRANCH   6   7
ATOM      7  C   UNL     1     103.060 103.432 102.550  1.00  0.00     0.000 C 
BRANCH   7   8
ATOM      8  C   UNL     1     103.240 101.907 102.593  1.00  0.00     0.000 C 
BRANCH   8   9
ATOM      9  C   UNL     1     103.721 101.364 101.243  1.00  0.00     0.000 C 
BRANCH   9  10
ATOM     10  C   UNL     1     103.303 102.296 100.099  1.00  0.00     0.000 C 
BRANCH  10  11
ATOM     11  C   UNL     1     103.361 101.572  98.747  1.00  0.00     0.000 C 
BRANCH  11  12
ATOM     12  C   UNL     1     103.709 102.512  97.579  1.00  0.00     0.000 C 
BRANCH  12  13
ATOM     13  C   UNL     1     103.489 104.013  97.862  1.00  0.00     0.006 C 
BRANCH  13  14
ATOM     14  C   UNL     1     104.772 104.857  97.852  1.00  0.00     0.053 C 
BRANCH  14  15
ATOM     15  C   UNL     1     104.484 106.327  97.889  1.00  0.00     0.041 C 
ATOM     16  O   UNL     1     104.629 106.976  98.960  1.00  0.00    -0.550 OA
ATOM     17  O   UNL     1     104.047 106.980  96.744  1.00  0.00    -0.550 OA
ENDBRANCH  14  15
ENDBRANCH  13  14
ENDBRANCH  12  13
ENDBRANCH  11  12
ENDBRANCH  10  11
ENDBRANCH   9  10
ENDBRANCH   8   9
ENDBRANCH   7   8
ENDBRANCH   6   7
ENDBRANCH   5   6
ENDBRANCH   4   5
ENDBRANCH   3   4
ENDBRANCH   2   3
ENDBRANCH   1   2
BRANCH   1  18
ATOM     18  C   UNL     1     104.679 105.116 107.259  1.00  0.00     0.000 C 
BRANCH  18  19
ATOM     19  C   UNL     1     103.461 104.171 107.219  1.00  0.00     0.000 C 
BRANCH  19  20
ATOM     20  C   UNL     1     103.796 102.730 106.777  1.00  0.00     0.000 C 
BRANCH  20  21
ATOM     21  C   UNL     1     103.529 101.693 107.884  1.00  0.00     0.000 C 
BRANCH  21  22
ATOM     22  C   UNL     1     102.951 102.317 109.168  1.00  0.00     0.000 C 
BRANCH  22  23
ATOM     23  C   UNL     1     103.583 101.821 110.481  1.00  0.00     0.000 C 
BRANCH  23  24
ATOM     24  C   UNL     1     103.007 102.514 111.729  1.00  0.00    -0.000 C 
BRANCH  24  25
ATOM     25  C   UNL     1     104.004 103.491 112.369  1.00  0.00    -0.000 C 
BRANCH  25  26
ATOM     26  C   UNL     1     104.081 104.835 111.623  1.00  0.00    -0.000 C 
BRANCH  26  27
ATOM     27  C   UNL     1     105.508 105.405 111.583  1.00  0.00    -0.000 C 
BRANCH  27  28
ATOM     28  C   UNL     1     106.546 104.432 112.164  1.00  0.00    -0.000 C 
BRANCH  28  29
ATOM     29  C   UNL     1     107.938 104.690 111.566  1.00  0.00    -0.000 C 
BRANCH  29  30
ATOM     30  C   UNL     1     108.763 103.403 111.409  1.00  0.00    -0.000 C 
BRANCH  30  31
ATOM     31  C   UNL     1     110.249 103.608 111.735  1.00  0.00    -0.003 C 
ATOM     32  C   UNL     1     110.754 104.940 111.188  1.00  0.00     0.004 C 
ENDBRANCH  30  31
ENDBRANCH  29  30
ENDBRANCH  28  29
ENDBRANCH  27  28
ENDBRANCH  26  27
ENDBRANCH  25  26
ENDBRANCH  24  25
ENDBRANCH  23  24
ENDBRANCH  22  23
ENDBRANCH  21  22
ENDBRANCH  20  21
ENDBRANCH  19  20
ENDBRANCH  18  19
ENDBRANCH   1  18
TORSDOF 28
ENDMDL
MODEL 9
REMARK VINA RESULT:     4.796      4.265     12.159
REMARK INTER + INTRA:          11.106
REMARK INTER:                  12.609
REMARK INTRA:                  -1.504
REMARK UNBOUND:                -1.540
REMARK SMILES CCCCCCCCCCCCCCCCCCCCCCCCCCCCCC(=O)[O-]
REMARK SMILES IDX 16 1 17 2 18 3 19 4 20 5 21 6 22 7 23 8 24 9 25 10 26 11
REMARK SMILES IDX 27 12 28 13 29 14 30 15 31 16 32 17 15 18 14 19 13 20 12 21
REMARK SMILES IDX 11 22 10 23 9 24 8 25 7 26 6 27 5 28 4 29 3 30 2 31 1 32
REMARK H PARENT
REMARK Flexibility Score: inf
ROOT
ATOM      1  C   UNL     1     104.761 107.001 103.476  1.00  0.00     0.000 C 
ENDROOT
BRANCH   1   2
ATOM      2  C   UNL     1     104.705 106.179 104.775  1.00  0.00     0.000 C 
BRANCH   2   3
ATOM      3  C   UNL     1     104.562 107.057 106.028  1.00  0.00     0.000 C 
BRANCH   3   4
ATOM      4  C   UNL     1     104.650 106.245 107.335  1.00  0.00     0.000 C 
BRANCH   4   5
ATOM      5  C   UNL     1     104.506 104.729 107.111  1.00  0.00     0.000 C 
BRANCH   5   6
ATOM      6  C   UNL     1     103.064 104.184 107.186  1.00  0.00     0.000 C 
BRANCH   6   7
ATOM      7  C   UNL     1     102.877 102.799 106.531  1.00  0.00     0.000 C 
BRANCH   7   8
ATOM      8  C   UNL     1     103.829 101.744 107.116  1.00  0.00     0.000 C 
BRANCH   8   9
ATOM      9  C   UNL     1     103.254 101.122 108.394  1.00  0.00     0.000 C 
BRANCH   9  10
ATOM     10  C   UNL     1     103.271 102.133 109.548  1.00  0.00     0.000 C 
BRANCH  10  11
ATOM     11  C   UNL     1     103.569 101.439 110.885  1.00  0.00     0.000 C 
BRANCH  11  12
ATOM     12  C   UNL     1     102.934 102.161 112.088  1.00  0.00     0.000 C 
BRANCH  12  13
ATOM     13  C   UNL     1     103.711 103.396 112.591  1.00  0.00     0.006 C 
BRANCH  13  14
ATOM     14  C   UNL     1     103.682 104.598 111.635  1.00  0.00     0.053 C 
BRANCH  14  15
ATOM     15  C   UNL     1     104.761 105.592 111.942  1.00  0.00     0.041 C 
ATOM     16  O   UNL     1     105.971 105.239 111.932  1.00  0.00    -0.550 OA
ATOM     17  O   UNL     1     104.431 106.906 112.248  1.00  0.00    -0.550 OA
ENDBRANCH  14  15
ENDBRANCH  13  14
ENDBRANCH  12  13
ENDBRANCH  11  12
ENDBRANCH  10  11
ENDBRANCH   9  10
ENDBRANCH   8   9
ENDBRANCH   7   8
ENDBRANCH   6   7
ENDBRANCH   5   6
ENDBRANCH   4   5
ENDBRANCH   3   4
ENDBRANCH   2   3
ENDBRANCH   1   2
BRANCH   1  18
ATOM     18  C   UNL     1     104.384 106.177 102.234  1.00  0.00     0.000 C 
BRANCH  18  19
ATOM     19  C   UNL     1     104.513 104.649 102.394  1.00  0.00     0.000 C 
BRANCH  19  20
ATOM     20  C   UNL     1     103.162 103.911 102.512  1.00  0.00     0.000 C 
BRANCH  20  21
ATOM     21  C   UNL     1     103.328 102.384 102.617  1.00  0.00     0.000 C 
BRANCH  21  22
ATOM     22  C   UNL     1     103.695 101.723 101.275  1.00  0.00     0.000 C 
BRANCH  22  23
ATOM     23  C   UNL     1     103.297 102.520 100.020  1.00  0.00     0.000 C 
BRANCH  23  24
ATOM     24  C   UNL     1     103.295 101.669  98.737  1.00  0.00    -0.000 C 
BRANCH  24  25
ATOM     25  C   UNL     1     103.896 102.417  97.538  1.00  0.00    -0.000 C 
BRANCH  25  26
ATOM     26  C   UNL     1     103.522 103.909  97.520  1.00  0.00    -0.000 C 
BRANCH  26  27
ATOM     27  C   UNL     1     104.746 104.824  97.693  1.00  0.00    -0.000 C 
BRANCH  27  28
ATOM     28  C   UNL     1     104.848 105.885  96.587  1.00  0.00    -0.000 C 
BRANCH  28  29
ATOM     29  C   UNL     1     104.136 105.417  95.308  1.00  0.00    -0.000 C 
BRANCH  29  30
ATOM     30  C   UNL     1     104.606 106.177  94.057  1.00  0.00    -0.000 C 
BRANCH  30  31
ATOM     31  C   UNL     1     105.046 105.238  92.924  1.00  0.00    -0.003 C 
ATOM     32  C   UNL     1     104.176 103.985  92.878  1.00  0.00     0.004 C 
ENDBRANCH  30  31
ENDBRANCH  29  30
ENDBRANCH  28  29
ENDBRANCH  27  28
ENDBRANCH  26  27
ENDBRANCH  25  26
ENDBRANCH  24  25
ENDBRANCH  23  24
ENDBRANCH  22  23
ENDBRANCH  21  22
ENDBRANCH  20  21
ENDBRANCH  19  20
ENDBRANCH  18  19
ENDBRANCH   1  18
TORSDOF 28
ENDMDL
