MODEL 1
REMARK VINA RESULT:    -8.241      0.000      0.000
REMARK INTER + INTRA:         -10.121
REMARK INTER:                 -10.169
REMARK INTRA:                   0.048
REMARK UNBOUND:                 0.048
REMARK SMILES Oc1cc(O)c2cc(O)c(-c3cc(O)c(O)c(O)c3)[o+]c2c1
REMARK SMILES IDX 10 1 20 2 21 3 22 4 2 5 3 6 4 7 6 8 7 9 8 10 11 11 12 12
REMARK SMILES IDX 13 13 19 14 15 15 17 16 14 17 16 19 18 21 9 23 1 25 5 27
REMARK H PARENT 14 18 16 20 18 22 9 24 1 26 5 28
REMARK Flexibility Score: inf
ROOT
ATOM      1  C   UNL     1       7.026 -25.211  34.998  1.00  0.00     0.402 A 
ATOM      2  O   UNL     1       6.320 -26.122  34.335  1.00  0.00    -0.202 OA
ATOM      3  C   UNL     1       5.418 -25.815  33.408  1.00  0.00     0.368 A 
ATOM      4  C   UNL     1       4.728 -26.843  32.763  1.00  0.00     0.162 A 
ATOM      5  C   UNL     1       3.779 -26.550  31.783  1.00  0.00     0.128 A 
ATOM      6  C   UNL     1       3.517 -25.217  31.444  1.00  0.00     0.093 A 
ATOM      7  C   UNL     1       4.196 -24.168  32.075  1.00  0.00     0.136 A 
ATOM      8  C   UNL     1       5.160 -24.463  33.074  1.00  0.00     0.125 A 
ATOM      9  C   UNL     1       5.878 -23.476  33.769  1.00  0.00     0.078 A 
ATOM     10  C   UNL     1       6.811 -23.844  34.744  1.00  0.00     0.223 A 
ENDROOT
BRANCH   1  11
ATOM     11  C   UNL     1       8.009 -25.680  36.001  1.00  0.00     0.091 A 
ATOM     12  C   UNL     1       7.713 -26.810  36.780  1.00  0.00     0.068 A 
ATOM     13  C   UNL     1       8.631 -27.287  37.722  1.00  0.00     0.162 A 
ATOM     14  C   UNL     1       9.257 -25.053  36.153  1.00  0.00     0.068 A 
ATOM     15  C   UNL     1       9.870 -26.645  37.884  1.00  0.00     0.200 A 
ATOM     16  C   UNL     1      10.183 -25.527  37.093  1.00  0.00     0.162 A 
BRANCH  13  17
ATOM     17  O   UNL     1       8.293 -28.404  38.486  1.00  0.00    -0.504 OA
ATOM     18  H   UNL     1       7.888 -29.236  38.075  1.00  0.00     0.293 HD
ENDBRANCH  13  17
BRANCH  15  19
ATOM     19  O   UNL     1      10.778 -27.126  38.828  1.00  0.00    -0.502 OA
ATOM     20  H   UNL     1      10.882 -26.702  39.742  1.00  0.00     0.293 HD
ENDBRANCH  15  19
BRANCH  16  21
ATOM     21  O   UNL     1      11.416 -24.892  37.238  1.00  0.00    -0.504 OA
ATOM     22  H   UNL     1      11.755 -24.590  38.145  1.00  0.00     0.293 HD
ENDBRANCH  16  21
ENDBRANCH   1  11
BRANCH  10  23
ATOM     23  O   UNL     1       7.488 -22.863  35.469  1.00  0.00    -0.500 OA
ATOM     24  H   UNL     1       7.169 -22.559  36.381  1.00  0.00     0.294 HD
ENDBRANCH  10  23
BRANCH   5  25
ATOM     25  O   UNL     1       3.100 -27.590  31.151  1.00  0.00    -0.507 OA
ATOM     26  H   UNL     1       3.232 -27.786  30.166  1.00  0.00     0.293 HD
ENDBRANCH   5  25
BRANCH   7  27
ATOM     27  O   UNL     1       3.879 -22.865  31.678  1.00  0.00    -0.507 OA
ATOM     28  H   UNL     1       3.567 -22.138  32.305  1.00  0.00     0.293 HD
ENDBRANCH   7  27
TORSDOF 7
ENDMDL
MODEL 2
REMARK VINA RESULT:    -8.228      3.224      5.254
REMARK INTER + INTRA:         -10.104
REMARK INTER:                  -9.759
REMARK INTRA:                  -0.345
REMARK UNBOUND:                 0.048
REMARK SMILES Oc1cc(O)c2cc(O)c(-c3cc(O)c(O)c(O)c3)[o+]c2c1
REMARK SMILES IDX 10 1 20 2 21 3 22 4 2 5 3 6 4 7 6 8 7 9 8 10 11 11 12 12
REMARK SMILES IDX 13 13 19 14 15 15 17 16 14 17 16 19 18 21 9 23 1 25 5 27
REMARK H PARENT 14 18 16 20 18 22 9 24 1 26 5 28
REMARK Flexibility Score: inf
ROOT
ATOM      1  C   UNL     1       9.284 -23.917  35.235  1.00  0.00     0.402 A 
ATOM      2  O   UNL     1       8.399 -24.316  34.325  1.00  0.00    -0.202 OA
ATOM      3  C   UNL     1       7.457 -25.221  34.570  1.00  0.00     0.368 A 
ATOM      4  C   UNL     1       6.571 -25.574  33.551  1.00  0.00     0.162 A 
ATOM      5  C   UNL     1       5.570 -26.518  33.780  1.00  0.00     0.128 A 
ATOM      6  C   UNL     1       5.454 -27.117  35.040  1.00  0.00     0.093 A 
ATOM      7  C   UNL     1       6.330 -26.781  36.080  1.00  0.00     0.136 A 
ATOM      8  C   UNL     1       7.350 -25.822  35.848  1.00  0.00     0.125 A 
ATOM      9  C   UNL     1       8.281 -25.434  36.826  1.00  0.00     0.078 A 
ATOM     10  C   UNL     1       9.262 -24.485  36.522  1.00  0.00     0.223 A 
ENDROOT
BRANCH   1  11
ATOM     11  C   UNL     1      10.278 -22.893  34.843  1.00  0.00     0.091 A 
ATOM     12  C   UNL     1      11.575 -23.292  34.483  1.00  0.00     0.068 A 
ATOM     13  C   UNL     1      12.529 -22.349  34.090  1.00  0.00     0.162 A 
ATOM     14  C   UNL     1       9.937 -21.532  34.767  1.00  0.00     0.068 A 
ATOM     15  C   UNL     1      12.190 -20.986  34.036  1.00  0.00     0.200 A 
ATOM     16  C   UNL     1      10.887 -20.580  34.372  1.00  0.00     0.162 A 
BRANCH  13  17
ATOM     17  O   UNL     1      13.811 -22.785  33.754  1.00  0.00    -0.504 OA
ATOM     18  H   UNL     1      14.042 -23.768  33.675  1.00  0.00     0.293 HD
ENDBRANCH  13  17
BRANCH  15  19
ATOM     19  O   UNL     1      13.149 -20.051  33.645  1.00  0.00    -0.502 OA
ATOM     20  H   UNL     1      13.016 -19.056  33.775  1.00  0.00     0.293 HD
ENDBRANCH  15  19
BRANCH  16  21
ATOM     21  O   UNL     1      10.538 -19.231  34.307  1.00  0.00    -0.504 OA
ATOM     22  H   UNL     1      10.313 -18.782  33.427  1.00  0.00     0.293 HD
ENDBRANCH  16  21
ENDBRANCH   1  11
BRANCH  10  23
ATOM     23  O   UNL     1      10.216 -24.136  37.478  1.00  0.00    -0.500 OA
ATOM     24  H   UNL     1      10.712 -24.837  38.017  1.00  0.00     0.294 HD
ENDBRANCH  10  23
BRANCH   5  25
ATOM     25  O   UNL     1       4.696 -26.857  32.750  1.00  0.00    -0.507 OA
ATOM     26  H   UNL     1       4.200 -27.741  32.745  1.00  0.00     0.293 HD
ENDBRANCH   5  25
BRANCH   7  27
ATOM     27  O   UNL     1       6.146 -27.421  37.309  1.00  0.00    -0.507 OA
ATOM     28  H   UNL     1       5.657 -27.017  38.094  1.00  0.00     0.293 HD
ENDBRANCH   7  27
TORSDOF 7
ENDMDL
MODEL 3
REMARK VINA RESULT:    -8.176      3.470      6.062
REMARK INTER + INTRA:         -10.040
REMARK INTER:                  -9.866
REMARK INTRA:                  -0.173
REMARK UNBOUND:                 0.048
REMARK SMILES Oc1cc(O)c2cc(O)c(-c3cc(O)c(O)c(O)c3)[o+]c2c1
REMARK SMILES IDX 10 1 20 2 21 3 22 4 2 5 3 6 4 7 6 8 7 9 8 10 11 11 12 12
REMARK SMILES IDX 13 13 19 14 15 15 17 16 14 17 16 19 18 21 9 23 1 25 5 27
REMARK H PARENT 14 18 16 20 18 22 9 24 1 26 5 28
REMARK Flexibility Score: inf
ROOT
ATOM      1  C   UNL     1       8.705 -23.341  36.420  1.00  0.00     0.402 A 
ATOM      2  O   UNL     1       9.715 -23.145  35.575  1.00  0.00    -0.202 OA
ATOM      3  C   UNL     1      10.178 -21.940  35.259  1.00  0.00     0.368 A 
ATOM      4  C   UNL     1      11.246 -21.835  34.365  1.00  0.00     0.162 A 
ATOM      5  C   UNL     1      11.755 -20.584  34.018  1.00  0.00     0.128 A 
ATOM      6  C   UNL     1      11.195 -19.426  34.569  1.00  0.00     0.093 A 
ATOM      7  C   UNL     1      10.125 -19.504  35.469  1.00  0.00     0.136 A 
ATOM      8  C   UNL     1       9.602 -20.775  35.822  1.00  0.00     0.125 A 
ATOM      9  C   UNL     1       8.524 -20.949  36.705  1.00  0.00     0.078 A 
ATOM     10  C   UNL     1       8.061 -22.234  37.002  1.00  0.00     0.223 A 
ENDROOT
BRANCH   1  11
ATOM     11  C   UNL     1       8.287 -24.733  36.699  1.00  0.00     0.091 A 
ATOM     12  C   UNL     1       9.187 -25.613  37.319  1.00  0.00     0.068 A 
ATOM     13  C   UNL     1       8.812 -26.928  37.613  1.00  0.00     0.162 A 
ATOM     14  C   UNL     1       6.986 -25.179  36.406  1.00  0.00     0.068 A 
ATOM     15  C   UNL     1       7.517 -27.377  37.300  1.00  0.00     0.200 A 
ATOM     16  C   UNL     1       6.602 -26.496  36.699  1.00  0.00     0.162 A 
BRANCH  13  17
ATOM     17  O   UNL     1       9.741 -27.776  38.217  1.00  0.00    -0.504 OA
ATOM     18  H   UNL     1       9.476 -28.446  38.928  1.00  0.00     0.293 HD
ENDBRANCH  13  17
BRANCH  15  19
ATOM     19  O   UNL     1       7.153 -28.691  37.593  1.00  0.00    -0.502 OA
ATOM     20  H   UNL     1       7.755 -29.478  37.383  1.00  0.00     0.293 HD
ENDBRANCH  15  19
BRANCH  16  21
ATOM     21  O   UNL     1       5.311 -26.929  36.398  1.00  0.00    -0.504 OA
ATOM     22  H   UNL     1       4.785 -27.514  37.036  1.00  0.00     0.293 HD
ENDBRANCH  16  21
ENDBRANCH   1  11
BRANCH  10  23
ATOM     23  O   UNL     1       6.958 -22.404  37.839  1.00  0.00    -0.500 OA
ATOM     24  H   UNL     1       6.034 -22.599  37.472  1.00  0.00     0.294 HD
ENDBRANCH  10  23
BRANCH   5  25
ATOM     25  O   UNL     1      12.820 -20.500  33.123  1.00  0.00    -0.507 OA
ATOM     26  H   UNL     1      13.061 -19.628  32.667  1.00  0.00     0.293 HD
ENDBRANCH   5  25
BRANCH   7  27
ATOM     27  O   UNL     1       9.623 -18.302  35.978  1.00  0.00    -0.507 OA
ATOM     28  H   UNL     1      10.001 -17.390  35.764  1.00  0.00     0.293 HD
ENDBRANCH   7  27
TORSDOF 7
ENDMDL
MODEL 4
REMARK VINA RESULT:    -8.159      3.452      5.939
REMARK INTER + INTRA:         -10.019
REMARK INTER:                  -9.843
REMARK INTRA:                  -0.176
REMARK UNBOUND:                 0.048
REMARK SMILES Oc1cc(O)c2cc(O)c(-c3cc(O)c(O)c(O)c3)[o+]c2c1
REMARK SMILES IDX 10 1 20 2 21 3 22 4 2 5 3 6 4 7 6 8 7 9 8 10 11 11 12 12
REMARK SMILES IDX 13 13 19 14 15 15 17 16 14 17 16 19 18 21 9 23 1 25 5 27
REMARK H PARENT 14 18 16 20 18 22 9 24 1 26 5 28
REMARK Flexibility Score: inf
ROOT
ATOM      1  C   UNL     1       8.697 -23.318  36.428  1.00  0.00     0.402 A 
ATOM      2  O   UNL     1       9.723 -23.133  35.602  1.00  0.00    -0.202 OA
ATOM      3  C   UNL     1      10.167 -21.931  35.247  1.00  0.00     0.368 A 
ATOM      4  C   UNL     1      11.255 -21.838  34.376  1.00  0.00     0.162 A 
ATOM      5  C   UNL     1      11.744 -20.590  33.989  1.00  0.00     0.128 A 
ATOM      6  C   UNL     1      11.142 -19.424  34.476  1.00  0.00     0.093 A 
ATOM      7  C   UNL     1      10.051 -19.490  35.351  1.00  0.00     0.136 A 
ATOM      8  C   UNL     1       9.549 -20.758  35.744  1.00  0.00     0.125 A 
ATOM      9  C   UNL     1       8.452 -20.921  36.606  1.00  0.00     0.078 A 
ATOM     10  C   UNL     1       8.011 -22.204  36.946  1.00  0.00     0.223 A 
ENDROOT
BRANCH   1  11
ATOM     11  C   UNL     1       8.304 -24.707  36.755  1.00  0.00     0.091 A 
ATOM     12  C   UNL     1       7.033 -25.171  36.381  1.00  0.00     0.068 A 
ATOM     13  C   UNL     1       6.642 -26.485  36.660  1.00  0.00     0.162 A 
ATOM     14  C   UNL     1       9.196 -25.591  37.384  1.00  0.00     0.068 A 
ATOM     15  C   UNL     1       7.530 -27.360  37.308  1.00  0.00     0.200 A 
ATOM     16  C   UNL     1       8.813 -26.910  37.666  1.00  0.00     0.162 A 
BRANCH  13  17
ATOM     17  O   UNL     1       5.366 -26.903  36.284  1.00  0.00    -0.504 OA
ATOM     18  H   UNL     1       5.191 -27.823  35.900  1.00  0.00     0.293 HD
ENDBRANCH  13  17
BRANCH  15  19
ATOM     19  O   UNL     1       7.131 -28.668  37.585  1.00  0.00    -0.502 OA
ATOM     20  H   UNL     1       7.655 -29.271  38.207  1.00  0.00     0.293 HD
ENDBRANCH  15  19
BRANCH  16  21
ATOM     21  O   UNL     1       9.705 -27.777  38.296  1.00  0.00    -0.504 OA
ATOM     22  H   UNL     1       9.391 -28.463  38.973  1.00  0.00     0.293 HD
ENDBRANCH  16  21
ENDBRANCH   1  11
BRANCH  10  23
ATOM     23  O   UNL     1       6.891 -22.365  37.761  1.00  0.00    -0.500 OA
ATOM     24  H   UNL     1       5.949 -22.303  37.392  1.00  0.00     0.294 HD
ENDBRANCH  10  23
BRANCH   5  25
ATOM     25  O   UNL     1      12.830 -20.518  33.119  1.00  0.00    -0.507 OA
ATOM     26  H   UNL     1      13.770 -20.738  33.426  1.00  0.00     0.293 HD
ENDBRANCH   5  25
BRANCH   7  27
ATOM     27  O   UNL     1       9.508 -18.281  35.795  1.00  0.00    -0.507 OA
ATOM     28  H   UNL     1      10.031 -17.422  35.891  1.00  0.00     0.293 HD
ENDBRANCH   7  27
TORSDOF 7
ENDMDL
MODEL 5
REMARK VINA RESULT:    -8.011      1.419      7.244
REMARK INTER + INTRA:          -9.836
REMARK INTER:                  -9.669
REMARK INTRA:                  -0.167
REMARK UNBOUND:                 0.048
REMARK SMILES Oc1cc(O)c2cc(O)c(-c3cc(O)c(O)c(O)c3)[o+]c2c1
REMARK SMILES IDX 10 1 20 2 21 3 22 4 2 5 3 6 4 7 6 8 7 9 8 10 11 11 12 12
REMARK SMILES IDX 13 13 19 14 15 15 17 16 14 17 16 19 18 21 9 23 1 25 5 27
REMARK H PARENT 14 18 16 20 18 22 9 24 1 26 5 28
REMARK Flexibility Score: inf
ROOT
ATOM      1  C   UNL     1       6.619 -25.633  34.733  1.00  0.00     0.402 A 
ATOM      2  O   UNL     1       7.727 -24.994  34.366  1.00  0.00    -0.202 OA
ATOM      3  C   UNL     1       8.783 -24.848  35.161  1.00  0.00     0.368 A 
ATOM      4  C   UNL     1       9.903 -24.164  34.684  1.00  0.00     0.162 A 
ATOM      5  C   UNL     1      11.027 -23.999  35.495  1.00  0.00     0.128 A 
ATOM      6  C   UNL     1      11.032 -24.522  36.793  1.00  0.00     0.093 A 
ATOM      7  C   UNL     1       9.921 -25.212  37.294  1.00  0.00     0.136 A 
ATOM      8  C   UNL     1       8.776 -25.380  36.473  1.00  0.00     0.125 A 
ATOM      9  C   UNL     1       7.614 -26.045  36.896  1.00  0.00     0.078 A 
ATOM     10  C   UNL     1       6.522 -26.167  36.031  1.00  0.00     0.223 A 
ENDROOT
BRANCH   1  11
ATOM     11  C   UNL     1       5.515 -25.737  33.753  1.00  0.00     0.091 A 
ATOM     12  C   UNL     1       5.026 -24.575  33.136  1.00  0.00     0.068 A 
ATOM     13  C   UNL     1       3.997 -24.646  32.192  1.00  0.00     0.162 A 
ATOM     14  C   UNL     1       4.980 -26.983  33.383  1.00  0.00     0.068 A 
ATOM     15  C   UNL     1       3.451 -25.892  31.841  1.00  0.00     0.200 A 
ATOM     16  C   UNL     1       3.949 -27.064  32.436  1.00  0.00     0.162 A 
BRANCH  13  17
ATOM     17  O   UNL     1       3.530 -23.466  31.613  1.00  0.00    -0.504 OA
ATOM     18  H   UNL     1       4.139 -22.679  31.429  1.00  0.00     0.293 HD
ENDBRANCH  13  17
BRANCH  15  19
ATOM     19  O   UNL     1       2.422 -25.954  30.900  1.00  0.00    -0.502 OA
ATOM     20  H   UNL     1       1.540 -25.473  31.032  1.00  0.00     0.293 HD
ENDBRANCH  15  19
BRANCH  16  21
ATOM     21  O   UNL     1       3.422 -28.305  32.082  1.00  0.00    -0.504 OA
ATOM     22  H   UNL     1       2.787 -28.409  31.300  1.00  0.00     0.293 HD
ENDBRANCH  16  21
ENDBRANCH   1  11
BRANCH  10  23
ATOM     23  O   UNL     1       5.350 -26.784  36.467  1.00  0.00    -0.500 OA
ATOM     24  H   UNL     1       4.923 -26.551  37.357  1.00  0.00     0.294 HD
ENDBRANCH  10  23
BRANCH   5  25
ATOM     25  O   UNL     1      12.134 -23.313  35.001  1.00  0.00    -0.507 OA
ATOM     26  H   UNL     1      12.120 -22.870  34.090  1.00  0.00     0.293 HD
ENDBRANCH   5  25
BRANCH   7  27
ATOM     27  O   UNL     1      10.006 -25.706  38.599  1.00  0.00    -0.507 OA
ATOM     28  H   UNL     1      10.003 -25.130  39.429  1.00  0.00     0.293 HD
ENDBRANCH   7  27
TORSDOF 7
ENDMDL
MODEL 6
REMARK VINA RESULT:    -7.974      5.630      7.482
REMARK INTER + INTRA:          -9.791
REMARK INTER:                  -9.731
REMARK INTRA:                  -0.060
REMARK UNBOUND:                 0.048
REMARK SMILES Oc1cc(O)c2cc(O)c(-c3cc(O)c(O)c(O)c3)[o+]c2c1
REMARK SMILES IDX 10 1 20 2 21 3 22 4 2 5 3 6 4 7 6 8 7 9 8 10 11 11 12 12
REMARK SMILES IDX 13 13 19 14 15 15 17 16 14 17 16 19 18 21 9 23 1 25 5 27
REMARK H PARENT 14 18 16 20 18 22 9 24 1 26 5 28
REMARK Flexibility Score: inf
ROOT
ATOM      1  C   UNL     1      10.966 -20.802  34.277  1.00  0.00     0.402 A 
ATOM      2  O   UNL     1      10.067 -19.887  33.924  1.00  0.00    -0.202 OA
ATOM      3  C   UNL     1      10.296 -18.956  33.003  1.00  0.00     0.368 A 
ATOM      4  C   UNL     1       9.287 -18.040  32.697  1.00  0.00     0.162 A 
ATOM      5  C   UNL     1       9.497 -17.055  31.732  1.00  0.00     0.128 A 
ATOM      6  C   UNL     1      10.726 -16.984  31.065  1.00  0.00     0.093 A 
ATOM      7  C   UNL     1      11.753 -17.892  31.352  1.00  0.00     0.136 A 
ATOM      8  C   UNL     1      11.543 -18.893  32.336  1.00  0.00     0.125 A 
ATOM      9  C   UNL     1      12.519 -19.835  32.698  1.00  0.00     0.078 A 
ATOM     10  C   UNL     1      12.240 -20.791  33.680  1.00  0.00     0.223 A 
ENDROOT
BRANCH   1  11
ATOM     11  C   UNL     1      10.588 -21.792  35.310  1.00  0.00     0.091 A 
ATOM     12  C   UNL     1       9.915 -21.363  36.465  1.00  0.00     0.068 A 
ATOM     13  C   UNL     1       9.529 -22.280  37.448  1.00  0.00     0.162 A 
ATOM     14  C   UNL     1      10.839 -23.164  35.135  1.00  0.00     0.068 A 
ATOM     15  C   UNL     1       9.800 -23.648  37.278  1.00  0.00     0.200 A 
ATOM     16  C   UNL     1      10.453 -24.090  36.115  1.00  0.00     0.162 A 
BRANCH  13  17
ATOM     17  O   UNL     1       8.875 -21.811  38.587  1.00  0.00    -0.504 OA
ATOM     18  H   UNL     1       7.968 -21.363  38.542  1.00  0.00     0.293 HD
ENDBRANCH  13  17
BRANCH  15  19
ATOM     19  O   UNL     1       9.413 -24.555  38.266  1.00  0.00    -0.502 OA
ATOM     20  H   UNL     1       9.886 -24.614  39.159  1.00  0.00     0.293 HD
ENDBRANCH  15  19
BRANCH  16  21
ATOM     21  O   UNL     1      10.712 -25.448  35.933  1.00  0.00    -0.504 OA
ATOM     22  H   UNL     1      11.610 -25.853  36.168  1.00  0.00     0.293 HD
ENDBRANCH  16  21
ENDBRANCH   1  11
BRANCH  10  23
ATOM     23  O   UNL     1      13.226 -21.695  34.075  1.00  0.00    -0.500 OA
ATOM     24  H   UNL     1      13.727 -21.589  34.950  1.00  0.00     0.294 HD
ENDBRANCH  10  23
BRANCH   5  25
ATOM     25  O   UNL     1       8.479 -16.149  31.442  1.00  0.00    -0.507 OA
ATOM     26  H   UNL     1       7.525 -16.310  31.745  1.00  0.00     0.293 HD
ENDBRANCH   5  25
BRANCH   7  27
ATOM     27  O   UNL     1      12.949 -17.756  30.641  1.00  0.00    -0.507 OA
ATOM     28  H   UNL     1      13.607 -17.002  30.770  1.00  0.00     0.293 HD
ENDBRANCH   7  27
TORSDOF 7
ENDMDL
MODEL 7
REMARK VINA RESULT:    -7.954      4.579      7.131
REMARK INTER + INTRA:          -9.766
REMARK INTER:                  -9.460
REMARK INTRA:                  -0.307
REMARK UNBOUND:                 0.048
REMARK SMILES Oc1cc(O)c2cc(O)c(-c3cc(O)c(O)c(O)c3)[o+]c2c1
REMARK SMILES IDX 10 1 20 2 21 3 22 4 2 5 3 6 4 7 6 8 7 9 8 10 11 11 12 12
REMARK SMILES IDX 13 13 19 14 15 15 17 16 14 17 16 19 18 21 9 23 1 25 5 27
REMARK H PARENT 14 18 16 20 18 22 9 24 1 26 5 28
REMARK Flexibility Score: inf
ROOT
ATOM      1  C   UNL     1      10.838 -22.491  34.983  1.00  0.00     0.402 A 
ATOM      2  O   UNL     1      10.205 -21.403  35.413  1.00  0.00    -0.202 OA
ATOM      3  C   UNL     1      10.574 -20.168  35.089  1.00  0.00     0.368 A 
ATOM      4  C   UNL     1       9.844 -19.087  35.589  1.00  0.00     0.162 A 
ATOM      5  C   UNL     1      10.207 -17.779  35.263  1.00  0.00     0.128 A 
ATOM      6  C   UNL     1      11.308 -17.549  34.430  1.00  0.00     0.093 A 
ATOM      7  C   UNL     1      12.057 -18.615  33.917  1.00  0.00     0.136 A 
ATOM      8  C   UNL     1      11.692 -19.946  34.248  1.00  0.00     0.125 A 
ATOM      9  C   UNL     1      12.391 -21.075  33.791  1.00  0.00     0.078 A 
ATOM     10  C   UNL     1      11.974 -22.357  34.164  1.00  0.00     0.223 A 
ENDROOT
BRANCH   1  11
ATOM     11  C   UNL     1      10.323 -23.813  35.405  1.00  0.00     0.091 A 
ATOM     12  C   UNL     1      11.008 -24.537  36.394  1.00  0.00     0.068 A 
ATOM     13  C   UNL     1      10.534 -25.779  36.826  1.00  0.00     0.162 A 
ATOM     14  C   UNL     1       9.130 -24.337  34.878  1.00  0.00     0.068 A 
ATOM     15  C   UNL     1       9.352 -26.309  36.282  1.00  0.00     0.200 A 
ATOM     16  C   UNL     1       8.647 -25.581  35.308  1.00  0.00     0.162 A 
BRANCH  13  17
ATOM     17  O   UNL     1      11.252 -26.473  37.800  1.00  0.00    -0.504 OA
ATOM     18  H   UNL     1      11.228 -27.483  37.870  1.00  0.00     0.293 HD
ENDBRANCH  13  17
BRANCH  15  19
ATOM     19  O   UNL     1       8.888 -27.551  36.717  1.00  0.00    -0.502 OA
ATOM     20  H   UNL     1       8.031 -27.650  37.249  1.00  0.00     0.293 HD
ENDBRANCH  15  19
BRANCH  16  21
ATOM     21  O   UNL     1       7.466 -26.093  34.773  1.00  0.00    -0.504 OA
ATOM     22  H   UNL     1       6.786 -25.496  34.317  1.00  0.00     0.293 HD
ENDBRANCH  16  21
ENDBRANCH   1  11
BRANCH  10  23
ATOM     23  O   UNL     1      12.698 -23.475  33.750  1.00  0.00    -0.500 OA
ATOM     24  H   UNL     1      12.915 -24.235  34.385  1.00  0.00     0.294 HD
ENDBRANCH  10  23
BRANCH   5  25
ATOM     25  O   UNL     1       9.466 -16.715  35.771  1.00  0.00    -0.507 OA
ATOM     26  H   UNL     1       8.593 -16.864  36.264  1.00  0.00     0.293 HD
ENDBRANCH   5  25
BRANCH   7  27
ATOM     27  O   UNL     1      13.140 -18.302  33.091  1.00  0.00    -0.507 OA
ATOM     28  H   UNL     1      13.196 -18.536  32.110  1.00  0.00     0.293 HD
ENDBRANCH   7  27
TORSDOF 7
ENDMDL
MODEL 8
REMARK VINA RESULT:    -7.860      4.076      6.582
REMARK INTER + INTRA:          -9.650
REMARK INTER:                  -9.798
REMARK INTRA:                   0.148
REMARK UNBOUND:                 0.048
REMARK SMILES Oc1cc(O)c2cc(O)c(-c3cc(O)c(O)c(O)c3)[o+]c2c1
REMARK SMILES IDX 10 1 20 2 21 3 22 4 2 5 3 6 4 7 6 8 7 9 8 10 11 11 12 12
REMARK SMILES IDX 13 13 19 14 15 15 17 16 14 17 16 19 18 21 9 23 1 25 5 27
REMARK H PARENT 14 18 16 20 18 22 9 24 1 26 5 28
REMARK Flexibility Score: inf
ROOT
ATOM      1  C   UNL     1       9.612 -22.322  35.109  1.00  0.00     0.402 A 
ATOM      2  O   UNL     1      10.013 -23.435  35.717  1.00  0.00    -0.202 OA
ATOM      3  C   UNL     1       9.185 -24.413  36.070  1.00  0.00     0.368 A 
ATOM      4  C   UNL     1       9.701 -25.546  36.702  1.00  0.00     0.162 A 
ATOM      5  C   UNL     1       8.856 -26.590  37.081  1.00  0.00     0.128 A 
ATOM      6  C   UNL     1       7.482 -26.501  36.826  1.00  0.00     0.093 A 
ATOM      7  C   UNL     1       6.940 -25.376  36.193  1.00  0.00     0.136 A 
ATOM      8  C   UNL     1       7.797 -24.312  35.809  1.00  0.00     0.125 A 
ATOM      9  C   UNL     1       7.340 -23.141  35.182  1.00  0.00     0.078 A 
ATOM     10  C   UNL     1       8.245 -22.132  34.836  1.00  0.00     0.223 A 
ENDROOT
BRANCH   1  11
ATOM     11  C   UNL     1      10.634 -21.310  34.757  1.00  0.00     0.091 A 
ATOM     12  C   UNL     1      11.893 -21.730  34.300  1.00  0.00     0.068 A 
ATOM     13  C   UNL     1      12.870 -20.796  33.942  1.00  0.00     0.162 A 
ATOM     14  C   UNL     1      10.352 -19.934  34.816  1.00  0.00     0.068 A 
ATOM     15  C   UNL     1      12.592 -19.421  34.023  1.00  0.00     0.200 A 
ATOM     16  C   UNL     1      11.326 -18.992  34.457  1.00  0.00     0.162 A 
BRANCH  13  17
ATOM     17  O   UNL     1      14.114 -21.254  33.507  1.00  0.00    -0.504 OA
ATOM     18  H   UNL     1      14.969 -21.052  34.010  1.00  0.00     0.293 HD
ENDBRANCH  13  17
BRANCH  15  19
ATOM     19  O   UNL     1      13.574 -18.496  33.666  1.00  0.00    -0.502 OA
ATOM     20  H   UNL     1      14.184 -18.066  34.351  1.00  0.00     0.293 HD
ENDBRANCH  15  19
BRANCH  16  21
ATOM     21  O   UNL     1      11.037 -17.629  34.525  1.00  0.00    -0.504 OA
ATOM     22  H   UNL     1      11.771 -16.931  34.540  1.00  0.00     0.293 HD
ENDBRANCH  16  21
ENDBRANCH   1  11
BRANCH  10  23
ATOM     23  O   UNL     1       7.785 -20.948  34.259  1.00  0.00    -0.500 OA
ATOM     24  H   UNL     1       8.228 -20.056  34.447  1.00  0.00     0.294 HD
ENDBRANCH  10  23
BRANCH   5  25
ATOM     25  O   UNL     1       9.390 -27.712  37.711  1.00  0.00    -0.507 OA
ATOM     26  H   UNL     1       8.802 -28.366  38.214  1.00  0.00     0.293 HD
ENDBRANCH   5  25
BRANCH   7  27
ATOM     27  O   UNL     1       5.560 -25.365  35.971  1.00  0.00    -0.507 OA
ATOM     28  H   UNL     1       5.047 -24.577  35.603  1.00  0.00     0.293 HD
ENDBRANCH   7  27
TORSDOF 7
ENDMDL
MODEL 9
REMARK VINA RESULT:    -7.741      5.741      8.483
REMARK INTER + INTRA:          -9.503
REMARK INTER:                  -9.120
REMARK INTRA:                  -0.383
REMARK UNBOUND:                 0.048
REMARK SMILES Oc1cc(O)c2cc(O)c(-c3cc(O)c(O)c(O)c3)[o+]c2c1
REMARK SMILES IDX 10 1 20 2 21 3 22 4 2 5 3 6 4 7 6 8 7 9 8 10 11 11 12 12
REMARK SMILES IDX 13 13 19 14 15 15 17 16 14 17 16 19 18 21 9 23 1 25 5 27
REMARK H PARENT 14 18 16 20 18 22 9 24 1 26 5 28
REMARK Flexibility Score: inf
ROOT
ATOM      1  C   UNL     1      11.261 -20.916  34.421  1.00  0.00     0.402 A 
ATOM      2  O   UNL     1      10.117 -20.811  35.094  1.00  0.00    -0.202 OA
ATOM      3  C   UNL     1       9.563 -21.823  35.753  1.00  0.00     0.368 A 
ATOM      4  C   UNL     1       8.360 -21.614  36.433  1.00  0.00     0.162 A 
ATOM      5  C   UNL     1       7.758 -22.657  37.137  1.00  0.00     0.128 A 
ATOM      6  C   UNL     1       8.360 -23.920  37.163  1.00  0.00     0.093 A 
ATOM      7  C   UNL     1       9.566 -24.155  36.490  1.00  0.00     0.136 A 
ATOM      8  C   UNL     1      10.180 -23.097  35.771  1.00  0.00     0.125 A 
ATOM      9  C   UNL     1      11.380 -23.244  35.057  1.00  0.00     0.078 A 
ATOM     10  C   UNL     1      11.924 -22.156  34.368  1.00  0.00     0.223 A 
ENDROOT
BRANCH   1  11
ATOM     11  C   UNL     1      11.782 -19.713  33.734  1.00  0.00     0.091 A 
ATOM     12  C   UNL     1      11.271 -19.361  32.475  1.00  0.00     0.068 A 
ATOM     13  C   UNL     1      11.731 -18.219  31.812  1.00  0.00     0.162 A 
ATOM     14  C   UNL     1      12.739 -18.882  34.340  1.00  0.00     0.068 A 
ATOM     15  C   UNL     1      12.703 -17.401  32.412  1.00  0.00     0.200 A 
ATOM     16  C   UNL     1      13.204 -17.734  33.683  1.00  0.00     0.162 A 
BRANCH  13  17
ATOM     17  O   UNL     1      11.208 -17.912  30.556  1.00  0.00    -0.504 OA
ATOM     18  H   UNL     1      11.615 -17.200  29.962  1.00  0.00     0.293 HD
ENDBRANCH  13  17
BRANCH  15  19
ATOM     19  O   UNL     1      13.158 -16.266  31.742  1.00  0.00    -0.502 OA
ATOM     20  H   UNL     1      13.166 -16.202  30.731  1.00  0.00     0.293 HD
ENDBRANCH  15  19
BRANCH  16  21
ATOM     21  O   UNL     1      14.159 -16.920  34.291  1.00  0.00    -0.504 OA
ATOM     22  H   UNL     1      15.078 -17.269  34.535  1.00  0.00     0.293 HD
ENDBRANCH  16  21
ENDBRANCH   1  11
BRANCH  10  23
ATOM     23  O   UNL     1      13.090 -22.315  33.618  1.00  0.00    -0.500 OA
ATOM     24  H   UNL     1      13.307 -23.186  33.148  1.00  0.00     0.294 HD
ENDBRANCH  10  23
BRANCH   5  25
ATOM     25  O   UNL     1       6.558 -22.429  37.808  1.00  0.00    -0.507 OA
ATOM     26  H   UNL     1       5.687 -22.834  37.488  1.00  0.00     0.293 HD
ENDBRANCH   5  25
BRANCH   7  27
ATOM     27  O   UNL     1      10.105 -25.443  36.567  1.00  0.00    -0.507 OA
ATOM     28  H   UNL     1       9.971 -26.071  37.346  1.00  0.00     0.293 HD
ENDBRANCH   7  27
TORSDOF 7
ENDMDL
