MODEL 1
REMARK VINA RESULT:    -3.037      0.000      0.000
REMARK INTER + INTRA:          -3.125
REMARK INTER:                  -3.125
REMARK INTRA:                   0.000
REMARK UNBOUND:                 0.000
REMARK SMILES Nc1ncnc2nc[nH]c12
REMARK SMILES IDX 8 1 7 2 6 3 5 4 4 5 3 6 2 7 10 8 9 9 1 11
REMARK H PARENT 9 10 1 12 1 13
REMARK Flexibility Score: inf
ROOT
ATOM      1  C   UNL     1       2.568  41.125  62.855  1.00  0.00     0.199 A 
ATOM      2  N   UNL     1       2.184  41.123  64.161  1.00  0.00    -0.217 NA
ATOM      3  C   UNL     1       3.318  40.773  64.791  1.00  0.00     0.182 A 
ATOM      4  N   UNL     1       3.486  40.623  66.127  1.00  0.00    -0.215 NA
ATOM      5  C   UNL     1       4.723  40.259  66.583  1.00  0.00     0.226 A 
ATOM      6  N   UNL     1       5.758  40.056  65.706  1.00  0.00    -0.217 NA
ATOM      7  C   UNL     1       5.589  40.208  64.358  1.00  0.00     0.152 A 
ATOM      8  C   UNL     1       4.325  40.577  63.910  1.00  0.00     0.127 A 
ATOM      9  N   UNL     1       3.871  40.795  62.669  1.00  0.00    -0.340 N 
ATOM     10  H   UNL     1       4.387  40.731  61.764  1.00  0.00     0.168 HD
ENDROOT
BRANCH   7  11
ATOM     11  N   UNL     1       6.681  39.990  63.464  1.00  0.00    -0.382 N 
ATOM     12  H   UNL     1       6.515  39.962  62.434  1.00  0.00     0.158 HD
ATOM     13  H   UNL     1       7.654  39.855  63.816  1.00  0.00     0.158 HD
ENDBRANCH   7  11
TORSDOF 1
ENDMDL
MODEL 2
REMARK VINA RESULT:    -2.624      0.896      2.432
REMARK INTER + INTRA:          -2.701
REMARK INTER:                  -2.701
REMARK INTRA:                   0.000
REMARK UNBOUND:                 0.000
REMARK SMILES Nc1ncnc2nc[nH]c12
REMARK SMILES IDX 8 1 7 2 6 3 5 4 4 5 3 6 2 7 10 8 9 9 1 11
REMARK H PARENT 9 10 1 12 1 13
REMARK Flexibility Score: inf
ROOT
ATOM      1  C   UNL     1       2.171  41.119  63.697  1.00  0.00     0.199 A 
ATOM      2  N   UNL     1       3.253  41.115  62.871  1.00  0.00    -0.217 NA
ATOM      3  C   UNL     1       4.261  40.859  63.723  1.00  0.00     0.182 A 
ATOM      4  N   UNL     1       5.575  40.748  63.410  1.00  0.00    -0.215 NA
ATOM      5  C   UNL     1       6.457  40.483  64.419  1.00  0.00     0.226 A 
ATOM      6  N   UNL     1       6.016  40.335  65.710  1.00  0.00    -0.217 NA
ATOM      7  C   UNL     1       4.692  40.447  66.027  1.00  0.00     0.152 A 
ATOM      8  C   UNL     1       3.806  40.717  64.988  1.00  0.00     0.127 A 
ATOM      9  N   UNL     1       2.477  40.879  64.998  1.00  0.00    -0.340 N 
ATOM     10  H   UNL     1       1.819  40.833  65.807  1.00  0.00     0.168 HD
ENDROOT
BRANCH   7  11
ATOM     11  N   UNL     1       4.256  40.290  67.378  1.00  0.00    -0.382 N 
ATOM     12  H   UNL     1       4.174  41.124  68.001  1.00  0.00     0.158 HD
ATOM     13  H   UNL     1       4.015  39.352  67.766  1.00  0.00     0.158 HD
ENDBRANCH   7  11
TORSDOF 1
ENDMDL
MODEL 3
REMARK VINA RESULT:    -2.265      1.568      3.698
REMARK INTER + INTRA:          -2.331
REMARK INTER:                  -2.331
REMARK INTRA:                   0.000
REMARK UNBOUND:                 0.000
REMARK SMILES Nc1ncnc2nc[nH]c12
REMARK SMILES IDX 8 1 7 2 6 3 5 4 4 5 3 6 2 7 10 8 9 9 1 11
REMARK H PARENT 9 10 1 12 1 13
REMARK Flexibility Score: inf
ROOT
ATOM      1  C   UNL     1       4.639  40.782  64.067  1.00  0.00     0.199 A 
ATOM      2  N   UNL     1       3.715  40.842  65.065  1.00  0.00    -0.217 NA
ATOM      3  C   UNL     1       2.562  40.940  64.381  1.00  0.00     0.182 A 
ATOM      4  N   UNL     1       1.317  41.031  64.906  1.00  0.00    -0.215 NA
ATOM      5  C   UNL     1       0.260  41.125  64.044  1.00  0.00     0.226 A 
ATOM      6  N   UNL     1       0.464  41.125  62.687  1.00  0.00    -0.217 NA
ATOM      7  C   UNL     1       1.721  41.033  62.156  1.00  0.00     0.152 A 
ATOM      8  C   UNL     1       2.786  40.939  63.047  1.00  0.00     0.127 A 
ATOM      9  N   UNL     1       4.102  40.839  62.822  1.00  0.00    -0.340 N 
ATOM     10  H   UNL     1       4.608  40.811  61.910  1.00  0.00     0.168 HD
ENDROOT
BRANCH   7  11
ATOM     11  N   UNL     1       1.909  41.035  60.740  1.00  0.00    -0.382 N 
ATOM     12  H   UNL     1       1.744  40.164  60.190  1.00  0.00     0.158 HD
ATOM     13  H   UNL     1       2.213  41.896  60.234  1.00  0.00     0.158 HD
ENDBRANCH   7  11
TORSDOF 1
ENDMDL
MODEL 4
REMARK VINA RESULT:    -2.133      1.189      2.997
REMARK INTER + INTRA:          -2.196
REMARK INTER:                  -2.196
REMARK INTRA:                   0.000
REMARK UNBOUND:                 0.000
REMARK SMILES Nc1ncnc2nc[nH]c12
REMARK SMILES IDX 8 1 7 2 6 3 5 4 4 5 3 6 2 7 10 8 9 9 1 11
REMARK H PARENT 9 10 1 12 1 13
REMARK Flexibility Score: inf
ROOT
ATOM      1  C   UNL     1       7.219  40.996  63.865  1.00  0.00     0.199 A 
ATOM      2  N   UNL     1       6.944  40.659  65.154  1.00  0.00    -0.217 NA
ATOM      3  C   UNL     1       5.602  40.578  65.148  1.00  0.00     0.182 A 
ATOM      4  N   UNL     1       4.806  40.268  66.199  1.00  0.00    -0.215 NA
ATOM      5  C   UNL     1       3.454  40.235  65.997  1.00  0.00     0.226 A 
ATOM      6  N   UNL     1       2.928  40.508  64.760  1.00  0.00    -0.217 NA
ATOM      7  C   UNL     1       3.730  40.821  63.698  1.00  0.00     0.152 A 
ATOM      8  C   UNL     1       5.103  40.851  63.920  1.00  0.00     0.127 A 
ATOM      9  N   UNL     1       6.115  41.121  63.085  1.00  0.00    -0.340 N 
ATOM     10  H   UNL     1       6.076  41.370  62.072  1.00  0.00     0.168 HD
ENDROOT
BRANCH   7  11
ATOM     11  N   UNL     1       3.159  41.103  62.419  1.00  0.00    -0.382 N 
ATOM     12  H   UNL     1       2.135  40.974  62.265  1.00  0.00     0.158 HD
ATOM     13  H   UNL     1       3.746  41.439  61.624  1.00  0.00     0.158 HD
ENDBRANCH   7  11
TORSDOF 1
ENDMDL
MODEL 5
REMARK VINA RESULT:    -1.917      1.121      3.412
REMARK INTER + INTRA:          -1.973
REMARK INTER:                  -1.973
REMARK INTRA:                   0.000
REMARK UNBOUND:                 0.000
REMARK SMILES Nc1ncnc2nc[nH]c12
REMARK SMILES IDX 8 1 7 2 6 3 5 4 4 5 3 6 2 7 10 8 9 9 1 11
REMARK H PARENT 9 10 1 12 1 13
REMARK Flexibility Score: inf
ROOT
ATOM      1  C   UNL     1       7.170  40.879  64.196  1.00  0.00     0.199 A 
ATOM      2  N   UNL     1       6.302  41.094  63.170  1.00  0.00    -0.217 NA
ATOM      3  C   UNL     1       5.109  40.991  63.780  1.00  0.00     0.182 A 
ATOM      4  N   UNL     1       3.891  41.124  63.201  1.00  0.00    -0.215 NA
ATOM      5  C   UNL     1       2.783  40.984  63.991  1.00  0.00     0.226 A 
ATOM      6  N   UNL     1       2.912  40.718  65.330  1.00  0.00    -0.217 NA
ATOM      7  C   UNL     1       4.139  40.584  65.916  1.00  0.00     0.152 A 
ATOM      8  C   UNL     1       5.257  40.729  65.099  1.00  0.00     0.127 A 
ATOM      9  N   UNL     1       6.562  40.652  65.388  1.00  0.00    -0.340 N 
ATOM     10  H   UNL     1       7.017  40.463  66.308  1.00  0.00     0.168 HD
ENDROOT
BRANCH   7  11
ATOM     11  N   UNL     1       4.248  40.306  67.313  1.00  0.00    -0.382 N 
ATOM     12  H   UNL     1       3.417  40.421  67.934  1.00  0.00     0.158 HD
ATOM     13  H   UNL     1       5.148  39.988  67.735  1.00  0.00     0.158 HD
ENDBRANCH   7  11
TORSDOF 1
ENDMDL
MODEL 6
REMARK VINA RESULT:    -1.906      1.707      4.505
REMARK INTER + INTRA:          -1.962
REMARK INTER:                  -1.962
REMARK INTRA:                   0.000
REMARK UNBOUND:                 0.000
REMARK SMILES Nc1ncnc2nc[nH]c12
REMARK SMILES IDX 8 1 7 2 6 3 5 4 4 5 3 6 2 7 10 8 9 9 1 11
REMARK H PARENT 9 10 1 12 1 13
REMARK Flexibility Score: inf
ROOT
ATOM      1  C   UNL     1       4.202  41.097  64.593  1.00  0.00     0.199 A 
ATOM      2  N   UNL     1       4.373  41.109  63.243  1.00  0.00    -0.217 NA
ATOM      3  C   UNL     1       3.106  41.113  62.795  1.00  0.00     0.182 A 
ATOM      4  N   UNL     1       2.707  41.124  61.500  1.00  0.00    -0.215 NA
ATOM      5  C   UNL     1       1.365  41.125  61.240  1.00  0.00     0.226 A 
ATOM      6  N   UNL     1       0.456  41.116  62.267  1.00  0.00    -0.217 NA
ATOM      7  C   UNL     1       0.857  41.105  63.574  1.00  0.00     0.152 A 
ATOM      8  C   UNL     1       2.226  41.103  63.822  1.00  0.00     0.127 A 
ATOM      9  N   UNL     1       2.901  41.093  64.979  1.00  0.00    -0.340 N 
ATOM     10  H   UNL     1       2.526  41.084  65.953  1.00  0.00     0.168 HD
ENDROOT
BRANCH   7  11
ATOM     11  N   UNL     1      -0.108  41.094  64.627  1.00  0.00    -0.382 N 
ATOM     12  H   UNL     1      -0.335  41.977  65.136  1.00  0.00     0.158 HD
ATOM     13  H   UNL     1      -0.599  40.217  64.905  1.00  0.00     0.158 HD
ENDBRANCH   7  11
TORSDOF 1
ENDMDL
MODEL 7
REMARK VINA RESULT:    -1.662     17.036     18.346
REMARK INTER + INTRA:          -1.710
REMARK INTER:                  -1.710
REMARK INTRA:                   0.000
REMARK UNBOUND:                 0.000
REMARK SMILES Nc1ncnc2nc[nH]c12
REMARK SMILES IDX 8 1 7 2 6 3 5 4 4 5 3 6 2 7 10 8 9 9 1 11
REMARK H PARENT 9 10 1 12 1 13
REMARK Flexibility Score: inf
ROOT
ATOM      1  C   UNL     1      17.752  32.201  74.062  1.00  0.00     0.199 A 
ATOM      2  N   UNL     1      16.408  32.410  74.028  1.00  0.00    -0.217 NA
ATOM      3  C   UNL     1      15.947  31.231  73.577  1.00  0.00     0.182 A 
ATOM      4  N   UNL     1      14.651  30.901  73.357  1.00  0.00    -0.215 NA
ATOM      5  C   UNL     1      14.377  29.644  72.894  1.00  0.00     0.226 A 
ATOM      6  N   UNL     1      15.390  28.750  72.662  1.00  0.00    -0.217 NA
ATOM      7  C   UNL     1      16.698  29.081  72.884  1.00  0.00     0.152 A 
ATOM      8  C   UNL     1      16.961  30.364  73.354  1.00  0.00     0.127 A 
ATOM      9  N   UNL     1      18.122  30.960  73.656  1.00  0.00    -0.340 N 
ATOM     10  H   UNL     1      19.089  30.572  73.597  1.00  0.00     0.168 HD
ENDROOT
BRANCH   7  11
ATOM     11  N   UNL     1      17.737  28.134  72.634  1.00  0.00    -0.382 N 
ATOM     12  H   UNL     1      17.608  27.398  71.904  1.00  0.00     0.158 HD
ATOM     13  H   UNL     1      18.632  28.155  73.169  1.00  0.00     0.158 HD
ENDBRANCH   7  11
TORSDOF 1
ENDMDL
MODEL 8
REMARK VINA RESULT:    -1.502      0.710      2.856
REMARK INTER + INTRA:          -1.546
REMARK INTER:                  -1.546
REMARK INTRA:                   0.000
REMARK UNBOUND:                 0.000
REMARK SMILES Nc1ncnc2nc[nH]c12
REMARK SMILES IDX 8 1 7 2 6 3 5 4 4 5 3 6 2 7 10 8 9 9 1 11
REMARK H PARENT 9 10 1 12 1 13
REMARK Flexibility Score: inf
ROOT
ATOM      1  C   UNL     1       4.714  40.313  67.312  1.00  0.00     0.199 A 
ATOM      2  N   UNL     1       3.483  40.714  66.890  1.00  0.00    -0.217 NA
ATOM      3  C   UNL     1       3.638  40.756  65.556  1.00  0.00     0.182 A 
ATOM      4  N   UNL     1       2.698  41.102  64.644  1.00  0.00    -0.215 NA
ATOM      5  C   UNL     1       3.047  41.086  63.322  1.00  0.00     0.226 A 
ATOM      6  N   UNL     1       4.314  40.727  62.939  1.00  0.00    -0.217 NA
ATOM      7  C   UNL     1       5.263  40.377  63.859  1.00  0.00     0.152 A 
ATOM      8  C   UNL     1       4.894  40.400  65.200  1.00  0.00     0.127 A 
ATOM      9  N   UNL     1       5.598  40.113  66.302  1.00  0.00    -0.340 N 
ATOM     10  H   UNL     1       6.593  39.807  66.380  1.00  0.00     0.168 HD
ENDROOT
BRANCH   7  11
ATOM     11  N   UNL     1       6.577  40.008  63.437  1.00  0.00    -0.382 N 
ATOM     12  H   UNL     1       6.761  39.041  63.089  1.00  0.00     0.158 HD
ATOM     13  H   UNL     1       7.369  40.687  63.468  1.00  0.00     0.158 HD
ENDBRANCH   7  11
TORSDOF 1
ENDMDL
MODEL 9
REMARK VINA RESULT:    -1.494     17.317     18.473
REMARK INTER + INTRA:          -1.538
REMARK INTER:                  -1.538
REMARK INTRA:                   0.000
REMARK UNBOUND:                 0.000
REMARK SMILES Nc1ncnc2nc[nH]c12
REMARK SMILES IDX 8 1 7 2 6 3 5 4 4 5 3 6 2 7 10 8 9 9 1 11
REMARK H PARENT 9 10 1 12 1 13
REMARK Flexibility Score: inf
ROOT
ATOM      1  C   UNL     1      17.067  32.602  74.009  1.00  0.00     0.199 A 
ATOM      2  N   UNL     1      18.124  31.779  73.764  1.00  0.00    -0.217 NA
ATOM      3  C   UNL     1      17.518  30.653  73.348  1.00  0.00     0.182 A 
ATOM      4  N   UNL     1      18.125  29.502  72.971  1.00  0.00    -0.215 NA
ATOM      5  C   UNL     1      17.335  28.458  72.576  1.00  0.00     0.226 A 
ATOM      6  N   UNL     1      15.969  28.582  72.564  1.00  0.00    -0.217 NA
ATOM      7  C   UNL     1      15.356  29.744  72.944  1.00  0.00     0.152 A 
ATOM      8  C   UNL     1      16.173  30.797  73.344  1.00  0.00     0.127 A 
ATOM      9  N   UNL     1      15.862  32.030  73.761  1.00  0.00    -0.340 N 
ATOM     10  H   UNL     1      14.918  32.462  73.874  1.00  0.00     0.168 HD
ENDROOT
BRANCH   7  11
ATOM     11  N   UNL     1      13.932  29.850  72.924  1.00  0.00    -0.382 N 
ATOM     12  H   UNL     1      13.370  29.217  72.313  1.00  0.00     0.158 HD
ATOM     13  H   UNL     1      13.431  30.552  73.511  1.00  0.00     0.158 HD
ENDBRANCH   7  11
TORSDOF 1
ENDMDL
