MODEL 1
REMARK VINA RESULT:    -4.340      0.000      0.000
REMARK INTER + INTRA:          -8.564
REMARK INTER:                  -7.638
REMARK INTRA:                  -0.926
REMARK UNBOUND:                -0.926
REMARK SMILES CCCCCCCCCCCCCCC(=O)[O-]
REMARK SMILES IDX 9 1 10 2 11 3 12 4 13 5 14 6 15 7 16 8 17 9 8 10 7 11 6 12
REMARK SMILES IDX 5 13 4 14 3 15 2 16 1 17
REMARK H PARENT
REMARK Flexibility Score: inf
ROOT
ATOM      1  C   UNL     1      17.294 130.606  58.625  1.00  0.00     0.000 C 
ENDROOT
BRANCH   1   2
ATOM      2  C   UNL     1      18.385 129.992  57.732  1.00  0.00     0.000 C 
BRANCH   2   3
ATOM      3  C   UNL     1      17.805 129.180  56.565  1.00  0.00     0.000 C 
BRANCH   3   4
ATOM      4  C   UNL     1      16.548 128.414  57.001  1.00  0.00     0.000 C 
BRANCH   4   5
ATOM      5  C   UNL     1      15.804 127.765  55.819  1.00  0.00     0.006 C 
BRANCH   5   6
ATOM      6  C   UNL     1      16.685 127.489  54.590  1.00  0.00     0.053 C 
BRANCH   6   7
ATOM      7  C   UNL     1      16.067 128.007  53.328  1.00  0.00     0.041 C 
ATOM      8  O   UNL     1      16.727 128.015  52.255  1.00  0.00    -0.550 OA
ATOM      9  O   UNL     1      14.774 128.514  53.342  1.00  0.00    -0.550 OA
ENDBRANCH   6   7
ENDBRANCH   5   6
ENDBRANCH   4   5
ENDBRANCH   3   4
ENDBRANCH   2   3
ENDBRANCH   1   2
BRANCH   1  10
ATOM     10  C   UNL     1      17.496 130.276  60.115  1.00  0.00     0.000 C 
BRANCH  10  11
ATOM     11  C   UNL     1      18.903 129.736  60.415  1.00  0.00    -0.000 C 
BRANCH  11  12
ATOM     12  C   UNL     1      18.968 128.957  61.737  1.00  0.00    -0.000 C 
BRANCH  12  13
ATOM     13  C   UNL     1      17.605 128.952  62.439  1.00  0.00    -0.000 C 
BRANCH  13  14
ATOM     14  C   UNL     1      17.204 127.527  62.851  1.00  0.00    -0.000 C 
BRANCH  14  15
ATOM     15  C   UNL     1      18.417 126.630  63.138  1.00  0.00    -0.000 C 
BRANCH  15  16
ATOM     16  C   UNL     1      18.190 125.174  62.707  1.00  0.00    -0.003 C 
ATOM     17  C   UNL     1      19.518 124.444  62.515  1.00  0.00     0.004 C 
ENDBRANCH  15  16
ENDBRANCH  14  15
ENDBRANCH  13  14
ENDBRANCH  12  13
ENDBRANCH  11  12
ENDBRANCH  10  11
ENDBRANCH   1  10
TORSDOF 13
ENDMDL
MODEL 2
REMARK VINA RESULT:    -4.154      4.279      6.302
REMARK INTER + INTRA:          -8.237
REMARK INTER:                  -6.434
REMARK INTRA:                  -1.803
REMARK UNBOUND:                -0.926
REMARK SMILES CCCCCCCCCCCCCCC(=O)[O-]
REMARK SMILES IDX 9 1 10 2 11 3 12 4 13 5 14 6 15 7 16 8 17 9 8 10 7 11 6 12
REMARK SMILES IDX 5 13 4 14 3 15 2 16 1 17
REMARK H PARENT
REMARK Flexibility Score: inf
ROOT
ATOM      1  C   UNL     1      14.999 128.981  53.613  1.00  0.00     0.000 C 
ENDROOT
BRANCH   1   2
ATOM      2  C   UNL     1      15.432 130.391  53.178  1.00  0.00     0.000 C 
BRANCH   2   3
ATOM      3  C   UNL     1      16.852 130.419  52.594  1.00  0.00     0.000 C 
BRANCH   3   4
ATOM      4  C   UNL     1      16.928 131.358  51.381  1.00  0.00     0.000 C 
BRANCH   4   5
ATOM      5  C   UNL     1      16.572 130.656  50.058  1.00  0.00     0.006 C 
BRANCH   5   6
ATOM      6  C   UNL     1      17.029 129.190  49.975  1.00  0.00     0.053 C 
BRANCH   6   7
ATOM      7  C   UNL     1      16.828 128.615  48.607  1.00  0.00     0.041 C 
ATOM      8  O   UNL     1      15.762 128.838  47.976  1.00  0.00    -0.550 OA
ATOM      9  O   UNL     1      17.805 127.805  48.042  1.00  0.00    -0.550 OA
ENDBRANCH   6   7
ENDBRANCH   5   6
ENDBRANCH   4   5
ENDBRANCH   3   4
ENDBRANCH   2   3
ENDBRANCH   1   2
BRANCH   1  10
ATOM     10  C   UNL     1      16.135 127.950  53.490  1.00  0.00     0.000 C 
BRANCH  10  11
ATOM     11  C   UNL     1      16.617 127.437  54.856  1.00  0.00    -0.000 C 
BRANCH  11  12
ATOM     12  C   UNL     1      15.742 127.934  56.016  1.00  0.00    -0.000 C 
BRANCH  12  13
ATOM     13  C   UNL     1      16.600 128.547  57.129  1.00  0.00    -0.000 C 
BRANCH  13  14
ATOM     14  C   UNL     1      16.995 129.992  56.787  1.00  0.00    -0.000 C 
BRANCH  14  15
ATOM     15  C   UNL     1      18.512 130.223  56.851  1.00  0.00    -0.000 C 
BRANCH  15  16
ATOM     16  C   UNL     1      19.200 130.014  55.494  1.00  0.00    -0.003 C 
ATOM     17  C   UNL     1      20.248 128.906  55.574  1.00  0.00     0.004 C 
ENDBRANCH  15  16
ENDBRANCH  14  15
ENDBRANCH  13  14
ENDBRANCH  12  13
ENDBRANCH  11  12
ENDBRANCH  10  11
ENDBRANCH   1  10
TORSDOF 13
ENDMDL
MODEL 3
REMARK VINA RESULT:    -4.109      5.020      7.250
REMARK INTER + INTRA:          -8.158
REMARK INTER:                  -6.279
REMARK INTRA:                  -1.879
REMARK UNBOUND:                -0.926
REMARK SMILES CCCCCCCCCCCCCCC(=O)[O-]
REMARK SMILES IDX 9 1 10 2 11 3 12 4 13 5 14 6 15 7 16 8 17 9 8 10 7 11 6 12
REMARK SMILES IDX 5 13 4 14 3 15 2 16 1 17
REMARK H PARENT
REMARK Flexibility Score: inf
ROOT
ATOM      1  C   UNL     1      15.906 128.314  54.216  1.00  0.00     0.000 C 
ENDROOT
BRANCH   1   2
ATOM      2  C   UNL     1      16.425 127.899  52.829  1.00  0.00     0.000 C 
BRANCH   2   3
ATOM      3  C   UNL     1      17.196 129.024  52.126  1.00  0.00     0.000 C 
BRANCH   3   4
ATOM      4  C   UNL     1      16.237 129.959  51.373  1.00  0.00     0.000 C 
BRANCH   4   5
ATOM      5  C   UNL     1      16.869 130.573  50.110  1.00  0.00     0.006 C 
BRANCH   5   6
ATOM      6  C   UNL     1      16.788 129.678  48.862  1.00  0.00     0.053 C 
BRANCH   6   7
ATOM      7  C   UNL     1      18.137 129.422  48.265  1.00  0.00     0.041 C 
ATOM      8  O   UNL     1      18.522 130.079  47.262  1.00  0.00    -0.550 OA
ATOM      9  O   UNL     1      18.958 128.435  48.796  1.00  0.00    -0.550 OA
ENDBRANCH   6   7
ENDBRANCH   5   6
ENDBRANCH   4   5
ENDBRANCH   3   4
ENDBRANCH   2   3
ENDBRANCH   1   2
BRANCH   1  10
ATOM     10  C   UNL     1      16.777 127.766  55.361  1.00  0.00     0.000 C 
BRANCH  10  11
ATOM     11  C   UNL     1      17.736 128.823  55.930  1.00  0.00    -0.000 C 
BRANCH  11  12
ATOM     12  C   UNL     1      19.123 128.777  55.273  1.00  0.00    -0.000 C 
BRANCH  12  13
ATOM     13  C   UNL     1      19.930 130.039  55.603  1.00  0.00    -0.000 C 
BRANCH  13  14
ATOM     14  C   UNL     1      19.063 131.299  55.463  1.00  0.00    -0.000 C 
BRANCH  14  15
ATOM     15  C   UNL     1      19.206 131.966  54.086  1.00  0.00    -0.000 C 
BRANCH  15  16
ATOM     16  C   UNL     1      17.864 132.461  53.528  1.00  0.00    -0.003 C 
ATOM     17  C   UNL     1      16.703 132.022  54.416  1.00  0.00     0.004 C 
ENDBRANCH  15  16
ENDBRANCH  14  15
ENDBRANCH  13  14
ENDBRANCH  12  13
ENDBRANCH  11  12
ENDBRANCH  10  11
ENDBRANCH   1  10
TORSDOF 13
ENDMDL
MODEL 4
REMARK VINA RESULT:    -4.046      2.277      3.587
REMARK INTER + INTRA:          -8.046
REMARK INTER:                  -6.130
REMARK INTRA:                  -1.917
REMARK UNBOUND:                -0.926
REMARK SMILES CCCCCCCCCCCCCCC(=O)[O-]
REMARK SMILES IDX 9 1 10 2 11 3 12 4 13 5 14 6 15 7 16 8 17 9 8 10 7 11 6 12
REMARK SMILES IDX 5 13 4 14 3 15 2 16 1 17
REMARK H PARENT
REMARK Flexibility Score: inf
ROOT
ATOM      1  C   UNL     1      15.660 129.973  62.046  1.00  0.00     0.000 C 
ENDROOT
BRANCH   1   2
ATOM      2  C   UNL     1      15.227 128.639  61.415  1.00  0.00     0.000 C 
BRANCH   2   3
ATOM      3  C   UNL     1      14.331 128.831  60.184  1.00  0.00     0.000 C 
BRANCH   3   4
ATOM      4  C   UNL     1      14.949 128.165  58.946  1.00  0.00     0.000 C 
BRANCH   4   5
ATOM      5  C   UNL     1      15.496 129.184  57.929  1.00  0.00     0.006 C 
BRANCH   5   6
ATOM      6  C   UNL     1      16.901 128.857  57.396  1.00  0.00     0.053 C 
BRANCH   6   7
ATOM      7  C   UNL     1      16.857 128.281  56.015  1.00  0.00     0.041 C 
ATOM      8  O   UNL     1      17.810 128.479  55.215  1.00  0.00    -0.550 OA
ATOM      9  O   UNL     1      15.750 127.554  55.598  1.00  0.00    -0.550 OA
ENDBRANCH   6   7
ENDBRANCH   5   6
ENDBRANCH   4   5
ENDBRANCH   3   4
ENDBRANCH   2   3
ENDBRANCH   1   2
BRANCH   1  10
ATOM     10  C   UNL     1      16.990 130.493  61.472  1.00  0.00     0.000 C 
BRANCH  10  11
ATOM     11  C   UNL     1      17.941 129.358  61.062  1.00  0.00    -0.000 C 
BRANCH  11  12
ATOM     12  C   UNL     1      18.879 128.932  62.202  1.00  0.00    -0.000 C 
BRANCH  12  13
ATOM     13  C   UNL     1      18.475 127.563  62.762  1.00  0.00    -0.000 C 
BRANCH  13  14
ATOM     14  C   UNL     1      18.179 127.650  64.267  1.00  0.00    -0.000 C 
BRANCH  14  15
ATOM     15  C   UNL     1      18.416 129.057  64.837  1.00  0.00    -0.000 C 
BRANCH  15  16
ATOM     16  C   UNL     1      17.162 129.644  65.500  1.00  0.00    -0.003 C 
ATOM     17  C   UNL     1      17.044 131.141  65.224  1.00  0.00     0.004 C 
ENDBRANCH  15  16
ENDBRANCH  14  15
ENDBRANCH  13  14
ENDBRANCH  12  13
ENDBRANCH  11  12
ENDBRANCH  10  11
ENDBRANCH   1  10
TORSDOF 13
ENDMDL
MODEL 5
REMARK VINA RESULT:    -4.022      4.030      7.253
REMARK INTER + INTRA:          -8.004
REMARK INTER:                  -5.943
REMARK INTRA:                  -2.061
REMARK UNBOUND:                -0.926
REMARK SMILES CCCCCCCCCCCCCCC(=O)[O-]
REMARK SMILES IDX 9 1 10 2 11 3 12 4 13 5 14 6 15 7 16 8 17 9 8 10 7 11 6 12
REMARK SMILES IDX 5 13 4 14 3 15 2 16 1 17
REMARK H PARENT
REMARK Flexibility Score: inf
ROOT
ATOM      1  C   UNL     1      16.515 129.845  57.736  1.00  0.00     0.000 C 
ENDROOT
BRANCH   1   2
ATOM      2  C   UNL     1      18.015 129.749  58.060  1.00  0.00     0.000 C 
BRANCH   2   3
ATOM      3  C   UNL     1      18.890 130.481  57.032  1.00  0.00     0.000 C 
BRANCH   3   4
ATOM      4  C   UNL     1      19.116 129.612  55.787  1.00  0.00     0.000 C 
BRANCH   4   5
ATOM      5  C   UNL     1      18.901 130.384  54.472  1.00  0.00     0.006 C 
BRANCH   5   6
ATOM      6  C   UNL     1      17.880 131.530  54.569  1.00  0.00     0.053 C 
BRANCH   6   7
ATOM      7  C   UNL     1      18.462 132.840  54.133  1.00  0.00     0.041 C 
ATOM      8  O   UNL     1      19.341 133.407  54.833  1.00  0.00    -0.550 OA
ATOM      9  O   UNL     1      18.008 133.450  52.971  1.00  0.00    -0.550 OA
ENDBRANCH   6   7
ENDBRANCH   5   6
ENDBRANCH   4   5
ENDBRANCH   3   4
ENDBRANCH   2   3
ENDBRANCH   1   2
BRANCH   1  10
ATOM     10  C   UNL     1      15.891 128.475  57.415  1.00  0.00     0.000 C 
BRANCH  10  11
ATOM     11  C   UNL     1      15.487 128.341  55.939  1.00  0.00    -0.000 C 
BRANCH  11  12
ATOM     12  C   UNL     1      16.392 127.372  55.164  1.00  0.00    -0.000 C 
BRANCH  12  13
ATOM     13  C   UNL     1      16.253 127.580  53.651  1.00  0.00    -0.000 C 
BRANCH  13  14
ATOM     14  C   UNL     1      15.638 128.952  53.338  1.00  0.00    -0.000 C 
BRANCH  14  15
ATOM     15  C   UNL     1      16.090 129.508  51.979  1.00  0.00    -0.000 C 
BRANCH  15  16
ATOM     16  C   UNL     1      17.350 128.812  51.445  1.00  0.00    -0.003 C 
ATOM     17  C   UNL     1      17.359 128.788  49.919  1.00  0.00     0.004 C 
ENDBRANCH  15  16
ENDBRANCH  14  15
ENDBRANCH  13  14
ENDBRANCH  12  13
ENDBRANCH  11  12
ENDBRANCH  10  11
ENDBRANCH   1  10
TORSDOF 13
ENDMDL
MODEL 6
REMARK VINA RESULT:    -4.015      4.346      6.750
REMARK INTER + INTRA:          -7.992
REMARK INTER:                  -5.716
REMARK INTRA:                  -2.276
REMARK UNBOUND:                -0.926
REMARK SMILES CCCCCCCCCCCCCCC(=O)[O-]
REMARK SMILES IDX 9 1 10 2 11 3 12 4 13 5 14 6 15 7 16 8 17 9 8 10 7 11 6 12
REMARK SMILES IDX 5 13 4 14 3 15 2 16 1 17
REMARK H PARENT
REMARK Flexibility Score: inf
ROOT
ATOM      1  C   UNL     1      15.516 131.517  54.831  1.00  0.00     0.000 C 
ENDROOT
BRANCH   1   2
ATOM      2  C   UNL     1      16.006 132.344  53.631  1.00  0.00     0.000 C 
BRANCH   2   3
ATOM      3  C   UNL     1      15.515 131.786  52.288  1.00  0.00     0.000 C 
BRANCH   3   4
ATOM      4  C   UNL     1      16.686 131.240  51.459  1.00  0.00     0.000 C 
BRANCH   4   5
ATOM      5  C   UNL     1      16.234 130.270  50.352  1.00  0.00     0.006 C 
BRANCH   5   6
ATOM      6  C   UNL     1      17.117 129.020  50.203  1.00  0.00     0.053 C 
BRANCH   6   7
ATOM      7  C   UNL     1      17.741 128.931  48.844  1.00  0.00     0.041 C 
ATOM      8  O   UNL     1      18.240 129.955  48.308  1.00  0.00    -0.550 OA
ATOM      9  O   UNL     1      17.740 127.725  48.155  1.00  0.00    -0.550 OA
ENDBRANCH   6   7
ENDBRANCH   5   6
ENDBRANCH   4   5
ENDBRANCH   3   4
ENDBRANCH   2   3
ENDBRANCH   1   2
BRANCH   1  10
ATOM     10  C   UNL     1      14.496 130.438  54.427  1.00  0.00     0.000 C 
BRANCH  10  11
ATOM     11  C   UNL     1      14.958 129.020  54.797  1.00  0.00    -0.000 C 
BRANCH  11  12
ATOM     12  C   UNL     1      15.457 128.225  53.582  1.00  0.00    -0.000 C 
BRANCH  12  13
ATOM     13  C   UNL     1      16.875 127.689  53.820  1.00  0.00    -0.000 C 
BRANCH  13  14
ATOM     14  C   UNL     1      17.896 128.836  53.865  1.00  0.00    -0.000 C 
BRANCH  14  15
ATOM     15  C   UNL     1      18.849 128.733  55.065  1.00  0.00    -0.000 C 
BRANCH  15  16
ATOM     16  C   UNL     1      18.620 129.845  56.098  1.00  0.00    -0.003 C 
ATOM     17  C   UNL     1      17.668 129.385  57.199  1.00  0.00     0.004 C 
ENDBRANCH  15  16
ENDBRANCH  14  15
ENDBRANCH  13  14
ENDBRANCH  12  13
ENDBRANCH  11  12
ENDBRANCH  10  11
ENDBRANCH   1  10
TORSDOF 13
ENDMDL
MODEL 7
REMARK VINA RESULT:    -4.007      3.952      7.201
REMARK INTER + INTRA:          -7.978
REMARK INTER:                  -5.457
REMARK INTRA:                  -2.522
REMARK UNBOUND:                -0.926
REMARK SMILES CCCCCCCCCCCCCCC(=O)[O-]
REMARK SMILES IDX 9 1 10 2 11 3 12 4 13 5 14 6 15 7 16 8 17 9 8 10 7 11 6 12
REMARK SMILES IDX 5 13 4 14 3 15 2 16 1 17
REMARK H PARENT
REMARK Flexibility Score: inf
ROOT
ATOM      1  C   UNL     1      18.478 128.745  54.710  1.00  0.00     0.000 C 
ENDROOT
BRANCH   1   2
ATOM      2  C   UNL     1      18.900 130.214  54.548  1.00  0.00     0.000 C 
BRANCH   2   3
ATOM      3  C   UNL     1      19.168 130.904  55.893  1.00  0.00     0.000 C 
BRANCH   3   4
ATOM      4  C   UNL     1      18.993 129.920  57.059  1.00  0.00     0.000 C 
BRANCH   4   5
ATOM      5  C   UNL     1      18.593 130.616  58.373  1.00  0.00     0.006 C 
BRANCH   5   6
ATOM      6  C   UNL     1      17.740 129.750  59.315  1.00  0.00     0.053 C 
BRANCH   6   7
ATOM      7  C   UNL     1      18.260 129.767  60.719  1.00  0.00     0.041 C 
ATOM      8  O   UNL     1      19.375 129.247  60.989  1.00  0.00    -0.550 OA
ATOM      9  O   UNL     1      17.499 130.327  61.737  1.00  0.00    -0.550 OA
ENDBRANCH   6   7
ENDBRANCH   5   6
ENDBRANCH   4   5
ENDBRANCH   3   4
ENDBRANCH   2   3
ENDBRANCH   1   2
BRANCH   1  10
ATOM     10  C   UNL     1      17.389 128.328  53.705  1.00  0.00     0.000 C 
BRANCH  10  11
ATOM     11  C   UNL     1      16.181 127.665  54.384  1.00  0.00    -0.000 C 
BRANCH  11  12
ATOM     12  C   UNL     1      16.315 127.618  55.914  1.00  0.00    -0.000 C 
BRANCH  12  13
ATOM     13  C   UNL     1      15.173 128.388  56.589  1.00  0.00    -0.000 C 
BRANCH  13  14
ATOM     14  C   UNL     1      14.813 129.651  55.791  1.00  0.00    -0.000 C 
BRANCH  14  15
ATOM     15  C   UNL     1      15.465 130.919  56.363  1.00  0.00    -0.000 C 
BRANCH  15  16
ATOM     16  C   UNL     1      15.568 132.048  55.327  1.00  0.00    -0.003 C 
ATOM     17  C   UNL     1      15.492 131.498  53.905  1.00  0.00     0.004 C 
ENDBRANCH  15  16
ENDBRANCH  14  15
ENDBRANCH  13  14
ENDBRANCH  12  13
ENDBRANCH  11  12
ENDBRANCH  10  11
ENDBRANCH   1  10
TORSDOF 13
ENDMDL
MODEL 8
REMARK VINA RESULT:    -3.966      4.025      6.193
REMARK INTER + INTRA:          -7.906
REMARK INTER:                  -5.969
REMARK INTRA:                  -1.937
REMARK UNBOUND:                -0.926
REMARK SMILES CCCCCCCCCCCCCCC(=O)[O-]
REMARK SMILES IDX 9 1 10 2 11 3 12 4 13 5 14 6 15 7 16 8 17 9 8 10 7 11 6 12
REMARK SMILES IDX 5 13 4 14 3 15 2 16 1 17
REMARK H PARENT
REMARK Flexibility Score: inf
ROOT
ATOM      1  C   UNL     1      17.482 129.926  56.711  1.00  0.00     0.000 C 
ENDROOT
BRANCH   1   2
ATOM      2  C   UNL     1      16.664 128.661  57.018  1.00  0.00     0.000 C 
BRANCH   2   3
ATOM      3  C   UNL     1      15.892 128.145  55.796  1.00  0.00     0.000 C 
BRANCH   3   4
ATOM      4  C   UNL     1      16.844 127.503  54.776  1.00  0.00     0.000 C 
BRANCH   4   5
ATOM      5  C   UNL     1      16.276 127.506  53.345  1.00  0.00     0.006 C 
BRANCH   5   6
ATOM      6  C   UNL     1      16.984 128.475  52.384  1.00  0.00     0.053 C 
BRANCH   6   7
ATOM      7  C   UNL     1      16.268 129.786  52.280  1.00  0.00     0.041 C 
ATOM      8  O   UNL     1      16.847 130.787  51.781  1.00  0.00    -0.550 OA
ATOM      9  O   UNL     1      14.973 129.913  52.765  1.00  0.00    -0.550 OA
ENDBRANCH   6   7
ENDBRANCH   5   6
ENDBRANCH   4   5
ENDBRANCH   3   4
ENDBRANCH   2   3
ENDBRANCH   1   2
BRANCH   1  10
ATOM     10  C   UNL     1      18.981 129.749  57.012  1.00  0.00     0.000 C 
BRANCH  10  11
ATOM     11  C   UNL     1      19.852 129.843  55.750  1.00  0.00    -0.000 C 
BRANCH  11  12
ATOM     12  C   UNL     1      19.116 130.497  54.571  1.00  0.00    -0.000 C 
BRANCH  12  13
ATOM     13  C   UNL     1      19.657 131.906  54.299  1.00  0.00    -0.000 C 
BRANCH  13  14
ATOM     14  C   UNL     1      18.573 132.968  54.538  1.00  0.00    -0.000 C 
BRANCH  14  15
ATOM     15  C   UNL     1      19.093 134.176  55.331  1.00  0.00    -0.000 C 
BRANCH  15  16
ATOM     16  C   UNL     1      19.904 133.767  56.569  1.00  0.00    -0.003 C 
ATOM     17  C   UNL     1      18.985 133.396  57.730  1.00  0.00     0.004 C 
ENDBRANCH  15  16
ENDBRANCH  14  15
ENDBRANCH  13  14
ENDBRANCH  12  13
ENDBRANCH  11  12
ENDBRANCH  10  11
ENDBRANCH   1  10
TORSDOF 13
ENDMDL
MODEL 9
REMARK VINA RESULT:    -3.914      4.419      8.057
REMARK INTER + INTRA:          -7.813
REMARK INTER:                  -5.797
REMARK INTRA:                  -2.017
REMARK UNBOUND:                -0.926
REMARK SMILES CCCCCCCCCCCCCCC(=O)[O-]
REMARK SMILES IDX 9 1 10 2 11 3 12 4 13 5 14 6 15 7 16 8 17 9 8 10 7 11 6 12
REMARK SMILES IDX 5 13 4 14 3 15 2 16 1 17
REMARK H PARENT
REMARK Flexibility Score: inf
ROOT
ATOM      1  C   UNL     1      15.777 127.836  55.953  1.00  0.00     0.000 C 
ENDROOT
BRANCH   1   2
ATOM      2  C   UNL     1      16.614 128.532  57.039  1.00  0.00     0.000 C 
BRANCH   2   3
ATOM      3  C   UNL     1      16.769 130.039  56.790  1.00  0.00     0.000 C 
BRANCH   3   4
ATOM      4  C   UNL     1      18.228 130.480  56.985  1.00  0.00     0.000 C 
BRANCH   4   5
ATOM      5  C   UNL     1      19.208 129.725  56.068  1.00  0.00     0.006 C 
BRANCH   5   6
ATOM      6  C   UNL     1      19.263 130.257  54.626  1.00  0.00     0.053 C 
BRANCH   6   7
ATOM      7  C   UNL     1      19.844 131.636  54.557  1.00  0.00     0.041 C 
ATOM      8  O   UNL     1      19.188 132.574  54.031  1.00  0.00    -0.550 OA
ATOM      9  O   UNL     1      21.122 131.878  55.042  1.00  0.00    -0.550 OA
ENDBRANCH   6   7
ENDBRANCH   5   6
ENDBRANCH   4   5
ENDBRANCH   3   4
ENDBRANCH   2   3
ENDBRANCH   1   2
BRANCH   1  10
ATOM     10  C   UNL     1      16.614 127.447  54.721  1.00  0.00     0.000 C 
BRANCH  10  11
ATOM     11  C   UNL     1      16.112 128.117  53.432  1.00  0.00    -0.000 C 
BRANCH  11  12
ATOM     12  C   UNL     1      14.728 128.761  53.601  1.00  0.00    -0.000 C 
BRANCH  12  13
ATOM     13  C   UNL     1      14.714 130.189  53.040  1.00  0.00    -0.000 C 
BRANCH  13  14
ATOM     14  C   UNL     1      16.092 130.851  53.187  1.00  0.00    -0.000 C 
BRANCH  14  15
ATOM     15  C   UNL     1      16.655 131.350  51.847  1.00  0.00    -0.000 C 
BRANCH  15  16
ATOM     16  C   UNL     1      15.957 130.710  50.638  1.00  0.00    -0.003 C 
ATOM     17  C   UNL     1      16.966 130.339  49.554  1.00  0.00     0.004 C 
ENDBRANCH  15  16
ENDBRANCH  14  15
ENDBRANCH  13  14
ENDBRANCH  12  13
ENDBRANCH  11  12
ENDBRANCH  10  11
ENDBRANCH   1  10
TORSDOF 13
ENDMDL
