MODEL 1
REMARK VINA RESULT:    -4.252      0.000      0.000
REMARK INTER + INTRA:         -10.875
REMARK INTER:                  -8.230
REMARK INTRA:                  -2.645
REMARK UNBOUND:                -2.645
REMARK SMILES CCCCCCCCCCCCCCCCCC(=O)[O-]
REMARK SMILES IDX 10 1 11 2 12 3 13 4 14 5 15 6 16 7 17 8 18 9 19 10 20 11
REMARK SMILES IDX 9 12 8 13 7 14 6 15 5 16 4 17 3 18 2 19 1 20
REMARK H PARENT
REMARK Flexibility Score: inf
ROOT
ATOM      1  C   UNL     1      -8.624  -3.393   4.210  1.00  0.00     0.000 C 
ENDROOT
BRANCH   1   2
ATOM      2  C   UNL     1      -9.161  -3.453   5.648  1.00  0.00     0.000 C 
BRANCH   2   3
ATOM      3  C   UNL     1      -8.391  -4.453   6.524  1.00  0.00     0.000 C 
BRANCH   3   4
ATOM      4  C   UNL     1      -9.264  -5.665   6.871  1.00  0.00     0.000 C 
BRANCH   4   5
ATOM      5  C   UNL     1      -9.041  -6.808   5.873  1.00  0.00     0.000 C 
BRANCH   5   6
ATOM      6  C   UNL     1     -10.259  -6.979   4.953  1.00  0.00     0.000 C 
BRANCH   6   7
ATOM      7  C   UNL     1     -11.531  -6.323   5.521  1.00  0.00     0.006 C 
BRANCH   7   8
ATOM      8  C   UNL     1     -12.348  -5.529   4.489  1.00  0.00     0.053 C 
BRANCH   8   9
ATOM      9  C   UNL     1     -13.461  -6.343   3.905  1.00  0.00     0.041 C 
ATOM     10  O   UNL     1     -14.032  -5.969   2.847  1.00  0.00    -0.550 OA
ATOM     11  O   UNL     1     -13.847  -7.531   4.514  1.00  0.00    -0.550 OA
ENDBRANCH   8   9
ENDBRANCH   7   8
ENDBRANCH   6   7
ENDBRANCH   5   6
ENDBRANCH   4   5
ENDBRANCH   3   4
ENDBRANCH   2   3
ENDBRANCH   1   2
BRANCH   1  12
ATOM     12  C   UNL     1      -9.746  -3.430   3.156  1.00  0.00     0.000 C 
BRANCH  12  13
ATOM     13  C   UNL     1      -9.806  -2.141   2.310  1.00  0.00    -0.000 C 
BRANCH  13  14
ATOM     14  C   UNL     1      -8.906  -1.008   2.841  1.00  0.00    -0.000 C 
BRANCH  14  15
ATOM     15  C   UNL     1      -9.643   0.294   3.210  1.00  0.00    -0.000 C 
BRANCH  15  16
ATOM     16  C   UNL     1     -10.593   0.188   4.417  1.00  0.00    -0.000 C 
BRANCH  16  17
ATOM     17  C   UNL     1     -12.074   0.346   4.029  1.00  0.00    -0.000 C 
BRANCH  17  18
ATOM     18  C   UNL     1     -12.853  -0.974   4.125  1.00  0.00    -0.000 C 
BRANCH  18  19
ATOM     19  C   UNL     1     -12.348  -1.880   5.258  1.00  0.00    -0.003 C 
ATOM     20  C   UNL     1     -13.374  -1.977   6.382  1.00  0.00     0.004 C 
ENDBRANCH  18  19
ENDBRANCH  17  18
ENDBRANCH  16  17
ENDBRANCH  15  16
ENDBRANCH  14  15
ENDBRANCH  13  14
ENDBRANCH  12  13
ENDBRANCH   1  12
TORSDOF 16
ENDMDL
MODEL 2
REMARK VINA RESULT:    -4.221      2.135      5.875
REMARK INTER + INTRA:         -10.814
REMARK INTER:                  -8.406
REMARK INTRA:                  -2.408
REMARK UNBOUND:                -2.645
REMARK SMILES CCCCCCCCCCCCCCCCCC(=O)[O-]
REMARK SMILES IDX 10 1 11 2 12 3 13 4 14 5 15 6 16 7 17 8 18 9 19 10 20 11
REMARK SMILES IDX 9 12 8 13 7 14 6 15 5 16 4 17 3 18 2 19 1 20
REMARK H PARENT
REMARK Flexibility Score: inf
ROOT
ATOM      1  C   UNL     1      -9.657  -2.767   4.594  1.00  0.00     0.000 C 
ENDROOT
BRANCH   1   2
ATOM      2  C   UNL     1     -10.219  -3.023   3.187  1.00  0.00     0.000 C 
BRANCH   2   3
ATOM      3  C   UNL     1      -9.794  -1.947   2.176  1.00  0.00     0.000 C 
BRANCH   3   4
ATOM      4  C   UNL     1      -8.522  -1.229   2.641  1.00  0.00     0.000 C 
BRANCH   4   5
ATOM      5  C   UNL     1      -8.684   0.294   2.552  1.00  0.00     0.000 C 
BRANCH   5   6
ATOM      6  C   UNL     1     -10.165   0.681   2.425  1.00  0.00     0.000 C 
BRANCH   6   7
ATOM      7  C   UNL     1     -10.734   1.289   3.720  1.00  0.00     0.006 C 
BRANCH   7   8
ATOM      8  C   UNL     1     -11.655   0.345   4.510  1.00  0.00     0.053 C 
BRANCH   8   9
ATOM      9  C   UNL     1     -12.867  -0.048   3.722  1.00  0.00     0.041 C 
ATOM     10  O   UNL     1     -13.193  -1.261   3.624  1.00  0.00    -0.550 OA
ATOM     11  O   UNL     1     -13.652   0.927   3.121  1.00  0.00    -0.550 OA
ENDBRANCH   8   9
ENDBRANCH   7   8
ENDBRANCH   6   7
ENDBRANCH   5   6
ENDBRANCH   4   5
ENDBRANCH   3   4
ENDBRANCH   2   3
ENDBRANCH   1   2
BRANCH   1  12
ATOM     12  C   UNL     1      -8.528  -3.745   4.968  1.00  0.00     0.000 C 
BRANCH  12  13
ATOM     13  C   UNL     1      -8.612  -4.211   6.437  1.00  0.00    -0.000 C 
BRANCH  13  14
ATOM     14  C   UNL     1      -9.281  -5.587   6.616  1.00  0.00    -0.000 C 
BRANCH  14  15
ATOM     15  C   UNL     1      -9.577  -6.345   5.308  1.00  0.00    -0.000 C 
BRANCH  15  16
ATOM     16  C   UNL     1     -11.071  -6.552   4.995  1.00  0.00    -0.000 C 
BRANCH  16  17
ATOM     17  C   UNL     1     -11.987  -5.623   5.811  1.00  0.00    -0.000 C 
BRANCH  17  18
ATOM     18  C   UNL     1     -12.973  -4.843   4.928  1.00  0.00    -0.000 C 
BRANCH  18  19
ATOM     19  C   UNL     1     -13.022  -5.369   3.486  1.00  0.00    -0.003 C 
ATOM     20  C   UNL     1     -14.329  -6.108   3.216  1.00  0.00     0.004 C 
ENDBRANCH  18  19
ENDBRANCH  17  18
ENDBRANCH  16  17
ENDBRANCH  15  16
ENDBRANCH  14  15
ENDBRANCH  13  14
ENDBRANCH  12  13
ENDBRANCH   1  12
TORSDOF 16
ENDMDL
MODEL 3
REMARK VINA RESULT:    -4.189      2.693      5.406
REMARK INTER + INTRA:         -10.752
REMARK INTER:                  -8.032
REMARK INTRA:                  -2.720
REMARK UNBOUND:                -2.645
REMARK SMILES CCCCCCCCCCCCCCCCCC(=O)[O-]
REMARK SMILES IDX 10 1 11 2 12 3 13 4 14 5 15 6 16 7 17 8 18 9 19 10 20 11
REMARK SMILES IDX 9 12 8 13 7 14 6 15 5 16 4 17 3 18 2 19 1 20
REMARK H PARENT
REMARK Flexibility Score: inf
ROOT
ATOM      1  C   UNL     1      -9.089  -5.647   6.906  1.00  0.00     0.000 C 
ENDROOT
BRANCH   1   2
ATOM      2  C   UNL     1      -8.302  -4.425   6.409  1.00  0.00     0.000 C 
BRANCH   2   3
ATOM      3  C   UNL     1      -9.188  -3.418   5.659  1.00  0.00     0.000 C 
BRANCH   3   4
ATOM      4  C   UNL     1      -8.693  -3.213   4.223  1.00  0.00     0.000 C 
BRANCH   4   5
ATOM      5  C   UNL     1      -9.820  -3.457   3.212  1.00  0.00     0.000 C 
BRANCH   5   6
ATOM      6  C   UNL     1      -9.895  -2.315   2.187  1.00  0.00     0.000 C 
BRANCH   6   7
ATOM      7  C   UNL     1      -9.011  -1.113   2.569  1.00  0.00     0.006 C 
BRANCH   7   8
ATOM      8  C   UNL     1      -9.590   0.252   2.161  1.00  0.00     0.053 C 
BRANCH   8   9
ATOM      9  C   UNL     1     -10.228   0.960   3.316  1.00  0.00     0.041 C 
ATOM     10  O   UNL     1     -10.766   2.086   3.149  1.00  0.00    -0.550 OA
ATOM     11  O   UNL     1     -10.255   0.362   4.569  1.00  0.00    -0.550 OA
ENDBRANCH   8   9
ENDBRANCH   7   8
ENDBRANCH   6   7
ENDBRANCH   5   6
ENDBRANCH   4   5
ENDBRANCH   3   4
ENDBRANCH   2   3
ENDBRANCH   1   2
BRANCH   1  12
ATOM     12  C   UNL     1      -8.954  -6.861   5.968  1.00  0.00     0.000 C 
BRANCH  12  13
ATOM     13  C   UNL     1     -10.028  -6.873   4.859  1.00  0.00    -0.000 C 
BRANCH  13  14
ATOM     14  C   UNL     1     -11.471  -6.772   5.390  1.00  0.00    -0.000 C 
BRANCH  14  15
ATOM     15  C   UNL     1     -12.268  -5.553   4.890  1.00  0.00    -0.000 C 
BRANCH  15  16
ATOM     16  C   UNL     1     -12.716  -4.570   5.987  1.00  0.00    -0.000 C 
BRANCH  16  17
ATOM     17  C   UNL     1     -13.546  -3.397   5.438  1.00  0.00    -0.000 C 
BRANCH  17  18
ATOM     18  C   UNL     1     -12.679  -2.185   5.062  1.00  0.00    -0.000 C 
BRANCH  18  19
ATOM     19  C   UNL     1     -13.122  -1.522   3.749  1.00  0.00    -0.003 C 
ATOM     20  C   UNL     1     -13.747  -0.155   4.008  1.00  0.00     0.004 C 
ENDBRANCH  18  19
ENDBRANCH  17  18
ENDBRANCH  16  17
ENDBRANCH  15  16
ENDBRANCH  14  15
ENDBRANCH  13  14
ENDBRANCH  12  13
ENDBRANCH   1  12
TORSDOF 16
ENDMDL
MODEL 4
REMARK VINA RESULT:    -4.161      2.764      5.698
REMARK INTER + INTRA:         -10.698
REMARK INTER:                  -7.826
REMARK INTRA:                  -2.871
REMARK UNBOUND:                -2.645
REMARK SMILES CCCCCCCCCCCCCCCCCC(=O)[O-]
REMARK SMILES IDX 10 1 11 2 12 3 13 4 14 5 15 6 16 7 17 8 18 9 19 10 20 11
REMARK SMILES IDX 9 12 8 13 7 14 6 15 5 16 4 17 3 18 2 19 1 20
REMARK H PARENT
REMARK Flexibility Score: inf
ROOT
ATOM      1  C   UNL     1      -8.830  -3.868   5.650  1.00  0.00     0.000 C 
ENDROOT
BRANCH   1   2
ATOM      2  C   UNL     1      -8.991  -3.782   4.124  1.00  0.00     0.000 C 
BRANCH   2   3
ATOM      3  C   UNL     1      -8.960  -2.335   3.608  1.00  0.00     0.000 C 
BRANCH   3   4
ATOM      4  C   UNL     1      -9.739  -2.203   2.295  1.00  0.00     0.000 C 
BRANCH   4   5
ATOM      5  C   UNL     1      -9.952  -0.729   1.927  1.00  0.00     0.000 C 
BRANCH   5   6
ATOM      6  C   UNL     1      -9.285   0.196   2.955  1.00  0.00     0.000 C 
BRANCH   6   7
ATOM      7  C   UNL     1     -10.302   1.041   3.744  1.00  0.00     0.006 C 
BRANCH   7   8
ATOM      8  C   UNL     1     -11.421   1.650   2.883  1.00  0.00     0.053 C 
BRANCH   8   9
ATOM      9  C   UNL     1     -12.766   1.508   3.526  1.00  0.00     0.041 C 
ATOM     10  O   UNL     1     -13.804   1.446   2.816  1.00  0.00    -0.550 OA
ATOM     11  O   UNL     1     -12.869   1.413   4.908  1.00  0.00    -0.550 OA
ENDBRANCH   8   9
ENDBRANCH   7   8
ENDBRANCH   6   7
ENDBRANCH   5   6
ENDBRANCH   4   5
ENDBRANCH   3   4
ENDBRANCH   2   3
ENDBRANCH   1   2
BRANCH   1  12
ATOM     12  C   UNL     1      -9.422  -5.164   6.236  1.00  0.00     0.000 C 
BRANCH  12  13
ATOM     13  C   UNL     1     -10.266  -5.946   5.208  1.00  0.00    -0.000 C 
BRANCH  13  14
ATOM     14  C   UNL     1     -11.747  -6.096   5.605  1.00  0.00    -0.000 C 
BRANCH  14  15
ATOM     15  C   UNL     1     -12.753  -5.957   4.446  1.00  0.00    -0.000 C 
BRANCH  15  16
ATOM     16  C   UNL     1     -12.557  -4.716   3.557  1.00  0.00    -0.000 C 
BRANCH  16  17
ATOM     17  C   UNL     1     -13.548  -3.584   3.881  1.00  0.00    -0.000 C 
BRANCH  17  18
ATOM     18  C   UNL     1     -12.853  -2.225   4.059  1.00  0.00    -0.000 C 
BRANCH  18  19
ATOM     19  C   UNL     1     -12.204  -2.067   5.442  1.00  0.00    -0.003 C 
ATOM     20  C   UNL     1     -13.115  -2.606   6.541  1.00  0.00     0.004 C 
ENDBRANCH  18  19
ENDBRANCH  17  18
ENDBRANCH  16  17
ENDBRANCH  15  16
ENDBRANCH  14  15
ENDBRANCH  13  14
ENDBRANCH  12  13
ENDBRANCH   1  12
TORSDOF 16
ENDMDL
MODEL 5
REMARK VINA RESULT:    -4.086      2.138      4.172
REMARK INTER + INTRA:         -10.554
REMARK INTER:                  -8.385
REMARK INTRA:                  -2.168
REMARK UNBOUND:                -2.645
REMARK SMILES CCCCCCCCCCCCCCCCCC(=O)[O-]
REMARK SMILES IDX 10 1 11 2 12 3 13 4 14 5 15 6 16 7 17 8 18 9 19 10 20 11
REMARK SMILES IDX 9 12 8 13 7 14 6 15 5 16 4 17 3 18 2 19 1 20
REMARK H PARENT
REMARK Flexibility Score: inf
ROOT
ATOM      1  C   UNL     1      -9.831   0.407   2.184  1.00  0.00     0.000 C 
ENDROOT
BRANCH   1   2
ATOM      2  C   UNL     1      -8.899  -0.520   2.980  1.00  0.00     0.000 C 
BRANCH   2   3
ATOM      3  C   UNL     1      -9.305  -1.998   2.873  1.00  0.00     0.000 C 
BRANCH   3   4
ATOM      4  C   UNL     1      -8.837  -2.786   4.102  1.00  0.00     0.000 C 
BRANCH   4   5
ATOM      5  C   UNL     1      -9.389  -4.217   4.082  1.00  0.00     0.000 C 
BRANCH   5   6
ATOM      6  C   UNL     1      -9.914  -4.622   5.468  1.00  0.00     0.000 C 
BRANCH   6   7
ATOM      7  C   UNL     1      -8.846  -5.327   6.325  1.00  0.00     0.006 C 
BRANCH   7   8
ATOM      8  C   UNL     1      -9.250  -6.729   6.810  1.00  0.00     0.053 C 
BRANCH   8   9
ATOM      9  C   UNL     1      -8.749  -7.806   5.897  1.00  0.00     0.041 C 
ATOM     10  O   UNL     1      -9.204  -7.906   4.727  1.00  0.00    -0.550 OA
ATOM     11  O   UNL     1      -7.760  -8.679   6.329  1.00  0.00    -0.550 OA
ENDBRANCH   8   9
ENDBRANCH   7   8
ENDBRANCH   6   7
ENDBRANCH   5   6
ENDBRANCH   4   5
ENDBRANCH   3   4
ENDBRANCH   2   3
ENDBRANCH   1   2
BRANCH   1  12
ATOM     12  C   UNL     1     -11.207  -0.229   1.910  1.00  0.00     0.000 C 
BRANCH  12  13
ATOM     13  C   UNL     1     -12.373   0.643   2.421  1.00  0.00    -0.000 C 
BRANCH  13  14
ATOM     14  C   UNL     1     -13.146   0.018   3.599  1.00  0.00    -0.000 C 
BRANCH  14  15
ATOM     15  C   UNL     1     -12.268  -0.521   4.744  1.00  0.00    -0.000 C 
BRANCH  15  16
ATOM     16  C   UNL     1     -12.465  -2.012   5.072  1.00  0.00    -0.000 C 
BRANCH  16  17
ATOM     17  C   UNL     1     -12.801  -2.859   3.832  1.00  0.00    -0.000 C 
BRANCH  17  18
ATOM     18  C   UNL     1     -13.675  -4.078   4.169  1.00  0.00    -0.000 C 
BRANCH  18  19
ATOM     19  C   UNL     1     -13.243  -5.343   3.414  1.00  0.00    -0.003 C 
ATOM     20  C   UNL     1     -14.451  -6.190   3.025  1.00  0.00     0.004 C 
ENDBRANCH  18  19
ENDBRANCH  17  18
ENDBRANCH  16  17
ENDBRANCH  15  16
ENDBRANCH  14  15
ENDBRANCH  13  14
ENDBRANCH  12  13
ENDBRANCH   1  12
TORSDOF 16
ENDMDL
MODEL 6
REMARK VINA RESULT:    -4.072      1.481      2.501
REMARK INTER + INTRA:         -10.526
REMARK INTER:                  -8.171
REMARK INTRA:                  -2.356
REMARK UNBOUND:                -2.645
REMARK SMILES CCCCCCCCCCCCCCCCCC(=O)[O-]
REMARK SMILES IDX 10 1 11 2 12 3 13 4 14 5 15 6 16 7 17 8 18 9 19 10 20 11
REMARK SMILES IDX 9 12 8 13 7 14 6 15 5 16 4 17 3 18 2 19 1 20
REMARK H PARENT
REMARK Flexibility Score: inf
ROOT
ATOM      1  C   UNL     1      -9.065  -3.520   5.771  1.00  0.00     0.000 C 
ENDROOT
BRANCH   1   2
ATOM      2  C   UNL     1      -8.277  -4.670   6.416  1.00  0.00     0.000 C 
BRANCH   2   3
ATOM      3  C   UNL     1      -9.191  -5.753   7.009  1.00  0.00     0.000 C 
BRANCH   3   4
ATOM      4  C   UNL     1      -9.067  -7.066   6.227  1.00  0.00     0.000 C 
BRANCH   4   5
ATOM      5  C   UNL     1      -9.829  -6.991   4.899  1.00  0.00     0.000 C 
BRANCH   5   6
ATOM      6  C   UNL     1     -11.347  -7.018   5.134  1.00  0.00     0.000 C 
BRANCH   6   7
ATOM      7  C   UNL     1     -12.054  -5.758   4.603  1.00  0.00     0.006 C 
BRANCH   7   8
ATOM      8  C   UNL     1     -12.555  -4.805   5.701  1.00  0.00     0.053 C 
BRANCH   8   9
ATOM      9  C   UNL     1     -12.913  -3.457   5.155  1.00  0.00     0.041 C 
ATOM     10  O   UNL     1     -12.391  -2.418   5.640  1.00  0.00    -0.550 OA
ATOM     11  O   UNL     1     -13.801  -3.351   4.092  1.00  0.00    -0.550 OA
ENDBRANCH   8   9
ENDBRANCH   7   8
ENDBRANCH   6   7
ENDBRANCH   5   6
ENDBRANCH   4   5
ENDBRANCH   3   4
ENDBRANCH   2   3
ENDBRANCH   1   2
BRANCH   1  12
ATOM     12  C   UNL     1      -8.572  -3.186   4.351  1.00  0.00     0.000 C 
BRANCH  12  13
ATOM     13  C   UNL     1      -9.638  -3.471   3.273  1.00  0.00    -0.000 C 
BRANCH  13  14
ATOM     14  C   UNL     1     -10.201  -2.201   2.605  1.00  0.00    -0.000 C 
BRANCH  14  15
ATOM     15  C   UNL     1      -9.147  -1.274   1.969  1.00  0.00    -0.000 C 
BRANCH  15  16
ATOM     16  C   UNL     1      -8.954   0.079   2.678  1.00  0.00    -0.000 C 
BRANCH  16  17
ATOM     17  C   UNL     1     -10.235   0.932   2.697  1.00  0.00    -0.000 C 
BRANCH  17  18
ATOM     18  C   UNL     1     -10.594   1.424   4.108  1.00  0.00    -0.000 C 
BRANCH  18  19
ATOM     19  C   UNL     1     -11.930   0.857   4.611  1.00  0.00    -0.003 C 
ATOM     20  C   UNL     1     -12.769   0.321   3.455  1.00  0.00     0.004 C 
ENDBRANCH  18  19
ENDBRANCH  17  18
ENDBRANCH  16  17
ENDBRANCH  15  16
ENDBRANCH  14  15
ENDBRANCH  13  14
ENDBRANCH  12  13
ENDBRANCH   1  12
TORSDOF 16
ENDMDL
MODEL 7
REMARK VINA RESULT:    -4.060      1.051      4.709
REMARK INTER + INTRA:         -10.502
REMARK INTER:                  -7.989
REMARK INTRA:                  -2.513
REMARK UNBOUND:                -2.645
REMARK SMILES CCCCCCCCCCCCCCCCCC(=O)[O-]
REMARK SMILES IDX 10 1 11 2 12 3 13 4 14 5 15 6 16 7 17 8 18 9 19 10 20 11
REMARK SMILES IDX 9 12 8 13 7 14 6 15 5 16 4 17 3 18 2 19 1 20
REMARK H PARENT
REMARK Flexibility Score: inf
ROOT
ATOM      1  C   UNL     1      -9.519   0.362   3.020  1.00  0.00     0.000 C 
ENDROOT
BRANCH   1   2
ATOM      2  C   UNL     1     -10.595   0.192   4.104  1.00  0.00     0.000 C 
BRANCH   2   3
ATOM      3  C   UNL     1     -12.021   0.246   3.534  1.00  0.00     0.000 C 
BRANCH   3   4
ATOM      4  C   UNL     1     -12.780  -1.052   3.831  1.00  0.00     0.000 C 
BRANCH   4   5
ATOM      5  C   UNL     1     -12.380  -1.625   5.196  1.00  0.00     0.000 C 
BRANCH   5   6
ATOM      6  C   UNL     1     -12.699  -3.125   5.277  1.00  0.00     0.000 C 
BRANCH   6   7
ATOM      7  C   UNL     1     -12.946  -3.757   3.895  1.00  0.00     0.006 C 
BRANCH   7   8
ATOM      8  C   UNL     1     -14.284  -4.505   3.772  1.00  0.00     0.053 C 
BRANCH   8   9
ATOM      9  C   UNL     1     -14.091  -5.947   3.415  1.00  0.00     0.041 C 
ATOM     10  O   UNL     1     -13.185  -6.621   3.971  1.00  0.00    -0.550 OA
ATOM     11  O   UNL     1     -14.933  -6.552   2.490  1.00  0.00    -0.550 OA
ENDBRANCH   8   9
ENDBRANCH   7   8
ENDBRANCH   6   7
ENDBRANCH   5   6
ENDBRANCH   4   5
ENDBRANCH   3   4
ENDBRANCH   2   3
ENDBRANCH   1   2
BRANCH   1  12
ATOM     12  C   UNL     1      -8.690  -0.918   2.803  1.00  0.00     0.000 C 
BRANCH  12  13
ATOM     13  C   UNL     1      -9.538  -2.086   2.258  1.00  0.00    -0.000 C 
BRANCH  13  14
ATOM     14  C   UNL     1      -9.500  -3.347   3.143  1.00  0.00    -0.000 C 
BRANCH  14  15
ATOM     15  C   UNL     1      -8.746  -3.187   4.477  1.00  0.00    -0.000 C 
BRANCH  15  16
ATOM     16  C   UNL     1      -9.104  -4.223   5.558  1.00  0.00    -0.000 C 
BRANCH  16  17
ATOM     17  C   UNL     1      -9.793  -5.473   4.984  1.00  0.00    -0.000 C 
BRANCH  17  18
ATOM     18  C   UNL     1     -10.210  -6.471   6.077  1.00  0.00    -0.000 C 
BRANCH  18  19
ATOM     19  C   UNL     1      -9.006  -7.118   6.779  1.00  0.00    -0.003 C 
ATOM     20  C   UNL     1      -8.410  -8.236   5.930  1.00  0.00     0.004 C 
ENDBRANCH  18  19
ENDBRANCH  17  18
ENDBRANCH  16  17
ENDBRANCH  15  16
ENDBRANCH  14  15
ENDBRANCH  13  14
ENDBRANCH  12  13
ENDBRANCH   1  12
TORSDOF 16
ENDMDL
MODEL 8
REMARK VINA RESULT:    -4.051      1.289      4.109
REMARK INTER + INTRA:         -10.484
REMARK INTER:                  -7.846
REMARK INTRA:                  -2.639
REMARK UNBOUND:                -2.645
REMARK SMILES CCCCCCCCCCCCCCCCCC(=O)[O-]
REMARK SMILES IDX 10 1 11 2 12 3 13 4 14 5 15 6 16 7 17 8 18 9 19 10 20 11
REMARK SMILES IDX 9 12 8 13 7 14 6 15 5 16 4 17 3 18 2 19 1 20
REMARK H PARENT
REMARK Flexibility Score: inf
ROOT
ATOM      1  C   UNL     1     -11.641   0.168   4.783  1.00  0.00     0.000 C 
ENDROOT
BRANCH   1   2
ATOM      2  C   UNL     1     -12.547  -0.480   3.724  1.00  0.00     0.000 C 
BRANCH   2   3
ATOM      3  C   UNL     1     -14.026  -0.494   4.141  1.00  0.00     0.000 C 
BRANCH   3   4
ATOM      4  C   UNL     1     -14.420  -1.856   4.723  1.00  0.00     0.000 C 
BRANCH   4   5
ATOM      5  C   UNL     1     -13.493  -2.964   4.209  1.00  0.00     0.000 C 
BRANCH   5   6
ATOM      6  C   UNL     1     -13.198  -3.989   5.314  1.00  0.00     0.000 C 
BRANCH   6   7
ATOM      7  C   UNL     1     -13.163  -5.437   4.790  1.00  0.00     0.006 C 
BRANCH   7   8
ATOM      8  C   UNL     1     -13.409  -5.567   3.278  1.00  0.00     0.053 C 
BRANCH   8   9
ATOM      9  C   UNL     1     -14.656  -6.340   2.976  1.00  0.00     0.041 C 
ATOM     10  O   UNL     1     -15.693  -5.743   2.584  1.00  0.00    -0.550 OA
ATOM     11  O   UNL     1     -14.662  -7.724   3.099  1.00  0.00    -0.550 OA
ENDBRANCH   8   9
ENDBRANCH   7   8
ENDBRANCH   6   7
ENDBRANCH   5   6
ENDBRANCH   4   5
ENDBRANCH   3   4
ENDBRANCH   2   3
ENDBRANCH   1   2
BRANCH   1  12
ATOM     12  C   UNL     1     -10.475   0.959   4.162  1.00  0.00     0.000 C 
BRANCH  12  13
ATOM     13  C   UNL     1     -10.281   0.647   2.663  1.00  0.00    -0.000 C 
BRANCH  13  14
ATOM     14  C   UNL     1      -8.888   0.083   2.322  1.00  0.00    -0.000 C 
BRANCH  14  15
ATOM     15  C   UNL     1      -8.625  -1.353   2.814  1.00  0.00    -0.000 C 
BRANCH  15  16
ATOM     16  C   UNL     1      -9.691  -2.388   2.410  1.00  0.00    -0.000 C 
BRANCH  16  17
ATOM     17  C   UNL     1      -9.987  -3.409   3.524  1.00  0.00    -0.000 C 
BRANCH  17  18
ATOM     18  C   UNL     1      -9.601  -2.889   4.918  1.00  0.00    -0.000 C 
BRANCH  18  19
ATOM     19  C   UNL     1      -8.886  -3.949   5.769  1.00  0.00    -0.003 C 
ATOM     20  C   UNL     1      -9.468  -5.337   5.520  1.00  0.00     0.004 C 
ENDBRANCH  18  19
ENDBRANCH  17  18
ENDBRANCH  16  17
ENDBRANCH  15  16
ENDBRANCH  14  15
ENDBRANCH  13  14
ENDBRANCH  12  13
ENDBRANCH   1  12
TORSDOF 16
ENDMDL
MODEL 9
REMARK VINA RESULT:    -4.006      2.350      4.409
REMARK INTER + INTRA:         -10.398
REMARK INTER:                  -7.688
REMARK INTRA:                  -2.710
REMARK UNBOUND:                -2.645
REMARK SMILES CCCCCCCCCCCCCCCCCC(=O)[O-]
REMARK SMILES IDX 10 1 11 2 12 3 13 4 14 5 15 6 16 7 17 8 18 9 19 10 20 11
REMARK SMILES IDX 9 12 8 13 7 14 6 15 5 16 4 17 3 18 2 19 1 20
REMARK H PARENT
REMARK Flexibility Score: inf
ROOT
ATOM      1  C   UNL     1      -9.162  -5.977   6.014  1.00  0.00     0.000 C 
ENDROOT
BRANCH   1   2
ATOM      2  C   UNL     1     -10.309  -6.441   6.924  1.00  0.00     0.000 C 
BRANCH   2   3
ATOM      3  C   UNL     1     -11.679  -5.928   6.455  1.00  0.00     0.000 C 
BRANCH   3   4
ATOM      4  C   UNL     1     -11.957  -6.347   5.007  1.00  0.00     0.000 C 
BRANCH   4   5
ATOM      5  C   UNL     1     -12.407  -5.149   4.163  1.00  0.00     0.000 C 
BRANCH   5   6
ATOM      6  C   UNL     1     -12.793  -3.961   5.058  1.00  0.00     0.000 C 
BRANCH   6   7
ATOM      7  C   UNL     1     -12.920  -2.642   4.274  1.00  0.00     0.006 C 
BRANCH   7   8
ATOM      8  C   UNL     1     -12.324  -1.420   4.993  1.00  0.00     0.053 C 
BRANCH   8   9
ATOM      9  C   UNL     1     -13.286  -0.274   5.047  1.00  0.00     0.041 C 
ATOM     10  O   UNL     1     -14.271  -0.237   4.263  1.00  0.00    -0.550 OA
ATOM     11  O   UNL     1     -13.113   0.737   5.983  1.00  0.00    -0.550 OA
ENDBRANCH   8   9
ENDBRANCH   7   8
ENDBRANCH   6   7
ENDBRANCH   5   6
ENDBRANCH   4   5
ENDBRANCH   3   4
ENDBRANCH   2   3
ENDBRANCH   1   2
BRANCH   1  12
ATOM     12  C   UNL     1      -8.583  -4.614   6.436  1.00  0.00     0.000 C 
BRANCH  12  13
ATOM     13  C   UNL     1      -9.179  -3.442   5.628  1.00  0.00    -0.000 C 
BRANCH  13  14
ATOM     14  C   UNL     1      -8.568  -3.281   4.223  1.00  0.00    -0.000 C 
BRANCH  14  15
ATOM     15  C   UNL     1      -9.586  -3.235   3.068  1.00  0.00    -0.000 C 
BRANCH  15  16
ATOM     16  C   UNL     1      -9.673  -1.888   2.327  1.00  0.00    -0.000 C 
BRANCH  16  17
ATOM     17  C   UNL     1      -9.035  -0.730   3.114  1.00  0.00    -0.000 C 
BRANCH  17  18
ATOM     18  C   UNL     1      -9.723   0.617   2.843  1.00  0.00    -0.000 C 
BRANCH  18  19
ATOM     19  C   UNL     1     -11.012   0.470   2.020  1.00  0.00    -0.003 C 
ATOM     20  C   UNL     1     -11.925   1.677   2.210  1.00  0.00     0.004 C 
ENDBRANCH  18  19
ENDBRANCH  17  18
ENDBRANCH  16  17
ENDBRANCH  15  16
ENDBRANCH  14  15
ENDBRANCH  13  14
ENDBRANCH  12  13
ENDBRANCH   1  12
TORSDOF 16
ENDMDL
