MODEL 1
REMARK VINA RESULT:    33.315      0.000      0.000
REMARK INTER + INTRA:          53.558
REMARK INTER:                  51.818
REMARK INTRA:                   1.741
REMARK UNBOUND:                 1.741
REMARK SMILES C[C@]12C[C@]3(O)O[C@H](O1)[C@@]1(COC(=O)c4ccccc4)[C@@H]3C[C@]12O[C@H]1O[C@H](CO)[C@@H](O)[C@H](O)[C@@H]1O
REMARK SMILES IDX 1 1 2 2 3 3 4 4 20 5 21 6 22 7 9 8 7 9 8 10 6 11 23 12 24 13
REMARK SMILES IDX 33 14 25 15 31 16 26 17 29 18 34 19 32 21 27 23 28 24 30 26
REMARK SMILES IDX 5 28 10 30 11 31 12 32 13 33 14 34 15 35 19 36 16 37 18 38
REMARK SMILES IDX 17 39
REMARK H PARENT 34 20 32 22 28 25 30 27 5 29
REMARK Flexibility Score: inf
ROOT
ATOM      1  C   UNL     1      -0.626   6.548  10.495  1.00  0.00     0.046 C 
ATOM      2  C   UNL     1      -1.618   7.712  10.395  1.00  0.00     0.104 C 
ATOM      3  C   UNL     1      -2.135   8.150  11.813  1.00  0.00     0.104 C 
ATOM      4  C   UNL     1      -3.061   9.382  11.508  1.00  0.00     0.175 C 
ATOM      5  C   UNL     1      -2.327  10.399  10.564  1.00  0.00     0.070 C 
ATOM      6  C   UNL     1      -0.808  10.195  10.529  1.00  0.00     0.050 C 
ATOM      7  C   UNL     1      -1.081   8.973   9.628  1.00  0.00     0.115 C 
ATOM      8  C   UNL     1      -2.430   9.596   9.277  1.00  0.00     0.096 C 
ATOM      9  C   UNL     1      -3.488   8.530   9.503  1.00  0.00     0.267 C 
ATOM     10  O   UNL     1      -2.773   7.318   9.675  1.00  0.00    -0.342 OA
ATOM     11  O   UNL     1      -4.124   8.875  10.724  1.00  0.00    -0.320 OA
ENDROOT
BRANCH   7  12
ATOM     12  O   UNL     1      -0.267   8.742   8.489  1.00  0.00    -0.339 OA
BRANCH  12  13
ATOM     13  C   UNL     1       0.174   7.390   8.392  1.00  0.00     0.282 C 
ATOM     14  C   UNL     1       1.691   7.316   8.633  1.00  0.00     0.202 C 
ATOM     15  O   UNL     1      -0.145   6.839   7.122  1.00  0.00    -0.341 OA
ATOM     16  C   UNL     1       2.411   8.143   7.543  1.00  0.00     0.179 C 
ATOM     17  C   UNL     1       0.423   7.576   6.044  1.00  0.00     0.178 C 
ATOM     18  C   UNL     1       1.972   7.673   6.147  1.00  0.00     0.177 C 
BRANCH  14  19
ATOM     19  O   UNL     1       2.072   5.960   8.638  1.00  0.00    -0.385 OA
ATOM     20  H   UNL     1       1.283   5.391   8.864  1.00  0.00     0.211 HD
ENDBRANCH  14  19
BRANCH  16  21
ATOM     21  O   UNL     1       3.807   8.010   7.654  1.00  0.00    -0.387 OA
ATOM     22  H   UNL     1       4.210   8.639   6.991  1.00  0.00     0.211 HD
ENDBRANCH  16  21
BRANCH  17  23
ATOM     23  C   UNL     1       0.009   6.881   4.746  1.00  0.00     0.191 C 
BRANCH  23  24
ATOM     24  O   UNL     1       0.584   7.524   3.642  1.00  0.00    -0.394 OA
ATOM     25  H   UNL     1       1.487   7.127   3.514  1.00  0.00     0.210 HD
ENDBRANCH  23  24
ENDBRANCH  17  23
BRANCH  18  26
ATOM     26  O   UNL     1       2.474   8.568   5.193  1.00  0.00    -0.387 OA
ATOM     27  H   UNL     1       3.466   8.516   5.237  1.00  0.00     0.211 HD
ENDBRANCH  18  26
ENDBRANCH  12  13
ENDBRANCH   7  12
BRANCH   4  28
ATOM     28  O   UNL     1      -3.539   9.955  12.697  1.00  0.00    -0.365 OA
ATOM     29  H   UNL     1      -3.613   9.245  13.385  1.00  0.00     0.214 HD
ENDBRANCH   4  28
BRANCH   8  30
ATOM     30  C   UNL     1      -2.549  10.424   7.986  1.00  0.00     0.249 C 
BRANCH  30  31
ATOM     31  O   UNL     1      -3.725  11.225   8.031  1.00  0.00    -0.461 OA
BRANCH  31  32
ATOM     32  C   UNL     1      -3.796  12.442   8.725  1.00  0.00     0.338 C 
ATOM     33  O   UNL     1      -4.125  12.459   9.948  1.00  0.00    -0.246 OA
BRANCH  32  34
ATOM     34  C   UNL     1      -3.504  13.709   8.020  1.00  0.00     0.060 A 
ATOM     35  C   UNL     1      -2.718  13.718   6.852  1.00  0.00     0.015 A 
ATOM     36  C   UNL     1      -4.075  14.916   8.465  1.00  0.00     0.015 A 
ATOM     37  C   UNL     1      -2.519  14.911   6.150  1.00  0.00     0.001 A 
ATOM     38  C   UNL     1      -3.819  16.116   7.791  1.00  0.00     0.001 A 
ATOM     39  C   UNL     1      -3.041  16.111   6.631  1.00  0.00     0.000 A 
ENDBRANCH  32  34
ENDBRANCH  31  32
ENDBRANCH  30  31
ENDBRANCH   8  30
TORSDOF 12
ENDMDL
