MODEL 1
REMARK VINA RESULT:    -6.174      0.000      0.000
REMARK INTER + INTRA:          -7.837
REMARK INTER:                  -7.076
REMARK INTRA:                  -0.761
REMARK UNBOUND:                -0.761
REMARK SMILES OC[C@H]1O[C@@H](O[C@]2(CO)O[C@H](CO)[C@H](O)[C@H]2O)[C@@H](O)[C@H](O)[C@H]1O
REMARK SMILES IDX 6 1 5 2 3 3 22 4 4 5 20 6 18 7 2 8 1 9 23 11 21 13 19 15
REMARK SMILES IDX 7 17 16 18 10 19 14 20 11 21 8 22 9 23 17 25 15 27 12 29
REMARK SMILES IDX 13 30
REMARK H PARENT 1 10 23 12 21 14 19 16 9 24 17 26 15 28 13 31
REMARK Flexibility Score: inf
ROOT
ATOM      1  O   UNL     1      -0.197 -10.598  20.194  1.00  0.00    -0.313 OA
ENDROOT
BRANCH   1   2
ATOM      2  C   UNL     1      -1.364 -11.214  21.308  1.00  0.00     0.285 C 
ATOM      3  C   UNL     1      -2.856 -13.241  20.316  1.00  0.00     0.178 C 
ATOM      4  C   UNL     1      -4.028 -12.026  20.308  1.00  0.00     0.177 C 
ATOM      5  O   UNL     1      -1.816 -12.657  21.153  1.00  0.00    -0.341 OA
ATOM      6  C   UNL     1      -3.897 -10.692  21.223  1.00  0.00     0.179 C 
ATOM      7  C   UNL     1      -2.622 -10.339  22.086  1.00  0.00     0.202 C 
BRANCH   3   8
ATOM      8  C   UNL     1      -2.237 -14.337  18.983  1.00  0.00     0.191 C 
BRANCH   8   9
ATOM      9  O   UNL     1      -1.609 -15.630  19.262  1.00  0.00    -0.394 OA
ATOM     10  H   UNL     1      -2.162 -16.419  19.065  1.00  0.00     0.210 HD
ENDBRANCH   8   9
ENDBRANCH   3   8
BRANCH   4  11
ATOM     11  O   UNL     1      -4.622 -11.768  19.030  1.00  0.00    -0.387 OA
ATOM     12  H   UNL     1      -4.066 -10.992  18.683  1.00  0.00     0.211 HD
ENDBRANCH   4  11
BRANCH   6  13
ATOM     13  O   UNL     1      -5.142 -10.329  21.783  1.00  0.00    -0.387 OA
ATOM     14  H   UNL     1      -5.392  -9.397  21.483  1.00  0.00     0.211 HD
ENDBRANCH   6  13
BRANCH   7  15
ATOM     15  O   UNL     1      -2.593  -9.033  22.717  1.00  0.00    -0.385 OA
ATOM     16  H   UNL     1      -2.840  -9.258  23.630  1.00  0.00     0.211 HD
ENDBRANCH   7  15
ENDBRANCH   1   2
BRANCH   1  17
ATOM     17  C   UNL     1       1.065 -11.396  19.310  1.00  0.00     0.224 C 
ATOM     18  C   UNL     1       1.236 -10.926  17.796  1.00  0.00     0.208 C 
ATOM     19  O   UNL     1       2.318 -11.048  19.779  1.00  0.00    -0.337 OA
ATOM     20  C   UNL     1       1.410  -9.594  18.479  1.00  0.00     0.180 C 
ATOM     21  C   UNL     1       1.988  -9.963  20.094  1.00  0.00     0.179 C 
BRANCH  17  22
ATOM     22  C   UNL     1       1.720 -13.039  19.520  1.00  0.00     0.225 C 
BRANCH  22  23
ATOM     23  O   UNL     1       1.152 -14.273  19.040  1.00  0.00    -0.391 OA
ATOM     24  H   UNL     1       1.074 -14.909  19.884  1.00  0.00     0.210 HD
ENDBRANCH  22  23
ENDBRANCH  17  22
BRANCH  18  25
ATOM     25  O   UNL     1       2.503 -11.126  17.148  1.00  0.00    -0.385 OA
ATOM     26  H   UNL     1       2.371 -10.551  16.269  1.00  0.00     0.211 HD
ENDBRANCH  18  25
BRANCH  20  27
ATOM     27  O   UNL     1       0.179  -8.888  18.051  1.00  0.00    -0.387 OA
ATOM     28  H   UNL     1       0.481  -8.123  17.387  1.00  0.00     0.211 HD
ENDBRANCH  20  27
BRANCH  21  29
ATOM     29  C   UNL     1       1.478 -10.708  21.846  1.00  0.00     0.191 C 
BRANCH  29  30
ATOM     30  O   UNL     1       2.451 -11.166  22.828  1.00  0.00    -0.394 OA
ATOM     31  H   UNL     1       3.204 -10.533  23.271  1.00  0.00     0.210 HD
ENDBRANCH  29  30
ENDBRANCH  21  29
ENDBRANCH   1  17
TORSDOF 13
ENDMDL
MODEL 2
REMARK VINA RESULT:    -5.529      4.137      6.978
REMARK INTER + INTRA:          -7.098
REMARK INTER:                  -5.332
REMARK INTRA:                  -1.766
REMARK UNBOUND:                -0.761
REMARK SMILES OC[C@H]1O[C@@H](O[C@]2(CO)O[C@H](CO)[C@H](O)[C@H]2O)[C@@H](O)[C@H](O)[C@H]1O
REMARK SMILES IDX 6 1 5 2 3 3 22 4 4 5 20 6 18 7 2 8 1 9 23 11 21 13 19 15
REMARK SMILES IDX 7 17 16 18 10 19 14 20 11 21 8 22 9 23 17 25 15 27 12 29
REMARK SMILES IDX 13 30
REMARK H PARENT 1 10 23 12 21 14 19 16 9 24 17 26 15 28 13 31
REMARK Flexibility Score: inf
ROOT
ATOM      1  O   UNL     1       5.199 -10.180  18.215  1.00  0.00    -0.313 OA
ENDROOT
BRANCH   1   2
ATOM      2  C   UNL     1       3.834  -9.268  18.751  1.00  0.00     0.285 C 
ATOM      3  C   UNL     1       3.259  -9.607  21.374  1.00  0.00     0.178 C 
ATOM      4  C   UNL     1       1.971 -10.474  20.710  1.00  0.00     0.177 C 
ATOM      5  O   UNL     1       3.762  -8.875  20.218  1.00  0.00    -0.341 OA
ATOM      6  C   UNL     1       1.481 -10.257  19.178  1.00  0.00     0.179 C 
ATOM      7  C   UNL     1       2.231  -9.336  18.136  1.00  0.00     0.202 C 
BRANCH   3   8
ATOM      8  C   UNL     1       4.542 -10.084  22.593  1.00  0.00     0.191 C 
BRANCH   8   9
ATOM      9  O   UNL     1       5.661  -9.203  22.937  1.00  0.00    -0.394 OA
ATOM     10  H   UNL     1       5.590  -8.283  22.600  1.00  0.00     0.210 HD
ENDBRANCH   8   9
ENDBRANCH   3   8
BRANCH   4  11
ATOM     11  O   UNL     1       1.879 -11.838  21.136  1.00  0.00    -0.387 OA
ATOM     12  H   UNL     1       1.007 -11.846  21.658  1.00  0.00     0.211 HD
ENDBRANCH   4  11
BRANCH   6  13
ATOM     13  O   UNL     1       0.072 -10.277  19.082  1.00  0.00    -0.387 OA
ATOM     14  H   UNL     1      -0.277 -11.180  19.377  1.00  0.00     0.211 HD
ENDBRANCH   6  13
BRANCH   7  15
ATOM     15  O   UNL     1       1.763  -9.377  16.764  1.00  0.00    -0.385 OA
ATOM     16  H   UNL     1       2.023  -8.495  16.449  1.00  0.00     0.211 HD
ENDBRANCH   7  15
ENDBRANCH   1   2
BRANCH   1  17
ATOM     17  C   UNL     1       6.619  -9.697  17.344  1.00  0.00     0.224 C 
ATOM     18  C   UNL     1       7.727  -8.946  18.211  1.00  0.00     0.208 C 
ATOM     19  O   UNL     1       7.372 -10.786  16.944  1.00  0.00    -0.337 OA
ATOM     20  C   UNL     1       7.629 -10.223  19.005  1.00  0.00     0.180 C 
ATOM     21  C   UNL     1       7.065 -11.440  17.874  1.00  0.00     0.179 C 
BRANCH  17  22
ATOM     22  C   UNL     1       6.793  -9.266  15.623  1.00  0.00     0.225 C 
BRANCH  22  23
ATOM     23  O   UNL     1       8.011  -8.950  14.922  1.00  0.00    -0.391 OA
ATOM     24  H   UNL     1       8.241  -9.801  14.335  1.00  0.00     0.210 HD
ENDBRANCH  22  23
ENDBRANCH  17  22
BRANCH  18  25
ATOM     25  O   UNL     1       9.088  -8.953  17.752  1.00  0.00    -0.385 OA
ATOM     26  H   UNL     1       9.342  -9.971  17.895  1.00  0.00     0.211 HD
ENDBRANCH  18  25
BRANCH  20  27
ATOM     27  O   UNL     1       7.010  -9.736  20.260  1.00  0.00    -0.387 OA
ATOM     28  H   UNL     1       7.009 -10.549  20.936  1.00  0.00     0.211 HD
ENDBRANCH  20  27
BRANCH  21  29
ATOM     29  C   UNL     1       5.512 -12.059  16.831  1.00  0.00     0.191 C 
BRANCH  29  30
ATOM     30  O   UNL     1       4.526 -12.996  17.354  1.00  0.00    -0.394 OA
ATOM     31  H   UNL     1       4.755 -13.783  18.055  1.00  0.00     0.210 HD
ENDBRANCH  29  30
ENDBRANCH  21  29
ENDBRANCH   1  17
TORSDOF 13
ENDMDL
MODEL 3
REMARK VINA RESULT:    -5.527      1.840      6.054
REMARK INTER + INTRA:          -7.097
REMARK INTER:                  -5.386
REMARK INTRA:                  -1.710
REMARK UNBOUND:                -0.761
REMARK SMILES OC[C@H]1O[C@@H](O[C@]2(CO)O[C@H](CO)[C@H](O)[C@H]2O)[C@@H](O)[C@H](O)[C@H]1O
REMARK SMILES IDX 6 1 5 2 3 3 22 4 4 5 20 6 18 7 2 8 1 9 23 11 21 13 19 15
REMARK SMILES IDX 7 17 16 18 10 19 14 20 11 21 8 22 9 23 17 25 15 27 12 29
REMARK SMILES IDX 13 30
REMARK H PARENT 1 10 23 12 21 14 19 16 9 24 17 26 15 28 13 31
REMARK Flexibility Score: inf
ROOT
ATOM      1  O   UNL     1      -1.132 -13.083  20.117  1.00  0.00    -0.313 OA
ENDROOT
BRANCH   1   2
ATOM      2  C   UNL     1       0.377 -12.295  20.403  1.00  0.00     0.285 C 
ATOM      3  C   UNL     1       0.156  -9.629  20.812  1.00  0.00     0.178 C 
ATOM      4  C   UNL     1       0.838  -9.601  19.268  1.00  0.00     0.177 C 
ATOM      5  O   UNL     1       0.377 -11.011  21.218  1.00  0.00    -0.341 OA
ATOM      6  C   UNL     1       1.645 -10.869  18.655  1.00  0.00     0.179 C 
ATOM      7  C   UNL     1       1.751 -12.273  19.371  1.00  0.00     0.202 C 
BRANCH   3   8
ATOM      8  C   UNL     1      -1.378  -8.875  21.473  1.00  0.00     0.191 C 
BRANCH   8   9
ATOM      9  O   UNL     1      -2.374  -9.651  22.216  1.00  0.00    -0.394 OA
ATOM     10  H   UNL     1      -2.156  -9.823  23.159  1.00  0.00     0.210 HD
ENDBRANCH   8   9
ENDBRANCH   3   8
BRANCH   4  11
ATOM     11  O   UNL     1       0.070  -8.901  18.281  1.00  0.00    -0.387 OA
ATOM     12  H   UNL     1      -0.866  -9.265  18.433  1.00  0.00     0.211 HD
ENDBRANCH   4  11
BRANCH   6  13
ATOM     13  O   UNL     1       2.791 -10.452  17.942  1.00  0.00    -0.387 OA
ATOM     14  H   UNL     1       2.518  -9.826  17.195  1.00  0.00     0.211 HD
ENDBRANCH   6  13
BRANCH   7  15
ATOM     15  O   UNL     1       2.367 -13.351  18.620  1.00  0.00    -0.385 OA
ATOM     16  H   UNL     1       3.076 -13.624  19.226  1.00  0.00     0.211 HD
ENDBRANCH   7  15
ENDBRANCH   1   2
BRANCH   1  17
ATOM     17  C   UNL     1      -1.715 -14.640  20.612  1.00  0.00     0.224 C 
ATOM     18  C   UNL     1      -2.317 -14.704  22.088  1.00  0.00     0.208 C 
ATOM     19  O   UNL     1      -2.847 -15.012  19.910  1.00  0.00    -0.337 OA
ATOM     20  C   UNL     1      -3.201 -13.625  21.517  1.00  0.00     0.180 C 
ATOM     21  C   UNL     1      -3.231 -13.905  19.786  1.00  0.00     0.179 C 
BRANCH  17  22
ATOM     22  C   UNL     1      -1.175 -16.259  20.100  1.00  0.00     0.225 C 
BRANCH  22  23
ATOM     23  O   UNL     1      -0.227 -16.575  19.063  1.00  0.00    -0.391 OA
ATOM     24  H   UNL     1       0.704 -16.188  19.388  1.00  0.00     0.210 HD
ENDBRANCH  22  23
ENDBRANCH  17  22
BRANCH  18  25
ATOM     25  O   UNL     1      -3.248 -15.749  22.412  1.00  0.00    -0.385 OA
ATOM     26  H   UNL     1      -3.773 -15.839  21.496  1.00  0.00     0.211 HD
ENDBRANCH  18  25
BRANCH  20  27
ATOM     27  O   UNL     1      -2.737 -12.441  22.278  1.00  0.00    -0.387 OA
ATOM     28  H   UNL     1      -1.890 -12.746  22.833  1.00  0.00     0.211 HD
ENDBRANCH  20  27
BRANCH  21  29
ATOM     29  C   UNL     1      -2.168 -13.804  18.129  1.00  0.00     0.191 C 
BRANCH  29  30
ATOM     30  O   UNL     1      -2.507 -14.544  16.921  1.00  0.00    -0.394 OA
ATOM     31  H   UNL     1      -3.015 -14.113  16.072  1.00  0.00     0.210 HD
ENDBRANCH  29  30
ENDBRANCH  21  29
ENDBRANCH   1  17
TORSDOF 13
ENDMDL
MODEL 4
REMARK VINA RESULT:    -5.491      3.470      7.371
REMARK INTER + INTRA:          -7.055
REMARK INTER:                  -5.430
REMARK INTRA:                  -1.625
REMARK UNBOUND:                -0.761
REMARK SMILES OC[C@H]1O[C@@H](O[C@]2(CO)O[C@H](CO)[C@H](O)[C@H]2O)[C@@H](O)[C@H](O)[C@H]1O
REMARK SMILES IDX 6 1 5 2 3 3 22 4 4 5 20 6 18 7 2 8 1 9 23 11 21 13 19 15
REMARK SMILES IDX 7 17 16 18 10 19 14 20 11 21 8 22 9 23 17 25 15 27 12 29
REMARK SMILES IDX 13 30
REMARK H PARENT 1 10 23 12 21 14 19 16 9 24 17 26 15 28 13 31
REMARK Flexibility Score: inf
ROOT
ATOM      1  O   UNL     1       3.230 -10.768  18.316  1.00  0.00    -0.313 OA
ENDROOT
BRANCH   1   2
ATOM      2  C   UNL     1       4.735 -10.025  17.909  1.00  0.00     0.285 C 
ATOM      3  C   UNL     1       6.230 -11.469  16.177  1.00  0.00     0.178 C 
ATOM      4  C   UNL     1       7.139 -11.719  17.577  1.00  0.00     0.177 C 
ATOM      5  O   UNL     1       5.365 -10.364  16.567  1.00  0.00    -0.341 OA
ATOM      6  C   UNL     1       7.032 -10.736  18.864  1.00  0.00     0.179 C 
ATOM      7  C   UNL     1       5.989  -9.556  18.986  1.00  0.00     0.202 C 
BRANCH   3   8
ATOM      8  C   UNL     1       5.475 -12.649  14.995  1.00  0.00     0.191 C 
BRANCH   8   9
ATOM      9  O   UNL     1       4.184 -13.294  15.251  1.00  0.00    -0.394 OA
ATOM     10  H   UNL     1       3.927 -13.359  16.197  1.00  0.00     0.210 HD
ENDBRANCH   8   9
ENDBRANCH   3   8
BRANCH   4  11
ATOM     11  O   UNL     1       7.325 -13.092  17.940  1.00  0.00    -0.387 OA
ATOM     12  H   UNL     1       6.371 -13.411  18.086  1.00  0.00     0.211 HD
ENDBRANCH   4  11
BRANCH   6  13
ATOM     13  O   UNL     1       8.302 -10.498  19.436  1.00  0.00    -0.387 OA
ATOM     14  H   UNL     1       8.198  -9.956  20.283  1.00  0.00     0.211 HD
ENDBRANCH   6  13
BRANCH   7  15
ATOM     15  O   UNL     1       5.909  -8.875  20.265  1.00  0.00    -0.385 OA
ATOM     16  H   UNL     1       6.274  -9.549  20.862  1.00  0.00     0.211 HD
ENDBRANCH   7  15
ENDBRANCH   1   2
BRANCH   1  17
ATOM     17  C   UNL     1       2.041 -10.352  19.509  1.00  0.00     0.224 C 
ATOM     18  C   UNL     1       1.199  -9.034  19.199  1.00  0.00     0.208 C 
ATOM     19  O   UNL     1       1.000 -11.262  19.536  1.00  0.00    -0.337 OA
ATOM     20  C   UNL     1       0.888  -9.814  17.948  1.00  0.00     0.180 C 
ATOM     21  C   UNL     1       1.075 -11.503  18.385  1.00  0.00     0.179 C 
BRANCH  17  22
ATOM     22  C   UNL     1       2.039 -10.683  21.260  1.00  0.00     0.225 C 
BRANCH  22  23
ATOM     23  O   UNL     1       1.079 -10.228  22.233  1.00  0.00    -0.391 OA
ATOM     24  H   UNL     1       0.131 -10.543  21.879  1.00  0.00     0.210 HD
ENDBRANCH  22  23
ENDBRANCH  17  22
BRANCH  18  25
ATOM     25  O   UNL     1      -0.091  -8.876  19.813  1.00  0.00    -0.385 OA
ATOM     26  H   UNL     1       0.145  -9.069  20.827  1.00  0.00     0.211 HD
ENDBRANCH  18  25
BRANCH  20  27
ATOM     27  O   UNL     1       1.602  -9.015  16.925  1.00  0.00    -0.387 OA
ATOM     28  H   UNL     1       2.534  -8.744  17.345  1.00  0.00     0.211 HD
ENDBRANCH  20  27
BRANCH  21  29
ATOM     29  C   UNL     1       2.385 -12.903  18.841  1.00  0.00     0.191 C 
BRANCH  29  30
ATOM     30  O   UNL     1       3.420 -13.352  17.920  1.00  0.00    -0.394 OA
ATOM     31  H   UNL     1       3.634 -14.389  17.712  1.00  0.00     0.210 HD
ENDBRANCH  29  30
ENDBRANCH  21  29
ENDBRANCH   1  17
TORSDOF 13
ENDMDL
MODEL 5
REMARK VINA RESULT:    -5.405      1.673      6.190
REMARK INTER + INTRA:          -6.956
REMARK INTER:                  -5.107
REMARK INTRA:                  -1.849
REMARK UNBOUND:                -0.761
REMARK SMILES OC[C@H]1O[C@@H](O[C@]2(CO)O[C@H](CO)[C@H](O)[C@H]2O)[C@@H](O)[C@H](O)[C@H]1O
REMARK SMILES IDX 6 1 5 2 3 3 22 4 4 5 20 6 18 7 2 8 1 9 23 11 21 13 19 15
REMARK SMILES IDX 7 17 16 18 10 19 14 20 11 21 8 22 9 23 17 25 15 27 12 29
REMARK SMILES IDX 13 30
REMARK H PARENT 1 10 23 12 21 14 19 16 9 24 17 26 15 28 13 31
REMARK Flexibility Score: inf
ROOT
ATOM      1  O   UNL     1      -1.531 -12.363  20.499  1.00  0.00    -0.313 OA
ENDROOT
BRANCH   1   2
ATOM      2  C   UNL     1       0.170 -12.639  20.615  1.00  0.00     0.285 C 
ATOM      3  C   UNL     1       1.621 -10.379  20.945  1.00  0.00     0.178 C 
ATOM      4  C   UNL     1       2.033 -10.723  19.345  1.00  0.00     0.177 C 
ATOM      5  O   UNL     1       1.012 -11.630  21.379  1.00  0.00    -0.341 OA
ATOM      6  C   UNL     1       1.863 -12.205  18.707  1.00  0.00     0.179 C 
ATOM      7  C   UNL     1       1.179 -13.414  19.459  1.00  0.00     0.202 C 
BRANCH   3   8
ATOM      8  C   UNL     1       0.911  -8.876  21.719  1.00  0.00     0.191 C 
BRANCH   8   9
ATOM      9  O   UNL     1      -0.288  -8.921  22.560  1.00  0.00    -0.394 OA
ATOM     10  H   UNL     1      -0.412  -9.752  23.071  1.00  0.00     0.210 HD
ENDBRANCH   8   9
ENDBRANCH   3   8
BRANCH   4  11
ATOM     11  O   UNL     1       1.744  -9.677  18.409  1.00  0.00    -0.387 OA
ATOM     12  H   UNL     1       2.531  -9.731  17.769  1.00  0.00     0.211 HD
ENDBRANCH   4  11
BRANCH   6  13
ATOM     13  O   UNL     1       2.956 -12.535  17.875  1.00  0.00    -0.387 OA
ATOM     14  H   UNL     1       3.594 -13.139  18.376  1.00  0.00     0.211 HD
ENDBRANCH   6  13
BRANCH   7  15
ATOM     15  O   UNL     1       0.955 -14.626  18.695  1.00  0.00    -0.385 OA
ATOM     16  H   UNL     1       1.737 -15.149  18.936  1.00  0.00     0.211 HD
ENDBRANCH   7  15
ENDBRANCH   1   2
BRANCH   1  17
ATOM     17  C   UNL     1      -2.786 -12.475  21.692  1.00  0.00     0.224 C 
ATOM     18  C   UNL     1      -3.237 -11.088  22.338  1.00  0.00     0.208 C 
ATOM     19  O   UNL     1      -3.995 -12.846  21.131  1.00  0.00    -0.337 OA
ATOM     20  C   UNL     1      -3.491 -10.769  20.887  1.00  0.00     0.180 C 
ATOM     21  C   UNL     1      -3.774 -12.313  20.105  1.00  0.00     0.179 C 
BRANCH  17  22
ATOM     22  C   UNL     1      -3.174 -13.819  22.795  1.00  0.00     0.225 C 
BRANCH  22  23
ATOM     23  O   UNL     1      -3.158 -15.228  22.493  1.00  0.00    -0.391 OA
ATOM     24  H   UNL     1      -2.159 -15.548  22.638  1.00  0.00     0.210 HD
ENDBRANCH  22  23
ENDBRANCH  17  22
BRANCH  18  25
ATOM     25  O   UNL     1      -4.544 -10.990  22.925  1.00  0.00    -0.385 OA
ATOM     26  H   UNL     1      -4.653  -9.939  22.996  1.00  0.00     0.211 HD
ENDBRANCH  18  25
BRANCH  20  27
ATOM     27  O   UNL     1      -2.442  -9.753  20.628  1.00  0.00    -0.387 OA
ATOM     28  H   UNL     1      -2.183  -9.336  21.565  1.00  0.00     0.211 HD
ENDBRANCH  20  27
BRANCH  21  29
ATOM     29  C   UNL     1      -2.919 -13.986  19.507  1.00  0.00     0.191 C 
BRANCH  29  30
ATOM     30  O   UNL     1      -2.063 -14.064  18.332  1.00  0.00    -0.394 OA
ATOM     31  H   UNL     1      -2.028 -14.913  17.667  1.00  0.00     0.210 HD
ENDBRANCH  29  30
ENDBRANCH  21  29
ENDBRANCH   1  17
TORSDOF 13
ENDMDL
MODEL 6
REMARK VINA RESULT:    -5.329      1.663      4.483
REMARK INTER + INTRA:          -6.869
REMARK INTER:                  -5.309
REMARK INTRA:                  -1.560
REMARK UNBOUND:                -0.761
REMARK SMILES OC[C@H]1O[C@@H](O[C@]2(CO)O[C@H](CO)[C@H](O)[C@H]2O)[C@@H](O)[C@H](O)[C@H]1O
REMARK SMILES IDX 6 1 5 2 3 3 22 4 4 5 20 6 18 7 2 8 1 9 23 11 21 13 19 15
REMARK SMILES IDX 7 17 16 18 10 19 14 20 11 21 8 22 9 23 17 25 15 27 12 29
REMARK SMILES IDX 13 30
REMARK H PARENT 1 10 23 12 21 14 19 16 9 24 17 26 15 28 13 31
REMARK Flexibility Score: inf
ROOT
ATOM      1  O   UNL     1       0.069 -12.510  19.763  1.00  0.00    -0.313 OA
ENDROOT
BRANCH   1   2
ATOM      2  C   UNL     1      -1.135 -13.650  19.281  1.00  0.00     0.285 C 
ATOM      3  C   UNL     1      -3.514 -13.316  20.526  1.00  0.00     0.178 C 
ATOM      4  C   UNL     1      -3.004 -14.721  21.311  1.00  0.00     0.177 C 
ATOM      5  O   UNL     1      -2.596 -13.247  19.397  1.00  0.00    -0.341 OA
ATOM      6  C   UNL     1      -1.867 -15.696  20.687  1.00  0.00     0.179 C 
ATOM      7  C   UNL     1      -1.043 -15.364  19.380  1.00  0.00     0.202 C 
BRANCH   3   8
ATOM      8  C   UNL     1      -4.045 -11.687  21.179  1.00  0.00     0.191 C 
BRANCH   8   9
ATOM      9  O   UNL     1      -3.796 -11.281  22.564  1.00  0.00    -0.394 OA
ATOM     10  H   UNL     1      -4.306 -10.499  22.871  1.00  0.00     0.210 HD
ENDBRANCH   8   9
ENDBRANCH   3   8
BRANCH   4  11
ATOM     11  O   UNL     1      -2.929 -14.622  22.738  1.00  0.00    -0.387 OA
ATOM     12  H   UNL     1      -2.049 -14.135  22.879  1.00  0.00     0.211 HD
ENDBRANCH   4  11
BRANCH   6  13
ATOM     13  O   UNL     1      -2.195 -17.056  20.879  1.00  0.00    -0.387 OA
ATOM     14  H   UNL     1      -2.751 -17.157  21.718  1.00  0.00     0.211 HD
ENDBRANCH   6  13
BRANCH   7  15
ATOM     15  O   UNL     1       0.050 -16.257  19.044  1.00  0.00    -0.385 OA
ATOM     16  H   UNL     1       0.642 -16.126  19.803  1.00  0.00     0.211 HD
ENDBRANCH   7  15
ENDBRANCH   1   2
BRANCH   1  17
ATOM     17  C   UNL     1       0.019 -10.779  19.872  1.00  0.00     0.224 C 
ATOM     18  C   UNL     1      -0.902 -10.198  21.037  1.00  0.00     0.208 C 
ATOM     19  O   UNL     1       1.231 -10.256  20.284  1.00  0.00    -0.337 OA
ATOM     20  C   UNL     1       0.014 -11.060  21.867  1.00  0.00     0.180 C 
ATOM     21  C   UNL     1       1.502 -11.192  20.946  1.00  0.00     0.179 C 
BRANCH  17  22
ATOM     22  C   UNL     1       0.219  -9.563  18.585  1.00  0.00     0.225 C 
BRANCH  22  23
ATOM     23  O   UNL     1       0.887  -9.735  17.320  1.00  0.00    -0.391 OA
ATOM     24  H   UNL     1       0.348  -9.148  16.622  1.00  0.00     0.210 HD
ENDBRANCH  22  23
ENDBRANCH  17  22
BRANCH  18  25
ATOM     25  O   UNL     1      -0.640  -8.875  21.533  1.00  0.00    -0.385 OA
ATOM     26  H   UNL     1      -0.229  -9.095  22.484  1.00  0.00     0.211 HD
ENDBRANCH  18  25
BRANCH  20  27
ATOM     27  O   UNL     1      -0.918 -12.120  22.318  1.00  0.00    -0.387 OA
ATOM     28  H   UNL     1      -0.467 -13.046  22.079  1.00  0.00     0.211 HD
ENDBRANCH  20  27
BRANCH  21  29
ATOM     29  C   UNL     1       2.327 -11.989  19.344  1.00  0.00     0.191 C 
BRANCH  29  30
ATOM     30  O   UNL     1       2.346 -13.423  19.089  1.00  0.00    -0.394 OA
ATOM     31  H   UNL     1       2.897 -13.886  18.286  1.00  0.00     0.210 HD
ENDBRANCH  29  30
ENDBRANCH  21  29
ENDBRANCH   1  17
TORSDOF 13
ENDMDL
MODEL 7
REMARK VINA RESULT:    -4.563      1.636      5.699
REMARK INTER + INTRA:          -5.991
REMARK INTER:                  -5.260
REMARK INTRA:                  -0.731
REMARK UNBOUND:                -0.761
REMARK SMILES OC[C@H]1O[C@@H](O[C@]2(CO)O[C@H](CO)[C@H](O)[C@H]2O)[C@@H](O)[C@H](O)[C@H]1O
REMARK SMILES IDX 6 1 5 2 3 3 22 4 4 5 20 6 18 7 2 8 1 9 23 11 21 13 19 15
REMARK SMILES IDX 7 17 16 18 10 19 14 20 11 21 8 22 9 23 17 25 15 27 12 29
REMARK SMILES IDX 13 30
REMARK H PARENT 1 10 23 12 21 14 19 16 9 24 17 26 15 28 13 31
REMARK Flexibility Score: inf
ROOT
ATOM      1  O   UNL     1      -1.906 -11.800  20.745  1.00  0.00    -0.313 OA
ENDROOT
BRANCH   1   2
ATOM      2  C   UNL     1      -0.993 -10.336  20.673  1.00  0.00     0.285 C 
ATOM      3  C   UNL     1       1.452 -10.628  19.552  1.00  0.00     0.178 C 
ATOM      4  C   UNL     1       1.924 -10.427  21.160  1.00  0.00     0.177 C 
ATOM      5  O   UNL     1       0.061 -10.197  19.586  1.00  0.00    -0.341 OA
ATOM      6  C   UNL     1       0.956  -9.739  22.266  1.00  0.00     0.179 C 
ATOM      7  C   UNL     1      -0.543  -9.326  21.988  1.00  0.00     0.202 C 
BRANCH   3   8
ATOM      8  C   UNL     1       1.810 -11.957  18.341  1.00  0.00     0.191 C 
BRANCH   8   9
ATOM      9  O   UNL     1       2.148 -13.321  18.753  1.00  0.00    -0.394 OA
ATOM     10  H   UNL     1       1.382 -13.901  18.960  1.00  0.00     0.210 HD
ENDBRANCH   8   9
ENDBRANCH   3   8
BRANCH   4  11
ATOM     11  O   UNL     1       2.710 -11.497  21.697  1.00  0.00    -0.387 OA
ATOM     12  H   UNL     1       3.085 -11.088  22.548  1.00  0.00     0.211 HD
ENDBRANCH   4  11
BRANCH   6  13
ATOM     13  O   UNL     1       1.683  -8.884  23.124  1.00  0.00    -0.387 OA
ATOM     14  H   UNL     1       2.628  -9.228  23.227  1.00  0.00     0.211 HD
ENDBRANCH   6  13
BRANCH   7  15
ATOM     15  O   UNL     1      -1.325  -8.875  23.124  1.00  0.00    -0.385 OA
ATOM     16  H   UNL     1      -0.838  -8.075  23.384  1.00  0.00     0.211 HD
ENDBRANCH   7  15
ENDBRANCH   1   2
BRANCH   1  17
ATOM     17  C   UNL     1      -3.072 -12.360  21.901  1.00  0.00     0.224 C 
ATOM     18  C   UNL     1      -4.019 -11.231  22.513  1.00  0.00     0.208 C 
ATOM     19  O   UNL     1      -4.042 -13.148  21.311  1.00  0.00    -0.337 OA
ATOM     20  C   UNL     1      -4.324 -11.031  21.050  1.00  0.00     0.180 C 
ATOM     21  C   UNL     1      -3.998 -12.575  20.283  1.00  0.00     0.179 C 
BRANCH  17  22
ATOM     22  C   UNL     1      -2.979 -13.749  23.013  1.00  0.00     0.225 C 
BRANCH  22  23
ATOM     23  O   UNL     1      -3.221 -15.134  22.700  1.00  0.00    -0.391 OA
ATOM     24  H   UNL     1      -2.270 -15.567  22.525  1.00  0.00     0.210 HD
ENDBRANCH  22  23
ENDBRANCH  17  22
BRANCH  18  25
ATOM     25  O   UNL     1      -5.291 -11.616  23.059  1.00  0.00    -0.385 OA
ATOM     26  H   UNL     1      -5.307 -11.044  23.950  1.00  0.00     0.211 HD
ENDBRANCH  18  25
BRANCH  20  27
ATOM     27  O   UNL     1      -3.711  -9.704  20.807  1.00  0.00    -0.387 OA
ATOM     28  H   UNL     1      -3.458  -9.307  21.754  1.00  0.00     0.211 HD
ENDBRANCH  20  27
BRANCH  21  29
ATOM     29  C   UNL     1      -2.572 -13.822  19.737  1.00  0.00     0.191 C 
BRANCH  29  30
ATOM     30  O   UNL     1      -2.761 -15.264  19.669  1.00  0.00    -0.394 OA
ATOM     31  H   UNL     1      -1.956 -15.973  19.559  1.00  0.00     0.210 HD
ENDBRANCH  29  30
ENDBRANCH  21  29
ENDBRANCH   1  17
TORSDOF 13
ENDMDL
MODEL 8
REMARK VINA RESULT:    -4.305      1.588      5.669
REMARK INTER + INTRA:          -5.695
REMARK INTER:                  -3.801
REMARK INTRA:                  -1.895
REMARK UNBOUND:                -0.761
REMARK SMILES OC[C@H]1O[C@@H](O[C@]2(CO)O[C@H](CO)[C@H](O)[C@H]2O)[C@@H](O)[C@H](O)[C@H]1O
REMARK SMILES IDX 6 1 5 2 3 3 22 4 4 5 20 6 18 7 2 8 1 9 23 11 21 13 19 15
REMARK SMILES IDX 7 17 16 18 10 19 14 20 11 21 8 22 9 23 17 25 15 27 12 29
REMARK SMILES IDX 13 30
REMARK H PARENT 1 10 23 12 21 14 19 16 9 24 17 26 15 28 13 31
REMARK Flexibility Score: inf
ROOT
ATOM      1  O   UNL     1      -0.816 -13.083  20.866  1.00  0.00    -0.313 OA
ENDROOT
BRANCH   1   2
ATOM      2  C   UNL     1       0.604 -12.105  20.773  1.00  0.00     0.285 C 
ATOM      3  C   UNL     1       0.140  -9.469  21.173  1.00  0.00     0.178 C 
ATOM      4  C   UNL     1       0.437  -9.433  19.512  1.00  0.00     0.177 C 
ATOM      5  O   UNL     1       0.625 -10.793  21.541  1.00  0.00    -0.341 OA
ATOM      6  C   UNL     1       1.237 -10.621  18.750  1.00  0.00     0.179 C 
ATOM      7  C   UNL     1       1.687 -11.966  19.446  1.00  0.00     0.202 C 
BRANCH   3   8
ATOM      8  C   UNL     1      -1.284  -8.875  22.164  1.00  0.00     0.191 C 
BRANCH   8   9
ATOM      9  O   UNL     1      -2.656  -9.316  21.903  1.00  0.00    -0.394 OA
ATOM     10  H   UNL     1      -2.933  -9.292  20.960  1.00  0.00     0.210 HD
ENDBRANCH   8   9
ENDBRANCH   3   8
BRANCH   4  11
ATOM     11  O   UNL     1      -0.622  -8.880  18.721  1.00  0.00    -0.387 OA
ATOM     12  H   UNL     1      -0.257  -8.962  17.777  1.00  0.00     0.211 HD
ENDBRANCH   4  11
BRANCH   6  13
ATOM     13  O   UNL     1       2.123 -10.103  17.779  1.00  0.00    -0.387 OA
ATOM     14  H   UNL     1       1.613  -9.518  17.131  1.00  0.00     0.211 HD
ENDBRANCH   6  13
BRANCH   7  15
ATOM     15  O   UNL     1       2.246 -12.997  18.592  1.00  0.00    -0.385 OA
ATOM     16  H   UNL     1       3.051 -13.233  19.081  1.00  0.00     0.211 HD
ENDBRANCH   7  15
ENDBRANCH   1   2
BRANCH   1  17
ATOM     17  C   UNL     1      -2.075 -13.376  19.708  1.00  0.00     0.224 C 
ATOM     18  C   UNL     1      -1.608 -14.094  18.363  1.00  0.00     0.208 C 
ATOM     19  O   UNL     1      -2.970 -14.330  20.154  1.00  0.00    -0.337 OA
ATOM     20  C   UNL     1      -1.135 -15.122  19.358  1.00  0.00     0.180 C 
ATOM     21  C   UNL     1      -2.158 -14.921  20.768  1.00  0.00     0.179 C 
BRANCH  17  22
ATOM     22  C   UNL     1      -3.579 -12.463  19.426  1.00  0.00     0.225 C 
BRANCH  22  23
ATOM     23  O   UNL     1      -4.177 -11.478  20.290  1.00  0.00    -0.391 OA
ATOM     24  H   UNL     1      -5.207 -11.457  20.045  1.00  0.00     0.210 HD
ENDBRANCH  22  23
ENDBRANCH  17  22
BRANCH  18  25
ATOM     25  O   UNL     1      -2.581 -14.815  17.590  1.00  0.00    -0.385 OA
ATOM     26  H   UNL     1      -2.417 -14.403  16.628  1.00  0.00     0.211 HD
ENDBRANCH  18  25
BRANCH  20  27
ATOM     27  O   UNL     1       0.336 -14.993  19.227  1.00  0.00    -0.387 OA
ATOM     28  H   UNL     1       0.763 -15.776  19.796  1.00  0.00     0.211 HD
ENDBRANCH  20  27
BRANCH  21  29
ATOM     29  C   UNL     1      -2.567 -13.744  22.295  1.00  0.00     0.191 C 
BRANCH  29  30
ATOM     30  O   UNL     1      -3.926 -13.430  22.715  1.00  0.00    -0.394 OA
ATOM     31  H   UNL     1      -4.520 -14.062  23.356  1.00  0.00     0.210 HD
ENDBRANCH  29  30
ENDBRANCH  21  29
ENDBRANCH   1  17
TORSDOF 13
ENDMDL
