MODEL 1
REMARK VINA RESULT:    -2.125      0.000      0.000
REMARK INTER + INTRA:          -2.327
REMARK INTER:                  -2.311
REMARK INTRA:                  -0.016
REMARK UNBOUND:                -0.016
REMARK SMILES OCc1ccco1
REMARK SMILES IDX 2 1 3 2 5 3 6 4 4 5 7 6 1 7
REMARK H PARENT 1 8
REMARK Flexibility Score: inf
ROOT
ATOM      1  C   UNL     1     -33.760 -35.909  12.623  1.00  0.00     0.231 C 
ENDROOT
BRANCH   1   2
ATOM      2  C   UNL     1     -32.356 -35.396  12.605  1.00  0.00     0.129 A 
ATOM      3  C   UNL     1     -30.551 -34.234  12.142  1.00  0.00     0.042 A 
ATOM      4  C   UNL     1     -30.267 -35.268  13.011  1.00  0.00     0.195 A 
ATOM      5  C   UNL     1     -31.901 -34.317  11.875  1.00  0.00     0.048 A 
ATOM      6  O   UNL     1     -31.364 -35.945  13.267  1.00  0.00    -0.467 OA
ENDBRANCH   1   2
BRANCH   1   7
ATOM      7  O   UNL     1     -34.591 -35.064  11.876  1.00  0.00    -0.388 OA
ATOM      8  H   UNL     1     -35.511 -35.428  11.956  1.00  0.00     0.211 HD
ENDBRANCH   1   7
TORSDOF 2
ENDMDL
MODEL 2
REMARK VINA RESULT:    -1.880      2.610      3.680
REMARK INTER + INTRA:          -2.061
REMARK INTER:                  -2.045
REMARK INTRA:                  -0.016
REMARK UNBOUND:                -0.016
REMARK SMILES OCc1ccco1
REMARK SMILES IDX 2 1 3 2 5 3 6 4 4 5 7 6 1 7
REMARK H PARENT 1 8
REMARK Flexibility Score: inf
ROOT
ATOM      1  C   UNL     1     -33.681 -35.993  12.896  1.00  0.00     0.231 C 
ENDROOT
BRANCH   1   2
ATOM      2  C   UNL     1     -33.984 -35.792  14.346  1.00  0.00     0.129 A 
ATOM      3  C   UNL     1     -34.956 -35.211  16.227  1.00  0.00     0.042 A 
ATOM      4  C   UNL     1     -33.724 -35.787  16.461  1.00  0.00     0.195 A 
ATOM      5  C   UNL     1     -35.125 -35.211  14.859  1.00  0.00     0.048 A 
ATOM      6  O   UNL     1     -33.167 -36.121  15.319  1.00  0.00    -0.467 OA
ENDBRANCH   1   2
BRANCH   1   7
ATOM      7  O   UNL     1     -34.566 -35.243  12.111  1.00  0.00    -0.388 OA
ATOM      8  H   UNL     1     -34.392 -35.494  11.166  1.00  0.00     0.211 HD
ENDBRANCH   1   7
TORSDOF 2
ENDMDL
MODEL 3
REMARK VINA RESULT:    -1.867      1.353      3.025
REMARK INTER + INTRA:          -2.046
REMARK INTER:                  -2.031
REMARK INTRA:                  -0.016
REMARK UNBOUND:                -0.016
REMARK SMILES OCc1ccco1
REMARK SMILES IDX 2 1 3 2 5 3 6 4 4 5 7 6 1 7
REMARK H PARENT 1 8
REMARK Flexibility Score: inf
ROOT
ATOM      1  C   UNL     1     -30.127 -35.100  12.831  1.00  0.00     0.231 C 
ENDROOT
BRANCH   1   2
ATOM      2  C   UNL     1     -31.595 -35.123  12.546  1.00  0.00     0.129 A 
ATOM      3  C   UNL     1     -33.613 -34.574  11.878  1.00  0.00     0.042 A 
ATOM      4  C   UNL     1     -33.623 -35.779  12.551  1.00  0.00     0.195 A 
ATOM      5  C   UNL     1     -32.302 -34.146  11.877  1.00  0.00     0.048 A 
ATOM      6  O   UNL     1     -32.404 -36.079  12.940  1.00  0.00    -0.467 OA
ENDBRANCH   1   2
BRANCH   1   7
ATOM      7  O   UNL     1     -29.522 -34.036  12.149  1.00  0.00    -0.388 OA
ATOM      8  H   UNL     1     -30.124 -33.253  12.252  1.00  0.00     0.211 HD
ENDBRANCH   1   7
TORSDOF 2
ENDMDL
MODEL 4
REMARK VINA RESULT:    -1.848     26.654     27.673
REMARK INTER + INTRA:          -2.026
REMARK INTER:                  -2.004
REMARK INTRA:                  -0.021
REMARK UNBOUND:                -0.016
REMARK SMILES OCc1ccco1
REMARK SMILES IDX 2 1 3 2 5 3 6 4 4 5 7 6 1 7
REMARK H PARENT 1 8
REMARK Flexibility Score: inf
ROOT
ATOM      1  C   UNL     1     -15.198 -23.704  32.125  1.00  0.00     0.231 C 
ENDROOT
BRANCH   1   2
ATOM      2  C   UNL     1     -16.378 -22.841  31.810  1.00  0.00     0.129 A 
ATOM      3  C   UNL     1     -17.716 -21.116  31.583  1.00  0.00     0.042 A 
ATOM      4  C   UNL     1     -18.351 -22.288  31.225  1.00  0.00     0.195 A 
ATOM      5  C   UNL     1     -16.440 -21.472  31.964  1.00  0.00     0.048 A 
ATOM      6  O   UNL     1     -17.528 -23.301  31.374  1.00  0.00    -0.467 OA
ENDBRANCH   1   2
BRANCH   1   7
ATOM      7  O   UNL     1     -15.451 -25.025  31.733  1.00  0.00    -0.388 OA
ATOM      8  H   UNL     1     -14.567 -25.447  31.567  1.00  0.00     0.211 HD
ENDBRANCH   1   7
TORSDOF 2
ENDMDL
MODEL 5
REMARK VINA RESULT:    -1.846     26.470     27.615
REMARK INTER + INTRA:          -2.023
REMARK INTER:                  -2.002
REMARK INTRA:                  -0.021
REMARK UNBOUND:                -0.016
REMARK SMILES OCc1ccco1
REMARK SMILES IDX 2 1 3 2 5 3 6 4 4 5 7 6 1 7
REMARK H PARENT 1 8
REMARK Flexibility Score: inf
ROOT
ATOM      1  C   UNL     1     -16.903 -20.841  32.125  1.00  0.00     0.231 C 
ENDROOT
BRANCH   1   2
ATOM      2  C   UNL     1     -16.793 -22.303  31.832  1.00  0.00     0.129 A 
ATOM      3  C   UNL     1     -16.035 -24.354  31.640  1.00  0.00     0.042 A 
ATOM      4  C   UNL     1     -17.303 -24.241  31.107  1.00  0.00     0.195 A 
ATOM      5  C   UNL     1     -15.702 -23.101  32.107  1.00  0.00     0.048 A 
ATOM      6  O   UNL     1     -17.728 -23.004  31.234  1.00  0.00    -0.467 OA
ENDBRANCH   1   2
BRANCH   1   7
ATOM      7  O   UNL     1     -18.215 -20.404  31.900  1.00  0.00    -0.388 OA
ATOM      8  H   UNL     1     -18.815 -21.074  32.321  1.00  0.00     0.211 HD
ENDBRANCH   1   7
TORSDOF 2
ENDMDL
MODEL 6
REMARK VINA RESULT:    -1.832      2.523      3.454
REMARK INTER + INTRA:          -2.009
REMARK INTER:                  -1.995
REMARK INTRA:                  -0.014
REMARK UNBOUND:                -0.016
REMARK SMILES OCc1ccco1
REMARK SMILES IDX 2 1 3 2 5 3 6 4 4 5 7 6 1 7
REMARK H PARENT 1 8
REMARK Flexibility Score: inf
ROOT
ATOM      1  C   UNL     1     -33.746 -35.916  15.789  1.00  0.00     0.231 C 
ENDROOT
BRANCH   1   2
ATOM      2  C   UNL     1     -33.764 -35.377  14.395  1.00  0.00     0.129 A 
ATOM      3  C   UNL     1     -33.644 -35.203  12.209  1.00  0.00     0.042 A 
ATOM      4  C   UNL     1     -33.865 -33.973  12.794  1.00  0.00     0.195 A 
ATOM      5  C   UNL     1     -33.576 -36.113  13.243  1.00  0.00     0.048 A 
ATOM      6  O   UNL     1     -33.929 -34.108  14.100  1.00  0.00    -0.467 OA
ENDBRANCH   1   2
BRANCH   1   7
ATOM      7  O   UNL     1     -32.425 -36.124  16.207  1.00  0.00    -0.388 OA
ATOM      8  H   UNL     1     -32.447 -36.190  17.198  1.00  0.00     0.211 HD
ENDBRANCH   1   7
TORSDOF 2
ENDMDL
MODEL 7
REMARK VINA RESULT:    -1.807      1.916      2.339
REMARK INTER + INTRA:          -1.981
REMARK INTER:                  -1.960
REMARK INTRA:                  -0.021
REMARK UNBOUND:                -0.016
REMARK SMILES OCc1ccco1
REMARK SMILES IDX 2 1 3 2 5 3 6 4 4 5 7 6 1 7
REMARK H PARENT 1 8
REMARK Flexibility Score: inf
ROOT
ATOM      1  C   UNL     1     -34.725 -35.595  14.723  1.00  0.00     0.231 C 
ENDROOT
BRANCH   1   2
ATOM      2  C   UNL     1     -33.660 -35.379  13.697  1.00  0.00     0.129 A 
ATOM      3  C   UNL     1     -32.581 -34.757  11.888  1.00  0.00     0.042 A 
ATOM      4  C   UNL     1     -31.781 -35.533  12.702  1.00  0.00     0.195 A 
ATOM      5  C   UNL     1     -33.798 -34.659  12.529  1.00  0.00     0.048 A 
ATOM      6  O   UNL     1     -32.453 -35.892  13.773  1.00  0.00    -0.467 OA
ENDBRANCH   1   2
BRANCH   1   7
ATOM      7  O   UNL     1     -34.165 -36.121  15.894  1.00  0.00    -0.388 OA
ATOM      8  H   UNL     1     -34.747 -35.829  16.644  1.00  0.00     0.211 HD
ENDBRANCH   1   7
TORSDOF 2
ENDMDL
MODEL 8
REMARK VINA RESULT:    -1.775      2.567      3.411
REMARK INTER + INTRA:          -1.946
REMARK INTER:                  -1.932
REMARK INTRA:                  -0.014
REMARK UNBOUND:                -0.016
REMARK SMILES OCc1ccco1
REMARK SMILES IDX 2 1 3 2 5 3 6 4 4 5 7 6 1 7
REMARK H PARENT 1 8
REMARK Flexibility Score: inf
ROOT
ATOM      1  C   UNL     1     -33.388 -35.275  12.738  1.00  0.00     0.231 C 
ENDROOT
BRANCH   1   2
ATOM      2  C   UNL     1     -33.793 -33.848  12.556  1.00  0.00     0.129 A 
ATOM      3  C   UNL     1     -34.920 -31.963  12.593  1.00  0.00     0.042 A 
ATOM      4  C   UNL     1     -33.737 -31.822  11.896  1.00  0.00     0.195 A 
ATOM      5  C   UNL     1     -34.960 -33.274  13.017  1.00  0.00     0.048 A 
ATOM      6  O   UNL     1     -33.087 -32.964  11.889  1.00  0.00    -0.467 OA
ENDBRANCH   1   2
BRANCH   1   7
ATOM      7  O   UNL     1     -34.409 -36.125  12.294  1.00  0.00    -0.388 OA
ATOM      8  H   UNL     1     -35.268 -35.677  12.512  1.00  0.00     0.211 HD
ENDBRANCH   1   7
TORSDOF 2
ENDMDL
MODEL 9
REMARK VINA RESULT:    -1.761      1.620      2.663
REMARK INTER + INTRA:          -1.931
REMARK INTER:                  -1.911
REMARK INTRA:                  -0.021
REMARK UNBOUND:                -0.016
REMARK SMILES OCc1ccco1
REMARK SMILES IDX 2 1 3 2 5 3 6 4 4 5 7 6 1 7
REMARK H PARENT 1 8
REMARK Flexibility Score: inf
ROOT
ATOM      1  C   UNL     1     -33.132 -32.577  12.302  1.00  0.00     0.231 C 
ENDROOT
BRANCH   1   2
ATOM      2  C   UNL     1     -33.037 -34.044  12.576  1.00  0.00     0.129 A 
ATOM      3  C   UNL     1     -32.340 -36.125  12.651  1.00  0.00     0.042 A 
ATOM      4  C   UNL     1     -33.594 -35.999  13.216  1.00  0.00     0.195 A 
ATOM      5  C   UNL     1     -31.980 -34.861  12.234  1.00  0.00     0.048 A 
ATOM      6  O   UNL     1     -33.984 -34.746  13.154  1.00  0.00    -0.467 OA
ENDBRANCH   1   2
BRANCH   1   7
ATOM      7  O   UNL     1     -34.475 -32.196  12.190  1.00  0.00    -0.388 OA
ATOM      8  H   UNL     1     -35.018 -32.992  12.432  1.00  0.00     0.211 HD
ENDBRANCH   1   7
TORSDOF 2
ENDMDL
