MODEL 1
REMARK VINA RESULT:    -6.566      0.000      0.000
REMARK INTER + INTRA:         -11.017
REMARK INTER:                  -9.060
REMARK INTRA:                  -1.957
REMARK UNBOUND:                -1.957
REMARK SMILES CC[C@@H](CC[C@@H](C)[C@@H]1CC[C@@H]2C3=CC[C@@H]4C[C@@H](O)CC[C@@]4(C)[C@H]3CC[C@]21C)C(C)C
REMARK SMILES IDX 5 1 4 2 3 3 2 4 1 5 28 6 29 7 30 8 6 9 7 10 8 11 9 12 26 13
REMARK SMILES IDX 10 14 11 15 25 16 27 17 12 18 24 19 23 20 13 21 21 22 14 23
REMARK SMILES IDX 15 24 20 25 22 26 16 27 19 28 17 29 18 30
REMARK H PARENT 18 31
REMARK Flexibility Score: inf
ROOT
ATOM      1  C   UNL     1     139.470 140.046 146.697  1.00  0.00     0.004 C 
ENDROOT
BRANCH   1   2
ATOM      2  C   UNL     1     140.419 141.193 147.110  1.00  0.00     0.004 C 
BRANCH   2   3
ATOM      3  C   UNL     1     139.761 142.218 148.078  1.00  0.00    -0.009 C 
BRANCH   3   4
ATOM      4  C   UNL     1     138.285 141.821 148.370  1.00  0.00     0.000 C 
ATOM      5  C   UNL     1     137.290 142.936 148.037  1.00  0.00     0.004 C 
ENDBRANCH   3   4
BRANCH   3   6
ATOM      6  C   UNL     1     139.892 143.692 147.561  1.00  0.00    -0.014 C 
ATOM      7  C   UNL     1     140.372 144.685 148.633  1.00  0.00     0.007 C 
ATOM      8  C   UNL     1     140.791 143.783 146.317  1.00  0.00     0.007 C 
ENDBRANCH   3   6
ENDBRANCH   2   3
ENDBRANCH   1   2
BRANCH   1   9
ATOM      9  C   UNL     1     139.701 139.539 145.250  1.00  0.00    -0.011 C 
ATOM     10  C   UNL     1     139.908 138.008 145.253  1.00  0.00     0.008 C 
BRANCH   9  11
ATOM     11  C   UNL     1     138.510 139.916 144.301  1.00  0.00    -0.002 C 
ATOM     12  C   UNL     1     138.432 138.991 143.049  1.00  0.00     0.005 C 
ATOM     13  C   UNL     1     138.466 141.355 143.689  1.00  0.00    -0.023 C 
ATOM     14  C   UNL     1     137.900 139.839 141.882  1.00  0.00     0.009 C 
ATOM     15  C   UNL     1     137.454 141.123 142.556  1.00  0.00     0.021 C 
ATOM     16  C   UNL     1     137.891 142.477 144.631  1.00  0.00     0.008 C 
ATOM     17  C   UNL     1     139.884 141.735 143.137  1.00  0.00     0.012 C 
ATOM     18  C   UNL     1     137.156 142.359 141.722  1.00  0.00    -0.067 C 
ATOM     19  C   UNL     1     136.983 143.529 143.917  1.00  0.00     0.009 C 
ATOM     20  C   UNL     1     137.383 143.720 142.427  1.00  0.00     0.021 C 
ATOM     21  C   UNL     1     136.283 142.214 140.690  1.00  0.00    -0.027 C 
ATOM     22  C   UNL     1     136.724 144.925 141.658  1.00  0.00    -0.023 C 
ATOM     23  C   UNL     1     135.432 143.338 140.145  1.00  0.00     0.031 C 
ATOM     24  C   UNL     1     135.311 144.457 141.187  1.00  0.00     0.002 C 
ATOM     25  C   UNL     1     136.620 146.245 142.506  1.00  0.00     0.010 C 
ATOM     26  C   UNL     1     137.651 145.261 140.445  1.00  0.00     0.012 C 
ATOM     27  C   UNL     1     134.428 145.630 140.733  1.00  0.00     0.036 C 
ATOM     28  C   UNL     1     135.208 146.505 143.045  1.00  0.00     0.032 C 
ATOM     29  C   UNL     1     134.187 146.641 141.890  1.00  0.00     0.114 C 
BRANCH  29  30
ATOM     30  O   UNL     1     132.895 146.476 142.414  1.00  0.00    -0.393 OA
ATOM     31  H   UNL     1     132.638 145.531 142.257  1.00  0.00     0.210 HD
ENDBRANCH  29  30
ENDBRANCH   9  11
ENDBRANCH   1   9
TORSDOF 7
ENDMDL
MODEL 2
REMARK VINA RESULT:    -6.208      6.938     11.424
REMARK INTER + INTRA:         -10.523
REMARK INTER:                  -9.375
REMARK INTRA:                  -1.148
REMARK UNBOUND:                -1.957
REMARK SMILES CC[C@@H](CC[C@@H](C)[C@@H]1CC[C@@H]2C3=CC[C@@H]4C[C@@H](O)CC[C@@]4(C)[C@H]3CC[C@]21C)C(C)C
REMARK SMILES IDX 5 1 4 2 3 3 2 4 1 5 28 6 29 7 30 8 6 9 7 10 8 11 9 12 26 13
REMARK SMILES IDX 10 14 11 15 25 16 27 17 12 18 24 19 23 20 13 21 21 22 14 23
REMARK SMILES IDX 15 24 20 25 22 26 16 27 19 28 17 29 18 30
REMARK H PARENT 18 31
REMARK Flexibility Score: inf
ROOT
ATOM      1  C   UNL     1     140.217 139.438 146.623  1.00  0.00     0.004 C 
ENDROOT
BRANCH   1   2
ATOM      2  C   UNL     1     140.356 140.975 146.564  1.00  0.00     0.004 C 
BRANCH   2   3
ATOM      3  C   UNL     1     138.988 141.717 146.556  1.00  0.00    -0.009 C 
BRANCH   3   4
ATOM      4  C   UNL     1     138.842 142.575 145.266  1.00  0.00     0.000 C 
ATOM      5  C   UNL     1     138.160 141.822 144.121  1.00  0.00     0.004 C 
ENDBRANCH   3   4
BRANCH   3   6
ATOM      6  C   UNL     1     138.759 142.555 147.860  1.00  0.00    -0.014 C 
ATOM      7  C   UNL     1     139.642 143.812 147.954  1.00  0.00     0.007 C 
ATOM      8  C   UNL     1     137.280 142.935 148.042  1.00  0.00     0.007 C 
ENDBRANCH   3   6
ENDBRANCH   2   3
ENDBRANCH   1   2
BRANCH   1   9
ATOM      9  C   UNL     1     141.185 138.690 145.669  1.00  0.00    -0.011 C 
ATOM     10  C   UNL     1     140.975 139.173 144.217  1.00  0.00     0.008 C 
BRANCH   9  11
ATOM     11  C   UNL     1     142.685 138.886 146.086  1.00  0.00    -0.002 C 
ATOM     12  C   UNL     1     143.521 139.595 144.979  1.00  0.00     0.005 C 
ATOM     13  C   UNL     1     143.538 137.621 146.428  1.00  0.00    -0.023 C 
ATOM     14  C   UNL     1     144.950 139.032 145.048  1.00  0.00     0.009 C 
ATOM     15  C   UNL     1     144.948 138.228 146.335  1.00  0.00     0.021 C 
ATOM     16  C   UNL     1     143.352 137.048 147.881  1.00  0.00     0.008 C 
ATOM     17  C   UNL     1     143.305 136.519 145.338  1.00  0.00     0.012 C 
ATOM     18  C   UNL     1     146.071 137.244 146.623  1.00  0.00    -0.067 C 
ATOM     19  C   UNL     1     144.666 136.545 148.560  1.00  0.00     0.009 C 
ATOM     20  C   UNL     1     145.697 136.034 147.514  1.00  0.00     0.021 C 
ATOM     21  C   UNL     1     147.344 137.715 146.537  1.00  0.00    -0.027 C 
ATOM     22  C   UNL     1     146.957 135.268 148.066  1.00  0.00    -0.023 C 
ATOM     23  C   UNL     1     148.507 137.138 147.309  1.00  0.00     0.031 C 
ATOM     24  C   UNL     1     147.993 136.345 148.516  1.00  0.00     0.002 C 
ATOM     25  C   UNL     1     146.637 134.276 149.243  1.00  0.00     0.010 C 
ATOM     26  C   UNL     1     147.512 134.390 146.898  1.00  0.00     0.012 C 
ATOM     27  C   UNL     1     149.112 135.750 149.387  1.00  0.00     0.036 C 
ATOM     28  C   UNL     1     147.028 134.827 150.619  1.00  0.00     0.032 C 
ATOM     29  C   UNL     1     148.545 135.121 150.691  1.00  0.00     0.114 C 
BRANCH  29  30
ATOM     30  O   UNL     1     148.784 135.973 151.781  1.00  0.00    -0.393 OA
ATOM     31  H   UNL     1     149.602 135.641 152.235  1.00  0.00     0.210 HD
ENDBRANCH  29  30
ENDBRANCH   9  11
ENDBRANCH   1   9
TORSDOF 7
ENDMDL
MODEL 3
REMARK VINA RESULT:    -6.124      8.626     11.589
REMARK INTER + INTRA:         -10.408
REMARK INTER:                  -8.440
REMARK INTRA:                  -1.969
REMARK UNBOUND:                -1.957
REMARK SMILES CC[C@@H](CC[C@@H](C)[C@@H]1CC[C@@H]2C3=CC[C@@H]4C[C@@H](O)CC[C@@]4(C)[C@H]3CC[C@]21C)C(C)C
REMARK SMILES IDX 5 1 4 2 3 3 2 4 1 5 28 6 29 7 30 8 6 9 7 10 8 11 9 12 26 13
REMARK SMILES IDX 10 14 11 15 25 16 27 17 12 18 24 19 23 20 13 21 21 22 14 23
REMARK SMILES IDX 15 24 20 25 22 26 16 27 19 28 17 29 18 30
REMARK H PARENT 18 31
REMARK Flexibility Score: inf
ROOT
ATOM      1  C   UNL     1     146.221 133.657 151.045  1.00  0.00     0.004 C 
ENDROOT
BRANCH   1   2
ATOM      2  C   UNL     1     144.968 133.578 151.946  1.00  0.00     0.004 C 
BRANCH   2   3
ATOM      3  C   UNL     1     143.633 133.636 151.150  1.00  0.00    -0.009 C 
BRANCH   3   4
ATOM      4  C   UNL     1     143.674 132.655 149.944  1.00  0.00     0.000 C 
ATOM      5  C   UNL     1     142.657 131.517 150.065  1.00  0.00     0.004 C 
ENDBRANCH   3   4
BRANCH   3   6
ATOM      6  C   UNL     1     143.262 135.097 150.719  1.00  0.00    -0.014 C 
ATOM      7  C   UNL     1     142.024 135.180 149.808  1.00  0.00     0.007 C 
ATOM      8  C   UNL     1     143.086 136.024 151.933  1.00  0.00     0.007 C 
ENDBRANCH   3   6
ENDBRANCH   2   3
ENDBRANCH   1   2
BRANCH   1   9
ATOM      9  C   UNL     1     146.875 135.062 151.015  1.00  0.00    -0.011 C 
ATOM     10  C   UNL     1     148.076 135.108 151.987  1.00  0.00     0.008 C 
BRANCH   9  11
ATOM     11  C   UNL     1     147.342 135.460 149.570  1.00  0.00    -0.002 C 
ATOM     12  C   UNL     1     148.606 136.372 149.584  1.00  0.00     0.005 C 
ATOM     13  C   UNL     1     146.346 136.239 148.650  1.00  0.00    -0.023 C 
ATOM     14  C   UNL     1     148.498 137.328 148.385  1.00  0.00     0.009 C 
ATOM     15  C   UNL     1     147.330 136.768 147.594  1.00  0.00     0.021 C 
ATOM     16  C   UNL     1     145.271 135.357 147.911  1.00  0.00     0.008 C 
ATOM     17  C   UNL     1     145.679 137.403 149.461  1.00  0.00     0.012 C 
ATOM     18  C   UNL     1     146.682 137.599 146.497  1.00  0.00    -0.067 C 
ATOM     19  C   UNL     1     144.970 135.788 146.441  1.00  0.00     0.009 C 
ATOM     20  C   UNL     1     145.184 137.313 146.230  1.00  0.00     0.021 C 
ATOM     21  C   UNL     1     147.504 138.113 145.543  1.00  0.00    -0.027 C 
ATOM     22  C   UNL     1     144.676 137.926 144.871  1.00  0.00    -0.023 C 
ATOM     23  C   UNL     1     147.059 138.430 144.134  1.00  0.00     0.031 C 
ATOM     24  C   UNL     1     145.780 137.655 143.801  1.00  0.00     0.002 C 
ATOM     25  C   UNL     1     143.287 137.365 144.395  1.00  0.00     0.010 C 
ATOM     26  C   UNL     1     144.468 139.457 145.105  1.00  0.00     0.012 C 
ATOM     27  C   UNL     1     145.272 137.887 142.368  1.00  0.00     0.036 C 
ATOM     28  C   UNL     1     143.409 136.328 143.272  1.00  0.00     0.032 C 
ATOM     29  C   UNL     1     144.089 136.938 142.023  1.00  0.00     0.114 C 
BRANCH  29  30
ATOM     30  O   UNL     1     144.534 135.891 141.200  1.00  0.00    -0.393 OA
ATOM     31  H   UNL     1     145.510 135.795 141.356  1.00  0.00     0.210 HD
ENDBRANCH  29  30
ENDBRANCH   9  11
ENDBRANCH   1   9
TORSDOF 7
ENDMDL
MODEL 4
REMARK VINA RESULT:    -6.107      6.537     10.499
REMARK INTER + INTRA:         -10.384
REMARK INTER:                  -8.847
REMARK INTRA:                  -1.537
REMARK UNBOUND:                -1.957
REMARK SMILES CC[C@@H](CC[C@@H](C)[C@@H]1CC[C@@H]2C3=CC[C@@H]4C[C@@H](O)CC[C@@]4(C)[C@H]3CC[C@]21C)C(C)C
REMARK SMILES IDX 5 1 4 2 3 3 2 4 1 5 28 6 29 7 30 8 6 9 7 10 8 11 9 12 26 13
REMARK SMILES IDX 10 14 11 15 25 16 27 17 12 18 24 19 23 20 13 21 21 22 14 23
REMARK SMILES IDX 15 24 20 25 22 26 16 27 19 28 17 29 18 30
REMARK H PARENT 18 31
REMARK Flexibility Score: inf
ROOT
ATOM      1  C   UNL     1     139.735 138.093 146.481  1.00  0.00     0.004 C 
ENDROOT
BRANCH   1   2
ATOM      2  C   UNL     1     140.007 139.523 146.996  1.00  0.00     0.004 C 
BRANCH   2   3
ATOM      3  C   UNL     1     138.914 140.547 146.577  1.00  0.00    -0.009 C 
BRANCH   3   4
ATOM      4  C   UNL     1     139.075 140.931 145.077  1.00  0.00     0.000 C 
ATOM      5  C   UNL     1     140.206 141.934 144.835  1.00  0.00     0.004 C 
ENDBRANCH   3   4
BRANCH   3   6
ATOM      6  C   UNL     1     138.884 141.803 147.514  1.00  0.00    -0.014 C 
ATOM      7  C   UNL     1     137.571 142.601 147.442  1.00  0.00     0.007 C 
ATOM      8  C   UNL     1     139.196 141.433 148.974  1.00  0.00     0.007 C 
ENDBRANCH   3   6
ENDBRANCH   2   3
ENDBRANCH   1   2
BRANCH   1   9
ATOM      9  C   UNL     1     140.887 137.513 145.620  1.00  0.00    -0.011 C 
ATOM     10  C   UNL     1     140.395 137.262 144.177  1.00  0.00     0.008 C 
BRANCH   9  11
ATOM     11  C   UNL     1     142.137 138.461 145.601  1.00  0.00    -0.002 C 
ATOM     12  C   UNL     1     142.316 139.182 144.231  1.00  0.00     0.005 C 
ATOM     13  C   UNL     1     143.549 137.844 145.870  1.00  0.00    -0.023 C 
ATOM     14  C   UNL     1     143.825 139.362 143.997  1.00  0.00     0.009 C 
ATOM     15  C   UNL     1     144.434 138.980 145.333  1.00  0.00     0.021 C 
ATOM     16  C   UNL     1     143.915 137.617 147.383  1.00  0.00     0.008 C 
ATOM     17  C   UNL     1     143.717 136.529 145.032  1.00  0.00     0.012 C 
ATOM     18  C   UNL     1     145.928 138.714 145.443  1.00  0.00    -0.067 C 
ATOM     19  C   UNL     1     145.397 137.944 147.754  1.00  0.00     0.009 C 
ATOM     20  C   UNL     1     146.356 137.720 146.551  1.00  0.00     0.021 C 
ATOM     21  C   UNL     1     146.765 139.674 144.967  1.00  0.00    -0.027 C 
ATOM     22  C   UNL     1     147.902 137.766 146.850  1.00  0.00    -0.023 C 
ATOM     23  C   UNL     1     148.170 139.891 145.476  1.00  0.00     0.031 C 
ATOM     24  C   UNL     1     148.325 139.268 146.869  1.00  0.00     0.002 C 
ATOM     25  C   UNL     1     148.316 137.052 148.188  1.00  0.00     0.010 C 
ATOM     26  C   UNL     1     148.617 136.982 145.702  1.00  0.00     0.012 C 
ATOM     27  C   UNL     1     149.718 139.474 147.486  1.00  0.00     0.036 C 
ATOM     28  C   UNL     1     148.603 138.034 149.330  1.00  0.00     0.032 C 
ATOM     29  C   UNL     1     149.762 138.991 148.964  1.00  0.00     0.114 C 
BRANCH  29  30
ATOM     30  O   UNL     1     149.724 140.093 149.833  1.00  0.00    -0.393 OA
ATOM     31  H   UNL     1     149.596 139.734 150.750  1.00  0.00     0.210 HD
ENDBRANCH  29  30
ENDBRANCH   9  11
ENDBRANCH   1   9
TORSDOF 7
ENDMDL
MODEL 5
REMARK VINA RESULT:    -5.846      9.139     12.530
REMARK INTER + INTRA:         -10.024
REMARK INTER:                  -8.189
REMARK INTRA:                  -1.835
REMARK UNBOUND:                -1.957
REMARK SMILES CC[C@@H](CC[C@@H](C)[C@@H]1CC[C@@H]2C3=CC[C@@H]4C[C@@H](O)CC[C@@]4(C)[C@H]3CC[C@]21C)C(C)C
REMARK SMILES IDX 5 1 4 2 3 3 2 4 1 5 28 6 29 7 30 8 6 9 7 10 8 11 9 12 26 13
REMARK SMILES IDX 10 14 11 15 25 16 27 17 12 18 24 19 23 20 13 21 21 22 14 23
REMARK SMILES IDX 15 24 20 25 22 26 16 27 19 28 17 29 18 30
REMARK H PARENT 18 31
REMARK Flexibility Score: inf
ROOT
ATOM      1  C   UNL     1     148.844 139.056 148.406  1.00  0.00     0.004 C 
ENDROOT
BRANCH   1   2
ATOM      2  C   UNL     1     148.970 139.353 146.896  1.00  0.00     0.004 C 
BRANCH   2   3
ATOM      3  C   UNL     1     147.701 138.966 146.084  1.00  0.00    -0.009 C 
BRANCH   3   4
ATOM      4  C   UNL     1     148.028 137.836 145.067  1.00  0.00     0.000 C 
ATOM      5  C   UNL     1     149.513 137.467 145.041  1.00  0.00     0.004 C 
ENDBRANCH   3   4
BRANCH   3   6
ATOM      6  C   UNL     1     147.031 140.208 145.402  1.00  0.00    -0.014 C 
ATOM      7  C   UNL     1     147.794 140.728 144.171  1.00  0.00     0.007 C 
ATOM      8  C   UNL     1     145.563 139.936 145.035  1.00  0.00     0.007 C 
ENDBRANCH   3   6
ENDBRANCH   2   3
ENDBRANCH   1   2
BRANCH   1   9
ATOM      9  C   UNL     1     149.184 137.591 148.782  1.00  0.00    -0.011 C 
ATOM     10  C   UNL     1     150.476 137.548 149.629  1.00  0.00     0.008 C 
BRANCH   9  11
ATOM     11  C   UNL     1     148.011 136.899 149.562  1.00  0.00    -0.002 C 
ATOM     12  C   UNL     1     148.522 135.863 150.607  1.00  0.00     0.005 C 
ATOM     13  C   UNL     1     146.944 136.095 148.749  1.00  0.00    -0.023 C 
ATOM     14  C   UNL     1     147.482 134.734 150.684  1.00  0.00     0.009 C 
ATOM     15  C   UNL     1     146.311 135.281 149.889  1.00  0.00     0.021 C 
ATOM     16  C   UNL     1     145.809 136.955 148.080  1.00  0.00     0.008 C 
ATOM     17  C   UNL     1     147.663 135.173 147.704  1.00  0.00     0.012 C 
ATOM     18  C   UNL     1     145.189 134.355 149.447  1.00  0.00    -0.067 C 
ATOM     19  C   UNL     1     144.385 136.316 148.134  1.00  0.00     0.009 C 
ATOM     20  C   UNL     1     144.449 134.763 148.148  1.00  0.00     0.021 C 
ATOM     21  C   UNL     1     144.601 133.592 150.407  1.00  0.00    -0.027 C 
ATOM     22  C   UNL     1     143.093 133.988 147.947  1.00  0.00    -0.023 C 
ATOM     23  C   UNL     1     143.178 133.091 150.327  1.00  0.00     0.031 C 
ATOM     24  C   UNL     1     142.377 133.941 149.334  1.00  0.00     0.002 C 
ATOM     25  C   UNL     1     142.153 134.617 146.856  1.00  0.00     0.010 C 
ATOM     26  C   UNL     1     143.451 132.555 147.437  1.00  0.00     0.012 C 
ATOM     27  C   UNL     1     140.902 133.526 149.215  1.00  0.00     0.036 C 
ATOM     28  C   UNL     1     140.993 135.424 147.451  1.00  0.00     0.032 C 
ATOM     29  C   UNL     1     140.096 134.533 148.344  1.00  0.00     0.114 C 
BRANCH  29  30
ATOM     30  O   UNL     1     139.316 135.364 149.164  1.00  0.00    -0.393 OA
ATOM     31  H   UNL     1     138.369 135.100 149.026  1.00  0.00     0.210 HD
ENDBRANCH  29  30
ENDBRANCH   9  11
ENDBRANCH   1   9
TORSDOF 7
ENDMDL
MODEL 6
REMARK VINA RESULT:    -5.832      7.848     11.146
REMARK INTER + INTRA:         -10.005
REMARK INTER:                  -7.642
REMARK INTRA:                  -2.362
REMARK UNBOUND:                -1.957
REMARK SMILES CC[C@@H](CC[C@@H](C)[C@@H]1CC[C@@H]2C3=CC[C@@H]4C[C@@H](O)CC[C@@]4(C)[C@H]3CC[C@]21C)C(C)C
REMARK SMILES IDX 5 1 4 2 3 3 2 4 1 5 28 6 29 7 30 8 6 9 7 10 8 11 9 12 26 13
REMARK SMILES IDX 10 14 11 15 25 16 27 17 12 18 24 19 23 20 13 21 21 22 14 23
REMARK SMILES IDX 15 24 20 25 22 26 16 27 19 28 17 29 18 30
REMARK H PARENT 18 31
REMARK Flexibility Score: inf
ROOT
ATOM      1  C   UNL     1     150.450 141.629 143.881  1.00  0.00     0.004 C 
ENDROOT
BRANCH   1   2
ATOM      2  C   UNL     1     150.182 142.156 142.454  1.00  0.00     0.004 C 
BRANCH   2   3
ATOM      3  C   UNL     1     149.511 141.105 141.525  1.00  0.00    -0.009 C 
BRANCH   3   4
ATOM      4  C   UNL     1     150.526 140.588 140.465  1.00  0.00     0.000 C 
ATOM      5  C   UNL     1     150.570 139.061 140.376  1.00  0.00     0.004 C 
ENDBRANCH   3   4
BRANCH   3   6
ATOM      6  C   UNL     1     148.191 141.644 140.874  1.00  0.00    -0.014 C 
ATOM      7  C   UNL     1     147.093 140.577 140.722  1.00  0.00     0.007 C 
ATOM      8  C   UNL     1     147.639 142.864 141.629  1.00  0.00     0.007 C 
ENDBRANCH   3   6
ENDBRANCH   2   3
ENDBRANCH   1   2
BRANCH   1   9
ATOM      9  C   UNL     1     150.365 140.086 143.999  1.00  0.00    -0.011 C 
ATOM     10  C   UNL     1     151.757 139.503 144.332  1.00  0.00     0.008 C 
BRANCH   9  11
ATOM     11  C   UNL     1     149.325 139.637 145.085  1.00  0.00    -0.002 C 
ATOM     12  C   UNL     1     149.828 138.426 145.926  1.00  0.00     0.005 C 
ATOM     13  C   UNL     1     147.903 139.185 144.617  1.00  0.00    -0.023 C 
ATOM     14  C   UNL     1     148.599 137.580 146.298  1.00  0.00     0.009 C 
ATOM     15  C   UNL     1     147.432 138.458 145.887  1.00  0.00     0.021 C 
ATOM     16  C   UNL     1     146.884 140.347 144.318  1.00  0.00     0.008 C 
ATOM     17  C   UNL     1     148.035 138.205 143.400  1.00  0.00     0.012 C 
ATOM     18  C   UNL     1     146.032 137.871 145.789  1.00  0.00    -0.067 C 
ATOM     19  C   UNL     1     145.419 140.070 144.785  1.00  0.00     0.009 C 
ATOM     20  C   UNL     1     145.086 138.551 144.769  1.00  0.00     0.021 C 
ATOM     21  C   UNL     1     145.566 137.198 146.874  1.00  0.00    -0.027 C 
ATOM     22  C   UNL     1     143.577 138.148 144.971  1.00  0.00    -0.023 C 
ATOM     23  C   UNL     1     144.099 137.065 147.213  1.00  0.00     0.031 C 
ATOM     24  C   UNL     1     143.296 138.162 146.506  1.00  0.00     0.002 C 
ATOM     25  C   UNL     1     142.560 139.073 144.209  1.00  0.00     0.010 C 
ATOM     26  C   UNL     1     143.397 136.717 144.368  1.00  0.00     0.012 C 
ATOM     27  C   UNL     1     141.792 138.129 146.824  1.00  0.00     0.036 C 
ATOM     28  C   UNL     1     141.862 140.085 145.125  1.00  0.00     0.032 C 
ATOM     29  C   UNL     1     141.059 139.368 146.237  1.00  0.00     0.114 C 
BRANCH  29  30
ATOM     30  O   UNL     1     140.782 140.294 147.256  1.00  0.00    -0.393 OA
ATOM     31  H   UNL     1     139.795 140.336 147.348  1.00  0.00     0.210 HD
ENDBRANCH  29  30
ENDBRANCH   9  11
ENDBRANCH   1   9
TORSDOF 7
ENDMDL
MODEL 7
REMARK VINA RESULT:    -5.816      4.111      7.145
REMARK INTER + INTRA:          -9.983
REMARK INTER:                  -8.119
REMARK INTRA:                  -1.864
REMARK UNBOUND:                -1.957
REMARK SMILES CC[C@@H](CC[C@@H](C)[C@@H]1CC[C@@H]2C3=CC[C@@H]4C[C@@H](O)CC[C@@]4(C)[C@H]3CC[C@]21C)C(C)C
REMARK SMILES IDX 5 1 4 2 3 3 2 4 1 5 28 6 29 7 30 8 6 9 7 10 8 11 9 12 26 13
REMARK SMILES IDX 10 14 11 15 25 16 27 17 12 18 24 19 23 20 13 21 21 22 14 23
REMARK SMILES IDX 15 24 20 25 22 26 16 27 19 28 17 29 18 30
REMARK H PARENT 18 31
REMARK Flexibility Score: inf
ROOT
ATOM      1  C   UNL     1     137.697 133.441 146.008  1.00  0.00     0.004 C 
ENDROOT
BRANCH   1   2
ATOM      2  C   UNL     1     136.197 133.618 146.331  1.00  0.00     0.004 C 
BRANCH   2   3
ATOM      3  C   UNL     1     135.940 134.394 147.655  1.00  0.00    -0.009 C 
BRANCH   3   4
ATOM      4  C   UNL     1     135.307 133.454 148.721  1.00  0.00     0.000 C 
ATOM      5  C   UNL     1     136.347 132.639 149.492  1.00  0.00     0.004 C 
ENDBRANCH   3   4
BRANCH   3   6
ATOM      6  C   UNL     1     135.095 135.694 147.428  1.00  0.00    -0.014 C 
ATOM      7  C   UNL     1     134.522 135.822 146.006  1.00  0.00     0.007 C 
ATOM      8  C   UNL     1     133.969 135.832 148.465  1.00  0.00     0.007 C 
ENDBRANCH   3   6
ENDBRANCH   2   3
ENDBRANCH   1   2
BRANCH   1   9
ATOM      9  C   UNL     1     138.089 133.929 144.590  1.00  0.00    -0.011 C 
ATOM     10  C   UNL     1     137.435 133.026 143.520  1.00  0.00     0.008 C 
BRANCH   9  11
ATOM     11  C   UNL     1     137.679 135.424 144.351  1.00  0.00    -0.002 C 
ATOM     12  C   UNL     1     137.544 135.770 142.837  1.00  0.00     0.005 C 
ATOM     13  C   UNL     1     138.613 136.554 144.896  1.00  0.00    -0.023 C 
ATOM     14  C   UNL     1     137.968 137.237 142.659  1.00  0.00     0.009 C 
ATOM     15  C   UNL     1     138.080 137.745 144.084  1.00  0.00     0.021 C 
ATOM     16  C   UNL     1     138.447 136.895 146.424  1.00  0.00     0.008 C 
ATOM     17  C   UNL     1     140.103 136.224 144.537  1.00  0.00     0.012 C 
ATOM     18  C   UNL     1     138.783 139.062 144.373  1.00  0.00    -0.067 C 
ATOM     19  C   UNL     1     138.538 138.416 146.768  1.00  0.00     0.009 C 
ATOM     20  C   UNL     1     139.447 139.182 145.766  1.00  0.00     0.021 C 
ATOM     21  C   UNL     1     138.369 140.151 143.671  1.00  0.00    -0.027 C 
ATOM     22  C   UNL     1     139.831 140.663 146.137  1.00  0.00    -0.023 C 
ATOM     23  C   UNL     1     138.486 141.570 144.176  1.00  0.00     0.031 C 
ATOM     24  C   UNL     1     138.639 141.573 145.702  1.00  0.00     0.002 C 
ATOM     25  C   UNL     1     140.169 140.876 147.657  1.00  0.00     0.010 C 
ATOM     26  C   UNL     1     141.135 141.013 145.350  1.00  0.00     0.012 C 
ATOM     27  C   UNL     1     138.726 142.981 146.312  1.00  0.00     0.036 C 
ATOM     28  C   UNL     1     139.028 141.535 148.442  1.00  0.00     0.032 C 
ATOM     29  C   UNL     1     138.690 142.931 147.866  1.00  0.00     0.114 C 
BRANCH  29  30
ATOM     30  O   UNL     1     137.422 143.312 148.332  1.00  0.00    -0.393 OA
ATOM     31  H   UNL     1     137.256 144.233 148.002  1.00  0.00     0.210 HD
ENDBRANCH  29  30
ENDBRANCH   9  11
ENDBRANCH   1   9
TORSDOF 7
ENDMDL
MODEL 8
REMARK VINA RESULT:    -5.785      4.502      8.716
REMARK INTER + INTRA:          -9.941
REMARK INTER:                  -8.288
REMARK INTRA:                  -1.653
REMARK UNBOUND:                -1.957
REMARK SMILES CC[C@@H](CC[C@@H](C)[C@@H]1CC[C@@H]2C3=CC[C@@H]4C[C@@H](O)CC[C@@]4(C)[C@H]3CC[C@]21C)C(C)C
REMARK SMILES IDX 5 1 4 2 3 3 2 4 1 5 28 6 29 7 30 8 6 9 7 10 8 11 9 12 26 13
REMARK SMILES IDX 10 14 11 15 25 16 27 17 12 18 24 19 23 20 13 21 21 22 14 23
REMARK SMILES IDX 15 24 20 25 22 26 16 27 19 28 17 29 18 30
REMARK H PARENT 18 31
REMARK Flexibility Score: inf
ROOT
ATOM      1  C   UNL     1     141.116 141.109 145.311  1.00  0.00     0.004 C 
ENDROOT
BRANCH   1   2
ATOM      2  C   UNL     1     140.347 141.252 146.643  1.00  0.00     0.004 C 
BRANCH   2   3
ATOM      3  C   UNL     1     138.863 141.680 146.455  1.00  0.00    -0.009 C 
BRANCH   3   4
ATOM      4  C   UNL     1     138.492 141.709 144.944  1.00  0.00     0.000 C 
ATOM      5  C   UNL     1     137.729 142.973 144.540  1.00  0.00     0.004 C 
ENDBRANCH   3   4
BRANCH   3   6
ATOM      6  C   UNL     1     138.539 143.034 147.175  1.00  0.00    -0.014 C 
ATOM      7  C   UNL     1     137.379 142.941 148.181  1.00  0.00     0.007 C 
ATOM      8  C   UNL     1     139.781 143.630 147.856  1.00  0.00     0.007 C 
ENDBRANCH   3   6
ENDBRANCH   2   3
ENDBRANCH   1   2
BRANCH   1   9
ATOM      9  C   UNL     1     141.619 139.669 145.037  1.00  0.00    -0.011 C 
ATOM     10  C   UNL     1     143.147 139.678 144.802  1.00  0.00     0.008 C 
BRANCH   9  11
ATOM     11  C   UNL     1     141.265 138.691 146.212  1.00  0.00    -0.002 C 
ATOM     12  C   UNL     1     142.519 137.954 146.771  1.00  0.00     0.005 C 
ATOM     13  C   UNL     1     140.256 137.528 145.939  1.00  0.00    -0.023 C 
ATOM     14  C   UNL     1     142.069 136.557 147.226  1.00  0.00     0.009 C 
ATOM     15  C   UNL     1     140.555 136.635 147.154  1.00  0.00     0.021 C 
ATOM     16  C   UNL     1     138.733 137.922 145.990  1.00  0.00     0.008 C 
ATOM     17  C   UNL     1     140.623 136.818 144.590  1.00  0.00     0.012 C 
ATOM     18  C   UNL     1     139.720 135.366 147.218  1.00  0.00    -0.067 C 
ATOM     19  C   UNL     1     137.804 136.861 146.661  1.00  0.00     0.009 C 
ATOM     20  C   UNL     1     138.356 135.418 146.486  1.00  0.00     0.021 C 
ATOM     21  C   UNL     1     139.952 134.524 148.261  1.00  0.00    -0.027 C 
ATOM     22  C   UNL     1     137.401 134.232 146.888  1.00  0.00    -0.023 C 
ATOM     23  C   UNL     1     138.915 133.583 148.827  1.00  0.00     0.031 C 
ATOM     24  C   UNL     1     137.510 134.054 148.435  1.00  0.00     0.002 C 
ATOM     25  C   UNL     1     135.905 134.442 146.454  1.00  0.00     0.010 C 
ATOM     26  C   UNL     1     137.898 132.961 146.127  1.00  0.00     0.012 C 
ATOM     27  C   UNL     1     136.383 133.175 149.001  1.00  0.00     0.036 C 
ATOM     28  C   UNL     1     134.995 134.868 147.613  1.00  0.00     0.032 C 
ATOM     29  C   UNL     1     134.984 133.800 148.733  1.00  0.00     0.114 C 
BRANCH  29  30
ATOM     30  O   UNL     1     134.486 134.389 149.907  1.00  0.00    -0.393 OA
ATOM     31  H   UNL     1     135.233 134.898 150.315  1.00  0.00     0.210 HD
ENDBRANCH  29  30
ENDBRANCH   9  11
ENDBRANCH   1   9
TORSDOF 7
ENDMDL
MODEL 9
REMARK VINA RESULT:    -5.714      8.172     11.476
REMARK INTER + INTRA:          -9.843
REMARK INTER:                  -7.488
REMARK INTRA:                  -2.355
REMARK UNBOUND:                -1.957
REMARK SMILES CC[C@@H](CC[C@@H](C)[C@@H]1CC[C@@H]2C3=CC[C@@H]4C[C@@H](O)CC[C@@]4(C)[C@H]3CC[C@]21C)C(C)C
REMARK SMILES IDX 5 1 4 2 3 3 2 4 1 5 28 6 29 7 30 8 6 9 7 10 8 11 9 12 26 13
REMARK SMILES IDX 10 14 11 15 25 16 27 17 12 18 24 19 23 20 13 21 21 22 14 23
REMARK SMILES IDX 15 24 20 25 22 26 16 27 19 28 17 29 18 30
REMARK H PARENT 18 31
REMARK Flexibility Score: inf
ROOT
ATOM      1  C   UNL     1     150.877 141.108 145.155  1.00  0.00     0.004 C 
ENDROOT
BRANCH   1   2
ATOM      2  C   UNL     1     151.041 141.349 143.638  1.00  0.00     0.004 C 
BRANCH   2   3
ATOM      3  C   UNL     1     150.461 140.200 142.765  1.00  0.00    -0.009 C 
BRANCH   3   4
ATOM      4  C   UNL     1     151.600 139.479 141.988  1.00  0.00     0.000 C 
ATOM      5  C   UNL     1     151.759 138.010 142.387  1.00  0.00     0.004 C 
ENDBRANCH   3   4
BRANCH   3   6
ATOM      6  C   UNL     1     149.312 140.693 141.820  1.00  0.00    -0.014 C 
ATOM      7  C   UNL     1     148.225 139.635 141.560  1.00  0.00     0.007 C 
ATOM      8  C   UNL     1     148.671 141.993 142.330  1.00  0.00     0.007 C 
ENDBRANCH   3   6
ENDBRANCH   2   3
ENDBRANCH   1   2
BRANCH   1   9
ATOM      9  C   UNL     1     150.789 139.608 145.539  1.00  0.00    -0.011 C 
ATOM     10  C   UNL     1     152.076 139.174 146.275  1.00  0.00     0.008 C 
BRANCH   9  11
ATOM     11  C   UNL     1     149.535 139.305 146.432  1.00  0.00    -0.002 C 
ATOM     12  C   UNL     1     149.795 138.156 147.452  1.00  0.00     0.005 C 
ATOM     13  C   UNL     1     148.205 138.871 145.733  1.00  0.00    -0.023 C 
ATOM     14  C   UNL     1     148.470 137.400 147.643  1.00  0.00     0.009 C 
ATOM     15  C   UNL     1     147.457 138.284 146.941  1.00  0.00     0.021 C 
ATOM     16  C   UNL     1     147.332 140.042 145.145  1.00  0.00     0.008 C 
ATOM     17  C   UNL     1     148.512 137.779 144.650  1.00  0.00     0.012 C 
ATOM     18  C   UNL     1     146.071 137.749 146.617  1.00  0.00    -0.067 C 
ATOM     19  C   UNL     1     145.792 139.870 145.336  1.00  0.00     0.009 C 
ATOM     20  C   UNL     1     145.379 138.371 145.379  1.00  0.00     0.021 C 
ATOM     21  C   UNL     1     145.365 137.198 147.641  1.00  0.00    -0.027 C 
ATOM     22  C   UNL     1     143.839 138.051 145.313  1.00  0.00    -0.023 C 
ATOM     23  C   UNL     1     143.856 137.158 147.695  1.00  0.00     0.031 C 
ATOM     24  C   UNL     1     143.269 138.218 146.757  1.00  0.00     0.002 C 
ATOM     25  C   UNL     1     143.043 138.944 144.293  1.00  0.00     0.010 C 
ATOM     26  C   UNL     1     143.695 136.580 144.806  1.00  0.00     0.012 C 
ATOM     27  C   UNL     1     141.733 138.276 146.774  1.00  0.00     0.036 C 
ATOM     28  C   UNL     1     142.243 140.064 144.968  1.00  0.00     0.032 C 
ATOM     29  C   UNL     1     141.200 139.486 145.955  1.00  0.00     0.114 C 
BRANCH  29  30
ATOM     30  O   UNL     1     140.787 140.512 146.820  1.00  0.00    -0.393 OA
ATOM     31  H   UNL     1     139.840 140.712 146.601  1.00  0.00     0.210 HD
ENDBRANCH  29  30
ENDBRANCH   9  11
ENDBRANCH   1   9
TORSDOF 7
ENDMDL
