MODEL 1
REMARK VINA RESULT:    -3.912      0.000      0.000
REMARK INTER + INTRA:          -5.957
REMARK INTER:                  -5.285
REMARK INTRA:                  -0.672
REMARK UNBOUND:                -0.672
REMARK SMILES CCCCCCC=CC(=O)[O-]
REMARK SMILES IDX 5 1 6 2 7 3 8 4 9 5 10 6 11 7 4 8 3 9 2 10 1 11
REMARK H PARENT
REMARK Flexibility Score: inf
ROOT
ATOM      1  C   UNL     1      -1.681   3.729  17.019  1.00  0.00     0.004 C 
ENDROOT
BRANCH   1   2
ATOM      2  C   UNL     1      -0.317   4.227  16.504  1.00  0.00     0.027 C 
BRANCH   2   3
ATOM      3  C   UNL     1       0.843   3.547  17.184  1.00  0.00    -0.025 C 
ATOM      4  C   UNL     1       1.469   2.436  16.761  1.00  0.00     0.020 C 
BRANCH   4   5
ATOM      5  C   UNL     1       1.190   1.686  15.519  1.00  0.00     0.064 C 
ATOM      6  O   UNL     1       0.371   0.731  15.482  1.00  0.00    -0.545 OA
ATOM      7  O   UNL     1       1.829   2.069  14.346  1.00  0.00    -0.545 OA
ENDBRANCH   4   5
ENDBRANCH   2   3
ENDBRANCH   1   2
BRANCH   1   8
ATOM      8  C   UNL     1      -2.648   3.280  15.909  1.00  0.00     0.000 C 
BRANCH   8   9
ATOM      9  C   UNL     1      -2.001   3.279  14.516  1.00  0.00    -0.000 C 
BRANCH   9  10
ATOM     10  C   UNL     1      -2.882   4.018  13.502  1.00  0.00    -0.003 C 
ATOM     11  C   UNL     1      -2.841   5.527  13.731  1.00  0.00     0.004 C 
ENDBRANCH   9  10
ENDBRANCH   8   9
ENDBRANCH   1   8
TORSDOF 6
ENDMDL
MODEL 2
REMARK VINA RESULT:    -3.715      1.574      2.383
REMARK INTER + INTRA:          -5.691
REMARK INTER:                  -4.963
REMARK INTRA:                  -0.727
REMARK UNBOUND:                -0.672
REMARK SMILES CCCCCCC=CC(=O)[O-]
REMARK SMILES IDX 5 1 6 2 7 3 8 4 9 5 10 6 11 7 4 8 3 9 2 10 1 11
REMARK H PARENT
REMARK Flexibility Score: inf
ROOT
ATOM      1  C   UNL     1      -2.362   1.666  15.265  1.00  0.00     0.004 C 
ENDROOT
BRANCH   1   2
ATOM      2  C   UNL     1      -2.040   2.023  16.728  1.00  0.00     0.027 C 
BRANCH   2   3
ATOM      3  C   UNL     1      -1.845   3.503  16.935  1.00  0.00    -0.025 C 
ATOM      4  C   UNL     1      -0.676   4.165  16.865  1.00  0.00     0.020 C 
BRANCH   4   5
ATOM      5  C   UNL     1       0.641   3.593  16.518  1.00  0.00     0.064 C 
ATOM      6  O   UNL     1       0.992   3.395  15.325  1.00  0.00    -0.545 OA
ATOM      7  O   UNL     1       1.533   3.295  17.540  1.00  0.00    -0.545 OA
ENDBRANCH   4   5
ENDBRANCH   2   3
ENDBRANCH   1   2
BRANCH   1   8
ATOM      8  C   UNL     1      -3.720   2.197  14.771  1.00  0.00     0.000 C 
BRANCH   8   9
ATOM      9  C   UNL     1      -3.613   2.984  13.456  1.00  0.00    -0.000 C 
BRANCH   9  10
ATOM     10  C   UNL     1      -2.401   3.923  13.477  1.00  0.00    -0.003 C 
ATOM     11  C   UNL     1      -2.830   5.373  13.680  1.00  0.00     0.004 C 
ENDBRANCH   9  10
ENDBRANCH   8   9
ENDBRANCH   1   8
TORSDOF 6
ENDMDL
MODEL 3
REMARK VINA RESULT:    -3.702      1.219      2.056
REMARK INTER + INTRA:          -5.673
REMARK INTER:                  -5.120
REMARK INTRA:                  -0.553
REMARK UNBOUND:                -0.672
REMARK SMILES CCCCCCC=CC(=O)[O-]
REMARK SMILES IDX 5 1 6 2 7 3 8 4 9 5 10 6 11 7 4 8 3 9 2 10 1 11
REMARK H PARENT
REMARK Flexibility Score: inf
ROOT
ATOM      1  C   UNL     1      -2.854   3.385  15.848  1.00  0.00     0.004 C 
ENDROOT
BRANCH   1   2
ATOM      2  C   UNL     1      -1.903   3.386  17.060  1.00  0.00     0.027 C 
BRANCH   2   3
ATOM      3  C   UNL     1      -0.682   4.240  16.838  1.00  0.00    -0.025 C 
ATOM      4  C   UNL     1       0.517   3.810  16.409  1.00  0.00     0.020 C 
BRANCH   4   5
ATOM      5  C   UNL     1       0.870   2.431  16.014  1.00  0.00     0.064 C 
ATOM      6  O   UNL     1       1.065   2.108  14.813  1.00  0.00    -0.545 OA
ATOM      7  O   UNL     1       1.021   1.468  17.003  1.00  0.00    -0.545 OA
ENDBRANCH   4   5
ENDBRANCH   2   3
ENDBRANCH   1   2
BRANCH   1   8
ATOM      8  C   UNL     1      -2.648   4.567  14.884  1.00  0.00     0.000 C 
BRANCH   8   9
ATOM      9  C   UNL     1      -2.871   4.185  13.414  1.00  0.00    -0.000 C 
BRANCH   9  10
ATOM     10  C   UNL     1      -2.260   2.813  13.105  1.00  0.00    -0.003 C 
ATOM     11  C   UNL     1      -3.200   1.970  12.249  1.00  0.00     0.004 C 
ENDBRANCH   9  10
ENDBRANCH   8   9
ENDBRANCH   1   8
TORSDOF 6
ENDMDL
MODEL 4
REMARK VINA RESULT:    -3.700      2.387      4.315
REMARK INTER + INTRA:          -5.670
REMARK INTER:                  -4.916
REMARK INTRA:                  -0.754
REMARK UNBOUND:                -0.672
REMARK SMILES CCCCCCC=CC(=O)[O-]
REMARK SMILES IDX 5 1 6 2 7 3 8 4 9 5 10 6 11 7 4 8 3 9 2 10 1 11
REMARK H PARENT
REMARK Flexibility Score: inf
ROOT
ATOM      1  C   UNL     1       0.254   3.632  16.851  1.00  0.00     0.004 C 
ENDROOT
BRANCH   1   2
ATOM      2  C   UNL     1      -1.066   4.421  16.926  1.00  0.00     0.027 C 
BRANCH   2   3
ATOM      3  C   UNL     1      -2.276   3.549  16.714  1.00  0.00    -0.025 C 
ATOM      4  C   UNL     1      -2.980   3.436  15.574  1.00  0.00     0.020 C 
BRANCH   4   5
ATOM      5  C   UNL     1      -2.683   4.094  14.286  1.00  0.00     0.064 C 
ATOM      6  O   UNL     1      -2.889   5.322  14.097  1.00  0.00    -0.545 OA
ATOM      7  O   UNL     1      -2.129   3.340  13.259  1.00  0.00    -0.545 OA
ENDBRANCH   4   5
ENDBRANCH   2   3
ENDBRANCH   1   2
BRANCH   1   8
ATOM      8  C   UNL     1       0.813   3.472  15.425  1.00  0.00     0.000 C 
BRANCH   8   9
ATOM      9  C   UNL     1       1.248   2.033  15.111  1.00  0.00    -0.000 C 
BRANCH   9  10
ATOM     10  C   UNL     1       0.081   1.056  15.290  1.00  0.00    -0.003 C 
ATOM     11  C   UNL     1       0.423  -0.034  16.302  1.00  0.00     0.004 C 
ENDBRANCH   9  10
ENDBRANCH   8   9
ENDBRANCH   1   8
TORSDOF 6
ENDMDL
MODEL 5
REMARK VINA RESULT:    -3.686      1.411      1.687
REMARK INTER + INTRA:          -5.651
REMARK INTER:                  -4.839
REMARK INTRA:                  -0.812
REMARK UNBOUND:                -0.672
REMARK SMILES CCCCCCC=CC(=O)[O-]
REMARK SMILES IDX 5 1 6 2 7 3 8 4 9 5 10 6 11 7 4 8 3 9 2 10 1 11
REMARK H PARENT
REMARK Flexibility Score: inf
ROOT
ATOM      1  C   UNL     1      -1.110   4.373  16.918  1.00  0.00     0.004 C 
ENDROOT
BRANCH   1   2
ATOM      2  C   UNL     1       0.239   3.630  16.970  1.00  0.00     0.027 C 
BRANCH   2   3
ATOM      3  C   UNL     1       0.841   3.427  15.604  1.00  0.00    -0.025 C 
ATOM      4  C   UNL     1       0.953   2.255  14.955  1.00  0.00     0.020 C 
BRANCH   4   5
ATOM      5  C   UNL     1       0.461   0.941  15.416  1.00  0.00     0.064 C 
ATOM      6  O   UNL     1       1.143   0.196  16.167  1.00  0.00    -0.545 OA
ATOM      7  O   UNL     1      -0.810   0.529  15.034  1.00  0.00    -0.545 OA
ENDBRANCH   4   5
ENDBRANCH   2   3
ENDBRANCH   1   2
BRANCH   1   8
ATOM      8  C   UNL     1      -2.282   3.518  16.403  1.00  0.00     0.000 C 
BRANCH   8   9
ATOM      9  C   UNL     1      -2.899   4.067  15.109  1.00  0.00    -0.000 C 
BRANCH   9  10
ATOM     10  C   UNL     1      -3.202   2.934  14.122  1.00  0.00    -0.003 C 
ATOM     11  C   UNL     1      -2.259   2.980  12.923  1.00  0.00     0.004 C 
ENDBRANCH   9  10
ENDBRANCH   8   9
ENDBRANCH   1   8
TORSDOF 6
ENDMDL
MODEL 6
REMARK VINA RESULT:    -3.634      2.172      4.408
REMARK INTER + INTRA:          -5.581
REMARK INTER:                  -5.082
REMARK INTRA:                  -0.499
REMARK UNBOUND:                -0.672
REMARK SMILES CCCCCCC=CC(=O)[O-]
REMARK SMILES IDX 5 1 6 2 7 3 8 4 9 5 10 6 11 7 4 8 3 9 2 10 1 11
REMARK H PARENT
REMARK Flexibility Score: inf
ROOT
ATOM      1  C   UNL     1       1.445   2.679  16.712  1.00  0.00     0.004 C 
ENDROOT
BRANCH   1   2
ATOM      2  C   UNL     1       0.710   3.982  16.345  1.00  0.00     0.027 C 
BRANCH   2   3
ATOM      3  C   UNL     1      -0.704   4.017  16.865  1.00  0.00    -0.025 C 
ATOM      4  C   UNL     1      -1.822   3.979  16.120  1.00  0.00     0.020 C 
BRANCH   4   5
ATOM      5  C   UNL     1      -1.899   3.840  14.651  1.00  0.00     0.064 C 
ATOM      6  O   UNL     1      -1.580   2.774  14.062  1.00  0.00    -0.545 OA
ATOM      7  O   UNL     1      -2.369   4.909  13.900  1.00  0.00    -0.545 OA
ENDBRANCH   4   5
ENDBRANCH   2   3
ENDBRANCH   1   2
BRANCH   1   8
ATOM      8  C   UNL     1       0.557   1.422  16.673  1.00  0.00     0.000 C 
BRANCH   8   9
ATOM      9  C   UNL     1       0.933   0.460  15.537  1.00  0.00    -0.000 C 
BRANCH   9  10
ATOM     10  C   UNL     1       2.109   1.008  14.721  1.00  0.00    -0.003 C 
ATOM     11  C   UNL     1       3.080  -0.105  14.336  1.00  0.00     0.004 C 
ENDBRANCH   9  10
ENDBRANCH   8   9
ENDBRANCH   1   8
TORSDOF 6
ENDMDL
MODEL 7
REMARK VINA RESULT:    -3.604      2.294      4.160
REMARK INTER + INTRA:          -5.541
REMARK INTER:                  -4.639
REMARK INTRA:                  -0.902
REMARK UNBOUND:                -0.672
REMARK SMILES CCCCCCC=CC(=O)[O-]
REMARK SMILES IDX 5 1 6 2 7 3 8 4 9 5 10 6 11 7 4 8 3 9 2 10 1 11
REMARK H PARENT
REMARK Flexibility Score: inf
ROOT
ATOM      1  C   UNL     1       1.454   2.648  16.389  1.00  0.00     0.004 C 
ENDROOT
BRANCH   1   2
ATOM      2  C   UNL     1       0.708   3.983  16.196  1.00  0.00     0.027 C 
BRANCH   2   3
ATOM      3  C   UNL     1      -0.657   3.982  16.834  1.00  0.00    -0.025 C 
ATOM      4  C   UNL     1      -1.834   3.956  16.185  1.00  0.00     0.020 C 
BRANCH   4   5
ATOM      5  C   UNL     1      -2.033   3.866  14.724  1.00  0.00     0.064 C 
ATOM      6  O   UNL     1      -1.789   2.814  14.078  1.00  0.00    -0.545 OA
ATOM      7  O   UNL     1      -2.538   4.969  14.047  1.00  0.00    -0.545 OA
ENDBRANCH   4   5
ENDBRANCH   2   3
ENDBRANCH   1   2
BRANCH   1   8
ATOM      8  C   UNL     1       1.499   1.763  15.131  1.00  0.00     0.000 C 
BRANCH   8   9
ATOM      9  C   UNL     1       0.667   0.480  15.273  1.00  0.00    -0.000 C 
BRANCH   9  10
ATOM     10  C   UNL     1       0.132   0.328  16.702  1.00  0.00    -0.003 C 
ATOM     11  C   UNL     1      -1.392   0.262  16.718  1.00  0.00     0.004 C 
ENDBRANCH   9  10
ENDBRANCH   8   9
ENDBRANCH   1   8
TORSDOF 6
ENDMDL
MODEL 8
REMARK VINA RESULT:    -3.581      1.353      2.023
REMARK INTER + INTRA:          -5.510
REMARK INTER:                  -4.769
REMARK INTRA:                  -0.741
REMARK UNBOUND:                -0.672
REMARK SMILES CCCCCCC=CC(=O)[O-]
REMARK SMILES IDX 5 1 6 2 7 3 8 4 9 5 10 6 11 7 4 8 3 9 2 10 1 11
REMARK H PARENT
REMARK Flexibility Score: inf
ROOT
ATOM      1  C   UNL     1      -0.092   4.030  16.581  1.00  0.00     0.004 C 
ENDROOT
BRANCH   1   2
ATOM      2  C   UNL     1       1.036   3.034  16.915  1.00  0.00     0.027 C 
BRANCH   2   3
ATOM      3  C   UNL     1       1.510   2.269  15.707  1.00  0.00    -0.025 C 
ATOM      4  C   UNL     1       1.041   1.080  15.289  1.00  0.00     0.020 C 
BRANCH   4   5
ATOM      5  C   UNL     1      -0.067   0.309  15.889  1.00  0.00     0.064 C 
ATOM      6  O   UNL     1      -1.250   0.400  15.470  1.00  0.00    -0.545 OA
ATOM      7  O   UNL     1       0.213  -0.569  16.929  1.00  0.00    -0.545 OA
ENDBRANCH   4   5
ENDBRANCH   2   3
ENDBRANCH   1   2
BRANCH   1   8
ATOM      8  C   UNL     1      -1.484   3.592  17.071  1.00  0.00     0.000 C 
BRANCH   8   9
ATOM      9  C   UNL     1      -2.557   3.679  15.976  1.00  0.00    -0.000 C 
BRANCH   9  10
ATOM     10  C   UNL     1      -1.929   4.014  14.618  1.00  0.00    -0.003 C 
ATOM     11  C   UNL     1      -2.710   5.114  13.904  1.00  0.00     0.004 C 
ENDBRANCH   9  10
ENDBRANCH   8   9
ENDBRANCH   1   8
TORSDOF 6
ENDMDL
MODEL 9
REMARK VINA RESULT:    -3.479      2.319      4.450
REMARK INTER + INTRA:          -5.372
REMARK INTER:                  -4.732
REMARK INTRA:                  -0.639
REMARK UNBOUND:                -0.672
REMARK SMILES CCCCCCC=CC(=O)[O-]
REMARK SMILES IDX 5 1 6 2 7 3 8 4 9 5 10 6 11 7 4 8 3 9 2 10 1 11
REMARK H PARENT
REMARK Flexibility Score: inf
ROOT
ATOM      1  C   UNL     1      -1.396   3.625  16.953  1.00  0.00     0.004 C 
ENDROOT
BRANCH   1   2
ATOM      2  C   UNL     1      -2.458   3.830  15.855  1.00  0.00     0.027 C 
BRANCH   2   3
ATOM      3  C   UNL     1      -1.850   4.029  14.491  1.00  0.00    -0.025 C 
ATOM      4  C   UNL     1      -2.212   3.393  13.363  1.00  0.00     0.020 C 
BRANCH   4   5
ATOM      5  C   UNL     1      -3.310   2.417  13.215  1.00  0.00     0.064 C 
ATOM      6  O   UNL     1      -3.168   1.200  13.505  1.00  0.00    -0.545 OA
ATOM      7  O   UNL     1      -4.549   2.862  12.772  1.00  0.00    -0.545 OA
ENDBRANCH   4   5
ENDBRANCH   2   3
ENDBRANCH   1   2
BRANCH   1   8
ATOM      8  C   UNL     1       0.025   4.051  16.543  1.00  0.00     0.000 C 
BRANCH   8   9
ATOM      9  C   UNL     1       1.116   3.161  17.157  1.00  0.00    -0.000 C 
BRANCH   9  10
ATOM     10  C   UNL     1       1.322   1.892  16.322  1.00  0.00    -0.003 C 
ATOM     11  C   UNL     1       1.421   2.219  14.834  1.00  0.00     0.004 C 
ENDBRANCH   9  10
ENDBRANCH   8   9
ENDBRANCH   1   8
TORSDOF 6
ENDMDL
