MODEL 1
REMARK VINA RESULT:    -6.198      0.000      0.000
REMARK INTER + INTRA:          -7.588
REMARK INTER:                  -7.285
REMARK INTRA:                  -0.304
REMARK UNBOUND:                -0.304
REMARK SMILES O=c1cc(-c2ccc(O)c(O)c2)oc2cc(O)cc(O)c12
REMARK SMILES IDX 4 1 3 2 2 3 1 4 21 5 19 6 18 7 16 8 15 9 14 10 13 11 5 12
REMARK SMILES IDX 6 13 7 14 8 15 12 16 10 17 9 18 11 20 20 22 17 24
REMARK H PARENT 9 19 11 21 20 23 17 25
REMARK Flexibility Score: inf
ROOT
ATOM      1  C   UNL     1      47.501 -10.595 -56.987  1.00  0.00     0.138 A 
ATOM      2  C   UNL     1      46.519 -10.819 -57.966  1.00  0.00     0.100 A 
ATOM      3  C   UNL     1      46.067 -12.118 -58.201  1.00  0.00     0.197 A 
ATOM      4  O   UNL     1      45.187 -12.308 -59.083  1.00  0.00    -0.289 OA
ATOM      5  C   UNL     1      46.604 -13.186 -57.456  1.00  0.00     0.107 A 
ATOM      6  C   UNL     1      46.201 -14.532 -57.629  1.00  0.00     0.134 A 
ATOM      7  C   UNL     1      46.788 -15.539 -56.850  1.00  0.00     0.093 A 
ATOM      8  C   UNL     1      47.768 -15.228 -55.905  1.00  0.00     0.123 A 
ATOM      9  C   UNL     1      48.171 -13.901 -55.728  1.00  0.00     0.094 A 
ATOM     10  C   UNL     1      47.596 -12.882 -56.493  1.00  0.00     0.146 A 
ATOM     11  O   UNL     1      47.994 -11.627 -56.307  1.00  0.00    -0.456 OA
ENDROOT
BRANCH   1  12
ATOM     12  C   UNL     1      48.020  -9.234 -56.695  1.00  0.00     0.021 A 
ATOM     13  C   UNL     1      48.115  -8.248 -57.696  1.00  0.00     0.016 A 
ATOM     14  C   UNL     1      48.599  -6.973 -57.389  1.00  0.00     0.051 A 
ATOM     15  C   UNL     1      48.988  -6.657 -56.085  1.00  0.00     0.157 A 
ATOM     16  C   UNL     1      48.400  -8.906 -55.381  1.00  0.00     0.062 A 
ATOM     17  C   UNL     1      48.886  -7.627 -55.074  1.00  0.00     0.158 A 
BRANCH  15  18
ATOM     18  O   UNL     1      49.467  -5.377 -55.811  1.00  0.00    -0.504 OA
ATOM     19  H   UNL     1      49.965  -5.159 -54.956  1.00  0.00     0.293 HD
ENDBRANCH  15  18
BRANCH  17  20
ATOM     20  O   UNL     1      49.269  -7.318 -53.769  1.00  0.00    -0.504 OA
ATOM     21  H   UNL     1      49.314  -6.360 -53.443  1.00  0.00     0.293 HD
ENDBRANCH  17  20
ENDBRANCH   1  12
BRANCH   6  22
ATOM     22  O   UNL     1      45.225 -14.872 -58.567  1.00  0.00    -0.507 OA
ATOM     23  H   UNL     1      45.363 -14.718 -59.560  1.00  0.00     0.293 HD
ENDBRANCH   6  22
BRANCH   8  24
ATOM     24  O   UNL     1      48.336 -16.249 -55.145  1.00  0.00    -0.508 OA
ATOM     25  H   UNL     1      47.952 -17.187 -55.146  1.00  0.00     0.293 HD
ENDBRANCH   8  24
TORSDOF 5
ENDMDL
MODEL 2
REMARK VINA RESULT:    -6.129      1.818      7.634
REMARK INTER + INTRA:          -7.508
REMARK INTER:                  -7.242
REMARK INTRA:                  -0.266
REMARK UNBOUND:                -0.304
REMARK SMILES O=c1cc(-c2ccc(O)c(O)c2)oc2cc(O)cc(O)c12
REMARK SMILES IDX 4 1 3 2 2 3 1 4 21 5 19 6 18 7 16 8 15 9 14 10 13 11 5 12
REMARK SMILES IDX 6 13 7 14 8 15 12 16 10 17 9 18 11 20 20 22 17 24
REMARK H PARENT 9 19 11 21 20 23 17 25
REMARK Flexibility Score: inf
ROOT
ATOM      1  C   UNL     1      47.854  -8.657 -56.200  1.00  0.00     0.138 A 
ATOM      2  C   UNL     1      47.205  -8.069 -55.102  1.00  0.00     0.100 A 
ATOM      3  C   UNL     1      47.607  -6.809 -54.660  1.00  0.00     0.197 A 
ATOM      4  O   UNL     1      47.019  -6.292 -53.672  1.00  0.00    -0.289 OA
ATOM      5  C   UNL     1      48.660  -6.144 -55.319  1.00  0.00     0.107 A 
ATOM      6  C   UNL     1      49.128  -4.864 -54.937  1.00  0.00     0.134 A 
ATOM      7  C   UNL     1      50.186  -4.272 -55.642  1.00  0.00     0.093 A 
ATOM      8  C   UNL     1      50.783  -4.933 -56.718  1.00  0.00     0.123 A 
ATOM      9  C   UNL     1      50.325  -6.197 -57.101  1.00  0.00     0.094 A 
ATOM     10  C   UNL     1      49.271  -6.804 -56.412  1.00  0.00     0.146 A 
ATOM     11  O   UNL     1      48.851  -8.006 -56.796  1.00  0.00    -0.456 OA
ENDROOT
BRANCH   1  12
ATOM     12  C   UNL     1      47.470  -9.996 -56.714  1.00  0.00     0.021 A 
ATOM     13  C   UNL     1      46.387 -10.166 -57.598  1.00  0.00     0.016 A 
ATOM     14  C   UNL     1      46.054 -11.437 -58.073  1.00  0.00     0.051 A 
ATOM     15  C   UNL     1      46.795 -12.556 -57.683  1.00  0.00     0.157 A 
ATOM     16  C   UNL     1      48.220 -11.124 -56.337  1.00  0.00     0.062 A 
ATOM     17  C   UNL     1      47.885 -12.400 -56.813  1.00  0.00     0.158 A 
BRANCH  15  18
ATOM     18  O   UNL     1      46.437 -13.811 -58.174  1.00  0.00    -0.504 OA
ATOM     19  H   UNL     1      46.015 -13.933 -59.086  1.00  0.00     0.293 HD
ENDBRANCH  15  18
BRANCH  17  20
ATOM     20  O   UNL     1      48.632 -13.511 -56.423  1.00  0.00    -0.504 OA
ATOM     21  H   UNL     1      49.475 -13.783 -56.914  1.00  0.00     0.293 HD
ENDBRANCH  17  20
ENDBRANCH   1  12
BRANCH   6  22
ATOM     22  O   UNL     1      48.552  -4.181 -53.865  1.00  0.00    -0.507 OA
ATOM     23  H   UNL     1      48.007  -4.661 -53.158  1.00  0.00     0.293 HD
ENDBRANCH   6  22
BRANCH   8  24
ATOM     24  O   UNL     1      51.833  -4.321 -57.402  1.00  0.00    -0.508 OA
ATOM     25  H   UNL     1      52.490  -4.861 -57.954  1.00  0.00     0.293 HD
ENDBRANCH   8  24
TORSDOF 5
ENDMDL
MODEL 3
REMARK VINA RESULT:    -6.005      1.868      2.858
REMARK INTER + INTRA:          -7.362
REMARK INTER:                  -7.087
REMARK INTRA:                  -0.275
REMARK UNBOUND:                -0.304
REMARK SMILES O=c1cc(-c2ccc(O)c(O)c2)oc2cc(O)cc(O)c12
REMARK SMILES IDX 4 1 3 2 2 3 1 4 21 5 19 6 18 7 16 8 15 9 14 10 13 11 5 12
REMARK SMILES IDX 6 13 7 14 8 15 12 16 10 17 9 18 11 20 20 22 17 24
REMARK H PARENT 9 19 11 21 20 23 17 25
REMARK Flexibility Score: inf
ROOT
ATOM      1  C   UNL     1      47.992  -8.236 -56.156  1.00  0.00     0.138 A 
ATOM      2  C   UNL     1      46.930  -8.044 -57.055  1.00  0.00     0.100 A 
ATOM      3  C   UNL     1      46.320  -9.151 -57.646  1.00  0.00     0.197 A 
ATOM      4  O   UNL     1      45.370  -8.967 -58.453  1.00  0.00    -0.289 OA
ATOM      5  C   UNL     1      46.781 -10.446 -57.336  1.00  0.00     0.107 A 
ATOM      6  C   UNL     1      46.219 -11.622 -57.889  1.00  0.00     0.134 A 
ATOM      7  C   UNL     1      46.739 -12.875 -57.533  1.00  0.00     0.093 A 
ATOM      8  C   UNL     1      47.807 -12.974 -56.638  1.00  0.00     0.123 A 
ATOM      9  C   UNL     1      48.366 -11.817 -56.087  1.00  0.00     0.094 A 
ATOM     10  C   UNL     1      47.862 -10.559 -56.428  1.00  0.00     0.146 A 
ATOM     11  O   UNL     1      48.409  -9.473 -55.891  1.00  0.00    -0.456 OA
ENDROOT
BRANCH   1  12
ATOM     12  C   UNL     1      48.678  -7.096 -55.498  1.00  0.00     0.021 A 
ATOM     13  C   UNL     1      50.083  -7.014 -55.436  1.00  0.00     0.016 A 
ATOM     14  C   UNL     1      50.701  -5.924 -54.819  1.00  0.00     0.051 A 
ATOM     15  C   UNL     1      49.936  -4.897 -54.260  1.00  0.00     0.157 A 
ATOM     16  C   UNL     1      47.914  -6.052 -54.947  1.00  0.00     0.062 A 
ATOM     17  C   UNL     1      48.535  -4.959 -54.326  1.00  0.00     0.158 A 
BRANCH  15  18
ATOM     18  O   UNL     1      50.583  -3.823 -53.651  1.00  0.00    -0.504 OA
ATOM     19  H   UNL     1      51.323  -3.307 -54.112  1.00  0.00     0.293 HD
ENDBRANCH  15  18
BRANCH  17  20
ATOM     20  O   UNL     1      47.764  -3.936 -53.775  1.00  0.00    -0.504 OA
ATOM     21  H   UNL     1      48.012  -3.500 -52.895  1.00  0.00     0.293 HD
ENDBRANCH  17  20
ENDBRANCH   1  12
BRANCH   6  22
ATOM     22  O   UNL     1      45.153 -11.553 -58.787  1.00  0.00    -0.507 OA
ATOM     23  H   UNL     1      44.553 -12.351 -58.964  1.00  0.00     0.293 HD
ENDBRANCH   6  22
BRANCH   8  24
ATOM     24  O   UNL     1      48.305 -14.232 -56.301  1.00  0.00    -0.508 OA
ATOM     25  H   UNL     1      48.244 -14.590 -55.354  1.00  0.00     0.293 HD
ENDBRANCH   8  24
TORSDOF 5
ENDMDL
MODEL 4
REMARK VINA RESULT:    -5.841      2.084      7.895
REMARK INTER + INTRA:          -7.169
REMARK INTER:                  -6.875
REMARK INTRA:                  -0.294
REMARK UNBOUND:                -0.304
REMARK SMILES O=c1cc(-c2ccc(O)c(O)c2)oc2cc(O)cc(O)c12
REMARK SMILES IDX 4 1 3 2 2 3 1 4 21 5 19 6 18 7 16 8 15 9 14 10 13 11 5 12
REMARK SMILES IDX 6 13 7 14 8 15 12 16 10 17 9 18 11 20 20 22 17 24
REMARK H PARENT 9 19 11 21 20 23 17 25
REMARK Flexibility Score: inf
ROOT
ATOM      1  C   UNL     1      47.931  -8.555 -56.032  1.00  0.00     0.138 A 
ATOM      2  C   UNL     1      49.145  -8.393 -55.345  1.00  0.00     0.100 A 
ATOM      3  C   UNL     1      49.494  -7.135 -54.853  1.00  0.00     0.197 A 
ATOM      4  O   UNL     1      50.587  -7.000 -54.240  1.00  0.00    -0.289 OA
ATOM      5  C   UNL     1      48.626  -6.044 -55.055  1.00  0.00     0.107 A 
ATOM      6  C   UNL     1      48.902  -4.737 -54.589  1.00  0.00     0.134 A 
ATOM      7  C   UNL     1      47.987  -3.703 -54.836  1.00  0.00     0.093 A 
ATOM      8  C   UNL     1      46.805  -3.950 -55.539  1.00  0.00     0.123 A 
ATOM      9  C   UNL     1      46.526  -5.240 -56.002  1.00  0.00     0.094 A 
ATOM     10  C   UNL     1      47.425  -6.284 -55.765  1.00  0.00     0.146 A 
ATOM     11  O   UNL     1      47.137  -7.502 -56.214  1.00  0.00    -0.456 OA
ENDROOT
BRANCH   1  12
ATOM     12  C   UNL     1      47.508  -9.870 -56.578  1.00  0.00     0.021 A 
ATOM     13  C   UNL     1      46.384  -9.996 -57.417  1.00  0.00     0.016 A 
ATOM     14  C   UNL     1      46.016 -11.244 -57.924  1.00  0.00     0.051 A 
ATOM     15  C   UNL     1      46.761 -12.384 -57.611  1.00  0.00     0.157 A 
ATOM     16  C   UNL     1      48.262 -11.019 -56.278  1.00  0.00     0.062 A 
ATOM     17  C   UNL     1      47.891 -12.272 -56.786  1.00  0.00     0.158 A 
BRANCH  15  18
ATOM     18  O   UNL     1      46.367 -13.616 -58.132  1.00  0.00    -0.504 OA
ATOM     19  H   UNL     1      45.591 -13.705 -58.777  1.00  0.00     0.293 HD
ENDBRANCH  15  18
BRANCH  17  20
ATOM     20  O   UNL     1      48.643 -13.405 -56.473  1.00  0.00    -0.504 OA
ATOM     21  H   UNL     1      48.443 -14.305 -56.891  1.00  0.00     0.293 HD
ENDBRANCH  17  20
ENDBRANCH   1  12
BRANCH   6  22
ATOM     22  O   UNL     1      50.075  -4.459 -53.885  1.00  0.00    -0.507 OA
ATOM     23  H   UNL     1      50.244  -3.550 -53.469  1.00  0.00     0.293 HD
ENDBRANCH   6  22
BRANCH   8  24
ATOM     24  O   UNL     1      45.914  -2.905 -55.771  1.00  0.00    -0.508 OA
ATOM     25  H   UNL     1      46.220  -2.029 -56.180  1.00  0.00     0.293 HD
ENDBRANCH   8  24
TORSDOF 5
ENDMDL
MODEL 5
REMARK VINA RESULT:    -5.685      1.402      6.920
REMARK INTER + INTRA:          -6.985
REMARK INTER:                  -6.697
REMARK INTRA:                  -0.288
REMARK UNBOUND:                -0.304
REMARK SMILES O=c1cc(-c2ccc(O)c(O)c2)oc2cc(O)cc(O)c12
REMARK SMILES IDX 4 1 3 2 2 3 1 4 21 5 19 6 18 7 16 8 15 9 14 10 13 11 5 12
REMARK SMILES IDX 6 13 7 14 8 15 12 16 10 17 9 18 11 20 20 22 17 24
REMARK H PARENT 9 19 11 21 20 23 17 25
REMARK Flexibility Score: inf
ROOT
ATOM      1  C   UNL     1      47.584 -11.066 -56.878  1.00  0.00     0.138 A 
ATOM      2  C   UNL     1      47.049 -10.425 -58.007  1.00  0.00     0.100 A 
ATOM      3  C   UNL     1      47.121  -9.035 -58.107  1.00  0.00     0.197 A 
ATOM      4  O   UNL     1      46.635  -8.470 -59.123  1.00  0.00    -0.289 OA
ATOM      5  C   UNL     1      47.725  -8.294 -57.072  1.00  0.00     0.107 A 
ATOM      6  C   UNL     1      47.841  -6.884 -57.095  1.00  0.00     0.134 A 
ATOM      7  C   UNL     1      48.454  -6.220 -56.021  1.00  0.00     0.093 A 
ATOM      8  C   UNL     1      48.950  -6.936 -54.930  1.00  0.00     0.123 A 
ATOM      9  C   UNL     1      48.839  -8.330 -54.902  1.00  0.00     0.094 A 
ATOM     10  C   UNL     1      48.234  -9.011 -55.962  1.00  0.00     0.146 A 
ATOM     11  O   UNL     1      48.141 -10.336 -55.914  1.00  0.00    -0.456 OA
ENDROOT
BRANCH   1  12
ATOM     12  C   UNL     1      47.535 -12.542 -56.717  1.00  0.00     0.021 A 
ATOM     13  C   UNL     1      48.445 -13.226 -55.888  1.00  0.00     0.016 A 
ATOM     14  C   UNL     1      48.370 -14.614 -55.749  1.00  0.00     0.051 A 
ATOM     15  C   UNL     1      47.386 -15.342 -56.424  1.00  0.00     0.157 A 
ATOM     16  C   UNL     1      46.539 -13.278 -57.383  1.00  0.00     0.062 A 
ATOM     17  C   UNL     1      46.464 -14.671 -57.244  1.00  0.00     0.158 A 
BRANCH  15  18
ATOM     18  O   UNL     1      47.337 -16.726 -56.265  1.00  0.00    -0.504 OA
ATOM     19  H   UNL     1      46.996 -17.159 -55.415  1.00  0.00     0.293 HD
ENDBRANCH  15  18
BRANCH  17  20
ATOM     20  O   UNL     1      45.477 -15.391 -57.917  1.00  0.00    -0.504 OA
ATOM     21  H   UNL     1      45.077 -15.057 -58.786  1.00  0.00     0.293 HD
ENDBRANCH  17  20
ENDBRANCH   1  12
BRANCH   6  22
ATOM     22  O   UNL     1      47.353  -6.142 -58.171  1.00  0.00    -0.507 OA
ATOM     23  H   UNL     1      46.808  -5.298 -58.032  1.00  0.00     0.293 HD
ENDBRANCH   6  22
BRANCH   8  24
ATOM     24  O   UNL     1      49.553  -6.251 -53.877  1.00  0.00    -0.508 OA
ATOM     25  H   UNL     1      49.488  -5.243 -53.795  1.00  0.00     0.293 HD
ENDBRANCH   8  24
TORSDOF 5
ENDMDL
MODEL 6
REMARK VINA RESULT:    -5.625      4.840      6.545
REMARK INTER + INTRA:          -6.915
REMARK INTER:                  -6.643
REMARK INTRA:                  -0.272
REMARK UNBOUND:                -0.304
REMARK SMILES O=c1cc(-c2ccc(O)c(O)c2)oc2cc(O)cc(O)c12
REMARK SMILES IDX 4 1 3 2 2 3 1 4 21 5 19 6 18 7 16 8 15 9 14 10 13 11 5 12
REMARK SMILES IDX 6 13 7 14 8 15 12 16 10 17 9 18 11 20 20 22 17 24
REMARK H PARENT 9 19 11 21 20 23 17 25
REMARK Flexibility Score: inf
ROOT
ATOM      1  C   UNL     1      49.550  -6.241 -57.124  1.00  0.00     0.138 A 
ATOM      2  C   UNL     1      48.770  -7.132 -57.881  1.00  0.00     0.100 A 
ATOM      3  C   UNL     1      47.568  -7.608 -57.357  1.00  0.00     0.197 A 
ATOM      4  O   UNL     1      46.877  -8.409 -58.043  1.00  0.00    -0.289 OA
ATOM      5  C   UNL     1      47.154  -7.193 -56.076  1.00  0.00     0.107 A 
ATOM      6  C   UNL     1      45.950  -7.626 -55.472  1.00  0.00     0.134 A 
ATOM      7  C   UNL     1      45.612  -7.169 -54.189  1.00  0.00     0.093 A 
ATOM      8  C   UNL     1      46.453  -6.290 -53.502  1.00  0.00     0.123 A 
ATOM      9  C   UNL     1      47.644  -5.858 -54.093  1.00  0.00     0.094 A 
ATOM     10  C   UNL     1      47.998  -6.301 -55.371  1.00  0.00     0.146 A 
ATOM     11  O   UNL     1      49.135  -5.875 -55.913  1.00  0.00    -0.456 OA
ENDROOT
BRANCH   1  12
ATOM     12  C   UNL     1      50.838  -5.703 -57.630  1.00  0.00     0.021 A 
ATOM     13  C   UNL     1      51.132  -4.326 -57.587  1.00  0.00     0.016 A 
ATOM     14  C   UNL     1      52.356  -3.848 -58.062  1.00  0.00     0.051 A 
ATOM     15  C   UNL     1      53.309  -4.730 -58.578  1.00  0.00     0.157 A 
ATOM     16  C   UNL     1      51.807  -6.586 -58.138  1.00  0.00     0.062 A 
ATOM     17  C   UNL     1      53.035  -6.107 -58.615  1.00  0.00     0.158 A 
BRANCH  15  18
ATOM     18  O   UNL     1      54.521  -4.223 -59.044  1.00  0.00    -0.504 OA
ATOM     19  H   UNL     1      54.597  -3.737 -59.930  1.00  0.00     0.293 HD
ENDBRANCH  15  18
BRANCH  17  20
ATOM     20  O   UNL     1      53.983  -6.994 -59.125  1.00  0.00    -0.504 OA
ATOM     21  H   UNL     1      53.711  -7.864 -59.566  1.00  0.00     0.293 HD
ENDBRANCH  17  20
ENDBRANCH   1  12
BRANCH   6  22
ATOM     22  O   UNL     1      45.092  -8.504 -56.134  1.00  0.00    -0.507 OA
ATOM     23  H   UNL     1      45.437  -9.332 -56.606  1.00  0.00     0.293 HD
ENDBRANCH   6  22
BRANCH   8  24
ATOM     24  O   UNL     1      46.093  -5.852 -52.229  1.00  0.00    -0.508 OA
ATOM     25  H   UNL     1      45.412  -6.353 -51.670  1.00  0.00     0.293 HD
ENDBRANCH   8  24
TORSDOF 5
ENDMDL
MODEL 7
REMARK VINA RESULT:    -5.578      2.921      8.042
REMARK INTER + INTRA:          -6.860
REMARK INTER:                  -6.592
REMARK INTRA:                  -0.268
REMARK UNBOUND:                -0.304
REMARK SMILES O=c1cc(-c2ccc(O)c(O)c2)oc2cc(O)cc(O)c12
REMARK SMILES IDX 4 1 3 2 2 3 1 4 21 5 19 6 18 7 16 8 15 9 14 10 13 11 5 12
REMARK SMILES IDX 6 13 7 14 8 15 12 16 10 17 9 18 11 20 20 22 17 24
REMARK H PARENT 9 19 11 21 20 23 17 25
REMARK Flexibility Score: inf
ROOT
ATOM      1  C   UNL     1      47.177  -7.674 -55.833  1.00  0.00     0.138 A 
ATOM      2  C   UNL     1      48.083  -6.709 -56.302  1.00  0.00     0.100 A 
ATOM      3  C   UNL     1      48.114  -5.448 -55.706  1.00  0.00     0.197 A 
ATOM      4  O   UNL     1      48.930  -4.589 -56.137  1.00  0.00    -0.289 OA
ATOM      5  C   UNL     1      47.234  -5.158 -54.645  1.00  0.00     0.107 A 
ATOM      6  C   UNL     1      47.201  -3.907 -53.985  1.00  0.00     0.134 A 
ATOM      7  C   UNL     1      46.290  -3.697 -52.939  1.00  0.00     0.093 A 
ATOM      8  C   UNL     1      45.414  -4.711 -52.543  1.00  0.00     0.123 A 
ATOM      9  C   UNL     1      45.442  -5.949 -53.191  1.00  0.00     0.094 A 
ATOM     10  C   UNL     1      46.343  -6.180 -54.234  1.00  0.00     0.146 A 
ATOM     11  O   UNL     1      46.352  -7.366 -54.834  1.00  0.00    -0.456 OA
ENDROOT
BRANCH   1  12
ATOM     12  C   UNL     1      47.099  -9.032 -56.429  1.00  0.00     0.021 A 
ATOM     13  C   UNL     1      48.037 -10.034 -56.112  1.00  0.00     0.016 A 
ATOM     14  C   UNL     1      47.933 -11.306 -56.680  1.00  0.00     0.051 A 
ATOM     15  C   UNL     1      46.894 -11.604 -57.566  1.00  0.00     0.157 A 
ATOM     16  C   UNL     1      46.048  -9.343 -57.310  1.00  0.00     0.062 A 
ATOM     17  C   UNL     1      45.944 -10.619 -57.881  1.00  0.00     0.158 A 
BRANCH  15  18
ATOM     18  O   UNL     1      46.818 -12.882 -58.117  1.00  0.00    -0.504 OA
ATOM     19  H   UNL     1      46.074 -13.528 -57.880  1.00  0.00     0.293 HD
ENDBRANCH  15  18
BRANCH  17  20
ATOM     20  O   UNL     1      44.902 -10.910 -58.760  1.00  0.00    -0.504 OA
ATOM     21  H   UNL     1      44.405 -11.792 -58.721  1.00  0.00     0.293 HD
ENDBRANCH  17  20
ENDBRANCH   1  12
BRANCH   6  22
ATOM     22  O   UNL     1      48.062  -2.876 -54.360  1.00  0.00    -0.507 OA
ATOM     23  H   UNL     1      48.002  -2.436 -55.272  1.00  0.00     0.293 HD
ENDBRANCH   6  22
BRANCH   8  24
ATOM     24  O   UNL     1      44.519  -4.475 -51.501  1.00  0.00    -0.508 OA
ATOM     25  H   UNL     1      43.815  -5.158 -51.243  1.00  0.00     0.293 HD
ENDBRANCH   8  24
TORSDOF 5
ENDMDL
MODEL 8
REMARK VINA RESULT:    -5.451      4.281      6.868
REMARK INTER + INTRA:          -6.710
REMARK INTER:                  -6.401
REMARK INTRA:                  -0.309
REMARK UNBOUND:                -0.304
REMARK SMILES O=c1cc(-c2ccc(O)c(O)c2)oc2cc(O)cc(O)c12
REMARK SMILES IDX 4 1 3 2 2 3 1 4 21 5 19 6 18 7 16 8 15 9 14 10 13 11 5 12
REMARK SMILES IDX 6 13 7 14 8 15 12 16 10 17 9 18 11 20 20 22 17 24
REMARK H PARENT 9 19 11 21 20 23 17 25
REMARK Flexibility Score: inf
ROOT
ATOM      1  C   UNL     1      49.759  -5.529 -56.714  1.00  0.00     0.138 A 
ATOM      2  C   UNL     1      49.221  -4.729 -55.693  1.00  0.00     0.100 A 
ATOM      3  C   UNL     1      47.989  -5.065 -55.133  1.00  0.00     0.197 A 
ATOM      4  O   UNL     1      47.514  -4.338 -54.219  1.00  0.00    -0.289 OA
ATOM      5  C   UNL     1      47.299  -6.201 -55.601  1.00  0.00     0.107 A 
ATOM      6  C   UNL     1      46.046  -6.614 -55.088  1.00  0.00     0.134 A 
ATOM      7  C   UNL     1      45.422  -7.755 -55.613  1.00  0.00     0.093 A 
ATOM      8  C   UNL     1      46.024  -8.488 -56.637  1.00  0.00     0.123 A 
ATOM      9  C   UNL     1      47.262  -8.086 -57.149  1.00  0.00     0.094 A 
ATOM     10  C   UNL     1      47.901  -6.953 -56.639  1.00  0.00     0.146 A 
ATOM     11  O   UNL     1      49.078  -6.591 -57.140  1.00  0.00    -0.456 OA
ENDROOT
BRANCH   1  12
ATOM     12  C   UNL     1      51.066  -5.219 -57.348  1.00  0.00     0.021 A 
ATOM     13  C   UNL     1      51.588  -3.911 -57.365  1.00  0.00     0.016 A 
ATOM     14  C   UNL     1      52.825  -3.651 -57.960  1.00  0.00     0.051 A 
ATOM     15  C   UNL     1      53.565  -4.685 -58.539  1.00  0.00     0.157 A 
ATOM     16  C   UNL     1      51.822  -6.258 -57.920  1.00  0.00     0.062 A 
ATOM     17  C   UNL     1      53.063  -5.996 -58.517  1.00  0.00     0.158 A 
BRANCH  15  18
ATOM     18  O   UNL     1      54.796  -4.393 -59.125  1.00  0.00    -0.504 OA
ATOM     19  H   UNL     1      55.483  -5.111 -59.322  1.00  0.00     0.293 HD
ENDBRANCH  15  18
BRANCH  17  20
ATOM     20  O   UNL     1      53.798  -7.034 -59.089  1.00  0.00    -0.504 OA
ATOM     21  H   UNL     1      54.670  -7.353 -58.685  1.00  0.00     0.293 HD
ENDBRANCH  17  20
ENDBRANCH   1  12
BRANCH   6  22
ATOM     22  O   UNL     1      45.420  -5.899 -54.065  1.00  0.00    -0.507 OA
ATOM     23  H   UNL     1      44.549  -5.403 -54.218  1.00  0.00     0.293 HD
ENDBRANCH   6  22
BRANCH   8  24
ATOM     24  O   UNL     1      45.381  -9.618 -57.141  1.00  0.00    -0.508 OA
ATOM     25  H   UNL     1      44.434  -9.855 -56.867  1.00  0.00     0.293 HD
ENDBRANCH   8  24
TORSDOF 5
ENDMDL
