MODEL 1
REMARK VINA RESULT:    -4.397      0.000      0.000
REMARK INTER + INTRA:          -5.011
REMARK INTER:                  -4.911
REMARK INTRA:                  -0.100
REMARK UNBOUND:                -0.100
REMARK SMILES CCc1ccc(O)cc1O
REMARK SMILES IDX 3 1 9 2 8 3 6 4 5 5 4 6 2 7 1 8 10 9 7 11
REMARK H PARENT 10 10 7 12
REMARK Flexibility Score: inf
ROOT
ATOM      1  C   UNL     1      -6.835   7.768  -3.959  1.00  0.00    -0.006 A 
ATOM      2  C   UNL     1      -6.891   6.448  -3.471  1.00  0.00     0.122 A 
ATOM      3  C   UNL     1      -5.722   5.674  -3.413  1.00  0.00     0.092 A 
ATOM      4  C   UNL     1      -4.497   6.212  -3.826  1.00  0.00     0.119 A 
ATOM      5  C   UNL     1      -4.439   7.526  -4.296  1.00  0.00     0.047 A 
ATOM      6  C   UNL     1      -5.598   8.302  -4.358  1.00  0.00     0.011 A 
ENDROOT
BRANCH   1   7
ATOM      7  C   UNL     1      -8.070   8.632  -4.004  1.00  0.00     0.036 C 
ATOM      8  C   UNL     1      -8.520   8.858  -5.444  1.00  0.00     0.009 C 
ENDBRANCH   1   7
BRANCH   2   9
ATOM      9  O   UNL     1      -8.105   5.907  -3.045  1.00  0.00    -0.508 OA
ATOM     10  H   UNL     1      -8.210   4.917  -2.861  1.00  0.00     0.293 HD
ENDBRANCH   2   9
BRANCH   4  11
ATOM     11  O   UNL     1      -3.331   5.449  -3.771  1.00  0.00    -0.508 OA
ATOM     12  H   UNL     1      -2.943   5.139  -2.888  1.00  0.00     0.293 HD
ENDBRANCH   4  11
TORSDOF 3
ENDMDL
MODEL 2
REMARK VINA RESULT:    -4.357      1.996      4.302
REMARK INTER + INTRA:          -4.966
REMARK INTER:                  -4.868
REMARK INTRA:                  -0.098
REMARK UNBOUND:                -0.100
REMARK SMILES CCc1ccc(O)cc1O
REMARK SMILES IDX 3 1 9 2 8 3 6 4 5 5 4 6 2 7 1 8 10 9 7 11
REMARK H PARENT 10 10 7 12
REMARK Flexibility Score: inf
ROOT
ATOM      1  C   UNL     1      -5.525   6.662  -3.502  1.00  0.00    -0.006 A 
ATOM      2  C   UNL     1      -5.821   7.976  -3.088  1.00  0.00     0.122 A 
ATOM      3  C   UNL     1      -7.124   8.307  -2.688  1.00  0.00     0.092 A 
ATOM      4  C   UNL     1      -8.131   7.333  -2.686  1.00  0.00     0.119 A 
ATOM      5  C   UNL     1      -7.834   6.026  -3.082  1.00  0.00     0.047 A 
ATOM      6  C   UNL     1      -6.539   5.690  -3.483  1.00  0.00     0.011 A 
ENDROOT
BRANCH   1   7
ATOM      7  C   UNL     1      -4.126   6.273  -3.908  1.00  0.00     0.036 C 
ATOM      8  C   UNL     1      -3.578   5.187  -2.988  1.00  0.00     0.009 C 
ENDBRANCH   1   7
BRANCH   2   9
ATOM      9  O   UNL     1      -4.821   8.950  -3.075  1.00  0.00    -0.508 OA
ATOM     10  H   UNL     1      -4.804   9.702  -3.753  1.00  0.00     0.293 HD
ENDBRANCH   2   9
BRANCH   4  11
ATOM     11  O   UNL     1      -9.429   7.653  -2.290  1.00  0.00    -0.508 OA
ATOM     12  H   UNL     1     -10.011   6.987  -1.797  1.00  0.00     0.293 HD
ENDBRANCH   4  11
TORSDOF 3
ENDMDL
MODEL 3
REMARK VINA RESULT:    -4.273      1.591      2.334
REMARK INTER + INTRA:          -4.872
REMARK INTER:                  -4.783
REMARK INTRA:                  -0.089
REMARK UNBOUND:                -0.100
REMARK SMILES CCc1ccc(O)cc1O
REMARK SMILES IDX 3 1 9 2 8 3 6 4 5 5 4 6 2 7 1 8 10 9 7 11
REMARK H PARENT 10 10 7 12
REMARK Flexibility Score: inf
ROOT
ATOM      1  C   UNL     1      -6.902   7.687  -3.873  1.00  0.00    -0.006 A 
ATOM      2  C   UNL     1      -5.696   8.274  -4.302  1.00  0.00     0.122 A 
ATOM      3  C   UNL     1      -4.505   7.533  -4.264  1.00  0.00     0.092 A 
ATOM      4  C   UNL     1      -4.511   6.207  -3.811  1.00  0.00     0.119 A 
ATOM      5  C   UNL     1      -5.710   5.620  -3.399  1.00  0.00     0.047 A 
ATOM      6  C   UNL     1      -6.900   6.352  -3.434  1.00  0.00     0.011 A 
ENDROOT
BRANCH   1   7
ATOM      7  C   UNL     1      -8.201   8.450  -3.933  1.00  0.00     0.036 C 
ATOM      8  C   UNL     1      -8.965   8.321  -2.619  1.00  0.00     0.009 C 
ENDBRANCH   1   7
BRANCH   2   9
ATOM      9  O   UNL     1      -5.681   9.590  -4.766  1.00  0.00    -0.508 OA
ATOM     10  H   UNL     1      -5.028   9.895  -5.478  1.00  0.00     0.293 HD
ENDBRANCH   2   9
BRANCH   4  11
ATOM     11  O   UNL     1      -3.332   5.465  -3.770  1.00  0.00    -0.508 OA
ATOM     12  H   UNL     1      -2.483   5.843  -3.368  1.00  0.00     0.293 HD
ENDBRANCH   4  11
TORSDOF 3
ENDMDL
MODEL 4
REMARK VINA RESULT:    -4.107     18.056     19.527
REMARK INTER + INTRA:          -4.686
REMARK INTER:                  -4.600
REMARK INTRA:                  -0.086
REMARK UNBOUND:                -0.100
REMARK SMILES CCc1ccc(O)cc1O
REMARK SMILES IDX 3 1 9 2 8 3 6 4 5 5 4 6 2 7 1 8 10 9 7 11
REMARK H PARENT 10 10 7 12
REMARK Flexibility Score: inf
ROOT
ATOM      1  C   UNL     1       2.854  -8.559   4.113  1.00  0.00    -0.006 A 
ATOM      2  C   UNL     1       1.507  -8.934   3.943  1.00  0.00     0.122 A 
ATOM      3  C   UNL     1       0.483  -8.108   4.431  1.00  0.00     0.092 A 
ATOM      4  C   UNL     1       0.795  -6.905   5.077  1.00  0.00     0.119 A 
ATOM      5  C   UNL     1       2.130  -6.526   5.234  1.00  0.00     0.047 A 
ATOM      6  C   UNL     1       3.154  -7.344   4.751  1.00  0.00     0.011 A 
ENDROOT
BRANCH   1   7
ATOM      7  C   UNL     1       3.972  -9.414   3.571  1.00  0.00     0.036 C 
ATOM      8  C   UNL     1       5.292  -8.651   3.588  1.00  0.00     0.009 C 
ENDBRANCH   1   7
BRANCH   2   9
ATOM      9  O   UNL     1       1.187 -10.125   3.289  1.00  0.00    -0.508 OA
ATOM     10  H   UNL     1       1.776 -10.504   2.557  1.00  0.00     0.293 HD
ENDBRANCH   2   9
BRANCH   4  11
ATOM     11  O   UNL     1      -0.217  -6.078   5.565  1.00  0.00    -0.508 OA
ATOM     12  H   UNL     1      -0.165  -5.669   6.490  1.00  0.00     0.293 HD
ENDBRANCH   4  11
TORSDOF 3
ENDMDL
MODEL 5
REMARK VINA RESULT:    -3.923     18.279     19.848
REMARK INTER + INTRA:          -4.482
REMARK INTER:                  -4.396
REMARK INTRA:                  -0.086
REMARK UNBOUND:                -0.100
REMARK SMILES CCc1ccc(O)cc1O
REMARK SMILES IDX 3 1 9 2 8 3 6 4 5 5 4 6 2 7 1 8 10 9 7 11
REMARK H PARENT 10 10 7 12
REMARK Flexibility Score: inf
ROOT
ATOM      1  C   UNL     1       2.101  -8.146   4.348  1.00  0.00    -0.006 A 
ATOM      2  C   UNL     1       2.311  -9.362   3.668  1.00  0.00     0.122 A 
ATOM      3  C   UNL     1       3.617  -9.810   3.424  1.00  0.00     0.092 A 
ATOM      4  C   UNL     1       4.716  -9.060   3.863  1.00  0.00     0.119 A 
ATOM      5  C   UNL     1       4.508  -7.861   4.550  1.00  0.00     0.047 A 
ATOM      6  C   UNL     1       3.210  -7.409   4.797  1.00  0.00     0.011 A 
ENDROOT
BRANCH   1   7
ATOM      7  C   UNL     1       0.707  -7.657   4.651  1.00  0.00     0.036 C 
ATOM      8  C   UNL     1       0.749  -6.291   5.329  1.00  0.00     0.009 C 
ENDBRANCH   1   7
BRANCH   2   9
ATOM      9  O   UNL     1       1.222 -10.123   3.238  1.00  0.00    -0.508 OA
ATOM     10  H   UNL     1       1.349 -11.007   2.761  1.00  0.00     0.293 HD
ENDBRANCH   2   9
BRANCH   4  11
ATOM     11  O   UNL     1       6.017  -9.499   3.624  1.00  0.00    -0.508 OA
ATOM     12  H   UNL     1       6.241 -10.485   3.567  1.00  0.00     0.293 HD
ENDBRANCH   4  11
TORSDOF 3
ENDMDL
MODEL 6
REMARK VINA RESULT:    -3.826     13.852     15.387
REMARK INTER + INTRA:          -4.373
REMARK INTER:                  -4.288
REMARK INTRA:                  -0.085
REMARK UNBOUND:                -0.100
REMARK SMILES CCc1ccc(O)cc1O
REMARK SMILES IDX 3 1 9 2 8 3 6 4 5 5 4 6 2 7 1 8 10 9 7 11
REMARK H PARENT 10 10 7 12
REMARK Flexibility Score: inf
ROOT
ATOM      1  C   UNL     1       5.644   6.449   5.943  1.00  0.00    -0.006 A 
ATOM      2  C   UNL     1       6.376   5.330   5.500  1.00  0.00     0.122 A 
ATOM      3  C   UNL     1       5.702   4.175   5.076  1.00  0.00     0.092 A 
ATOM      4  C   UNL     1       4.302   4.133   5.079  1.00  0.00     0.119 A 
ATOM      5  C   UNL     1       3.575   5.248   5.504  1.00  0.00     0.047 A 
ATOM      6  C   UNL     1       4.239   6.401   5.929  1.00  0.00     0.011 A 
ENDROOT
BRANCH   1   7
ATOM      7  C   UNL     1       6.343   7.713   6.375  1.00  0.00     0.036 C 
ATOM      8  C   UNL     1       5.373   8.651   7.086  1.00  0.00     0.009 C 
ENDBRANCH   1   7
BRANCH   2   9
ATOM      9  O   UNL     1       7.772   5.367   5.482  1.00  0.00    -0.508 OA
ATOM     10  H   UNL     1       8.287   5.539   4.627  1.00  0.00     0.293 HD
ENDBRANCH   2   9
BRANCH   4  11
ATOM     11  O   UNL     1       3.624   2.990   4.659  1.00  0.00    -0.508 OA
ATOM     12  H   UNL     1       4.122   2.150   4.387  1.00  0.00     0.293 HD
ENDBRANCH   4  11
TORSDOF 3
ENDMDL
MODEL 7
REMARK VINA RESULT:    -3.818     19.259     20.158
REMARK INTER + INTRA:          -4.364
REMARK INTER:                  -4.278
REMARK INTRA:                  -0.086
REMARK UNBOUND:                -0.100
REMARK SMILES CCc1ccc(O)cc1O
REMARK SMILES IDX 3 1 9 2 8 3 6 4 5 5 4 6 2 7 1 8 10 9 7 11
REMARK H PARENT 10 10 7 12
REMARK Flexibility Score: inf
ROOT
ATOM      1  C   UNL     1       4.319  -7.434   4.680  1.00  0.00    -0.006 A 
ATOM      2  C   UNL     1       4.629  -8.603   3.957  1.00  0.00     0.122 A 
ATOM      3  C   UNL     1       3.599  -9.451   3.523  1.00  0.00     0.092 A 
ATOM      4  C   UNL     1       2.262  -9.135   3.796  1.00  0.00     0.119 A 
ATOM      5  C   UNL     1       1.953  -7.969   4.500  1.00  0.00     0.047 A 
ATOM      6  C   UNL     1       2.973  -7.120   4.935  1.00  0.00     0.011 A 
ENDROOT
BRANCH   1   7
ATOM      7  C   UNL     1       5.404  -6.489   5.131  1.00  0.00     0.036 C 
ATOM      8  C   UNL     1       4.817  -5.136   5.517  1.00  0.00     0.009 C 
ENDBRANCH   1   7
BRANCH   2   9
ATOM      9  O   UNL     1       5.958  -8.919   3.670  1.00  0.00    -0.508 OA
ATOM     10  H   UNL     1       6.340  -9.835   3.869  1.00  0.00     0.293 HD
ENDBRANCH   2   9
BRANCH   4  11
ATOM     11  O   UNL     1       1.233  -9.973   3.369  1.00  0.00    -0.508 OA
ATOM     12  H   UNL     1       1.382 -10.669   2.647  1.00  0.00     0.293 HD
ENDBRANCH   4  11
TORSDOF 3
ENDMDL
MODEL 8
REMARK VINA RESULT:    -3.787     13.996     15.241
REMARK INTER + INTRA:          -4.329
REMARK INTER:                  -4.258
REMARK INTRA:                  -0.071
REMARK UNBOUND:                -0.100
REMARK SMILES CCc1ccc(O)cc1O
REMARK SMILES IDX 3 1 9 2 8 3 6 4 5 5 4 6 2 7 1 8 10 9 7 11
REMARK H PARENT 10 10 7 12
REMARK Flexibility Score: inf
ROOT
ATOM      1  C   UNL     1       4.385   5.088   5.240  1.00  0.00    -0.006 A 
ATOM      2  C   UNL     1       5.787   4.947   5.218  1.00  0.00     0.122 A 
ATOM      3  C   UNL     1       6.601   5.972   5.724  1.00  0.00     0.092 A 
ATOM      4  C   UNL     1       6.026   7.130   6.262  1.00  0.00     0.119 A 
ATOM      5  C   UNL     1       4.636   7.264   6.297  1.00  0.00     0.047 A 
ATOM      6  C   UNL     1       3.819   6.248   5.794  1.00  0.00     0.011 A 
ENDROOT
BRANCH   1   7
ATOM      7  C   UNL     1       3.487   3.989   4.730  1.00  0.00     0.036 C 
ATOM      8  C   UNL     1       3.264   2.931   5.805  1.00  0.00     0.009 C 
ENDBRANCH   1   7
BRANCH   2   9
ATOM      9  O   UNL     1       6.368   3.791   4.695  1.00  0.00    -0.508 OA
ATOM     10  H   UNL     1       5.811   2.983   4.445  1.00  0.00     0.293 HD
ENDBRANCH   2   9
BRANCH   4  11
ATOM     11  O   UNL     1       6.828   8.153   6.767  1.00  0.00    -0.508 OA
ATOM     12  H   UNL     1       7.257   8.085   7.682  1.00  0.00     0.293 HD
ENDBRANCH   4  11
TORSDOF 3
ENDMDL
MODEL 9
REMARK VINA RESULT:    -3.686     18.655     19.983
REMARK INTER + INTRA:          -4.217
REMARK INTER:                  -4.132
REMARK INTRA:                  -0.085
REMARK UNBOUND:                -0.100
REMARK SMILES CCc1ccc(O)cc1O
REMARK SMILES IDX 3 1 9 2 8 3 6 4 5 5 4 6 2 7 1 8 10 9 7 11
REMARK H PARENT 10 10 7 12
REMARK Flexibility Score: inf
ROOT
ATOM      1  C   UNL     1       3.560  -8.618   4.000  1.00  0.00    -0.006 A 
ATOM      2  C   UNL     1       3.382  -7.435   4.744  1.00  0.00     0.122 A 
ATOM      3  C   UNL     1       2.091  -7.020   5.102  1.00  0.00     0.092 A 
ATOM      4  C   UNL     1       0.976  -7.783   4.732  1.00  0.00     0.119 A 
ATOM      5  C   UNL     1       1.152  -8.964   4.006  1.00  0.00     0.047 A 
ATOM      6  C   UNL     1       2.435  -9.383   3.646  1.00  0.00     0.011 A 
ENDROOT
BRANCH   1   7
ATOM      7  C   UNL     1       4.939  -9.103   3.629  1.00  0.00     0.036 C 
ATOM      8  C   UNL     1       4.867 -10.125   2.500  1.00  0.00     0.009 C 
ENDBRANCH   1   7
BRANCH   2   9
ATOM      9  O   UNL     1       4.488  -6.675   5.128  1.00  0.00    -0.508 OA
ATOM     10  H   UNL     1       5.392  -7.100   5.295  1.00  0.00     0.293 HD
ENDBRANCH   2   9
BRANCH   4  11
ATOM     11  O   UNL     1      -0.311  -7.377   5.083  1.00  0.00    -0.508 OA
ATOM     12  H   UNL     1      -1.097  -8.015   5.039  1.00  0.00     0.293 HD
ENDBRANCH   4  11
TORSDOF 3
ENDMDL
