MODEL 1
REMARK VINA RESULT:    -4.462      0.000      0.000
REMARK INTER + INTRA:          -7.266
REMARK INTER:                  -6.810
REMARK INTRA:                  -0.456
REMARK UNBOUND:                -0.456
REMARK SMILES O=C([O-])CCCCCCCCC(=O)[O-]
REMARK SMILES IDX 7 1 6 2 5 3 4 4 2 5 1 6 3 7 8 8 9 9 10 10 11 11 12 12 13 13
REMARK SMILES IDX 14 14
REMARK H PARENT
REMARK Flexibility Score: inf
ROOT
ATOM      1  C   UNL     1       7.663   8.812  81.313  1.00  0.00     0.000 C 
ENDROOT
BRANCH   1   2
ATOM      2  C   UNL     1       6.220   8.278  81.317  1.00  0.00     0.000 C 
BRANCH   2   3
ATOM      3  C   UNL     1       5.248   9.196  82.082  1.00  0.00     0.006 C 
BRANCH   3   4
ATOM      4  C   UNL     1       4.027   8.476  82.673  1.00  0.00     0.053 C 
BRANCH   4   5
ATOM      5  C   UNL     1       3.036   9.435  83.257  1.00  0.00     0.041 C 
ATOM      6  O   UNL     1       2.442  10.262  82.517  1.00  0.00    -0.550 OA
ATOM      7  O   UNL     1       2.793   9.439  84.625  1.00  0.00    -0.550 OA
ENDBRANCH   4   5
ENDBRANCH   3   4
ENDBRANCH   2   3
ENDBRANCH   1   2
BRANCH   1   8
ATOM      8  C   UNL     1       8.148   9.185  79.902  1.00  0.00     0.000 C 
BRANCH   8   9
ATOM      9  C   UNL     1       9.675   9.069  79.754  1.00  0.00     0.000 C 
BRANCH   9  10
ATOM     10  C   UNL     1      10.140   7.622  79.507  1.00  0.00     0.006 C 
BRANCH  10  11
ATOM     11  C   UNL     1       9.120   6.746  78.762  1.00  0.00     0.053 C 
BRANCH  11  12
ATOM     12  C   UNL     1       8.786   5.500  79.522  1.00  0.00     0.041 C 
ATOM     13  O   UNL     1       7.623   5.322  79.969  1.00  0.00    -0.550 OA
ATOM     14  O   UNL     1       9.771   4.549  79.768  1.00  0.00    -0.550 OA
ENDBRANCH  11  12
ENDBRANCH  10  11
ENDBRANCH   9  10
ENDBRANCH   8   9
ENDBRANCH   1   8
TORSDOF 9
ENDMDL
MODEL 2
REMARK VINA RESULT:    -4.310      2.802      6.595
REMARK INTER + INTRA:          -7.035
REMARK INTER:                  -6.413
REMARK INTRA:                  -0.621
REMARK UNBOUND:                -0.456
REMARK SMILES O=C([O-])CCCCCCCCC(=O)[O-]
REMARK SMILES IDX 7 1 6 2 5 3 4 4 2 5 1 6 3 7 8 8 9 9 10 10 11 11 12 12 13 13
REMARK SMILES IDX 14 14
REMARK H PARENT
REMARK Flexibility Score: inf
ROOT
ATOM      1  C   UNL     1       4.875   8.398  82.230  1.00  0.00     0.000 C 
ENDROOT
BRANCH   1   2
ATOM      2  C   UNL     1       6.197   8.797  81.553  1.00  0.00     0.000 C 
BRANCH   2   3
ATOM      3  C   UNL     1       6.762   7.686  80.647  1.00  0.00     0.006 C 
BRANCH   3   4
ATOM      4  C   UNL     1       8.088   8.041  79.958  1.00  0.00     0.053 C 
BRANCH   4   5
ATOM      5  C   UNL     1       8.803   6.827  79.452  1.00  0.00     0.041 C 
ATOM      6  O   UNL     1       8.272   5.690  79.555  1.00  0.00    -0.550 OA
ATOM      7  O   UNL     1      10.071   6.946  78.898  1.00  0.00    -0.550 OA
ENDBRANCH   4   5
ENDBRANCH   3   4
ENDBRANCH   2   3
ENDBRANCH   1   2
BRANCH   1   8
ATOM      8  C   UNL     1       4.012   9.615  82.600  1.00  0.00     0.000 C 
BRANCH   8   9
ATOM      9  C   UNL     1       4.804  10.934  82.555  1.00  0.00     0.000 C 
BRANCH   9  10
ATOM     10  C   UNL     1       4.034  12.067  81.851  1.00  0.00     0.006 C 
BRANCH  10  11
ATOM     11  C   UNL     1       4.260  12.139  80.333  1.00  0.00     0.053 C 
BRANCH  11  12
ATOM     12  C   UNL     1       5.704  12.332  79.986  1.00  0.00     0.041 C 
ATOM     13  O   UNL     1       6.314  13.366  80.365  1.00  0.00    -0.550 OA
ATOM     14  O   UNL     1       6.367  11.385  79.213  1.00  0.00    -0.550 OA
ENDBRANCH  11  12
ENDBRANCH  10  11
ENDBRANCH   9  10
ENDBRANCH   8   9
ENDBRANCH   1   8
TORSDOF 9
ENDMDL
MODEL 3
REMARK VINA RESULT:    -4.279      2.909      4.153
REMARK INTER + INTRA:          -6.987
REMARK INTER:                  -6.430
REMARK INTRA:                  -0.557
REMARK UNBOUND:                -0.456
REMARK SMILES O=C([O-])CCCCCCCCC(=O)[O-]
REMARK SMILES IDX 7 1 6 2 5 3 4 4 2 5 1 6 3 7 8 8 9 9 10 10 11 11 12 12 13 13
REMARK SMILES IDX 14 14
REMARK H PARENT
REMARK Flexibility Score: inf
ROOT
ATOM      1  C   UNL     1       4.034   9.592  82.341  1.00  0.00     0.000 C 
ENDROOT
BRANCH   1   2
ATOM      2  C   UNL     1       4.805  10.923  82.376  1.00  0.00     0.000 C 
BRANCH   2   3
ATOM      3  C   UNL     1       4.387  11.882  81.245  1.00  0.00     0.006 C 
BRANCH   3   4
ATOM      4  C   UNL     1       5.555  12.622  80.576  1.00  0.00     0.053 C 
BRANCH   4   5
ATOM      5  C   UNL     1       5.793  12.149  79.176  1.00  0.00     0.041 C 
ATOM      6  O   UNL     1       6.527  11.149  78.960  1.00  0.00    -0.550 OA
ATOM      7  O   UNL     1       5.233  12.834  78.105  1.00  0.00    -0.550 OA
ENDBRANCH   4   5
ENDBRANCH   3   4
ENDBRANCH   2   3
ENDBRANCH   1   2
BRANCH   1   8
ATOM      8  C   UNL     1       4.964   8.377  82.183  1.00  0.00     0.000 C 
BRANCH   8   9
ATOM      9  C   UNL     1       6.318   8.751  81.555  1.00  0.00     0.000 C 
BRANCH   9  10
ATOM     10  C   UNL     1       6.861   7.655  80.618  1.00  0.00     0.006 C 
BRANCH  10  11
ATOM     11  C   UNL     1       8.067   8.087  79.769  1.00  0.00     0.053 C 
BRANCH  11  12
ATOM     12  C   UNL     1       8.915   6.921  79.362  1.00  0.00     0.041 C 
ATOM     13  O   UNL     1      10.105   7.100  78.993  1.00  0.00    -0.550 OA
ATOM     14  O   UNL     1       8.378   5.638  79.355  1.00  0.00    -0.550 OA
ENDBRANCH  11  12
ENDBRANCH  10  11
ENDBRANCH   9  10
ENDBRANCH   8   9
ENDBRANCH   1   8
TORSDOF 9
ENDMDL
MODEL 4
REMARK VINA RESULT:    -4.240      2.067      3.507
REMARK INTER + INTRA:          -6.927
REMARK INTER:                  -6.628
REMARK INTRA:                  -0.300
REMARK UNBOUND:                -0.456
REMARK SMILES O=C([O-])CCCCCCCCC(=O)[O-]
REMARK SMILES IDX 7 1 6 2 5 3 4 4 2 5 1 6 3 7 8 8 9 9 10 10 11 11 12 12 13 13
REMARK SMILES IDX 14 14
REMARK H PARENT
REMARK Flexibility Score: inf
ROOT
ATOM      1  C   UNL     1       3.897  10.322  82.547  1.00  0.00     0.000 C 
ENDROOT
BRANCH   1   2
ATOM      2  C   UNL     1       3.270   9.010  83.047  1.00  0.00     0.000 C 
BRANCH   2   3
ATOM      3  C   UNL     1       2.410   9.205  84.310  1.00  0.00     0.006 C 
BRANCH   3   4
ATOM      4  C   UNL     1       2.259   7.946  85.177  1.00  0.00     0.053 C 
BRANCH   4   5
ATOM      5  C   UNL     1       2.290   8.261  86.640  1.00  0.00     0.041 C 
ATOM      6  O   UNL     1       1.567   7.616  87.443  1.00  0.00    -0.550 OA
ATOM      7  O   UNL     1       3.093   9.292  87.113  1.00  0.00    -0.550 OA
ENDBRANCH   4   5
ENDBRANCH   3   4
ENDBRANCH   2   3
ENDBRANCH   1   2
BRANCH   1   8
ATOM      8  C   UNL     1       5.265  10.104  81.878  1.00  0.00     0.000 C 
BRANCH   8   9
ATOM      9  C   UNL     1       5.665   8.618  81.830  1.00  0.00     0.000 C 
BRANCH   9  10
ATOM     10  C   UNL     1       6.977   8.381  81.059  1.00  0.00     0.006 C 
BRANCH  10  11
ATOM     11  C   UNL     1       6.923   7.219  80.056  1.00  0.00     0.053 C 
BRANCH  11  12
ATOM     12  C   UNL     1       8.288   6.809  79.593  1.00  0.00     0.041 C 
ATOM     13  O   UNL     1       8.616   5.594  79.584  1.00  0.00    -0.550 OA
ATOM     14  O   UNL     1       9.210   7.774  79.206  1.00  0.00    -0.550 OA
ENDBRANCH  11  12
ENDBRANCH  10  11
ENDBRANCH   9  10
ENDBRANCH   8   9
ENDBRANCH   1   8
TORSDOF 9
ENDMDL
MODEL 5
REMARK VINA RESULT:    -4.216      1.572      2.585
REMARK INTER + INTRA:          -6.891
REMARK INTER:                  -6.445
REMARK INTRA:                  -0.445
REMARK UNBOUND:                -0.456
REMARK SMILES O=C([O-])CCCCCCCCC(=O)[O-]
REMARK SMILES IDX 7 1 6 2 5 3 4 4 2 5 1 6 3 7 8 8 9 9 10 10 11 11 12 12 13 13
REMARK SMILES IDX 14 14
REMARK H PARENT
REMARK Flexibility Score: inf
ROOT
ATOM      1  C   UNL     1       4.877   8.373  82.229  1.00  0.00     0.000 C 
ENDROOT
BRANCH   1   2
ATOM      2  C   UNL     1       3.663   9.158  82.756  1.00  0.00     0.000 C 
BRANCH   2   3
ATOM      3  C   UNL     1       3.944  10.666  82.895  1.00  0.00     0.006 C 
BRANCH   3   4
ATOM      4  C   UNL     1       4.103  11.151  84.344  1.00  0.00     0.053 C 
BRANCH   4   5
ATOM      5  C   UNL     1       2.972  10.700  85.217  1.00  0.00     0.041 C 
ATOM      6  O   UNL     1       3.190   9.933  86.190  1.00  0.00    -0.550 OA
ATOM      7  O   UNL     1       1.672  11.100  84.933  1.00  0.00    -0.550 OA
ENDBRANCH   4   5
ENDBRANCH   3   4
ENDBRANCH   2   3
ENDBRANCH   1   2
BRANCH   1   8
ATOM      8  C   UNL     1       5.914   9.282  81.549  1.00  0.00     0.000 C 
BRANCH   8   9
ATOM      9  C   UNL     1       7.202   8.527  81.174  1.00  0.00     0.000 C 
BRANCH   9  10
ATOM     10  C   UNL     1       7.106   7.832  79.803  1.00  0.00     0.006 C 
BRANCH  10  11
ATOM     11  C   UNL     1       7.317   6.310  79.847  1.00  0.00     0.053 C 
BRANCH  11  12
ATOM     12  C   UNL     1       8.726   5.926  79.514  1.00  0.00     0.041 C 
ATOM     13  O   UNL     1       9.456   6.710  78.851  1.00  0.00    -0.550 OA
ATOM     14  O   UNL     1       9.221   4.688  79.903  1.00  0.00    -0.550 OA
ENDBRANCH  11  12
ENDBRANCH  10  11
ENDBRANCH   9  10
ENDBRANCH   8   9
ENDBRANCH   1   8
TORSDOF 9
ENDMDL
MODEL 6
REMARK VINA RESULT:    -4.216      2.201      7.258
REMARK INTER + INTRA:          -6.890
REMARK INTER:                  -6.562
REMARK INTRA:                  -0.328
REMARK UNBOUND:                -0.456
REMARK SMILES O=C([O-])CCCCCCCCC(=O)[O-]
REMARK SMILES IDX 7 1 6 2 5 3 4 4 2 5 1 6 3 7 8 8 9 9 10 10 11 11 12 12 13 13
REMARK SMILES IDX 14 14
REMARK H PARENT
REMARK Flexibility Score: inf
ROOT
ATOM      1  C   UNL     1       5.192   9.828  82.284  1.00  0.00     0.000 C 
ENDROOT
BRANCH   1   2
ATOM      2  C   UNL     1       5.553   8.394  81.856  1.00  0.00     0.000 C 
BRANCH   2   3
ATOM      3  C   UNL     1       6.861   8.326  81.046  1.00  0.00     0.006 C 
BRANCH   3   4
ATOM      4  C   UNL     1       6.909   7.190  80.013  1.00  0.00     0.053 C 
BRANCH   4   5
ATOM      5  C   UNL     1       8.313   6.839  79.627  1.00  0.00     0.041 C 
ATOM      6  O   UNL     1       9.087   7.725  79.179  1.00  0.00    -0.550 OA
ATOM      7  O   UNL     1       8.756   5.526  79.730  1.00  0.00    -0.550 OA
ENDBRANCH   4   5
ENDBRANCH   3   4
ENDBRANCH   2   3
ENDBRANCH   1   2
BRANCH   1   8
ATOM      8  C   UNL     1       3.697   9.987  82.606  1.00  0.00     0.000 C 
BRANCH   8   9
ATOM      9  C   UNL     1       3.139   8.803  83.415  1.00  0.00     0.000 C 
BRANCH   9  10
ATOM     10  C   UNL     1       2.502   9.240  84.747  1.00  0.00     0.006 C 
BRANCH  10  11
ATOM     11  C   UNL     1       2.548   8.173  85.853  1.00  0.00     0.053 C 
BRANCH  11  12
ATOM     12  C   UNL     1       1.782   6.941  85.479  1.00  0.00     0.041 C 
ATOM     13  O   UNL     1       0.567   7.023  85.160  1.00  0.00    -0.550 OA
ATOM     14  O   UNL     1       2.402   5.698  85.517  1.00  0.00    -0.550 OA
ENDBRANCH  11  12
ENDBRANCH  10  11
ENDBRANCH   9  10
ENDBRANCH   8   9
ENDBRANCH   1   8
TORSDOF 9
ENDMDL
MODEL 7
REMARK VINA RESULT:    -4.205      2.867      3.863
REMARK INTER + INTRA:          -6.874
REMARK INTER:                  -6.396
REMARK INTRA:                  -0.477
REMARK UNBOUND:                -0.456
REMARK SMILES O=C([O-])CCCCCCCCC(=O)[O-]
REMARK SMILES IDX 7 1 6 2 5 3 4 4 2 5 1 6 3 7 8 8 9 9 10 10 11 11 12 12 13 13
REMARK SMILES IDX 14 14
REMARK H PARENT
REMARK Flexibility Score: inf
ROOT
ATOM      1  C   UNL     1       4.747   8.542  82.205  1.00  0.00     0.000 C 
ENDROOT
BRANCH   1   2
ATOM      2  C   UNL     1       4.097   9.902  82.514  1.00  0.00     0.000 C 
BRANCH   2   3
ATOM      3  C   UNL     1       4.556  11.013  81.549  1.00  0.00     0.006 C 
BRANCH   3   4
ATOM      4  C   UNL     1       3.616  12.226  81.487  1.00  0.00     0.053 C 
BRANCH   4   5
ATOM      5  C   UNL     1       2.847  12.278  80.203  1.00  0.00     0.041 C 
ATOM      6  O   UNL     1       1.649  11.895  80.166  1.00  0.00    -0.550 OA
ATOM      7  O   UNL     1       3.465  12.716  79.038  1.00  0.00    -0.550 OA
ENDBRANCH   4   5
ENDBRANCH   3   4
ENDBRANCH   2   3
ENDBRANCH   1   2
BRANCH   1   8
ATOM      8  C   UNL     1       6.156   8.685  81.608  1.00  0.00     0.000 C 
BRANCH   8   9
ATOM      9  C   UNL     1       6.500   7.546  80.630  1.00  0.00     0.000 C 
BRANCH   9  10
ATOM     10  C   UNL     1       7.657   7.908  79.680  1.00  0.00     0.006 C 
BRANCH  10  11
ATOM     11  C   UNL     1       8.236   9.315  79.892  1.00  0.00     0.053 C 
BRANCH  11  12
ATOM     12  C   UNL     1       9.733   9.306  79.953  1.00  0.00     0.041 C 
ATOM     13  O   UNL     1      10.372   8.260  79.667  1.00  0.00    -0.550 OA
ATOM     14  O   UNL     1      10.420  10.443  80.362  1.00  0.00    -0.550 OA
ENDBRANCH  11  12
ENDBRANCH  10  11
ENDBRANCH   9  10
ENDBRANCH   8   9
ENDBRANCH   1   8
TORSDOF 9
ENDMDL
MODEL 8
REMARK VINA RESULT:    -4.180      1.708      7.493
REMARK INTER + INTRA:          -6.836
REMARK INTER:                  -6.492
REMARK INTRA:                  -0.344
REMARK UNBOUND:                -0.456
REMARK SMILES O=C([O-])CCCCCCCCC(=O)[O-]
REMARK SMILES IDX 7 1 6 2 5 3 4 4 2 5 1 6 3 7 8 8 9 9 10 10 11 11 12 12 13 13
REMARK SMILES IDX 14 14
REMARK H PARENT
REMARK Flexibility Score: inf
ROOT
ATOM      1  C   UNL     1       5.639   9.931  81.406  1.00  0.00     0.000 C 
ENDROOT
BRANCH   1   2
ATOM      2  C   UNL     1       6.188   8.502  81.558  1.00  0.00     0.000 C 
BRANCH   2   3
ATOM      3  C   UNL     1       7.311   8.186  80.552  1.00  0.00     0.006 C 
BRANCH   3   4
ATOM      4  C   UNL     1       7.247   6.773  79.954  1.00  0.00     0.053 C 
BRANCH   4   5
ATOM      5  C   UNL     1       8.592   6.288  79.510  1.00  0.00     0.041 C 
ATOM      6  O   UNL     1       9.354   7.046  78.854  1.00  0.00    -0.550 OA
ATOM      7  O   UNL     1       8.991   4.987  79.789  1.00  0.00    -0.550 OA
ENDBRANCH   4   5
ENDBRANCH   3   4
ENDBRANCH   2   3
ENDBRANCH   1   2
BRANCH   1   8
ATOM      8  C   UNL     1       4.501  10.233  82.396  1.00  0.00     0.000 C 
BRANCH   8   9
ATOM      9  C   UNL     1       3.748   8.963  82.833  1.00  0.00     0.000 C 
BRANCH   9  10
ATOM     10  C   UNL     1       2.447   9.276  83.594  1.00  0.00     0.006 C 
BRANCH  10  11
ATOM     11  C   UNL     1       2.397   8.711  85.023  1.00  0.00     0.053 C 
BRANCH  11  12
ATOM     12  C   UNL     1       2.738   9.747  86.050  1.00  0.00     0.041 C 
ATOM     13  O   UNL     1       2.849  10.956  85.719  1.00  0.00    -0.550 OA
ATOM     14  O   UNL     1       2.969   9.371  87.368  1.00  0.00    -0.550 OA
ENDBRANCH  11  12
ENDBRANCH  10  11
ENDBRANCH   9  10
ENDBRANCH   8   9
ENDBRANCH   1   8
TORSDOF 9
ENDMDL
MODEL 9
REMARK VINA RESULT:    -4.145      1.644      2.428
REMARK INTER + INTRA:          -6.782
REMARK INTER:                  -6.417
REMARK INTRA:                  -0.364
REMARK UNBOUND:                -0.456
REMARK SMILES O=C([O-])CCCCCCCCC(=O)[O-]
REMARK SMILES IDX 7 1 6 2 5 3 4 4 2 5 1 6 3 7 8 8 9 9 10 10 11 11 12 12 13 13
REMARK SMILES IDX 14 14
REMARK H PARENT
REMARK Flexibility Score: inf
ROOT
ATOM      1  C   UNL     1       5.611   9.623  81.866  1.00  0.00     0.000 C 
ENDROOT
BRANCH   1   2
ATOM      2  C   UNL     1       4.248   9.178  82.424  1.00  0.00     0.000 C 
BRANCH   2   3
ATOM      3  C   UNL     1       3.429  10.350  82.998  1.00  0.00     0.006 C 
BRANCH   3   4
ATOM      4  C   UNL     1       3.648  11.689  82.278  1.00  0.00     0.053 C 
BRANCH   4   5
ATOM      5  C   UNL     1       2.584  11.963  81.261  1.00  0.00     0.041 C 
ATOM      6  O   UNL     1       2.887  12.101  80.047  1.00  0.00    -0.550 OA
ATOM      7  O   UNL     1       1.260  12.102  81.659  1.00  0.00    -0.550 OA
ENDBRANCH   4   5
ENDBRANCH   3   4
ENDBRANCH   2   3
ENDBRANCH   1   2
BRANCH   1   8
ATOM      8  C   UNL     1       6.479   8.436  81.418  1.00  0.00     0.000 C 
BRANCH   8   9
ATOM      9  C   UNL     1       7.585   8.854  80.432  1.00  0.00     0.000 C 
BRANCH   9  10
ATOM     10  C   UNL     1       7.756   7.856  79.271  1.00  0.00     0.006 C 
BRANCH  10  11
ATOM     11  C   UNL     1       9.021   6.988  79.362  1.00  0.00     0.053 C 
BRANCH  11  12
ATOM     12  C   UNL     1       8.701   5.554  79.654  1.00  0.00     0.041 C 
ATOM     13  O   UNL     1       7.513   5.203  79.878  1.00  0.00    -0.550 OA
ATOM     14  O   UNL     1       9.720   4.611  79.714  1.00  0.00    -0.550 OA
ENDBRANCH  11  12
ENDBRANCH  10  11
ENDBRANCH   9  10
ENDBRANCH   8   9
ENDBRANCH   1   8
TORSDOF 9
ENDMDL
