MODEL 1
REMARK VINA RESULT:    -4.950      0.000      0.000
REMARK INTER + INTRA:          -7.643
REMARK INTER:                  -6.108
REMARK INTRA:                  -1.535
REMARK UNBOUND:                -1.535
REMARK SMILES CC(C)=CCC[C@H](C)c1ccc(C)cc1
REMARK SMILES IDX 6 1 7 2 8 3 9 4 13 5 12 6 11 7 14 8 10 9 15 10 5 11 4 12
REMARK SMILES IDX 2 13 1 14 3 15
REMARK H PARENT
REMARK Flexibility Score: inf
ROOT
ATOM      1  C   UNL     1     160.625 178.050 186.546  1.00  0.00     0.012 C 
ENDROOT
BRANCH   1   2
ATOM      2  C   UNL     1     161.306 177.385 187.765  1.00  0.00     0.016 C 
ATOM      3  C   UNL     1     162.752 177.865 187.960  1.00  0.00     0.013 C 
BRANCH   2   4
ATOM      4  C   UNL     1     161.264 175.873 187.633  1.00  0.00    -0.045 A 
ATOM      5  C   UNL     1     161.112 171.571 187.271  1.00  0.00     0.044 C 
ATOM      6  C   UNL     1     161.168 173.066 187.366  1.00  0.00    -0.051 A 
ATOM      7  C   UNL     1     159.987 173.822 187.337  1.00  0.00     0.004 A 
ATOM      8  C   UNL     1     162.396 173.718 187.553  1.00  0.00     0.004 A 
ATOM      9  C   UNL     1     160.035 175.213 187.463  1.00  0.00     0.004 A 
ATOM     10  C   UNL     1     162.446 175.109 187.679  1.00  0.00     0.004 A 
ENDBRANCH   2   4
ENDBRANCH   1   2
BRANCH   1  11
ATOM     11  C   UNL     1     161.409 177.837 185.242  1.00  0.00     0.028 C 
BRANCH  11  12
ATOM     12  C   UNL     1     160.559 177.124 184.219  1.00  0.00    -0.028 C 
ATOM     13  C   UNL     1     160.879 175.940 183.654  1.00  0.00    -0.080 C 
ATOM     14  C   UNL     1     162.122 175.175 184.045  1.00  0.00     0.039 C 
ATOM     15  C   UNL     1     159.951 175.367 182.614  1.00  0.00     0.039 C 
ENDBRANCH  11  12
ENDBRANCH   1  11
TORSDOF 4
ENDMDL
MODEL 2
REMARK VINA RESULT:    -4.597     12.430     14.453
REMARK INTER + INTRA:          -7.207
REMARK INTER:                  -6.161
REMARK INTRA:                  -1.047
REMARK UNBOUND:                -1.535
REMARK SMILES CC(C)=CCC[C@H](C)c1ccc(C)cc1
REMARK SMILES IDX 6 1 7 2 8 3 9 4 13 5 12 6 11 7 14 8 10 9 15 10 5 11 4 12
REMARK SMILES IDX 2 13 1 14 3 15
REMARK H PARENT
REMARK Flexibility Score: inf
ROOT
ATOM      1  C   UNL     1     175.544 179.486 187.286  1.00  0.00     0.012 C 
ENDROOT
BRANCH   1   2
ATOM      2  C   UNL     1     175.706 178.170 186.490  1.00  0.00     0.016 C 
ATOM      3  C   UNL     1     177.053 177.484 186.762  1.00  0.00     0.013 C 
BRANCH   2   4
ATOM      4  C   UNL     1     175.534 178.427 185.003  1.00  0.00    -0.045 A 
ATOM      5  C   UNL     1     175.016 179.179 180.782  1.00  0.00     0.044 C 
ATOM      6  C   UNL     1     175.223 178.934 182.246  1.00  0.00    -0.051 A 
ATOM      7  C   UNL     1     174.690 179.819 183.194  1.00  0.00     0.004 A 
ATOM      8  C   UNL     1     175.891 177.781 182.682  1.00  0.00     0.004 A 
ATOM      9  C   UNL     1     174.849 179.572 184.560  1.00  0.00     0.004 A 
ATOM     10  C   UNL     1     176.053 177.532 184.048  1.00  0.00     0.004 A 
ENDBRANCH   2   4
ENDBRANCH   1   2
BRANCH   1  11
ATOM     11  C   UNL     1     174.418 179.411 188.328  1.00  0.00     0.028 C 
BRANCH  11  12
ATOM     12  C   UNL     1     173.098 179.812 187.716  1.00  0.00    -0.028 C 
ATOM     13  C   UNL     1     172.128 178.942 187.360  1.00  0.00    -0.080 C 
ATOM     14  C   UNL     1     172.257 177.455 187.599  1.00  0.00     0.039 C 
ATOM     15  C   UNL     1     170.876 179.485 186.720  1.00  0.00     0.039 C 
ENDBRANCH  11  12
ENDBRANCH   1  11
TORSDOF 4
ENDMDL
MODEL 3
REMARK VINA RESULT:    -4.559     10.649     12.399
REMARK INTER + INTRA:          -7.160
REMARK INTER:                  -5.637
REMARK INTRA:                  -1.523
REMARK UNBOUND:                -1.535
REMARK SMILES CC(C)=CCC[C@H](C)c1ccc(C)cc1
REMARK SMILES IDX 6 1 7 2 8 3 9 4 13 5 12 6 11 7 14 8 10 9 15 10 5 11 4 12
REMARK SMILES IDX 2 13 1 14 3 15
REMARK H PARENT
REMARK Flexibility Score: inf
ROOT
ATOM      1  C   UNL     1     175.202 179.755 186.387  1.00  0.00     0.012 C 
ENDROOT
BRANCH   1   2
ATOM      2  C   UNL     1     174.755 178.741 187.464  1.00  0.00     0.016 C 
ATOM      3  C   UNL     1     175.393 177.358 187.265  1.00  0.00     0.013 C 
BRANCH   2   4
ATOM      4  C   UNL     1     173.241 178.627 187.487  1.00  0.00    -0.045 A 
ATOM      5  C   UNL     1     168.937 178.270 187.535  1.00  0.00     0.044 C 
ATOM      6  C   UNL     1     170.430 178.396 187.549  1.00  0.00    -0.051 A 
ATOM      7  C   UNL     1     171.237 177.250 187.586  1.00  0.00     0.004 A 
ATOM      8  C   UNL     1     171.035 179.658 187.457  1.00  0.00     0.004 A 
ATOM      9  C   UNL     1     172.630 177.364 187.561  1.00  0.00     0.004 A 
ATOM     10  C   UNL     1     172.427 179.775 187.433  1.00  0.00     0.004 A 
ENDBRANCH   2   4
ENDBRANCH   1   2
BRANCH   1  11
ATOM     11  C   UNL     1     175.232 179.145 184.977  1.00  0.00     0.028 C 
BRANCH  11  12
ATOM     12  C   UNL     1     174.259 179.855 184.068  1.00  0.00    -0.028 C 
ATOM     13  C   UNL     1     173.128 179.301 183.582  1.00  0.00    -0.080 C 
ATOM     14  C   UNL     1     172.693 177.904 183.958  1.00  0.00     0.039 C 
ATOM     15  C   UNL     1     172.271 180.119 182.649  1.00  0.00     0.039 C 
ENDBRANCH  11  12
ENDBRANCH   1  11
TORSDOF 4
ENDMDL
MODEL 4
REMARK VINA RESULT:    -4.521      2.034      2.544
REMARK INTER + INTRA:          -7.114
REMARK INTER:                  -6.163
REMARK INTRA:                  -0.951
REMARK UNBOUND:                -1.535
REMARK SMILES CC(C)=CCC[C@H](C)c1ccc(C)cc1
REMARK SMILES IDX 6 1 7 2 8 3 9 4 13 5 12 6 11 7 14 8 10 9 15 10 5 11 4 12
REMARK SMILES IDX 2 13 1 14 3 15
REMARK H PARENT
REMARK Flexibility Score: inf
ROOT
ATOM      1  C   UNL     1     163.110 177.879 187.777  1.00  0.00     0.012 C 
ENDROOT
BRANCH   1   2
ATOM      2  C   UNL     1     161.780 177.426 187.132  1.00  0.00     0.016 C 
ATOM      3  C   UNL     1     160.571 178.189 187.691  1.00  0.00     0.013 C 
BRANCH   2   4
ATOM      4  C   UNL     1     161.590 175.930 187.309  1.00  0.00    -0.045 A 
ATOM      5  C   UNL     1     161.016 171.680 187.825  1.00  0.00     0.044 C 
ATOM      6  C   UNL     1     161.218 173.151 187.616  1.00  0.00    -0.051 A 
ATOM      7  C   UNL     1     160.116 173.996 187.424  1.00  0.00     0.004 A 
ATOM      8  C   UNL     1     162.506 173.703 187.678  1.00  0.00     0.004 A 
ATOM      9  C   UNL     1     160.300 175.373 187.266  1.00  0.00     0.004 A 
ATOM     10  C   UNL     1     162.693 175.079 187.519  1.00  0.00     0.004 A 
ENDBRANCH   2   4
ENDBRANCH   1   2
BRANCH   1  11
ATOM     11  C   UNL     1     163.985 178.698 186.815  1.00  0.00     0.028 C 
BRANCH  11  12
ATOM     12  C   UNL     1     163.727 178.293 185.385  1.00  0.00    -0.028 C 
ATOM     13  C   UNL     1     164.615 177.639 184.605  1.00  0.00    -0.080 C 
ATOM     14  C   UNL     1     165.962 177.192 185.126  1.00  0.00     0.039 C 
ATOM     15  C   UNL     1     164.233 177.336 183.179  1.00  0.00     0.039 C 
ENDBRANCH  11  12
ENDBRANCH   1  11
TORSDOF 4
ENDMDL
MODEL 5
REMARK VINA RESULT:    -4.506      1.966      4.850
REMARK INTER + INTRA:          -7.095
REMARK INTER:                  -6.085
REMARK INTRA:                  -1.010
REMARK UNBOUND:                -1.535
REMARK SMILES CC(C)=CCC[C@H](C)c1ccc(C)cc1
REMARK SMILES IDX 6 1 7 2 8 3 9 4 13 5 12 6 11 7 14 8 10 9 15 10 5 11 4 12
REMARK SMILES IDX 2 13 1 14 3 15
REMARK H PARENT
REMARK Flexibility Score: inf
ROOT
ATOM      1  C   UNL     1     161.682 178.125 186.939  1.00  0.00     0.012 C 
ENDROOT
BRANCH   1   2
ATOM      2  C   UNL     1     162.971 177.751 186.171  1.00  0.00     0.016 C 
ATOM      3  C   UNL     1     164.130 178.713 186.473  1.00  0.00     0.013 C 
BRANCH   2   4
ATOM      4  C   UNL     1     162.700 177.701 184.678  1.00  0.00    -0.045 A 
ATOM      5  C   UNL     1     161.903 177.533 180.436  1.00  0.00     0.044 C 
ATOM      6  C   UNL     1     162.171 177.621 181.908  1.00  0.00    -0.051 A 
ATOM      7  C   UNL     1     161.169 177.291 182.831  1.00  0.00     0.004 A 
ATOM      8  C   UNL     1     163.447 177.969 182.375  1.00  0.00     0.004 A 
ATOM      9  C   UNL     1     161.428 177.336 184.204  1.00  0.00     0.004 A 
ATOM     10  C   UNL     1     163.709 178.015 183.747  1.00  0.00     0.004 A 
ENDBRANCH   2   4
ENDBRANCH   1   2
BRANCH   1  11
ATOM     11  C   UNL     1     161.373 177.149 188.084  1.00  0.00     0.028 C 
BRANCH  11  12
ATOM     12  C   UNL     1     160.566 175.976 187.582  1.00  0.00    -0.028 C 
ATOM     13  C   UNL     1     161.073 174.746 187.350  1.00  0.00    -0.080 C 
ATOM     14  C   UNL     1     162.519 174.408 187.632  1.00  0.00     0.039 C 
ATOM     15  C   UNL     1     160.154 173.681 186.809  1.00  0.00     0.039 C 
ENDBRANCH  11  12
ENDBRANCH   1  11
TORSDOF 4
ENDMDL
MODEL 6
REMARK VINA RESULT:    -4.455      1.776      3.262
REMARK INTER + INTRA:          -7.032
REMARK INTER:                  -5.524
REMARK INTRA:                  -1.508
REMARK UNBOUND:                -1.535
REMARK SMILES CC(C)=CCC[C@H](C)c1ccc(C)cc1
REMARK SMILES IDX 6 1 7 2 8 3 9 4 13 5 12 6 11 7 14 8 10 9 15 10 5 11 4 12
REMARK SMILES IDX 2 13 1 14 3 15
REMARK H PARENT
REMARK Flexibility Score: inf
ROOT
ATOM      1  C   UNL     1     162.592 178.249 186.487  1.00  0.00     0.012 C 
ENDROOT
BRANCH   1   2
ATOM      2  C   UNL     1     161.103 177.869 186.659  1.00  0.00     0.016 C 
ATOM      3  C   UNL     1     160.561 178.244 188.047  1.00  0.00     0.013 C 
BRANCH   2   4
ATOM      4  C   UNL     1     160.902 176.388 186.396  1.00  0.00    -0.045 A 
ATOM      5  C   UNL     1     160.332 172.166 185.681  1.00  0.00     0.044 C 
ATOM      6  C   UNL     1     160.502 173.636 185.918  1.00  0.00    -0.051 A 
ATOM      7  C   UNL     1     160.165 174.197 187.158  1.00  0.00     0.004 A 
ATOM      8  C   UNL     1     161.062 174.453 184.925  1.00  0.00     0.004 A 
ATOM      9  C   UNL     1     160.357 175.561 187.393  1.00  0.00     0.004 A 
ATOM     10  C   UNL     1     161.255 175.817 185.157  1.00  0.00     0.004 A 
ENDBRANCH   2   4
ENDBRANCH   1   2
BRANCH   1  11
ATOM     11  C   UNL     1     163.504 177.537 187.497  1.00  0.00     0.028 C 
BRANCH  11  12
ATOM     12  C   UNL     1     164.610 176.795 186.787  1.00  0.00    -0.028 C 
ATOM     13  C   UNL     1     164.789 175.458 186.844  1.00  0.00    -0.080 C 
ATOM     14  C   UNL     1     163.842 174.553 187.598  1.00  0.00     0.039 C 
ATOM     15  C   UNL     1     165.965 174.859 186.115  1.00  0.00     0.039 C 
ENDBRANCH  11  12
ENDBRANCH   1  11
TORSDOF 4
ENDMDL
MODEL 7
REMARK VINA RESULT:    -4.394      2.153      4.772
REMARK INTER + INTRA:          -6.957
REMARK INTER:                  -5.411
REMARK INTRA:                  -1.546
REMARK UNBOUND:                -1.535
REMARK SMILES CC(C)=CCC[C@H](C)c1ccc(C)cc1
REMARK SMILES IDX 6 1 7 2 8 3 9 4 13 5 12 6 11 7 14 8 10 9 15 10 5 11 4 12
REMARK SMILES IDX 2 13 1 14 3 15
REMARK H PARENT
REMARK Flexibility Score: inf
ROOT
ATOM      1  C   UNL     1     160.844 177.320 187.607  1.00  0.00     0.012 C 
ENDROOT
BRANCH   1   2
ATOM      2  C   UNL     1     161.233 178.174 186.378  1.00  0.00     0.016 C 
ATOM      3  C   UNL     1     160.433 177.792 185.124  1.00  0.00     0.013 C 
BRANCH   2   4
ATOM      4  C   UNL     1     162.724 178.064 186.109  1.00  0.00    -0.045 A 
ATOM      5  C   UNL     1     166.970 177.771 185.372  1.00  0.00     0.044 C 
ATOM      6  C   UNL     1     165.495 177.842 185.633  1.00  0.00    -0.051 A 
ATOM      7  C   UNL     1     165.017 178.120 186.922  1.00  0.00     0.004 A 
ATOM      8  C   UNL     1     164.582 177.699 184.578  1.00  0.00     0.004 A 
ATOM      9  C   UNL     1     163.644 178.224 187.160  1.00  0.00     0.004 A 
ATOM     10  C   UNL     1     163.209 177.802 184.813  1.00  0.00     0.004 A 
ENDBRANCH   2   4
ENDBRANCH   1   2
BRANCH   1  11
ATOM     11  C   UNL     1     160.633 175.840 187.255  1.00  0.00     0.028 C 
BRANCH  11  12
ATOM     12  C   UNL     1     161.856 175.029 187.605  1.00  0.00    -0.028 C 
ATOM     13  C   UNL     1     162.604 174.352 186.707  1.00  0.00    -0.080 C 
ATOM     14  C   UNL     1     162.310 174.392 185.225  1.00  0.00     0.039 C 
ATOM     15  C   UNL     1     163.777 173.549 187.209  1.00  0.00     0.039 C 
ENDBRANCH  11  12
ENDBRANCH   1  11
TORSDOF 4
ENDMDL
MODEL 8
REMARK VINA RESULT:    -4.359      1.620      4.461
REMARK INTER + INTRA:          -6.914
REMARK INTER:                  -5.410
REMARK INTRA:                  -1.503
REMARK UNBOUND:                -1.535
REMARK SMILES CC(C)=CCC[C@H](C)c1ccc(C)cc1
REMARK SMILES IDX 6 1 7 2 8 3 9 4 13 5 12 6 11 7 14 8 10 9 15 10 5 11 4 12
REMARK SMILES IDX 2 13 1 14 3 15
REMARK H PARENT
REMARK Flexibility Score: inf
ROOT
ATOM      1  C   UNL     1     161.014 177.142 187.794  1.00  0.00     0.012 C 
ENDROOT
BRANCH   1   2
ATOM      2  C   UNL     1     160.531 175.894 187.020  1.00  0.00     0.016 C 
ATOM      3  C   UNL     1     161.218 174.607 187.501  1.00  0.00     0.013 C 
BRANCH   2   4
ATOM      4  C   UNL     1     160.744 176.082 185.528  1.00  0.00    -0.045 A 
ATOM      5  C   UNL     1     161.372 176.588 181.285  1.00  0.00     0.044 C 
ATOM      6  C   UNL     1     161.124 176.408 182.752  1.00  0.00    -0.051 A 
ATOM      7  C   UNL     1     161.250 175.141 183.341  1.00  0.00     0.004 A 
ATOM      8  C   UNL     1     160.830 177.515 183.561  1.00  0.00     0.004 A 
ATOM      9  C   UNL     1     161.056 174.978 184.716  1.00  0.00     0.004 A 
ATOM     10  C   UNL     1     160.635 177.355 184.936  1.00  0.00     0.004 A 
ENDBRANCH   2   4
ENDBRANCH   1   2
BRANCH   1  11
ATOM     11  C   UNL     1     162.479 177.029 188.243  1.00  0.00     0.028 C 
BRANCH  11  12
ATOM     12  C   UNL     1     163.377 177.842 187.342  1.00  0.00    -0.028 C 
ATOM     13  C   UNL     1     164.249 177.313 186.457  1.00  0.00    -0.080 C 
ATOM     14  C   UNL     1     164.368 175.821 186.242  1.00  0.00     0.039 C 
ATOM     15  C   UNL     1     165.112 178.250 185.652  1.00  0.00     0.039 C 
ENDBRANCH  11  12
ENDBRANCH   1  11
TORSDOF 4
ENDMDL
MODEL 9
REMARK VINA RESULT:    -4.357      1.251      3.886
REMARK INTER + INTRA:          -6.911
REMARK INTER:                  -5.396
REMARK INTRA:                  -1.515
REMARK UNBOUND:                -1.535
REMARK SMILES CC(C)=CCC[C@H](C)c1ccc(C)cc1
REMARK SMILES IDX 6 1 7 2 8 3 9 4 13 5 12 6 11 7 14 8 10 9 15 10 5 11 4 12
REMARK SMILES IDX 2 13 1 14 3 15
REMARK H PARENT
REMARK Flexibility Score: inf
ROOT
ATOM      1  C   UNL     1     160.548 171.920 185.778  1.00  0.00     0.012 C 
ENDROOT
BRANCH   1   2
ATOM      2  C   UNL     1     161.377 172.139 187.063  1.00  0.00     0.016 C 
ATOM      3  C   UNL     1     160.740 171.471 188.291  1.00  0.00     0.013 C 
BRANCH   2   4
ATOM      4  C   UNL     1     161.581 173.622 187.315  1.00  0.00    -0.045 A 
ATOM      5  C   UNL     1     162.131 177.850 188.010  1.00  0.00     0.044 C 
ATOM      6  C   UNL     1     161.936 176.378 187.799  1.00  0.00    -0.051 A 
ATOM      7  C   UNL     1     160.658 175.863 187.542  1.00  0.00     0.004 A 
ATOM      8  C   UNL     1     163.041 175.514 187.789  1.00  0.00     0.004 A 
ATOM      9  C   UNL     1     160.480 174.496 187.308  1.00  0.00     0.004 A 
ATOM     10  C   UNL     1     162.866 174.147 187.556  1.00  0.00     0.004 A 
ENDBRANCH   2   4
ENDBRANCH   1   2
BRANCH   1  11
ATOM     11  C   UNL     1     161.314 172.313 184.506  1.00  0.00     0.028 C 
BRANCH  11  12
ATOM     12  C   UNL     1     160.606 173.434 183.783  1.00  0.00    -0.028 C 
ATOM     13  C   UNL     1     161.130 174.663 183.583  1.00  0.00    -0.080 C 
ATOM     14  C   UNL     1     162.530 175.020 184.029  1.00  0.00     0.039 C 
ATOM     15  C   UNL     1     160.289 175.696 182.879  1.00  0.00     0.039 C 
ENDBRANCH  11  12
ENDBRANCH   1  11
TORSDOF 4
ENDMDL
