MODEL 1
REMARK VINA RESULT:    -5.079      0.000      0.000
REMARK INTER + INTRA:          -5.079
REMARK INTER:                  -5.079
REMARK INTRA:                   0.000
REMARK UNBOUND:                 0.000
REMARK SMILES CC(C)=C1CC[C@@H](C)CC1=O
REMARK SMILES IDX 8 1 7 2 6 3 5 4 4 5 2 6 1 7 3 8 10 9 11 10 9 11
REMARK H PARENT
REMARK Flexibility Score: inf
ROOT
ATOM      1  C   UNL     1     -10.250  15.116 -31.609  1.00  0.00     0.008 C 
ATOM      2  C   UNL     1     -11.560  14.345 -31.407  1.00  0.00    -0.006 C 
ATOM      3  C   UNL     1     -12.563  14.678 -32.524  1.00  0.00     0.008 C 
ATOM      4  C   UNL     1     -13.841  13.839 -32.395  1.00  0.00     0.039 C 
ATOM      5  C   UNL     1     -14.460  13.930 -31.007  1.00  0.00    -0.006 C 
ATOM      6  C   UNL     1     -15.811  13.843 -30.826  1.00  0.00    -0.070 C 
ATOM      7  C   UNL     1     -16.746  13.634 -31.995  1.00  0.00     0.039 C 
ATOM      8  C   UNL     1     -16.442  13.987 -29.461  1.00  0.00     0.039 C 
ATOM      9  C   UNL     1     -13.502  14.000 -29.863  1.00  0.00     0.159 C 
ATOM     10  O   UNL     1     -13.781  13.496 -28.743  1.00  0.00    -0.295 OA
ATOM     11  C   UNL     1     -12.172  14.675 -30.037  1.00  0.00     0.084 C 
ENDROOT
TORSDOF 0
ENDMDL
MODEL 2
REMARK VINA RESULT:    -5.064      1.936      5.000
REMARK INTER + INTRA:          -5.064
REMARK INTER:                  -5.064
REMARK INTRA:                   0.000
REMARK UNBOUND:                 0.000
REMARK SMILES CC(C)=C1CC[C@@H](C)CC1=O
REMARK SMILES IDX 8 1 7 2 6 3 5 4 4 5 2 6 1 7 3 8 10 9 11 10 9 11
REMARK H PARENT
REMARK Flexibility Score: inf
ROOT
ATOM      1  C   UNL     1     -19.013  12.452 -30.098  1.00  0.00     0.008 C 
ATOM      2  C   UNL     1     -17.503  12.500 -30.359  1.00  0.00    -0.006 C 
ATOM      3  C   UNL     1     -16.757  13.045 -29.130  1.00  0.00     0.008 C 
ATOM      4  C   UNL     1     -15.238  13.004 -29.336  1.00  0.00     0.039 C 
ATOM      5  C   UNL     1     -14.806  13.682 -30.629  1.00  0.00    -0.006 C 
ATOM      6  C   UNL     1     -13.603  14.320 -30.728  1.00  0.00    -0.070 C 
ATOM      7  C   UNL     1     -12.641  14.365 -29.562  1.00  0.00     0.039 C 
ATOM      8  C   UNL     1     -13.188  15.045 -31.987  1.00  0.00     0.039 C 
ATOM      9  C   UNL     1     -15.717  13.504 -31.799  1.00  0.00     0.159 C 
ATOM     10  O   UNL     1     -15.270  13.455 -32.976  1.00  0.00    -0.295 OA
ATOM     11  C   UNL     1     -17.197  13.371 -31.587  1.00  0.00     0.084 C 
ENDROOT
TORSDOF 0
ENDMDL
MODEL 3
REMARK VINA RESULT:    -5.013     10.472     12.849
REMARK INTER + INTRA:          -5.013
REMARK INTER:                  -5.013
REMARK INTRA:                   0.000
REMARK UNBOUND:                 0.000
REMARK SMILES CC(C)=C1CC[C@@H](C)CC1=O
REMARK SMILES IDX 8 1 7 2 6 3 5 4 4 5 2 6 1 7 3 8 10 9 11 10 9 11
REMARK H PARENT
REMARK Flexibility Score: inf
ROOT
ATOM      1  C   UNL     1     -23.752  14.992 -30.915  1.00  0.00     0.008 C 
ATOM      2  C   UNL     1     -24.887  13.981 -30.716  1.00  0.00    -0.006 C 
ATOM      3  C   UNL     1     -26.158  14.685 -30.214  1.00  0.00     0.008 C 
ATOM      4  C   UNL     1     -27.333  13.705 -30.106  1.00  0.00     0.039 C 
ATOM      5  C   UNL     1     -26.989  12.469 -29.288  1.00  0.00    -0.006 C 
ATOM      6  C   UNL     1     -27.935  11.825 -28.543  1.00  0.00    -0.070 C 
ATOM      7  C   UNL     1     -29.369  12.304 -28.513  1.00  0.00     0.039 C 
ATOM      8  C   UNL     1     -27.593  10.630 -27.683  1.00  0.00     0.039 C 
ATOM      9  C   UNL     1     -25.599  11.943 -29.446  1.00  0.00     0.159 C 
ATOM     10  O   UNL     1     -25.350  10.712 -29.357  1.00  0.00    -0.295 OA
ATOM     11  C   UNL     1     -24.465  12.888 -29.722  1.00  0.00     0.084 C 
ENDROOT
TORSDOF 0
ENDMDL
MODEL 4
REMARK VINA RESULT:    -4.956     11.541     13.400
REMARK INTER + INTRA:          -4.956
REMARK INTER:                  -4.956
REMARK INTRA:                   0.000
REMARK UNBOUND:                 0.000
REMARK SMILES CC(C)=C1CC[C@@H](C)CC1=O
REMARK SMILES IDX 8 1 7 2 6 3 5 4 4 5 2 6 1 7 3 8 10 9 11 10 9 11
REMARK H PARENT
REMARK Flexibility Score: inf
ROOT
ATOM      1  C   UNL     1     -23.601   9.875 -27.775  1.00  0.00     0.008 C 
ATOM      2  C   UNL     1     -24.768  10.863 -27.891  1.00  0.00    -0.006 C 
ATOM      3  C   UNL     1     -26.114  10.124 -27.799  1.00  0.00     0.008 C 
ATOM      4  C   UNL     1     -27.292  11.107 -27.811  1.00  0.00     0.039 C 
ATOM      5  C   UNL     1     -27.234  12.071 -28.987  1.00  0.00    -0.006 C 
ATOM      6  C   UNL     1     -28.374  12.554 -29.565  1.00  0.00    -0.070 C 
ATOM      7  C   UNL     1     -29.740  12.163 -29.049  1.00  0.00     0.039 C 
ATOM      8  C   UNL     1     -28.331  13.467 -30.768  1.00  0.00     0.039 C 
ATOM      9  C   UNL     1     -25.874  12.542 -29.385  1.00  0.00     0.159 C 
ATOM     10  O   UNL     1     -25.692  13.694 -29.860  1.00  0.00    -0.295 OA
ATOM     11  C   UNL     1     -24.686  11.639 -29.215  1.00  0.00     0.084 C 
ENDROOT
TORSDOF 0
ENDMDL
MODEL 5
REMARK VINA RESULT:    -4.945      1.604      2.433
REMARK INTER + INTRA:          -4.945
REMARK INTER:                  -4.945
REMARK INTRA:                   0.000
REMARK UNBOUND:                 0.000
REMARK SMILES CC(C)=C1CC[C@@H](C)CC1=O
REMARK SMILES IDX 8 1 7 2 6 3 5 4 4 5 2 6 1 7 3 8 10 9 11 10 9 11
REMARK H PARENT
REMARK Flexibility Score: inf
ROOT
ATOM      1  C   UNL     1     -10.629  14.738 -31.911  1.00  0.00     0.008 C 
ATOM      2  C   UNL     1     -11.976  14.677 -31.180  1.00  0.00    -0.006 C 
ATOM      3  C   UNL     1     -11.939  13.618 -30.065  1.00  0.00     0.008 C 
ATOM      4  C   UNL     1     -13.243  13.614 -29.257  1.00  0.00     0.039 C 
ATOM      5  C   UNL     1     -14.476  13.489 -30.142  1.00  0.00    -0.006 C 
ATOM      6  C   UNL     1     -15.601  12.849 -29.704  1.00  0.00    -0.070 C 
ATOM      7  C   UNL     1     -15.674  12.254 -28.316  1.00  0.00     0.039 C 
ATOM      8  C   UNL     1     -16.811  12.670 -30.591  1.00  0.00     0.039 C 
ATOM      9  C   UNL     1     -14.420  14.203 -31.452  1.00  0.00     0.159 C 
ATOM     10  O   UNL     1     -15.456  14.690 -31.978  1.00  0.00    -0.295 OA
ATOM     11  C   UNL     1     -13.109  14.359 -32.167  1.00  0.00     0.084 C 
ENDROOT
TORSDOF 0
ENDMDL
MODEL 6
REMARK VINA RESULT:    -4.938     13.590     15.207
REMARK INTER + INTRA:          -4.938
REMARK INTER:                  -4.938
REMARK INTRA:                   0.000
REMARK UNBOUND:                 0.000
REMARK SMILES CC(C)=C1CC[C@@H](C)CC1=O
REMARK SMILES IDX 8 1 7 2 6 3 5 4 4 5 2 6 1 7 3 8 10 9 11 10 9 11
REMARK H PARENT
REMARK Flexibility Score: inf
ROOT
ATOM      1  C   UNL     1     -28.988   9.876 -34.786  1.00  0.00     0.008 C 
ATOM      2  C   UNL     1     -28.668  10.072 -33.299  1.00  0.00    -0.006 C 
ATOM      3  C   UNL     1     -29.900  10.599 -32.545  1.00  0.00     0.008 C 
ATOM      4  C   UNL     1     -29.630  10.704 -31.039  1.00  0.00     0.039 C 
ATOM      5  C   UNL     1     -28.369  11.498 -30.727  1.00  0.00    -0.006 C 
ATOM      6  C   UNL     1     -28.265  12.244 -29.587  1.00  0.00    -0.070 C 
ATOM      7  C   UNL     1     -29.390  12.297 -28.579  1.00  0.00     0.039 C 
ATOM      8  C   UNL     1     -27.041  13.081 -29.293  1.00  0.00     0.039 C 
ATOM      9  C   UNL     1     -27.228  11.317 -31.673  1.00  0.00     0.159 C 
ATOM     10  O   UNL     1     -26.033  11.383 -31.278  1.00  0.00    -0.295 OA
ATOM     11  C   UNL     1     -27.491  11.043 -33.125  1.00  0.00     0.084 C 
ENDROOT
TORSDOF 0
ENDMDL
MODEL 7
REMARK VINA RESULT:    -4.909     11.732     14.463
REMARK INTER + INTRA:          -4.909
REMARK INTER:                  -4.909
REMARK INTRA:                   0.000
REMARK UNBOUND:                 0.000
REMARK SMILES CC(C)=C1CC[C@@H](C)CC1=O
REMARK SMILES IDX 8 1 7 2 6 3 5 4 4 5 2 6 1 7 3 8 10 9 11 10 9 11
REMARK H PARENT
REMARK Flexibility Score: inf
ROOT
ATOM      1  C   UNL     1     -30.125  13.953 -30.516  1.00  0.00     0.008 C 
ATOM      2  C   UNL     1     -29.165  12.791 -30.234  1.00  0.00    -0.006 C 
ATOM      3  C   UNL     1     -29.229  12.381 -28.753  1.00  0.00     0.008 C 
ATOM      4  C   UNL     1     -28.352  11.154 -28.475  1.00  0.00     0.039 C 
ATOM      5  C   UNL     1     -26.923  11.336 -28.969  1.00  0.00    -0.006 C 
ATOM      6  C   UNL     1     -25.871  10.748 -28.327  1.00  0.00    -0.070 C 
ATOM      7  C   UNL     1     -26.082   9.880 -27.108  1.00  0.00     0.039 C 
ATOM      8  C   UNL     1     -24.444  10.966 -28.774  1.00  0.00     0.039 C 
ATOM      9  C   UNL     1     -26.762  12.086 -30.251  1.00  0.00     0.159 C 
ATOM     10  O   UNL     1     -25.828  11.818 -31.054  1.00  0.00    -0.295 OA
ATOM     11  C   UNL     1     -27.726  13.179 -30.608  1.00  0.00     0.084 C 
ENDROOT
TORSDOF 0
ENDMDL
MODEL 8
REMARK VINA RESULT:    -4.839      1.799      2.354
REMARK INTER + INTRA:          -4.839
REMARK INTER:                  -4.839
REMARK INTRA:                   0.000
REMARK UNBOUND:                 0.000
REMARK SMILES CC(C)=C1CC[C@@H](C)CC1=O
REMARK SMILES IDX 8 1 7 2 6 3 5 4 4 5 2 6 1 7 3 8 10 9 11 10 9 11
REMARK H PARENT
REMARK Flexibility Score: inf
ROOT
ATOM      1  C   UNL     1     -11.355  14.720 -31.401  1.00  0.00     0.008 C 
ATOM      2  C   UNL     1     -12.770  14.146 -31.263  1.00  0.00    -0.006 C 
ATOM      3  C   UNL     1     -13.632  15.042 -30.359  1.00  0.00     0.008 C 
ATOM      4  C   UNL     1     -15.080  14.538 -30.292  1.00  0.00     0.039 C 
ATOM      5  C   UNL     1     -15.168  13.067 -29.911  1.00  0.00    -0.006 C 
ATOM      6  C   UNL     1     -16.225  12.582 -29.196  1.00  0.00    -0.070 C 
ATOM      7  C   UNL     1     -17.361  13.482 -28.767  1.00  0.00     0.039 C 
ATOM      8  C   UNL     1     -16.297  11.135 -28.764  1.00  0.00     0.039 C 
ATOM      9  C   UNL     1     -14.101  12.180 -30.464  1.00  0.00     0.159 C 
ATOM     10  O   UNL     1     -14.334  10.977 -30.754  1.00  0.00    -0.295 OA
ATOM     11  C   UNL     1     -12.719  12.720 -30.693  1.00  0.00     0.084 C 
ENDROOT
TORSDOF 0
ENDMDL
MODEL 9
REMARK VINA RESULT:    -4.795      1.605      4.455
REMARK INTER + INTRA:          -4.795
REMARK INTER:                  -4.795
REMARK INTRA:                   0.000
REMARK UNBOUND:                 0.000
REMARK SMILES CC(C)=C1CC[C@@H](C)CC1=O
REMARK SMILES IDX 8 1 7 2 6 3 5 4 4 5 2 6 1 7 3 8 10 9 11 10 9 11
REMARK H PARENT
REMARK Flexibility Score: inf
ROOT
ATOM      1  C   UNL     1     -16.620  13.558 -29.991  1.00  0.00     0.008 C 
ATOM      2  C   UNL     1     -15.087  13.522 -29.980  1.00  0.00    -0.006 C 
ATOM      3  C   UNL     1     -14.510  14.860 -30.471  1.00  0.00     0.008 C 
ATOM      4  C   UNL     1     -12.979  14.877 -30.370  1.00  0.00     0.039 C 
ATOM      5  C   UNL     1     -12.336  13.677 -31.053  1.00  0.00    -0.006 C 
ATOM      6  C   UNL     1     -11.107  13.771 -31.641  1.00  0.00    -0.070 C 
ATOM      7  C   UNL     1     -10.326  15.066 -31.624  1.00  0.00     0.039 C 
ATOM      8  C   UNL     1     -10.483  12.604 -32.370  1.00  0.00     0.039 C 
ATOM      9  C   UNL     1     -13.071  12.383 -30.934  1.00  0.00     0.159 C 
ATOM     10  O   UNL     1     -12.458  11.283 -30.888  1.00  0.00    -0.295 OA
ATOM     11  C   UNL     1     -14.570  12.373 -30.860  1.00  0.00     0.084 C 
ENDROOT
TORSDOF 0
ENDMDL
