MODEL 1
REMARK VINA RESULT:    -3.367      0.000      0.000
REMARK INTER + INTRA:          -8.119
REMARK INTER:                  -5.927
REMARK INTRA:                  -2.192
REMARK UNBOUND:                -2.192
REMARK SMILES CCCCCCC=CCCCCCCCC(=O)[O-]
REMARK SMILES IDX 10 1 11 2 12 3 13 4 14 5 15 6 16 7 17 8 18 9 9 10 8 11 7 12
REMARK SMILES IDX 6 13 5 14 4 15 3 16 2 17 1 18
REMARK H PARENT
REMARK Flexibility Score: inf
ROOT
ATOM      1  C   UNL     1     169.973 185.034  31.386  1.00  0.00     0.004 C 
ENDROOT
BRANCH   1   2
ATOM      2  C   UNL     1     171.320 185.737  31.592  1.00  0.00     0.000 C 
BRANCH   2   3
ATOM      3  C   UNL     1     171.580 186.002  33.083  1.00  0.00     0.000 C 
BRANCH   3   4
ATOM      4  C   UNL     1     170.956 184.933  33.994  1.00  0.00     0.000 C 
BRANCH   4   5
ATOM      5  C   UNL     1     172.012 184.069  34.703  1.00  0.00     0.006 C 
BRANCH   5   6
ATOM      6  C   UNL     1     172.455 182.876  33.846  1.00  0.00     0.053 C 
BRANCH   6   7
ATOM      7  C   UNL     1     173.822 183.081  33.271  1.00  0.00     0.041 C 
ATOM      8  O   UNL     1     173.975 183.225  32.030  1.00  0.00    -0.550 OA
ATOM      9  O   UNL     1     174.933 183.082  34.106  1.00  0.00    -0.550 OA
ENDBRANCH   6   7
ENDBRANCH   5   6
ENDBRANCH   4   5
ENDBRANCH   3   4
ENDBRANCH   2   3
ENDBRANCH   1   2
BRANCH   1  10
ATOM     10  C   UNL     1     169.145 185.738  30.305  1.00  0.00     0.027 C 
BRANCH  10  11
ATOM     11  C   UNL     1     167.968 186.458  30.905  1.00  0.00    -0.031 C 
ATOM     12  C   UNL     1     168.131 187.471  31.771  1.00  0.00    -0.031 C 
BRANCH  12  13
ATOM     13  C   UNL     1     166.955 188.190  32.371  1.00  0.00     0.027 C 
BRANCH  13  14
ATOM     14  C   UNL     1     166.499 187.520  33.673  1.00  0.00     0.004 C 
BRANCH  14  15
ATOM     15  C   UNL     1     167.704 187.069  34.511  1.00  0.00     0.000 C 
BRANCH  15  16
ATOM     16  C   UNL     1     167.585 185.597  34.959  1.00  0.00    -0.000 C 
BRANCH  16  17
ATOM     17  C   UNL     1     166.482 184.817  34.224  1.00  0.00    -0.003 C 
ATOM     18  C   UNL     1     167.031 183.755  33.274  1.00  0.00     0.004 C 
ENDBRANCH  16  17
ENDBRANCH  15  16
ENDBRANCH  14  15
ENDBRANCH  13  14
ENDBRANCH  12  13
ENDBRANCH  10  11
ENDBRANCH   1  10
TORSDOF 13
ENDMDL
MODEL 2
REMARK VINA RESULT:    -3.348     18.836     21.102
REMARK INTER + INTRA:          -8.084
REMARK INTER:                  -7.099
REMARK INTRA:                  -0.985
REMARK UNBOUND:                -2.192
REMARK SMILES CCCCCCC=CCCCCCCCC(=O)[O-]
REMARK SMILES IDX 10 1 11 2 12 3 13 4 14 5 15 6 16 7 17 8 18 9 9 10 8 11 7 12
REMARK SMILES IDX 6 13 5 14 4 15 3 16 2 17 1 18
REMARK H PARENT
REMARK Flexibility Score: inf
ROOT
ATOM      1  C   UNL     1     160.013 173.344  21.199  1.00  0.00     0.004 C 
ENDROOT
BRANCH   1   2
ATOM      2  C   UNL     1     158.584 173.900  21.193  1.00  0.00     0.000 C 
BRANCH   2   3
ATOM      3  C   UNL     1     158.403 174.965  22.285  1.00  0.00     0.000 C 
BRANCH   3   4
ATOM      4  C   UNL     1     157.302 174.601  23.293  1.00  0.00     0.000 C 
BRANCH   4   5
ATOM      5  C   UNL     1     157.778 174.700  24.752  1.00  0.00     0.006 C 
BRANCH   5   6
ATOM      6  C   UNL     1     159.287 174.457  24.886  1.00  0.00     0.053 C 
BRANCH   6   7
ATOM      7  C   UNL     1     159.588 173.059  25.331  1.00  0.00     0.041 C 
ATOM      8  O   UNL     1     160.343 172.322  24.645  1.00  0.00    -0.550 OA
ATOM      9  O   UNL     1     159.009 172.560  26.492  1.00  0.00    -0.550 OA
ENDBRANCH   6   7
ENDBRANCH   5   6
ENDBRANCH   4   5
ENDBRANCH   3   4
ENDBRANCH   2   3
ENDBRANCH   1   2
BRANCH   1  10
ATOM     10  C   UNL     1     160.008 171.816  21.318  1.00  0.00     0.027 C 
BRANCH  10  11
ATOM     11  C   UNL     1     160.645 171.176  20.114  1.00  0.00    -0.031 C 
ATOM     12  C   UNL     1     161.542 170.185  20.236  1.00  0.00    -0.031 C 
BRANCH  12  13
ATOM     13  C   UNL     1     162.178 169.546  19.033  1.00  0.00     0.027 C 
BRANCH  13  14
ATOM     14  C   UNL     1     161.941 170.382  17.769  1.00  0.00     0.004 C 
BRANCH  14  15
ATOM     15  C   UNL     1     163.226 171.103  17.337  1.00  0.00     0.000 C 
BRANCH  15  16
ATOM     16  C   UNL     1     163.471 170.997  15.817  1.00  0.00    -0.000 C 
BRANCH  16  17
ATOM     17  C   UNL     1     164.803 170.318  15.454  1.00  0.00    -0.003 C 
ATOM     18  C   UNL     1     165.185 169.196  16.417  1.00  0.00     0.004 C 
ENDBRANCH  16  17
ENDBRANCH  15  16
ENDBRANCH  14  15
ENDBRANCH  13  14
ENDBRANCH  12  13
ENDBRANCH  10  11
ENDBRANCH   1  10
TORSDOF 13
ENDMDL
MODEL 3
REMARK VINA RESULT:    -3.326      2.463      3.420
REMARK INTER + INTRA:          -8.045
REMARK INTER:                  -6.879
REMARK INTRA:                  -1.166
REMARK UNBOUND:                -2.192
REMARK SMILES CCCCCCC=CCCCCCCCC(=O)[O-]
REMARK SMILES IDX 10 1 11 2 12 3 13 4 14 5 15 6 16 7 17 8 18 9 9 10 8 11 7 12
REMARK SMILES IDX 6 13 5 14 4 15 3 16 2 17 1 18
REMARK H PARENT
REMARK Flexibility Score: inf
ROOT
ATOM      1  C   UNL     1     169.879 185.172  30.565  1.00  0.00     0.004 C 
ENDROOT
BRANCH   1   2
ATOM      2  C   UNL     1     171.122 185.834  31.172  1.00  0.00     0.000 C 
BRANCH   2   3
ATOM      3  C   UNL     1     170.781 186.537  32.495  1.00  0.00     0.000 C 
BRANCH   3   4
ATOM      4  C   UNL     1     171.674 186.079  33.658  1.00  0.00     0.000 C 
BRANCH   4   5
ATOM      5  C   UNL     1     171.134 184.821  34.360  1.00  0.00     0.006 C 
BRANCH   5   6
ATOM      6  C   UNL     1     172.191 183.712  34.453  1.00  0.00     0.053 C 
BRANCH   6   7
ATOM      7  C   UNL     1     172.496 183.121  33.111  1.00  0.00     0.041 C 
ATOM      8  O   UNL     1     171.592 182.549  32.448  1.00  0.00    -0.550 OA
ATOM      9  O   UNL     1     173.790 183.177  32.605  1.00  0.00    -0.550 OA
ENDBRANCH   6   7
ENDBRANCH   5   6
ENDBRANCH   4   5
ENDBRANCH   3   4
ENDBRANCH   2   3
ENDBRANCH   1   2
BRANCH   1  10
ATOM     10  C   UNL     1     168.706 186.158  30.503  1.00  0.00     0.027 C 
BRANCH  10  11
ATOM     11  C   UNL     1     167.401 185.468  30.792  1.00  0.00    -0.031 C 
ATOM     12  C   UNL     1     167.002 185.216  32.049  1.00  0.00    -0.031 C 
BRANCH  12  13
ATOM     13  C   UNL     1     165.698 184.525  32.337  1.00  0.00     0.027 C 
BRANCH  13  14
ATOM     14  C   UNL     1     165.614 183.174  31.618  1.00  0.00     0.004 C 
BRANCH  14  15
ATOM     15  C   UNL     1     164.369 183.104  30.722  1.00  0.00     0.000 C 
BRANCH  15  16
ATOM     16  C   UNL     1     163.495 181.870  31.033  1.00  0.00    -0.000 C 
BRANCH  16  17
ATOM     17  C   UNL     1     164.144 180.890  32.026  1.00  0.00    -0.003 C 
ATOM     18  C   UNL     1     163.407 179.556  32.118  1.00  0.00     0.004 C 
ENDBRANCH  16  17
ENDBRANCH  15  16
ENDBRANCH  14  15
ENDBRANCH  13  14
ENDBRANCH  12  13
ENDBRANCH  10  11
ENDBRANCH   1  10
TORSDOF 13
ENDMDL
MODEL 4
REMARK VINA RESULT:    -3.318      2.505      5.272
REMARK INTER + INTRA:          -8.032
REMARK INTER:                  -5.859
REMARK INTRA:                  -2.173
REMARK UNBOUND:                -2.192
REMARK SMILES CCCCCCC=CCCCCCCCC(=O)[O-]
REMARK SMILES IDX 10 1 11 2 12 3 13 4 14 5 15 6 16 7 17 8 18 9 9 10 8 11 7 12
REMARK SMILES IDX 6 13 5 14 4 15 3 16 2 17 1 18
REMARK H PARENT
REMARK Flexibility Score: inf
ROOT
ATOM      1  C   UNL     1     168.301 185.548  30.586  1.00  0.00     0.004 C 
ENDROOT
BRANCH   1   2
ATOM      2  C   UNL     1     167.850 186.998  30.374  1.00  0.00     0.000 C 
BRANCH   2   3
ATOM      3  C   UNL     1     167.640 187.711  31.718  1.00  0.00     0.000 C 
BRANCH   3   4
ATOM      4  C   UNL     1     166.925 186.830  32.753  1.00  0.00     0.000 C 
BRANCH   4   5
ATOM      5  C   UNL     1     167.754 186.626  34.032  1.00  0.00     0.006 C 
BRANCH   5   6
ATOM      6  C   UNL     1     167.307 185.386  34.819  1.00  0.00     0.053 C 
BRANCH   6   7
ATOM      7  C   UNL     1     167.158 184.188  33.933  1.00  0.00     0.041 C 
ATOM      8  O   UNL     1     168.174 183.625  33.449  1.00  0.00    -0.550 OA
ATOM      9  O   UNL     1     165.891 183.711  33.618  1.00  0.00    -0.550 OA
ENDBRANCH   6   7
ENDBRANCH   5   6
ENDBRANCH   4   5
ENDBRANCH   3   4
ENDBRANCH   2   3
ENDBRANCH   1   2
BRANCH   1  10
ATOM     10  C   UNL     1     169.788 185.379  30.251  1.00  0.00     0.027 C 
BRANCH  10  11
ATOM     11  C   UNL     1     170.613 185.230  31.500  1.00  0.00    -0.031 C 
ATOM     12  C   UNL     1     170.989 186.295  32.225  1.00  0.00    -0.031 C 
BRANCH  12  13
ATOM     13  C   UNL     1     171.815 186.145  33.473  1.00  0.00     0.027 C 
BRANCH  13  14
ATOM     14  C   UNL     1     171.063 185.346  34.544  1.00  0.00     0.004 C 
BRANCH  14  15
ATOM     15  C   UNL     1     171.889 184.138  35.009  1.00  0.00     0.000 C 
BRANCH  15  16
ATOM     16  C   UNL     1     171.588 182.871  34.180  1.00  0.00    -0.000 C 
BRANCH  16  17
ATOM     17  C   UNL     1     172.844 182.206  33.593  1.00  0.00    -0.003 C 
ATOM     18  C   UNL     1     173.612 183.116  32.638  1.00  0.00     0.004 C 
ENDBRANCH  16  17
ENDBRANCH  15  16
ENDBRANCH  14  15
ENDBRANCH  13  14
ENDBRANCH  12  13
ENDBRANCH  10  11
ENDBRANCH   1  10
TORSDOF 13
ENDMDL
MODEL 5
REMARK VINA RESULT:    -3.293      1.842      2.840
REMARK INTER + INTRA:          -7.988
REMARK INTER:                  -6.225
REMARK INTRA:                  -1.764
REMARK UNBOUND:                -2.192
REMARK SMILES CCCCCCC=CCCCCCCCC(=O)[O-]
REMARK SMILES IDX 10 1 11 2 12 3 13 4 14 5 15 6 16 7 17 8 18 9 9 10 8 11 7 12
REMARK SMILES IDX 6 13 5 14 4 15 3 16 2 17 1 18
REMARK H PARENT
REMARK Flexibility Score: inf
ROOT
ATOM      1  C   UNL     1     169.534 185.395  30.237  1.00  0.00     0.004 C 
ENDROOT
BRANCH   1   2
ATOM      2  C   UNL     1     170.536 185.000  31.329  1.00  0.00     0.000 C 
BRANCH   2   3
ATOM      3  C   UNL     1     171.215 186.241  31.926  1.00  0.00     0.000 C 
BRANCH   3   4
ATOM      4  C   UNL     1     171.511 186.094  33.426  1.00  0.00     0.000 C 
BRANCH   4   5
ATOM      5  C   UNL     1     171.071 184.730  33.986  1.00  0.00     0.006 C 
BRANCH   5   6
ATOM      6  C   UNL     1     172.261 183.895  34.478  1.00  0.00     0.053 C 
BRANCH   6   7
ATOM      7  C   UNL     1     172.673 182.866  33.471  1.00  0.00     0.041 C 
ATOM      8  O   UNL     1     173.521 183.148  32.585  1.00  0.00    -0.550 OA
ATOM      9  O   UNL     1     172.095 181.602  33.493  1.00  0.00    -0.550 OA
ENDBRANCH   6   7
ENDBRANCH   5   6
ENDBRANCH   4   5
ENDBRANCH   3   4
ENDBRANCH   2   3
ENDBRANCH   1   2
BRANCH   1  10
ATOM     10  C   UNL     1     168.275 186.022  30.846  1.00  0.00     0.027 C 
BRANCH  10  11
ATOM     11  C   UNL     1     167.531 185.030  31.698  1.00  0.00    -0.031 C 
ATOM     12  C   UNL     1     167.162 185.320  32.956  1.00  0.00    -0.031 C 
BRANCH  12  13
ATOM     13  C   UNL     1     166.420 184.327  33.807  1.00  0.00     0.027 C 
BRANCH  13  14
ATOM     14  C   UNL     1     164.925 184.661  33.874  1.00  0.00     0.004 C 
BRANCH  14  15
ATOM     15  C   UNL     1     164.103 183.679  33.028  1.00  0.00     0.000 C 
BRANCH  15  16
ATOM     16  C   UNL     1     164.906 182.413  32.658  1.00  0.00    -0.000 C 
BRANCH  16  17
ATOM     17  C   UNL     1     164.918 182.110  31.150  1.00  0.00    -0.003 C 
ATOM     18  C   UNL     1     164.488 183.301  30.297  1.00  0.00     0.004 C 
ENDBRANCH  16  17
ENDBRANCH  15  16
ENDBRANCH  14  15
ENDBRANCH  13  14
ENDBRANCH  12  13
ENDBRANCH  10  11
ENDBRANCH   1  10
TORSDOF 13
ENDMDL
MODEL 6
REMARK VINA RESULT:    -3.233      1.143      2.299
REMARK INTER + INTRA:          -7.881
REMARK INTER:                  -5.684
REMARK INTRA:                  -2.198
REMARK UNBOUND:                -2.192
REMARK SMILES CCCCCCC=CCCCCCCCC(=O)[O-]
REMARK SMILES IDX 10 1 11 2 12 3 13 4 14 5 15 6 16 7 17 8 18 9 9 10 8 11 7 12
REMARK SMILES IDX 6 13 5 14 4 15 3 16 2 17 1 18
REMARK H PARENT
REMARK Flexibility Score: inf
ROOT
ATOM      1  C   UNL     1     167.869 186.475  29.920  1.00  0.00     0.004 C 
ENDROOT
BRANCH   1   2
ATOM      2  C   UNL     1     168.656 185.400  30.678  1.00  0.00     0.000 C 
BRANCH   2   3
ATOM      3  C   UNL     1     170.151 185.464  30.329  1.00  0.00     0.000 C 
BRANCH   3   4
ATOM      4  C   UNL     1     171.052 185.464  31.574  1.00  0.00     0.000 C 
BRANCH   4   5
ATOM      5  C   UNL     1     170.659 184.378  32.590  1.00  0.00     0.006 C 
BRANCH   5   6
ATOM      6  C   UNL     1     171.478 183.093  32.410  1.00  0.00     0.053 C 
BRANCH   6   7
ATOM      7  C   UNL     1     172.881 183.252  32.908  1.00  0.00     0.041 C 
ATOM      8  O   UNL     1     173.845 183.262  32.100  1.00  0.00    -0.550 OA
ATOM      9  O   UNL     1     173.125 183.360  34.272  1.00  0.00    -0.550 OA
ENDBRANCH   6   7
ENDBRANCH   5   6
ENDBRANCH   4   5
ENDBRANCH   3   4
ENDBRANCH   2   3
ENDBRANCH   1   2
BRANCH   1  10
ATOM     10  C   UNL     1     167.571 187.678  30.823  1.00  0.00     0.027 C 
BRANCH  10  11
ATOM     11  C   UNL     1     167.719 187.316  32.276  1.00  0.00    -0.031 C 
ATOM     12  C   UNL     1     166.672 187.338  33.116  1.00  0.00    -0.031 C 
BRANCH  12  13
ATOM     13  C   UNL     1     166.821 186.978  34.568  1.00  0.00     0.027 C 
BRANCH  13  14
ATOM     14  C   UNL     1     167.788 185.801  34.753  1.00  0.00     0.004 C 
BRANCH  14  15
ATOM     15  C   UNL     1     167.027 184.469  34.816  1.00  0.00     0.000 C 
BRANCH  15  16
ATOM     16  C   UNL     1     167.166 183.656  33.511  1.00  0.00    -0.000 C 
BRANCH  16  17
ATOM     17  C   UNL     1     165.817 183.241  32.898  1.00  0.00    -0.003 C 
ATOM     18  C   UNL     1     165.421 184.091  31.693  1.00  0.00     0.004 C 
ENDBRANCH  16  17
ENDBRANCH  15  16
ENDBRANCH  14  15
ENDBRANCH  13  14
ENDBRANCH  12  13
ENDBRANCH  10  11
ENDBRANCH   1  10
TORSDOF 13
ENDMDL
MODEL 7
REMARK VINA RESULT:    -3.203     18.627     20.793
REMARK INTER + INTRA:          -7.829
REMARK INTER:                  -6.691
REMARK INTRA:                  -1.138
REMARK UNBOUND:                -2.192
REMARK SMILES CCCCCCC=CCCCCCCCC(=O)[O-]
REMARK SMILES IDX 10 1 11 2 12 3 13 4 14 5 15 6 16 7 17 8 18 9 9 10 8 11 7 12
REMARK SMILES IDX 6 13 5 14 4 15 3 16 2 17 1 18
REMARK H PARENT
REMARK Flexibility Score: inf
ROOT
ATOM      1  C   UNL     1     159.254 174.012  21.266  1.00  0.00     0.004 C 
ENDROOT
BRANCH   1   2
ATOM      2  C   UNL     1     158.398 174.961  22.114  1.00  0.00     0.000 C 
BRANCH   2   3
ATOM      3  C   UNL     1     158.131 174.366  23.505  1.00  0.00     0.000 C 
BRANCH   3   4
ATOM      4  C   UNL     1     159.352 174.452  24.433  1.00  0.00     0.000 C 
BRANCH   4   5
ATOM      5  C   UNL     1     159.747 173.087  25.020  1.00  0.00     0.006 C 
BRANCH   5   6
ATOM      6  C   UNL     1     160.553 172.241  24.025  1.00  0.00     0.053 C 
BRANCH   6   7
ATOM      7  C   UNL     1     161.129 171.019  24.672  1.00  0.00     0.041 C 
ATOM      8  O   UNL     1     160.837 170.733  25.862  1.00  0.00    -0.550 OA
ATOM      9  O   UNL     1     162.015 170.212  23.967  1.00  0.00    -0.550 OA
ENDBRANCH   6   7
ENDBRANCH   5   6
ENDBRANCH   4   5
ENDBRANCH   3   4
ENDBRANCH   2   3
ENDBRANCH   1   2
BRANCH   1  10
ATOM     10  C   UNL     1     158.407 172.870  20.694  1.00  0.00     0.027 C 
BRANCH  10  11
ATOM     11  C   UNL     1     159.208 171.601  20.586  1.00  0.00    -0.031 C 
ATOM     12  C   UNL     1     160.543 171.622  20.451  1.00  0.00    -0.031 C 
BRANCH  12  13
ATOM     13  C   UNL     1     161.343 170.353  20.342  1.00  0.00     0.027 C 
BRANCH  13  14
ATOM     14  C   UNL     1     161.427 169.872  18.889  1.00  0.00     0.004 C 
BRANCH  14  15
ATOM     15  C   UNL     1     162.888 169.682  18.456  1.00  0.00     0.000 C 
BRANCH  15  16
ATOM     16  C   UNL     1     163.321 170.713  17.393  1.00  0.00    -0.000 C 
BRANCH  16  17
ATOM     17  C   UNL     1     164.548 170.276  16.573  1.00  0.00    -0.003 C 
ATOM     18  C   UNL     1     164.484 170.724  15.115  1.00  0.00     0.004 C 
ENDBRANCH  16  17
ENDBRANCH  15  16
ENDBRANCH  14  15
ENDBRANCH  13  14
ENDBRANCH  12  13
ENDBRANCH  10  11
ENDBRANCH   1  10
TORSDOF 13
ENDMDL
MODEL 8
REMARK VINA RESULT:    -3.176     18.890     20.643
REMARK INTER + INTRA:          -7.781
REMARK INTER:                  -6.061
REMARK INTRA:                  -1.720
REMARK UNBOUND:                -2.192
REMARK SMILES CCCCCCC=CCCCCCCCC(=O)[O-]
REMARK SMILES IDX 10 1 11 2 12 3 13 4 14 5 15 6 16 7 17 8 18 9 9 10 8 11 7 12
REMARK SMILES IDX 6 13 5 14 4 15 3 16 2 17 1 18
REMARK H PARENT
REMARK Flexibility Score: inf
ROOT
ATOM      1  C   UNL     1     159.585 170.927  21.333  1.00  0.00     0.004 C 
ENDROOT
BRANCH   1   2
ATOM      2  C   UNL     1     160.305 169.576  21.237  1.00  0.00     0.000 C 
BRANCH   2   3
ATOM      3  C   UNL     1     161.820 169.746  21.425  1.00  0.00     0.000 C 
BRANCH   3   4
ATOM      4  C   UNL     1     162.637 169.033  20.337  1.00  0.00     0.000 C 
BRANCH   4   5
ATOM      5  C   UNL     1     162.038 169.212  18.932  1.00  0.00     0.006 C 
BRANCH   5   6
ATOM      6  C   UNL     1     162.721 170.343  18.152  1.00  0.00     0.053 C 
BRANCH   6   7
ATOM      7  C   UNL     1     163.750 169.819  17.198  1.00  0.00     0.041 C 
ATOM      8  O   UNL     1     164.906 169.532  17.605  1.00  0.00    -0.550 OA
ATOM      9  O   UNL     1     163.439 169.676  15.851  1.00  0.00    -0.550 OA
ENDBRANCH   6   7
ENDBRANCH   5   6
ENDBRANCH   4   5
ENDBRANCH   3   4
ENDBRANCH   2   3
ENDBRANCH   1   2
BRANCH   1  10
ATOM     10  C   UNL     1     160.421 172.042  20.694  1.00  0.00     0.027 C 
BRANCH  10  11
ATOM     11  C   UNL     1     159.842 173.397  20.998  1.00  0.00    -0.031 C 
ATOM     12  C   UNL     1     158.523 173.574  21.175  1.00  0.00    -0.031 C 
BRANCH  12  13
ATOM     13  C   UNL     1     157.944 174.928  21.477  1.00  0.00     0.027 C 
BRANCH  13  14
ATOM     14  C   UNL     1     156.915 174.853  22.612  1.00  0.00     0.004 C 
BRANCH  14  15
ATOM     15  C   UNL     1     157.375 173.881  23.708  1.00  0.00     0.000 C 
BRANCH  15  16
ATOM     16  C   UNL     1     158.218 174.583  24.794  1.00  0.00    -0.000 C 
BRANCH  16  17
ATOM     17  C   UNL     1     159.716 174.239  24.729  1.00  0.00    -0.003 C 
ATOM     18  C   UNL     1     159.981 172.742  24.586  1.00  0.00     0.004 C 
ENDBRANCH  16  17
ENDBRANCH  15  16
ENDBRANCH  14  15
ENDBRANCH  13  14
ENDBRANCH  12  13
ENDBRANCH  10  11
ENDBRANCH   1  10
TORSDOF 13
ENDMDL
MODEL 9
REMARK VINA RESULT:    -3.151      3.448      5.906
REMARK INTER + INTRA:          -7.738
REMARK INTER:                  -5.924
REMARK INTRA:                  -1.814
REMARK UNBOUND:                -2.192
REMARK SMILES CCCCCCC=CCCCCCCCC(=O)[O-]
REMARK SMILES IDX 10 1 11 2 12 3 13 4 14 5 15 6 16 7 17 8 18 9 9 10 8 11 7 12
REMARK SMILES IDX 6 13 5 14 4 15 3 16 2 17 1 18
REMARK H PARENT
REMARK Flexibility Score: inf
ROOT
ATOM      1  C   UNL     1     167.633 185.370  30.958  1.00  0.00     0.004 C 
ENDROOT
BRANCH   1   2
ATOM      2  C   UNL     1     167.128 186.240  32.116  1.00  0.00     0.000 C 
BRANCH   2   3
ATOM      3  C   UNL     1     167.102 185.445  33.430  1.00  0.00     0.000 C 
BRANCH   3   4
ATOM      4  C   UNL     1     166.977 183.931  33.206  1.00  0.00     0.000 C 
BRANCH   4   5
ATOM      5  C   UNL     1     165.607 183.379  33.636  1.00  0.00     0.006 C 
BRANCH   5   6
ATOM      6  C   UNL     1     164.513 183.676  32.602  1.00  0.00     0.053 C 
BRANCH   6   7
ATOM      7  C   UNL     1     164.769 182.975  31.304  1.00  0.00     0.041 C 
ATOM      8  O   UNL     1     164.633 183.587  30.213  1.00  0.00    -0.550 OA
ATOM      9  O   UNL     1     165.130 181.633  31.299  1.00  0.00    -0.550 OA
ENDBRANCH   6   7
ENDBRANCH   5   6
ENDBRANCH   4   5
ENDBRANCH   3   4
ENDBRANCH   2   3
ENDBRANCH   1   2
BRANCH   1  10
ATOM     10  C   UNL     1     168.978 185.882  30.431  1.00  0.00     0.027 C 
BRANCH  10  11
ATOM     11  C   UNL     1     170.089 185.586  31.400  1.00  0.00    -0.031 C 
ATOM     12  C   UNL     1     170.612 186.542  32.184  1.00  0.00    -0.031 C 
BRANCH  12  13
ATOM     13  C   UNL     1     171.723 186.246  33.153  1.00  0.00     0.027 C 
BRANCH  13  14
ATOM     14  C   UNL     1     171.172 185.828  34.521  1.00  0.00     0.004 C 
BRANCH  14  15
ATOM     15  C   UNL     1     171.585 184.390  34.866  1.00  0.00     0.000 C 
BRANCH  15  16
ATOM     16  C   UNL     1     172.661 183.846  33.902  1.00  0.00    -0.000 C 
BRANCH  16  17
ATOM     17  C   UNL     1     172.346 182.441  33.359  1.00  0.00    -0.003 C 
ATOM     18  C   UNL     1     170.884 182.269  32.954  1.00  0.00     0.004 C 
ENDBRANCH  16  17
ENDBRANCH  15  16
ENDBRANCH  14  15
ENDBRANCH  13  14
ENDBRANCH  12  13
ENDBRANCH  10  11
ENDBRANCH   1  10
TORSDOF 13
ENDMDL
