MODEL 1
REMARK VINA RESULT:    -2.460      0.000      0.000
REMARK INTER + INTRA:          -2.980
REMARK INTER:                  -2.891
REMARK INTRA:                  -0.089
REMARK UNBOUND:                -0.089
REMARK SMILES O=C([O-])CCC(=O)[O-]
REMARK SMILES IDX 4 1 2 2 1 3 3 4 5 5 6 6 7 7 8 8
REMARK H PARENT
REMARK Flexibility Score: inf
ROOT
ATOM      1  C   UNL     1      -7.456  21.432  15.533  1.00  0.00     0.059 C 
ENDROOT
BRANCH   1   2
ATOM      2  C   UNL     1      -6.079  20.848  15.447  1.00  0.00     0.042 C 
ATOM      3  O   UNL     1      -5.436  20.895  14.365  1.00  0.00    -0.550 OA
ATOM      4  O   UNL     1      -5.522  20.215  16.551  1.00  0.00    -0.550 OA
ENDBRANCH   1   2
BRANCH   1   5
ATOM      5  C   UNL     1      -8.199  20.944  16.780  1.00  0.00     0.059 C 
BRANCH   5   6
ATOM      6  C   UNL     1      -8.187  21.975  17.868  1.00  0.00     0.042 C 
ATOM      7  O   UNL     1      -8.756  23.085  17.695  1.00  0.00    -0.550 OA
ATOM      8  O   UNL     1      -7.580  21.695  19.086  1.00  0.00    -0.550 OA
ENDBRANCH   5   6
ENDBRANCH   1   5
TORSDOF 3
ENDMDL
MODEL 2
REMARK VINA RESULT:    -2.440      0.943      3.876
REMARK INTER + INTRA:          -2.957
REMARK INTER:                  -2.925
REMARK INTRA:                  -0.032
REMARK UNBOUND:                -0.089
REMARK SMILES O=C([O-])CCC(=O)[O-]
REMARK SMILES IDX 4 1 2 2 1 3 3 4 5 5 6 6 7 7 8 8
REMARK H PARENT
REMARK Flexibility Score: inf
ROOT
ATOM      1  C   UNL     1      -7.522  21.667  16.255  1.00  0.00     0.059 C 
ENDROOT
BRANCH   1   2
ATOM      2  C   UNL     1      -8.295  21.965  17.504  1.00  0.00     0.042 C 
ATOM      3  O   UNL     1      -8.682  23.139  17.745  1.00  0.00    -0.550 OA
ATOM      4  O   UNL     1      -8.551  20.954  18.421  1.00  0.00    -0.550 OA
ENDBRANCH   1   2
BRANCH   1   5
ATOM      5  C   UNL     1      -6.502  20.545  16.477  1.00  0.00     0.059 C 
BRANCH   5   6
ATOM      6  C   UNL     1      -5.391  20.604  15.474  1.00  0.00     0.042 C 
ATOM      7  O   UNL     1      -5.624  20.968  14.292  1.00  0.00    -0.550 OA
ATOM      8  O   UNL     1      -4.092  20.295  15.855  1.00  0.00    -0.550 OA
ENDBRANCH   5   6
ENDBRANCH   1   5
TORSDOF 3
ENDMDL
MODEL 3
REMARK VINA RESULT:    -2.425      2.996      5.428
REMARK INTER + INTRA:          -2.939
REMARK INTER:                  -2.822
REMARK INTRA:                  -0.117
REMARK UNBOUND:                -0.089
REMARK SMILES O=C([O-])CCC(=O)[O-]
REMARK SMILES IDX 4 1 2 2 1 3 3 4 5 5 6 6 7 7 8 8
REMARK H PARENT
REMARK Flexibility Score: inf
ROOT
ATOM      1  C   UNL     1      -7.620  23.482  20.837  1.00  0.00     0.059 C 
ENDROOT
BRANCH   1   2
ATOM      2  C   UNL     1      -8.148  22.886  22.105  1.00  0.00     0.042 C 
ATOM      3  O   UNL     1      -9.125  22.092  22.075  1.00  0.00    -0.550 OA
ATOM      4  O   UNL     1      -7.587  23.240  23.326  1.00  0.00    -0.550 OA
ENDBRANCH   1   2
BRANCH   1   5
ATOM      5  C   UNL     1      -8.679  23.482  19.729  1.00  0.00     0.059 C 
BRANCH   5   6
ATOM      6  C   UNL     1      -8.343  22.502  18.646  1.00  0.00     0.042 C 
ATOM      7  O   UNL     1      -8.453  22.833  17.436  1.00  0.00    -0.550 OA
ATOM      8  O   UNL     1      -7.872  21.238  18.973  1.00  0.00    -0.550 OA
ENDBRANCH   5   6
ENDBRANCH   1   5
TORSDOF 3
ENDMDL
MODEL 4
REMARK VINA RESULT:    -2.352      2.097      4.516
REMARK INTER + INTRA:          -2.853
REMARK INTER:                  -2.730
REMARK INTRA:                  -0.123
REMARK UNBOUND:                -0.089
REMARK SMILES O=C([O-])CCC(=O)[O-]
REMARK SMILES IDX 4 1 2 2 1 3 3 4 5 5 6 6 7 7 8 8
REMARK H PARENT
REMARK Flexibility Score: inf
ROOT
ATOM      1  C   UNL     1      -8.539  23.226  19.200  1.00  0.00     0.059 C 
ENDROOT
BRANCH   1   2
ATOM      2  C   UNL     1      -7.902  23.079  20.548  1.00  0.00     0.042 C 
ATOM      3  O   UNL     1      -7.365  24.070  21.107  1.00  0.00    -0.550 OA
ATOM      4  O   UNL     1      -7.865  21.836  21.167  1.00  0.00    -0.550 OA
ENDBRANCH   1   2
BRANCH   1   5
ATOM      5  C   UNL     1      -8.797  21.865  18.546  1.00  0.00     0.059 C 
BRANCH   5   6
ATOM      6  C   UNL     1      -7.671  21.466  17.641  1.00  0.00     0.042 C 
ATOM      7  O   UNL     1      -6.710  20.787  18.087  1.00  0.00    -0.550 OA
ATOM      8  O   UNL     1      -7.704  21.811  16.296  1.00  0.00    -0.550 OA
ENDBRANCH   5   6
ENDBRANCH   1   5
TORSDOF 3
ENDMDL
MODEL 5
REMARK VINA RESULT:    -2.336      2.004      3.043
REMARK INTER + INTRA:          -2.834
REMARK INTER:                  -2.718
REMARK INTRA:                  -0.116
REMARK UNBOUND:                -0.089
REMARK SMILES O=C([O-])CCC(=O)[O-]
REMARK SMILES IDX 4 1 2 2 1 3 3 4 5 5 6 6 7 7 8 8
REMARK H PARENT
REMARK Flexibility Score: inf
ROOT
ATOM      1  C   UNL     1      -8.519  22.876  17.749  1.00  0.00     0.059 C 
ENDROOT
BRANCH   1   2
ATOM      2  C   UNL     1      -8.076  21.642  17.023  1.00  0.00     0.042 C 
ATOM      3  O   UNL     1      -8.417  20.504  17.438  1.00  0.00    -0.550 OA
ATOM      4  O   UNL     1      -7.251  21.750  15.911  1.00  0.00    -0.550 OA
ENDBRANCH   1   2
BRANCH   1   5
ATOM      5  C   UNL     1      -8.981  22.556  19.175  1.00  0.00     0.059 C 
BRANCH   5   6
ATOM      6  C   UNL     1      -7.863  22.698  20.162  1.00  0.00     0.042 C 
ATOM      7  O   UNL     1      -7.113  21.719  20.414  1.00  0.00    -0.550 OA
ATOM      8  O   UNL     1      -7.625  23.922  20.773  1.00  0.00    -0.550 OA
ENDBRANCH   5   6
ENDBRANCH   1   5
TORSDOF 3
ENDMDL
MODEL 6
REMARK VINA RESULT:    -2.323      1.731      4.052
REMARK INTER + INTRA:          -2.820
REMARK INTER:                  -2.696
REMARK INTRA:                  -0.124
REMARK UNBOUND:                -0.089
REMARK SMILES O=C([O-])CCC(=O)[O-]
REMARK SMILES IDX 4 1 2 2 1 3 3 4 5 5 6 6 7 7 8 8
REMARK H PARENT
REMARK Flexibility Score: inf
ROOT
ATOM      1  C   UNL     1      -8.747  22.985  18.124  1.00  0.00     0.059 C 
ENDROOT
BRANCH   1   2
ATOM      2  C   UNL     1      -8.384  22.841  19.570  1.00  0.00     0.042 C 
ATOM      3  O   UNL     1      -8.509  21.729  20.147  1.00  0.00    -0.550 OA
ATOM      4  O   UNL     1      -7.948  23.945  20.291  1.00  0.00    -0.550 OA
ENDBRANCH   1   2
BRANCH   1   5
ATOM      5  C   UNL     1      -8.768  21.631  17.408  1.00  0.00     0.059 C 
BRANCH   5   6
ATOM      6  C   UNL     1      -7.446  21.323  16.773  1.00  0.00     0.042 C 
ATOM      7  O   UNL     1      -7.196  21.719  15.605  1.00  0.00    -0.550 OA
ATOM      8  O   UNL     1      -6.475  20.632  17.487  1.00  0.00    -0.550 OA
ENDBRANCH   5   6
ENDBRANCH   1   5
TORSDOF 3
ENDMDL
MODEL 7
REMARK VINA RESULT:    -2.290      3.956      5.469
REMARK INTER + INTRA:          -2.781
REMARK INTER:                  -2.719
REMARK INTRA:                  -0.062
REMARK UNBOUND:                -0.089
REMARK SMILES O=C([O-])CCC(=O)[O-]
REMARK SMILES IDX 4 1 2 2 1 3 3 4 5 5 6 6 7 7 8 8
REMARK H PARENT
REMARK Flexibility Score: inf
ROOT
ATOM      1  C   UNL     1      -7.952  23.269  21.218  1.00  0.00     0.059 C 
ENDROOT
BRANCH   1   2
ATOM      2  C   UNL     1      -7.718  22.569  19.914  1.00  0.00     0.042 C 
ATOM      3  O   UNL     1      -8.387  22.883  18.896  1.00  0.00    -0.550 OA
ATOM      4  O   UNL     1      -6.788  21.540  19.836  1.00  0.00    -0.550 OA
ENDBRANCH   1   2
BRANCH   1   5
ATOM      5  C   UNL     1      -8.970  22.521  22.086  1.00  0.00     0.059 C 
BRANCH   5   6
ATOM      6  C   UNL     1      -8.473  22.342  23.488  1.00  0.00     0.042 C 
ATOM      7  O   UNL     1      -9.028  22.951  24.439  1.00  0.00    -0.550 OA
ATOM      8  O   UNL     1      -7.423  21.471  23.748  1.00  0.00    -0.550 OA
ENDBRANCH   5   6
ENDBRANCH   1   5
TORSDOF 3
ENDMDL
MODEL 8
REMARK VINA RESULT:    -2.203      1.715      2.289
REMARK INTER + INTRA:          -2.679
REMARK INTER:                  -2.627
REMARK INTRA:                  -0.052
REMARK UNBOUND:                -0.089
REMARK SMILES O=C([O-])CCC(=O)[O-]
REMARK SMILES IDX 4 1 2 2 1 3 3 4 5 5 6 6 7 7 8 8
REMARK H PARENT
REMARK Flexibility Score: inf
ROOT
ATOM      1  C   UNL     1      -6.701  20.149  16.792  1.00  0.00     0.059 C 
ENDROOT
BRANCH   1   2
ATOM      2  C   UNL     1      -6.509  20.857  15.486  1.00  0.00     0.042 C 
ATOM      3  O   UNL     1      -7.500  21.327  14.868  1.00  0.00    -0.550 OA
ATOM      4  O   UNL     1      -5.240  20.960  14.931  1.00  0.00    -0.550 OA
ENDBRANCH   1   2
BRANCH   1   5
ATOM      5  C   UNL     1      -7.256  21.089  17.868  1.00  0.00     0.059 C 
BRANCH   5   6
ATOM      6  C   UNL     1      -6.524  20.934  19.166  1.00  0.00     0.042 C 
ATOM      7  O   UNL     1      -5.319  20.574  19.174  1.00  0.00    -0.550 OA
ATOM      8  O   UNL     1      -7.163  21.227  20.364  1.00  0.00    -0.550 OA
ENDBRANCH   5   6
ENDBRANCH   1   5
TORSDOF 3
ENDMDL
MODEL 9
REMARK VINA RESULT:    -2.158     16.945     18.244
REMARK INTER + INTRA:          -2.626
REMARK INTER:                  -2.562
REMARK INTRA:                  -0.063
REMARK UNBOUND:                -0.089
REMARK SMILES O=C([O-])CCC(=O)[O-]
REMARK SMILES IDX 4 1 2 2 1 3 3 4 5 5 6 6 7 7 8 8
REMARK H PARENT
REMARK Flexibility Score: inf
ROOT
ATOM      1  C   UNL     1      11.044  23.072  11.573  1.00  0.00     0.059 C 
ENDROOT
BRANCH   1   2
ATOM      2  C   UNL     1      10.816  24.344  10.815  1.00  0.00     0.042 C 
ATOM      3  O   UNL     1      10.310  25.343  11.389  1.00  0.00    -0.550 OA
ATOM      4  O   UNL     1      11.125  24.411   9.462  1.00  0.00    -0.550 OA
ENDBRANCH   1   2
BRANCH   1   5
ATOM      5  C   UNL     1      10.263  23.053  12.891  1.00  0.00     0.059 C 
BRANCH   5   6
ATOM      6  C   UNL     1       9.534  21.757  13.080  1.00  0.00     0.042 C 
ATOM      7  O   UNL     1       9.193  21.071  12.082  1.00  0.00    -0.550 OA
ATOM      8  O   UNL     1       9.266  21.289  14.360  1.00  0.00    -0.550 OA
ENDBRANCH   5   6
ENDBRANCH   1   5
TORSDOF 3
ENDMDL
