MODEL 1
REMARK VINA RESULT:    -6.446      0.000      0.000
REMARK INTER + INTRA:          -8.072
REMARK INTER:                  -7.765
REMARK INTRA:                  -0.308
REMARK UNBOUND:                -0.308
REMARK SMILES O=c1c(O)c(-c2ccc(O)c(O)c2)oc2cc(O)cc(O)c12
REMARK SMILES IDX 5 1 3 2 2 3 1 4 22 5 20 6 19 7 17 8 16 9 15 10 14 11 6 12
REMARK SMILES IDX 7 13 8 14 9 15 13 16 11 17 10 18 12 20 4 22 21 24 18 26
REMARK H PARENT 10 19 12 21 4 23 21 25 18 27
REMARK Flexibility Score: inf
ROOT
ATOM      1  C   UNL     1       1.015  28.219 133.909  1.00  0.00     0.180 A 
ATOM      2  C   UNL     1       2.226  28.228 134.623  1.00  0.00     0.208 A 
ATOM      3  C   UNL     1       2.207  28.543 135.991  1.00  0.00     0.238 A 
ATOM      4  O   UNL     1       3.283  28.476 136.639  1.00  0.00    -0.285 OA
ATOM      5  C   UNL     1       0.988  28.900 136.616  1.00  0.00     0.111 A 
ATOM      6  C   UNL     1       0.858  29.280 137.986  1.00  0.00     0.134 A 
ATOM      7  C   UNL     1      -0.416  29.509 138.522  1.00  0.00     0.093 A 
ATOM      8  C   UNL     1      -1.559  29.434 137.722  1.00  0.00     0.123 A 
ATOM      9  C   UNL     1      -1.438  29.117 136.372  1.00  0.00     0.094 A 
ATOM     10  C   UNL     1      -0.185  28.846 135.816  1.00  0.00     0.146 A 
ATOM     11  O   UNL     1      -0.118  28.526 134.530  1.00  0.00    -0.452 OA
ENDROOT
BRANCH   1  12
ATOM     12  C   UNL     1       0.952  27.884 132.468  1.00  0.00     0.025 A 
ATOM     13  C   UNL     1       0.933  26.538 132.074  1.00  0.00     0.016 A 
ATOM     14  C   UNL     1       0.895  26.198 130.719  1.00  0.00     0.051 A 
ATOM     15  C   UNL     1       0.892  27.195 129.739  1.00  0.00     0.157 A 
ATOM     16  C   UNL     1       0.970  28.885 131.482  1.00  0.00     0.062 A 
ATOM     17  C   UNL     1       0.934  28.547 130.120  1.00  0.00     0.158 A 
BRANCH  15  18
ATOM     18  O   UNL     1       0.852  26.825 128.395  1.00  0.00    -0.504 OA
ATOM     19  H   UNL     1       1.690  26.590 127.876  1.00  0.00     0.293 HD
ENDBRANCH  15  18
BRANCH  17  20
ATOM     20  O   UNL     1       0.946  29.546 129.149  1.00  0.00    -0.504 OA
ATOM     21  H   UNL     1       1.802  30.016 128.881  1.00  0.00     0.293 HD
ENDBRANCH  17  20
ENDBRANCH   1  12
BRANCH   2  22
ATOM     22  O   UNL     1       3.429  27.949 133.970  1.00  0.00    -0.502 OA
ATOM     23  H   UNL     1       3.472  27.397 133.123  1.00  0.00     0.293 HD
ENDBRANCH   2  22
BRANCH   6  24
ATOM     24  O   UNL     1       1.940  29.472 138.851  1.00  0.00    -0.507 OA
ATOM     25  H   UNL     1       1.864  29.744 139.819  1.00  0.00     0.293 HD
ENDBRANCH   6  24
BRANCH   8  26
ATOM     26  O   UNL     1      -2.820  29.680 138.259  1.00  0.00    -0.508 OA
ATOM     27  H   UNL     1      -2.952  29.842 139.251  1.00  0.00     0.293 HD
ENDBRANCH   8  26
TORSDOF 6
ENDMDL
MODEL 2
REMARK VINA RESULT:    -6.182     12.186     14.254
REMARK INTER + INTRA:          -7.754
REMARK INTER:                  -7.496
REMARK INTRA:                  -0.259
REMARK UNBOUND:                -0.308
REMARK SMILES O=c1c(O)c(-c2ccc(O)c(O)c2)oc2cc(O)cc(O)c12
REMARK SMILES IDX 5 1 3 2 2 3 1 4 22 5 20 6 19 7 17 8 16 9 15 10 14 11 6 12
REMARK SMILES IDX 7 13 8 14 9 15 13 16 11 17 10 18 12 20 4 22 21 24 18 26
REMARK H PARENT 10 19 12 21 4 23 21 25 18 27
REMARK Flexibility Score: inf
ROOT
ATOM      1  C   UNL     1      -6.423  18.383 137.062  1.00  0.00     0.180 A 
ATOM      2  C   UNL     1      -7.559  17.574 137.241  1.00  0.00     0.208 A 
ATOM      3  C   UNL     1      -7.516  16.236 136.822  1.00  0.00     0.238 A 
ATOM      4  O   UNL     1      -8.509  15.498 137.054  1.00  0.00    -0.285 OA
ATOM      5  C   UNL     1      -6.359  15.735 136.176  1.00  0.00     0.111 A 
ATOM      6  C   UNL     1      -6.220  14.408 135.670  1.00  0.00     0.134 A 
ATOM      7  C   UNL     1      -4.989  13.994 135.145  1.00  0.00     0.093 A 
ATOM      8  C   UNL     1      -3.912  14.877 135.050  1.00  0.00     0.123 A 
ATOM      9  C   UNL     1      -4.053  16.190 135.491  1.00  0.00     0.094 A 
ATOM     10  C   UNL     1      -5.256  16.623 136.055  1.00  0.00     0.146 A 
ATOM     11  O   UNL     1      -5.340  17.877 136.483  1.00  0.00    -0.452 OA
ENDROOT
BRANCH   1  12
ATOM     12  C   UNL     1      -6.387  19.799 137.491  1.00  0.00     0.025 A 
ATOM     13  C   UNL     1      -6.283  20.104 138.856  1.00  0.00     0.016 A 
ATOM     14  C   UNL     1      -6.269  21.433 139.285  1.00  0.00     0.051 A 
ATOM     15  C   UNL     1      -6.376  22.477 138.360  1.00  0.00     0.157 A 
ATOM     16  C   UNL     1      -6.516  20.848 136.563  1.00  0.00     0.062 A 
ATOM     17  C   UNL     1      -6.504  22.185 136.992  1.00  0.00     0.158 A 
BRANCH  15  18
ATOM     18  O   UNL     1      -6.356  23.794 138.819  1.00  0.00    -0.504 OA
ATOM     19  H   UNL     1      -6.127  24.026 139.778  1.00  0.00     0.293 HD
ENDBRANCH  15  18
BRANCH  17  20
ATOM     20  O   UNL     1      -6.626  23.219 136.066  1.00  0.00    -0.504 OA
ATOM     21  H   UNL     1      -7.206  23.127 135.240  1.00  0.00     0.293 HD
ENDBRANCH  17  20
ENDBRANCH   1  12
BRANCH   2  22
ATOM     22  O   UNL     1      -8.718  18.108 137.810  1.00  0.00    -0.502 OA
ATOM     23  H   UNL     1      -9.032  19.052 137.621  1.00  0.00     0.293 HD
ENDBRANCH   2  22
BRANCH   6  24
ATOM     24  O   UNL     1      -7.258  13.472 135.633  1.00  0.00    -0.507 OA
ATOM     25  H   UNL     1      -8.134  13.561 136.123  1.00  0.00     0.293 HD
ENDBRANCH   6  24
BRANCH   8  26
ATOM     26  O   UNL     1      -2.696  14.462 134.511  1.00  0.00    -0.508 OA
ATOM     27  H   UNL     1      -1.866  14.367 135.086  1.00  0.00     0.293 HD
ENDBRANCH   8  26
TORSDOF 6
ENDMDL
MODEL 3
REMARK VINA RESULT:    -6.072      8.301     10.165
REMARK INTER + INTRA:          -7.622
REMARK INTER:                  -7.299
REMARK INTRA:                  -0.323
REMARK UNBOUND:                -0.308
REMARK SMILES O=c1c(O)c(-c2ccc(O)c(O)c2)oc2cc(O)cc(O)c12
REMARK SMILES IDX 5 1 3 2 2 3 1 4 22 5 20 6 19 7 17 8 16 9 15 10 14 11 6 12
REMARK SMILES IDX 7 13 8 14 9 15 13 16 11 17 10 18 12 20 4 22 21 24 18 26
REMARK H PARENT 10 19 12 21 4 23 21 25 18 27
REMARK Flexibility Score: inf
ROOT
ATOM      1  C   UNL     1       5.623  20.948 135.879  1.00  0.00     0.180 A 
ATOM      2  C   UNL     1       4.512  21.348 136.642  1.00  0.00     0.208 A 
ATOM      3  C   UNL     1       4.154  22.705 136.664  1.00  0.00     0.238 A 
ATOM      4  O   UNL     1       3.115  23.045 137.287  1.00  0.00    -0.285 OA
ATOM      5  C   UNL     1       4.944  23.655 135.971  1.00  0.00     0.111 A 
ATOM      6  C   UNL     1       4.701  25.061 135.960  1.00  0.00     0.134 A 
ATOM      7  C   UNL     1       5.487  25.892 135.151  1.00  0.00     0.093 A 
ATOM      8  C   UNL     1       6.547  25.376 134.402  1.00  0.00     0.123 A 
ATOM      9  C   UNL     1       6.826  24.013 134.448  1.00  0.00     0.094 A 
ATOM     10  C   UNL     1       6.037  23.152 135.215  1.00  0.00     0.146 A 
ATOM     11  O   UNL     1       6.325  21.857 135.213  1.00  0.00    -0.452 OA
ENDROOT
BRANCH   1  12
ATOM     12  C   UNL     1       6.054  19.534 135.795  1.00  0.00     0.025 A 
ATOM     13  C   UNL     1       5.503  18.703 134.808  1.00  0.00     0.016 A 
ATOM     14  C   UNL     1       5.878  17.360 134.724  1.00  0.00     0.051 A 
ATOM     15  C   UNL     1       6.797  16.823 135.632  1.00  0.00     0.157 A 
ATOM     16  C   UNL     1       6.961  18.989 136.720  1.00  0.00     0.062 A 
ATOM     17  C   UNL     1       7.339  17.639 136.639  1.00  0.00     0.158 A 
BRANCH  15  18
ATOM     18  O   UNL     1       7.154  15.480 135.521  1.00  0.00    -0.504 OA
ATOM     19  H   UNL     1       7.945  15.178 134.964  1.00  0.00     0.293 HD
ENDBRANCH  15  18
BRANCH  17  20
ATOM     20  O   UNL     1       8.243  17.108 137.556  1.00  0.00    -0.504 OA
ATOM     21  H   UNL     1       9.058  16.584 137.257  1.00  0.00     0.293 HD
ENDBRANCH  17  20
ENDBRANCH   1  12
BRANCH   2  22
ATOM     22  O   UNL     1       3.792  20.407 137.381  1.00  0.00    -0.502 OA
ATOM     23  H   UNL     1       3.401  20.614 138.292  1.00  0.00     0.293 HD
ENDBRANCH   2  22
BRANCH   6  24
ATOM     24  O   UNL     1       3.727  25.694 136.739  1.00  0.00    -0.507 OA
ATOM     25  H   UNL     1       3.858  26.004 137.688  1.00  0.00     0.293 HD
ENDBRANCH   6  24
BRANCH   8  26
ATOM     26  O   UNL     1       7.335  26.212 133.614  1.00  0.00    -0.508 OA
ATOM     27  H   UNL     1       8.203  25.888 133.202  1.00  0.00     0.293 HD
ENDBRANCH   8  26
TORSDOF 6
ENDMDL
MODEL 4
REMARK VINA RESULT:    -6.034      9.496     11.377
REMARK INTER + INTRA:          -7.576
REMARK INTER:                  -7.275
REMARK INTRA:                  -0.301
REMARK UNBOUND:                -0.308
REMARK SMILES O=c1c(O)c(-c2ccc(O)c(O)c2)oc2cc(O)cc(O)c12
REMARK SMILES IDX 5 1 3 2 2 3 1 4 22 5 20 6 19 7 17 8 16 9 15 10 14 11 6 12
REMARK SMILES IDX 7 13 8 14 9 15 13 16 11 17 10 18 12 20 4 22 21 24 18 26
REMARK H PARENT 10 19 12 21 4 23 21 25 18 27
REMARK Flexibility Score: inf
ROOT
ATOM      1  C   UNL     1       7.640  21.887 137.333  1.00  0.00     0.180 A 
ATOM      2  C   UNL     1       7.665  21.850 138.738  1.00  0.00     0.208 A 
ATOM      3  C   UNL     1       7.628  20.606 139.387  1.00  0.00     0.238 A 
ATOM      4  O   UNL     1       7.726  20.577 140.641  1.00  0.00    -0.285 OA
ATOM      5  C   UNL     1       7.508  19.417 138.627  1.00  0.00     0.111 A 
ATOM      6  C   UNL     1       7.417  18.104 139.181  1.00  0.00     0.134 A 
ATOM      7  C   UNL     1       7.410  16.994 138.328  1.00  0.00     0.093 A 
ATOM      8  C   UNL     1       7.427  17.150 136.940  1.00  0.00     0.123 A 
ATOM      9  C   UNL     1       7.461  18.428 136.389  1.00  0.00     0.094 A 
ATOM     10  C   UNL     1       7.507  19.555 137.214  1.00  0.00     0.146 A 
ATOM     11  O   UNL     1       7.561  20.754 136.646  1.00  0.00    -0.452 OA
ENDROOT
BRANCH   1  12
ATOM     12  C   UNL     1       7.690  23.159 136.577  1.00  0.00     0.025 A 
ATOM     13  C   UNL     1       6.513  23.900 136.394  1.00  0.00     0.016 A 
ATOM     14  C   UNL     1       6.533  25.092 135.666  1.00  0.00     0.051 A 
ATOM     15  C   UNL     1       7.724  25.553 135.096  1.00  0.00     0.157 A 
ATOM     16  C   UNL     1       8.883  23.613 135.986  1.00  0.00     0.062 A 
ATOM     17  C   UNL     1       8.905  24.809 135.252  1.00  0.00     0.158 A 
BRANCH  15  18
ATOM     18  O   UNL     1       7.713  26.748 134.377  1.00  0.00    -0.504 OA
ATOM     19  H   UNL     1       6.851  27.225 134.139  1.00  0.00     0.293 HD
ENDBRANCH  15  18
BRANCH  17  20
ATOM     20  O   UNL     1      10.093  25.255 134.675  1.00  0.00    -0.504 OA
ATOM     21  H   UNL     1      10.852  24.619 134.464  1.00  0.00     0.293 HD
ENDBRANCH  17  20
ENDBRANCH   1  12
BRANCH   2  22
ATOM     22  O   UNL     1       7.704  23.038 139.472  1.00  0.00    -0.502 OA
ATOM     23  H   UNL     1       7.191  23.161 140.336  1.00  0.00     0.293 HD
ENDBRANCH   2  22
BRANCH   6  24
ATOM     24  O   UNL     1       7.304  17.838 140.549  1.00  0.00    -0.507 OA
ATOM     25  H   UNL     1       6.581  17.276 140.971  1.00  0.00     0.293 HD
ENDBRANCH   6  24
BRANCH   8  26
ATOM     26  O   UNL     1       7.402  16.040 136.098  1.00  0.00    -0.508 OA
ATOM     27  H   UNL     1       6.553  15.754 135.624  1.00  0.00     0.293 HD
ENDBRANCH   8  26
TORSDOF 6
ENDMDL
MODEL 5
REMARK VINA RESULT:    -6.027      9.350     11.273
REMARK INTER + INTRA:          -7.568
REMARK INTER:                  -7.266
REMARK INTRA:                  -0.302
REMARK UNBOUND:                -0.308
REMARK SMILES O=c1c(O)c(-c2ccc(O)c(O)c2)oc2cc(O)cc(O)c12
REMARK SMILES IDX 5 1 3 2 2 3 1 4 22 5 20 6 19 7 17 8 16 9 15 10 14 11 6 12
REMARK SMILES IDX 7 13 8 14 9 15 13 16 11 17 10 18 12 20 4 22 21 24 18 26
REMARK H PARENT 10 19 12 21 4 23 21 25 18 27
REMARK Flexibility Score: inf
ROOT
ATOM      1  C   UNL     1       7.045  20.847 137.895  1.00  0.00     0.180 A 
ATOM      2  C   UNL     1       8.148  21.695 138.096  1.00  0.00     0.208 A 
ATOM      3  C   UNL     1       8.089  23.014 137.620  1.00  0.00     0.238 A 
ATOM      4  O   UNL     1       9.049  23.789 137.869  1.00  0.00    -0.285 OA
ATOM      5  C   UNL     1       6.952  23.454 136.898  1.00  0.00     0.111 A 
ATOM      6  C   UNL     1       6.803  24.755 136.331  1.00  0.00     0.134 A 
ATOM      7  C   UNL     1       5.589  25.112 135.730  1.00  0.00     0.093 A 
ATOM      8  C   UNL     1       4.542  24.194 135.619  1.00  0.00     0.123 A 
ATOM      9  C   UNL     1       4.698  22.905 136.121  1.00  0.00     0.094 A 
ATOM     10  C   UNL     1       5.882  22.530 136.760  1.00  0.00     0.146 A 
ATOM     11  O   UNL     1       5.979  21.298 137.243  1.00  0.00    -0.452 OA
ENDROOT
BRANCH   1  12
ATOM     12  C   UNL     1       7.026  19.449 138.380  1.00  0.00     0.025 A 
ATOM     13  C   UNL     1       6.721  19.189 139.724  1.00  0.00     0.016 A 
ATOM     14  C   UNL     1       6.719  17.879 140.209  1.00  0.00     0.051 A 
ATOM     15  C   UNL     1       7.037  16.811 139.364  1.00  0.00     0.157 A 
ATOM     16  C   UNL     1       7.366  18.377 137.536  1.00  0.00     0.062 A 
ATOM     17  C   UNL     1       7.367  17.060 138.021  1.00  0.00     0.158 A 
BRANCH  15  18
ATOM     18  O   UNL     1       7.024  15.514 139.876  1.00  0.00    -0.504 OA
ATOM     19  H   UNL     1       6.526  14.760 139.417  1.00  0.00     0.293 HD
ENDBRANCH  15  18
BRANCH  17  20
ATOM     20  O   UNL     1       7.699  16.002 137.176  1.00  0.00    -0.504 OA
ATOM     21  H   UNL     1       7.025  15.285 136.932  1.00  0.00     0.293 HD
ENDBRANCH  17  20
ENDBRANCH   1  12
BRANCH   2  22
ATOM     22  O   UNL     1       9.292  21.219 138.742  1.00  0.00    -0.502 OA
ATOM     23  H   UNL     1       9.312  21.019 139.734  1.00  0.00     0.293 HD
ENDBRANCH   2  22
BRANCH   6  24
ATOM     24  O   UNL     1       7.816  25.719 136.306  1.00  0.00    -0.507 OA
ATOM     25  H   UNL     1       8.392  25.932 135.506  1.00  0.00     0.293 HD
ENDBRANCH   6  24
BRANCH   8  26
ATOM     26  O   UNL     1       3.344  24.552 135.005  1.00  0.00    -0.508 OA
ATOM     27  H   UNL     1       2.449  24.373 135.446  1.00  0.00     0.293 HD
ENDBRANCH   8  26
TORSDOF 6
ENDMDL
MODEL 6
REMARK VINA RESULT:    -5.995     11.590     12.729
REMARK INTER + INTRA:          -7.529
REMARK INTER:                  -7.207
REMARK INTRA:                  -0.322
REMARK UNBOUND:                -0.308
REMARK SMILES O=c1c(O)c(-c2ccc(O)c(O)c2)oc2cc(O)cc(O)c12
REMARK SMILES IDX 5 1 3 2 2 3 1 4 22 5 20 6 19 7 17 8 16 9 15 10 14 11 6 12
REMARK SMILES IDX 7 13 8 14 9 15 13 16 11 17 10 18 12 20 4 22 21 24 18 26
REMARK H PARENT 10 19 12 21 4 23 21 25 18 27
REMARK Flexibility Score: inf
ROOT
ATOM      1  C   UNL     1      -6.266  18.497 135.676  1.00  0.00     0.180 A 
ATOM      2  C   UNL     1      -6.043  19.422 134.641  1.00  0.00     0.208 A 
ATOM      3  C   UNL     1      -6.040  20.793 134.942  1.00  0.00     0.238 A 
ATOM      4  O   UNL     1      -5.766  21.611 134.026  1.00  0.00    -0.285 OA
ATOM      5  C   UNL     1      -6.317  21.226 136.262  1.00  0.00     0.111 A 
ATOM      6  C   UNL     1      -6.385  22.592 136.672  1.00  0.00     0.134 A 
ATOM      7  C   UNL     1      -6.562  22.899 138.027  1.00  0.00     0.093 A 
ATOM      8  C   UNL     1      -6.736  21.891 138.977  1.00  0.00     0.123 A 
ATOM      9  C   UNL     1      -6.726  20.556 138.580  1.00  0.00     0.094 A 
ATOM     10  C   UNL     1      -6.514  20.217 137.241  1.00  0.00     0.146 A 
ATOM     11  O   UNL     1      -6.490  18.932 136.910  1.00  0.00    -0.452 OA
ENDROOT
BRANCH   1  12
ATOM     12  C   UNL     1      -6.269  17.035 135.440  1.00  0.00     0.025 A 
ATOM     13  C   UNL     1      -5.072  16.314 135.560  1.00  0.00     0.016 A 
ATOM     14  C   UNL     1      -5.047  14.938 135.321  1.00  0.00     0.051 A 
ATOM     15  C   UNL     1      -6.213  14.265 134.942  1.00  0.00     0.157 A 
ATOM     16  C   UNL     1      -7.436  16.361 135.038  1.00  0.00     0.062 A 
ATOM     17  C   UNL     1      -7.413  14.979 134.795  1.00  0.00     0.158 A 
BRANCH  15  18
ATOM     18  O   UNL     1      -6.158  12.890 134.713  1.00  0.00    -0.504 OA
ATOM     19  H   UNL     1      -6.509  12.218 135.385  1.00  0.00     0.293 HD
ENDBRANCH  15  18
BRANCH  17  20
ATOM     20  O   UNL     1      -8.576  14.317 134.404  1.00  0.00    -0.504 OA
ATOM     21  H   UNL     1      -9.240  14.741 133.766  1.00  0.00     0.293 HD
ENDBRANCH  17  20
ENDBRANCH   1  12
BRANCH   2  22
ATOM     22  O   UNL     1      -5.848  18.978 133.331  1.00  0.00    -0.502 OA
ATOM     23  H   UNL     1      -6.582  19.001 132.634  1.00  0.00     0.293 HD
ENDBRANCH   2  22
BRANCH   6  24
ATOM     24  O   UNL     1      -6.313  23.678 135.793  1.00  0.00    -0.507 OA
ATOM     25  H   UNL     1      -6.178  24.637 136.070  1.00  0.00     0.293 HD
ENDBRANCH   6  24
BRANCH   8  26
ATOM     26  O   UNL     1      -6.928  22.205 140.321  1.00  0.00    -0.508 OA
ATOM     27  H   UNL     1      -6.671  23.112 140.695  1.00  0.00     0.293 HD
ENDBRANCH   8  26
TORSDOF 6
ENDMDL
MODEL 7
REMARK VINA RESULT:    -5.973     12.184     13.386
REMARK INTER + INTRA:          -7.503
REMARK INTER:                  -7.191
REMARK INTRA:                  -0.312
REMARK UNBOUND:                -0.308
REMARK SMILES O=c1c(O)c(-c2ccc(O)c(O)c2)oc2cc(O)cc(O)c12
REMARK SMILES IDX 5 1 3 2 2 3 1 4 22 5 20 6 19 7 17 8 16 9 15 10 14 11 6 12
REMARK SMILES IDX 7 13 8 14 9 15 13 16 11 17 10 18 12 20 4 22 21 24 18 26
REMARK H PARENT 10 19 12 21 4 23 21 25 18 27
REMARK Flexibility Score: inf
ROOT
ATOM      1  C   UNL     1      -6.678  17.957 137.128  1.00  0.00     0.180 A 
ATOM      2  C   UNL     1      -6.802  18.120 138.520  1.00  0.00     0.208 A 
ATOM      3  C   UNL     1      -6.770  19.415 139.059  1.00  0.00     0.238 A 
ATOM      4  O   UNL     1      -6.957  19.558 140.295  1.00  0.00    -0.285 OA
ATOM      5  C   UNL     1      -6.557  20.528 138.210  1.00  0.00     0.111 A 
ATOM      6  C   UNL     1      -6.462  21.882 138.653  1.00  0.00     0.134 A 
ATOM      7  C   UNL     1      -6.357  22.912 137.709  1.00  0.00     0.093 A 
ATOM      8  C   UNL     1      -6.280  22.633 136.343  1.00  0.00     0.123 A 
ATOM      9  C   UNL     1      -6.317  21.312 135.904  1.00  0.00     0.094 A 
ATOM     10  C   UNL     1      -6.459  20.265 136.817  1.00  0.00     0.146 A 
ATOM     11  O   UNL     1      -6.512  19.022 136.354  1.00  0.00    -0.452 OA
ENDROOT
BRANCH   1  12
ATOM     12  C   UNL     1      -6.716  16.625 136.484  1.00  0.00     0.025 A 
ATOM     13  C   UNL     1      -5.543  15.859 136.414  1.00  0.00     0.016 A 
ATOM     14  C   UNL     1      -5.551  14.608 135.791  1.00  0.00     0.051 A 
ATOM     15  C   UNL     1      -6.725  14.111 135.216  1.00  0.00     0.157 A 
ATOM     16  C   UNL     1      -7.891  16.133 135.887  1.00  0.00     0.062 A 
ATOM     17  C   UNL     1      -7.901  14.878 135.260  1.00  0.00     0.158 A 
BRANCH  15  18
ATOM     18  O   UNL     1      -6.702  12.858 134.604  1.00  0.00    -0.504 OA
ATOM     19  H   UNL     1      -7.159  12.685 133.716  1.00  0.00     0.293 HD
ENDBRANCH  15  18
BRANCH  17  20
ATOM     20  O   UNL     1      -9.071  14.396 134.676  1.00  0.00    -0.504 OA
ATOM     21  H   UNL     1      -9.857  15.004 134.481  1.00  0.00     0.293 HD
ENDBRANCH  17  20
ENDBRANCH   1  12
BRANCH   2  22
ATOM     22  O   UNL     1      -6.933  17.003 139.349  1.00  0.00    -0.502 OA
ATOM     23  H   UNL     1      -6.406  16.151 139.201  1.00  0.00     0.293 HD
ENDBRANCH   2  22
BRANCH   6  24
ATOM     24  O   UNL     1      -6.439  22.266 139.997  1.00  0.00    -0.507 OA
ATOM     25  H   UNL     1      -7.009  21.862 140.723  1.00  0.00     0.293 HD
ENDBRANCH   6  24
BRANCH   8  26
ATOM     26  O   UNL     1      -6.158  23.662 135.412  1.00  0.00    -0.508 OA
ATOM     27  H   UNL     1      -5.380  23.700 134.763  1.00  0.00     0.293 HD
ENDBRANCH   8  26
TORSDOF 6
ENDMDL
MODEL 8
REMARK VINA RESULT:    -5.901     12.312     14.030
REMARK INTER + INTRA:          -7.416
REMARK INTER:                  -7.094
REMARK INTRA:                  -0.321
REMARK UNBOUND:                -0.308
REMARK SMILES O=c1c(O)c(-c2ccc(O)c(O)c2)oc2cc(O)cc(O)c12
REMARK SMILES IDX 5 1 3 2 2 3 1 4 22 5 20 6 19 7 17 8 16 9 15 10 14 11 6 12
REMARK SMILES IDX 7 13 8 14 9 15 13 16 11 17 10 18 12 20 4 22 21 24 18 26
REMARK H PARENT 10 19 12 21 4 23 21 25 18 27
REMARK Flexibility Score: inf
ROOT
ATOM      1  C   UNL     1      -5.896  18.036 134.656  1.00  0.00     0.180 A 
ATOM      2  C   UNL     1      -4.812  17.310 135.180  1.00  0.00     0.208 A 
ATOM      3  C   UNL     1      -4.788  15.915 135.025  1.00  0.00     0.238 A 
ATOM      4  O   UNL     1      -3.780  15.280 135.430  1.00  0.00    -0.285 OA
ATOM      5  C   UNL     1      -5.874  15.256 134.398  1.00  0.00     0.111 A 
ATOM      6  C   UNL     1      -5.977  13.843 134.226  1.00  0.00     0.134 A 
ATOM      7  C   UNL     1      -7.048  13.312 133.496  1.00  0.00     0.093 A 
ATOM      8  C   UNL     1      -8.053  14.137 132.986  1.00  0.00     0.123 A 
ATOM      9  C   UNL     1      -7.990  15.513 133.196  1.00  0.00     0.094 A 
ATOM     10  C   UNL     1      -6.915  16.076 133.887  1.00  0.00     0.146 A 
ATOM     11  O   UNL     1      -6.884  17.394 134.044  1.00  0.00    -0.452 OA
ENDROOT
BRANCH   1  12
ATOM     12  C   UNL     1      -5.985  19.510 134.768  1.00  0.00     0.025 A 
ATOM     13  C   UNL     1      -5.363  20.314 133.802  1.00  0.00     0.016 A 
ATOM     14  C   UNL     1      -5.416  21.707 133.899  1.00  0.00     0.051 A 
ATOM     15  C   UNL     1      -6.077  22.316 134.970  1.00  0.00     0.157 A 
ATOM     16  C   UNL     1      -6.631  20.124 135.856  1.00  0.00     0.062 A 
ATOM     17  C   UNL     1      -6.684  21.522 135.957  1.00  0.00     0.158 A 
BRANCH  15  18
ATOM     18  O   UNL     1      -6.115  23.709 135.039  1.00  0.00    -0.504 OA
ATOM     19  H   UNL     1      -5.381  24.287 134.648  1.00  0.00     0.293 HD
ENDBRANCH  15  18
BRANCH  17  20
ATOM     20  O   UNL     1      -7.332  22.123 137.035  1.00  0.00    -0.504 OA
ATOM     21  H   UNL     1      -7.000  22.009 137.985  1.00  0.00     0.293 HD
ENDBRANCH  17  20
ENDBRANCH   1  12
BRANCH   2  22
ATOM     22  O   UNL     1      -3.788  17.971 135.864  1.00  0.00    -0.502 OA
ATOM     23  H   UNL     1      -3.686  18.978 135.849  1.00  0.00     0.293 HD
ENDBRANCH   2  22
BRANCH   6  24
ATOM     24  O   UNL     1      -5.078  12.920 134.770  1.00  0.00    -0.507 OA
ATOM     25  H   UNL     1      -4.914  12.785 135.755  1.00  0.00     0.293 HD
ENDBRANCH   6  24
BRANCH   8  26
ATOM     26  O   UNL     1      -9.124  13.599 132.276  1.00  0.00    -0.508 OA
ATOM     27  H   UNL     1      -9.076  12.673 131.868  1.00  0.00     0.293 HD
ENDBRANCH   8  26
TORSDOF 6
ENDMDL
MODEL 9
REMARK VINA RESULT:    -5.807     12.058     13.749
REMARK INTER + INTRA:          -7.302
REMARK INTER:                  -6.971
REMARK INTRA:                  -0.331
REMARK UNBOUND:                -0.308
REMARK SMILES O=c1c(O)c(-c2ccc(O)c(O)c2)oc2cc(O)cc(O)c12
REMARK SMILES IDX 5 1 3 2 2 3 1 4 22 5 20 6 19 7 17 8 16 9 15 10 14 11 6 12
REMARK SMILES IDX 7 13 8 14 9 15 13 16 11 17 10 18 12 20 4 22 21 24 18 26
REMARK H PARENT 10 19 12 21 4 23 21 25 18 27
REMARK Flexibility Score: inf
ROOT
ATOM      1  C   UNL     1      -5.685  18.583 136.922  1.00  0.00     0.180 A 
ATOM      2  C   UNL     1      -4.437  18.092 136.499  1.00  0.00     0.208 A 
ATOM      3  C   UNL     1      -4.347  16.774 136.028  1.00  0.00     0.238 A 
ATOM      4  O   UNL     1      -3.244  16.366 135.581  1.00  0.00    -0.285 OA
ATOM      5  C   UNL     1      -5.493  15.941 136.038  1.00  0.00     0.111 A 
ATOM      6  C   UNL     1      -5.509  14.575 135.625  1.00  0.00     0.134 A 
ATOM      7  C   UNL     1      -6.725  13.881 135.579  1.00  0.00     0.093 A 
ATOM      8  C   UNL     1      -7.915  14.484 135.990  1.00  0.00     0.123 A 
ATOM      9  C   UNL     1      -7.902  15.800 136.446  1.00  0.00     0.094 A 
ATOM     10  C   UNL     1      -6.712  16.531 136.469  1.00  0.00     0.146 A 
ATOM     11  O   UNL     1      -6.749  17.789 136.890  1.00  0.00    -0.452 OA
ENDROOT
BRANCH   1  12
ATOM     12  C   UNL     1      -5.861  19.966 137.419  1.00  0.00     0.025 A 
ATOM     13  C   UNL     1      -5.772  20.222 138.795  1.00  0.00     0.016 A 
ATOM     14  C   UNL     1      -5.957  21.516 139.288  1.00  0.00     0.051 A 
ATOM     15  C   UNL     1      -6.249  22.570 138.417  1.00  0.00     0.157 A 
ATOM     16  C   UNL     1      -6.176  21.023 136.546  1.00  0.00     0.062 A 
ATOM     17  C   UNL     1      -6.363  22.323 137.038  1.00  0.00     0.158 A 
BRANCH  15  18
ATOM     18  O   UNL     1      -6.425  23.852 138.937  1.00  0.00    -0.504 OA
ATOM     19  H   UNL     1      -6.638  24.010 139.915  1.00  0.00     0.293 HD
ENDBRANCH  15  18
BRANCH  17  20
ATOM     20  O   UNL     1      -6.668  23.366 136.165  1.00  0.00    -0.504 OA
ATOM     21  H   UNL     1      -6.999  24.262 136.503  1.00  0.00     0.293 HD
ENDBRANCH  17  20
ENDBRANCH   1  12
BRANCH   2  22
ATOM     22  O   UNL     1      -3.302  18.905 136.569  1.00  0.00    -0.502 OA
ATOM     23  H   UNL     1      -2.944  19.265 137.446  1.00  0.00     0.293 HD
ENDBRANCH   2  22
BRANCH   6  24
ATOM     24  O   UNL     1      -4.365  13.848 135.279  1.00  0.00    -0.507 OA
ATOM     25  H   UNL     1      -3.675  13.512 135.932  1.00  0.00     0.293 HD
ENDBRANCH   6  24
BRANCH   8  26
ATOM     26  O   UNL     1      -9.118  13.782 135.957  1.00  0.00    -0.508 OA
ATOM     27  H   UNL     1      -9.944  14.123 136.435  1.00  0.00     0.293 HD
ENDBRANCH   8  26
TORSDOF 6
ENDMDL
