MODEL 1
REMARK VINA RESULT:    -7.525      0.000      0.000
REMARK INTER + INTRA:          -9.061
REMARK INTER:                  -8.844
REMARK INTRA:                  -0.217
REMARK UNBOUND:                -0.217
REMARK SMILES C=C(C)[C@@H]1CC[C@]2(CO)CC[C@@]3(C)[C@@H](CC[C@H]4[C@@]5(C)CC[C@H](O)C(C)(C)[C@H]5CC[C@@]43C)[C@H]12
REMARK SMILES IDX 4 1 5 2 6 3 7 4 32 5 14 6 15 7 16 8 17 9 18 10 20 11 21 12
REMARK SMILES IDX 22 13 24 14 27 15 28 16 29 17 30 18 12 19 11 20 10 21 13 22
REMARK SMILES IDX 31 23 25 24 26 25 19 26 2 27 3 28 1 29 8 30 9 31 23 33
REMARK H PARENT 9 32 23 34
REMARK Flexibility Score: inf
ROOT
ATOM      1  C   UNL     1       2.962   4.983 -25.154  1.00  0.00     0.018 C 
ATOM      2  C   UNL     1       3.116   5.831 -26.415  1.00  0.00     0.009 C 
ATOM      3  C   UNL     1       1.892   5.547 -27.259  1.00  0.00     0.010 C 
ATOM      4  C   UNL     1       1.501   4.075 -26.978  1.00  0.00    -0.003 C 
ATOM      5  C   UNL     1       2.091   3.742 -25.560  1.00  0.00     0.008 C 
ATOM      6  C   UNL     1       1.018   3.280 -24.508  1.00  0.00    -0.000 C 
ATOM      7  C   UNL     1       1.645   2.822 -23.174  1.00  0.00     0.005 C 
ATOM      8  C   UNL     1       0.575   2.643 -22.086  1.00  0.00     0.005 C 
ATOM      9  C   UNL     1      -0.556   1.652 -22.510  1.00  0.00     0.002 C 
ATOM     10  C   UNL     1      -1.559   1.227 -21.333  1.00  0.00    -0.026 C 
ATOM     11  C   UNL     1      -2.224   2.464 -20.663  1.00  0.00     0.010 C 
ATOM     12  C   UNL     1      -3.251   2.093 -19.591  1.00  0.00     0.033 C 
ATOM     13  C   UNL     1      -4.382   1.230 -20.171  1.00  0.00     0.120 C 
ATOM     14  C   UNL     1      -3.871  -0.092 -20.825  1.00  0.00    -0.006 C 
ATOM     15  C   UNL     1      -2.671   0.207 -21.855  1.00  0.00     0.003 C 
ATOM     16  C   UNL     1      -3.225   0.619 -23.248  1.00  0.00     0.005 C 
ATOM     17  C   UNL     1      -2.155   0.907 -24.304  1.00  0.00     0.008 C 
ATOM     18  C   UNL     1      -1.178   2.048 -23.919  1.00  0.00    -0.024 C 
ATOM     19  C   UNL     1       0.001   2.187 -25.028  1.00  0.00    -0.024 C 
ATOM     20  C   UNL     1      -0.562   2.601 -26.454  1.00  0.00     0.008 C 
ATOM     21  C   UNL     1      -0.044   3.939 -27.007  1.00  0.00     0.010 C 
ATOM     22  C   UNL     1       0.753   0.819 -25.255  1.00  0.00     0.012 C 
ATOM     23  C   UNL     1      -1.971   3.407 -23.832  1.00  0.00     0.012 C 
ATOM     24  C   UNL     1      -5.093  -0.744 -21.545  1.00  0.00     0.014 C 
ATOM     25  C   UNL     1      -3.452  -1.124 -19.729  1.00  0.00     0.014 C 
ATOM     26  C   UNL     1      -0.679   0.508 -20.254  1.00  0.00     0.012 C 
ENDROOT
BRANCH   1  27
ATOM     27  C   UNL     1       2.487   5.862 -23.985  1.00  0.00    -0.077 C 
ATOM     28  C   UNL     1       2.990   5.682 -22.571  1.00  0.00     0.039 C 
ATOM     29  C   UNL     1       1.499   6.750 -24.178  1.00  0.00     0.008 C 
ENDBRANCH   1  27
BRANCH   4  30
ATOM     30  C   UNL     1       2.160   3.226 -28.115  1.00  0.00     0.163 C 
BRANCH  30  31
ATOM     31  O   UNL     1       3.432   2.756 -27.770  1.00  0.00    -0.396 OA
ATOM     32  H   UNL     1       3.441   1.783 -27.970  1.00  0.00     0.210 HD
ENDBRANCH  30  31
ENDBRANCH   4  30
BRANCH  13  33
ATOM     33  O   UNL     1      -5.308   0.938 -19.154  1.00  0.00    -0.393 OA
ATOM     34  H   UNL     1      -5.181   1.616 -18.440  1.00  0.00     0.210 HD
ENDBRANCH  13  33
TORSDOF 4
ENDMDL
MODEL 2
REMARK VINA RESULT:    -7.211      2.547      5.130
REMARK INTER + INTRA:          -8.692
REMARK INTER:                  -8.171
REMARK INTRA:                  -0.521
REMARK UNBOUND:                -0.217
REMARK SMILES C=C(C)[C@@H]1CC[C@]2(CO)CC[C@@]3(C)[C@@H](CC[C@H]4[C@@]5(C)CC[C@H](O)C(C)(C)[C@H]5CC[C@@]43C)[C@H]12
REMARK SMILES IDX 4 1 5 2 6 3 7 4 32 5 14 6 15 7 16 8 17 9 18 10 20 11 21 12
REMARK SMILES IDX 22 13 24 14 27 15 28 16 29 17 30 18 12 19 11 20 10 21 13 22
REMARK SMILES IDX 31 23 25 24 26 25 19 26 2 27 3 28 1 29 8 30 9 31 23 33
REMARK H PARENT 9 32 23 34
REMARK Flexibility Score: inf
ROOT
ATOM      1  C   UNL     1      -2.587   1.315 -28.114  1.00  0.00     0.018 C 
ATOM      2  C   UNL     1      -2.085   1.449 -29.550  1.00  0.00     0.009 C 
ATOM      3  C   UNL     1      -0.733   2.124 -29.456  1.00  0.00     0.010 C 
ATOM      4  C   UNL     1      -0.803   3.073 -28.235  1.00  0.00    -0.003 C 
ATOM      5  C   UNL     1      -1.922   2.484 -27.303  1.00  0.00     0.008 C 
ATOM      6  C   UNL     1      -1.431   2.123 -25.853  1.00  0.00    -0.000 C 
ATOM      7  C   UNL     1      -2.581   1.686 -24.921  1.00  0.00     0.005 C 
ATOM      8  C   UNL     1      -2.043   1.083 -23.615  1.00  0.00     0.005 C 
ATOM      9  C   UNL     1      -1.081   2.052 -22.854  1.00  0.00     0.002 C 
ATOM     10  C   UNL     1      -0.691   1.590 -21.370  1.00  0.00    -0.026 C 
ATOM     11  C   UNL     1      -0.059   0.167 -21.353  1.00  0.00     0.010 C 
ATOM     12  C   UNL     1       0.404  -0.274 -19.963  1.00  0.00     0.033 C 
ATOM     13  C   UNL     1       1.450   0.693 -19.386  1.00  0.00     0.120 C 
ATOM     14  C   UNL     1       0.934   2.162 -19.277  1.00  0.00    -0.006 C 
ATOM     15  C   UNL     1       0.283   2.643 -20.669  1.00  0.00     0.003 C 
ATOM     16  C   UNL     1       1.378   3.156 -21.645  1.00  0.00     0.005 C 
ATOM     17  C   UNL     1       0.853   3.656 -22.993  1.00  0.00     0.008 C 
ATOM     18  C   UNL     1       0.078   2.584 -23.804  1.00  0.00    -0.024 C 
ATOM     19  C   UNL     1      -0.560   3.239 -25.148  1.00  0.00    -0.024 C 
ATOM     20  C   UNL     1       0.556   3.771 -26.144  1.00  0.00     0.008 C 
ATOM     21  C   UNL     1       0.579   3.104 -27.529  1.00  0.00     0.010 C 
ATOM     22  C   UNL     1      -1.459   4.491 -24.816  1.00  0.00     0.012 C 
ATOM     23  C   UNL     1       1.063   1.423 -24.210  1.00  0.00     0.012 C 
ATOM     24  C   UNL     1       2.159   3.046 -18.883  1.00  0.00     0.014 C 
ATOM     25  C   UNL     1      -0.068   2.308 -18.086  1.00  0.00     0.014 C 
ATOM     26  C   UNL     1      -2.035   1.530 -20.567  1.00  0.00     0.012 C 
ENDROOT
BRANCH   1  27
ATOM     27  C   UNL     1      -2.387  -0.128 -27.620  1.00  0.00    -0.077 C 
ATOM     28  C   UNL     1      -1.027  -0.780 -27.533  1.00  0.00     0.039 C 
ATOM     29  C   UNL     1      -3.456  -0.899 -27.368  1.00  0.00     0.008 C 
ENDBRANCH   1  27
BRANCH   4  30
ATOM     30  C   UNL     1      -1.176   4.483 -28.801  1.00  0.00     0.163 C 
BRANCH  30  31
ATOM     31  O   UNL     1      -0.054   5.284 -29.036  1.00  0.00    -0.396 OA
ATOM     32  H   UNL     1      -0.341   6.005 -29.657  1.00  0.00     0.210 HD
ENDBRANCH  30  31
ENDBRANCH   4  30
BRANCH  13  33
ATOM     33  O   UNL     1       1.858   0.231 -18.122  1.00  0.00    -0.393 OA
ATOM     34  H   UNL     1       1.107  -0.302 -17.749  1.00  0.00     0.210 HD
ENDBRANCH  13  33
TORSDOF 4
ENDMDL
MODEL 3
REMARK VINA RESULT:    -7.152      1.559      2.151
REMARK INTER + INTRA:          -8.622
REMARK INTER:                  -7.925
REMARK INTRA:                  -0.697
REMARK UNBOUND:                -0.217
REMARK SMILES C=C(C)[C@@H]1CC[C@]2(CO)CC[C@@]3(C)[C@@H](CC[C@H]4[C@@]5(C)CC[C@H](O)C(C)(C)[C@H]5CC[C@@]43C)[C@H]12
REMARK SMILES IDX 4 1 5 2 6 3 7 4 32 5 14 6 15 7 16 8 17 9 18 10 20 11 21 12
REMARK SMILES IDX 22 13 24 14 27 15 28 16 29 17 30 18 12 19 11 20 10 21 13 22
REMARK SMILES IDX 31 23 25 24 26 25 19 26 2 27 3 28 1 29 8 30 9 31 23 33
REMARK H PARENT 9 32 23 34
REMARK Flexibility Score: inf
ROOT
ATOM      1  C   UNL     1       1.778   3.461 -27.297  1.00  0.00     0.018 C 
ATOM      2  C   UNL     1       1.727   4.428 -28.477  1.00  0.00     0.009 C 
ATOM      3  C   UNL     1       0.261   4.724 -28.707  1.00  0.00     0.010 C 
ATOM      4  C   UNL     1      -0.511   3.439 -28.320  1.00  0.00    -0.003 C 
ATOM      5  C   UNL     1       0.420   2.674 -27.310  1.00  0.00     0.008 C 
ATOM      6  C   UNL     1      -0.235   2.405 -25.906  1.00  0.00    -0.000 C 
ATOM      7  C   UNL     1       0.647   1.528 -24.992  1.00  0.00     0.005 C 
ATOM      8  C   UNL     1       0.115   1.515 -23.550  1.00  0.00     0.005 C 
ATOM      9  C   UNL     1      -1.373   1.049 -23.460  1.00  0.00     0.002 C 
ATOM     10  C   UNL     1      -1.906   0.768 -21.974  1.00  0.00    -0.026 C 
ATOM     11  C   UNL     1      -1.729   2.009 -21.051  1.00  0.00     0.010 C 
ATOM     12  C   UNL     1      -2.303   1.807 -19.647  1.00  0.00     0.033 C 
ATOM     13  C   UNL     1      -3.805   1.488 -19.695  1.00  0.00     0.120 C 
ATOM     14  C   UNL     1      -4.136   0.217 -20.538  1.00  0.00    -0.006 C 
ATOM     15  C   UNL     1      -3.428   0.288 -21.982  1.00  0.00     0.003 C 
ATOM     16  C   UNL     1      -4.289   1.110 -22.981  1.00  0.00     0.005 C 
ATOM     17  C   UNL     1      -3.705   1.218 -24.392  1.00  0.00     0.008 C 
ATOM     18  C   UNL     1      -2.303   1.881 -24.446  1.00  0.00    -0.024 C 
ATOM     19  C   UNL     1      -1.705   1.826 -25.955  1.00  0.00    -0.024 C 
ATOM     20  C   UNL     1      -2.585   2.658 -26.981  1.00  0.00     0.008 C 
ATOM     21  C   UNL     1      -1.866   3.828 -27.673  1.00  0.00     0.010 C 
ATOM     22  C   UNL     1      -1.682   0.353 -26.520  1.00  0.00     0.012 C 
ATOM     23  C   UNL     1      -2.419   3.385 -23.989  1.00  0.00     0.012 C 
ATOM     24  C   UNL     1      -5.691   0.149 -20.666  1.00  0.00     0.014 C 
ATOM     25  C   UNL     1      -3.741  -1.080 -19.760  1.00  0.00     0.014 C 
ATOM     26  C   UNL     1      -1.012  -0.387 -21.405  1.00  0.00     0.012 C 
ENDROOT
BRANCH   1  27
ATOM     27  C   UNL     1       2.177   4.215 -26.017  1.00  0.00    -0.077 C 
ATOM     28  C   UNL     1       1.357   5.348 -25.447  1.00  0.00     0.039 C 
ATOM     29  C   UNL     1       3.359   3.957 -25.434  1.00  0.00     0.008 C 
ENDBRANCH   1  27
BRANCH   4  30
ATOM     30  C   UNL     1      -0.731   2.646 -29.650  1.00  0.00     0.163 C 
BRANCH  30  31
ATOM     31  O   UNL     1      -0.392   1.294 -29.535  1.00  0.00    -0.396 OA
ATOM     32  H   UNL     1       0.440   1.251 -28.994  1.00  0.00     0.210 HD
ENDBRANCH  30  31
ENDBRANCH   4  30
BRANCH  13  33
ATOM     33  O   UNL     1      -4.287   1.335 -18.383  1.00  0.00    -0.393 OA
ATOM     34  H   UNL     1      -3.495   1.253 -17.788  1.00  0.00     0.210 HD
ENDBRANCH  13  33
TORSDOF 4
ENDMDL
MODEL 4
REMARK VINA RESULT:    -6.906      1.683      3.657
REMARK INTER + INTRA:          -8.334
REMARK INTER:                  -7.897
REMARK INTRA:                  -0.437
REMARK UNBOUND:                -0.217
REMARK SMILES C=C(C)[C@@H]1CC[C@]2(CO)CC[C@@]3(C)[C@@H](CC[C@H]4[C@@]5(C)CC[C@H](O)C(C)(C)[C@H]5CC[C@@]43C)[C@H]12
REMARK SMILES IDX 4 1 5 2 6 3 7 4 32 5 14 6 15 7 16 8 17 9 18 10 20 11 21 12
REMARK SMILES IDX 22 13 24 14 27 15 28 16 29 17 30 18 12 19 11 20 10 21 13 22
REMARK SMILES IDX 31 23 25 24 26 25 19 26 2 27 3 28 1 29 8 30 9 31 23 33
REMARK H PARENT 9 32 23 34
REMARK Flexibility Score: inf
ROOT
ATOM      1  C   UNL     1       1.320   5.392 -28.303  1.00  0.00     0.018 C 
ATOM      2  C   UNL     1       2.651   5.329 -29.049  1.00  0.00     0.009 C 
ATOM      3  C   UNL     1       3.550   4.436 -28.220  1.00  0.00     0.010 C 
ATOM      4  C   UNL     1       3.139   4.653 -26.743  1.00  0.00    -0.003 C 
ATOM      5  C   UNL     1       1.652   5.160 -26.786  1.00  0.00     0.008 C 
ATOM      6  C   UNL     1       0.640   4.257 -25.991  1.00  0.00    -0.000 C 
ATOM      7  C   UNL     1      -0.781   4.858 -25.931  1.00  0.00     0.005 C 
ATOM      8  C   UNL     1      -1.797   3.837 -25.396  1.00  0.00     0.005 C 
ATOM      9  C   UNL     1      -1.400   3.269 -23.995  1.00  0.00     0.002 C 
ATOM     10  C   UNL     1      -2.537   2.400 -23.271  1.00  0.00    -0.026 C 
ATOM     11  C   UNL     1      -3.014   1.214 -24.159  1.00  0.00     0.010 C 
ATOM     12  C   UNL     1      -4.039   0.313 -23.467  1.00  0.00     0.033 C 
ATOM     13  C   UNL     1      -3.473  -0.290 -22.172  1.00  0.00     0.120 C 
ATOM     14  C   UNL     1      -3.010   0.789 -21.144  1.00  0.00    -0.006 C 
ATOM     15  C   UNL     1      -2.047   1.872 -21.846  1.00  0.00     0.003 C 
ATOM     16  C   UNL     1      -0.580   1.362 -21.892  1.00  0.00     0.005 C 
ATOM     17  C   UNL     1       0.418   2.335 -22.527  1.00  0.00     0.008 C 
ATOM     18  C   UNL     1       0.087   2.706 -23.996  1.00  0.00    -0.024 C 
ATOM     19  C   UNL     1       1.112   3.844 -24.539  1.00  0.00    -0.024 C 
ATOM     20  C   UNL     1       2.614   3.330 -24.581  1.00  0.00     0.008 C 
ATOM     21  C   UNL     1       3.270   3.314 -25.971  1.00  0.00     0.010 C 
ATOM     22  C   UNL     1       1.128   5.111 -23.600  1.00  0.00     0.012 C 
ATOM     23  C   UNL     1       0.212   1.421 -24.901  1.00  0.00     0.012 C 
ATOM     24  C   UNL     1      -2.275   0.034 -19.992  1.00  0.00     0.014 C 
ATOM     25  C   UNL     1      -4.242   1.465 -20.460  1.00  0.00     0.014 C 
ATOM     26  C   UNL     1      -3.753   3.366 -23.064  1.00  0.00     0.012 C 
ENDROOT
BRANCH   1  27
ATOM     27  C   UNL     1       0.295   4.468 -28.981  1.00  0.00    -0.077 C 
ATOM     28  C   UNL     1       0.223   2.984 -28.704  1.00  0.00     0.039 C 
ATOM     29  C   UNL     1      -0.497   4.951 -29.951  1.00  0.00     0.008 C 
ENDBRANCH   1  27
BRANCH   4  30
ATOM     30  C   UNL     1       4.121   5.729 -26.173  1.00  0.00     0.163 C 
BRANCH  30  31
ATOM     31  O   UNL     1       3.470   6.906 -25.790  1.00  0.00    -0.396 OA
ATOM     32  H   UNL     1       3.087   6.742 -24.888  1.00  0.00     0.210 HD
ENDBRANCH  30  31
ENDBRANCH   4  30
BRANCH  13  33
ATOM     33  O   UNL     1      -4.442  -1.125 -21.589  1.00  0.00    -0.393 OA
ATOM     34  H   UNL     1      -5.245  -1.092 -22.172  1.00  0.00     0.210 HD
ENDBRANCH  13  33
TORSDOF 4
ENDMDL
MODEL 5
REMARK VINA RESULT:    -6.550      2.134      3.182
REMARK INTER + INTRA:          -7.915
REMARK INTER:                  -7.336
REMARK INTRA:                  -0.579
REMARK UNBOUND:                -0.217
REMARK SMILES C=C(C)[C@@H]1CC[C@]2(CO)CC[C@@]3(C)[C@@H](CC[C@H]4[C@@]5(C)CC[C@H](O)C(C)(C)[C@H]5CC[C@@]43C)[C@H]12
REMARK SMILES IDX 4 1 5 2 6 3 7 4 32 5 14 6 15 7 16 8 17 9 18 10 20 11 21 12
REMARK SMILES IDX 22 13 24 14 27 15 28 16 29 17 30 18 12 19 11 20 10 21 13 22
REMARK SMILES IDX 31 23 25 24 26 25 19 26 2 27 3 28 1 29 8 30 9 31 23 33
REMARK H PARENT 9 32 23 34
REMARK Flexibility Score: inf
ROOT
ATOM      1  C   UNL     1       1.904   4.328 -28.721  1.00  0.00     0.018 C 
ATOM      2  C   UNL     1       1.310   5.184 -29.838  1.00  0.00     0.009 C 
ATOM      3  C   UNL     1      -0.172   5.279 -29.544  1.00  0.00     0.010 C 
ATOM      4  C   UNL     1      -0.569   3.944 -28.868  1.00  0.00    -0.003 C 
ATOM      5  C   UNL     1       0.752   3.382 -28.229  1.00  0.00     0.008 C 
ATOM      6  C   UNL     1       0.669   3.149 -26.676  1.00  0.00    -0.000 C 
ATOM      7  C   UNL     1       1.929   2.463 -26.104  1.00  0.00     0.005 C 
ATOM      8  C   UNL     1       1.936   2.501 -24.568  1.00  0.00     0.005 C 
ATOM      9  C   UNL     1       0.653   1.865 -23.943  1.00  0.00     0.002 C 
ATOM     10  C   UNL     1       0.714   1.642 -22.356  1.00  0.00    -0.026 C 
ATOM     11  C   UNL     1       1.019   2.964 -21.596  1.00  0.00     0.010 C 
ATOM     12  C   UNL     1       1.001   2.807 -20.074  1.00  0.00     0.033 C 
ATOM     13  C   UNL     1      -0.363   2.304 -19.577  1.00  0.00     0.120 C 
ATOM     14  C   UNL     1      -0.779   0.938 -20.207  1.00  0.00    -0.006 C 
ATOM     15  C   UNL     1      -0.632   0.979 -21.810  1.00  0.00     0.003 C 
ATOM     16  C   UNL     1      -1.893   1.606 -22.466  1.00  0.00     0.005 C 
ATOM     17  C   UNL     1      -1.855   1.671 -23.996  1.00  0.00     0.008 C 
ATOM     18  C   UNL     1      -0.669   2.495 -24.562  1.00  0.00    -0.024 C 
ATOM     19  C   UNL     1      -0.628   2.392 -26.183  1.00  0.00    -0.024 C 
ATOM     20  C   UNL     1      -1.918   3.025 -26.858  1.00  0.00     0.008 C 
ATOM     21  C   UNL     1      -1.658   4.215 -27.796  1.00  0.00     0.010 C 
ATOM     22  C   UNL     1      -0.591   0.893 -26.672  1.00  0.00     0.012 C 
ATOM     23  C   UNL     1      -0.833   4.005 -24.142  1.00  0.00     0.012 C 
ATOM     24  C   UNL     1      -2.256   0.670 -19.775  1.00  0.00     0.014 C 
ATOM     25  C   UNL     1       0.042  -0.233 -19.578  1.00  0.00     0.014 C 
ATOM     26  C   UNL     1       1.904   0.654 -22.103  1.00  0.00     0.012 C 
ENDROOT
BRANCH   1  27
ATOM     27  C   UNL     1       2.609   5.226 -27.690  1.00  0.00    -0.077 C 
ATOM     28  C   UNL     1       1.858   6.164 -26.775  1.00  0.00     0.039 C 
ATOM     29  C   UNL     1       3.950   5.288 -27.668  1.00  0.00     0.008 C 
ENDBRANCH   1  27
BRANCH   4  30
ATOM     30  C   UNL     1      -1.119   3.025 -30.008  1.00  0.00     0.163 C 
BRANCH  30  31
ATOM     31  O   UNL     1      -0.740   1.688 -29.855  1.00  0.00    -0.396 OA
ATOM     32  H   UNL     1      -1.469   1.137 -30.244  1.00  0.00     0.210 HD
ENDBRANCH  30  31
ENDBRANCH   4  30
BRANCH  13  33
ATOM     33  O   UNL     1      -0.334   2.199 -18.176  1.00  0.00    -0.393 OA
ATOM     34  H   UNL     1      -0.674   1.295 -17.943  1.00  0.00     0.210 HD
ENDBRANCH  13  33
TORSDOF 4
ENDMDL
MODEL 6
REMARK VINA RESULT:    -6.047      1.296      7.752
REMARK INTER + INTRA:          -7.324
REMARK INTER:                  -6.725
REMARK INTRA:                  -0.599
REMARK UNBOUND:                -0.217
REMARK SMILES C=C(C)[C@@H]1CC[C@]2(CO)CC[C@@]3(C)[C@@H](CC[C@H]4[C@@]5(C)CC[C@H](O)C(C)(C)[C@H]5CC[C@@]43C)[C@H]12
REMARK SMILES IDX 4 1 5 2 6 3 7 4 32 5 14 6 15 7 16 8 17 9 18 10 20 11 21 12
REMARK SMILES IDX 22 13 24 14 27 15 28 16 29 17 30 18 12 19 11 20 10 21 13 22
REMARK SMILES IDX 31 23 25 24 26 25 19 26 2 27 3 28 1 29 8 30 9 31 23 33
REMARK H PARENT 9 32 23 34
REMARK Flexibility Score: inf
ROOT
ATOM      1  C   UNL     1      -1.603   0.523 -20.291  1.00  0.00     0.018 C 
ATOM      2  C   UNL     1      -2.437  -0.730 -20.036  1.00  0.00     0.009 C 
ATOM      3  C   UNL     1      -3.015  -1.125 -21.378  1.00  0.00     0.010 C 
ATOM      4  C   UNL     1      -3.240   0.193 -22.160  1.00  0.00    -0.003 C 
ATOM      5  C   UNL     1      -2.240   1.233 -21.537  1.00  0.00     0.008 C 
ATOM      6  C   UNL     1      -1.228   1.852 -22.569  1.00  0.00    -0.000 C 
ATOM      7  C   UNL     1      -0.360   2.973 -21.959  1.00  0.00     0.005 C 
ATOM      8  C   UNL     1       0.793   3.361 -22.899  1.00  0.00     0.005 C 
ATOM      9  C   UNL     1       0.296   3.786 -24.318  1.00  0.00     0.002 C 
ATOM     10  C   UNL     1       1.417   4.443 -25.257  1.00  0.00    -0.026 C 
ATOM     11  C   UNL     1       2.647   3.507 -25.434  1.00  0.00     0.010 C 
ATOM     12  C   UNL     1       3.701   4.064 -26.393  1.00  0.00     0.033 C 
ATOM     13  C   UNL     1       3.114   4.310 -27.792  1.00  0.00     0.120 C 
ATOM     14  C   UNL     1       1.901   5.293 -27.784  1.00  0.00    -0.006 C 
ATOM     15  C   UNL     1       0.817   4.855 -26.678  1.00  0.00     0.003 C 
ATOM     16  C   UNL     1      -0.138   3.765 -27.241  1.00  0.00     0.005 C 
ATOM     17  C   UNL     1      -1.221   3.296 -26.265  1.00  0.00     0.008 C 
ATOM     18  C   UNL     1      -0.665   2.688 -24.950  1.00  0.00    -0.024 C 
ATOM     19  C   UNL     1      -1.877   2.350 -23.923  1.00  0.00    -0.024 C 
ATOM     20  C   UNL     1      -2.859   1.242 -24.496  1.00  0.00     0.008 C 
ATOM     21  C   UNL     1      -2.958  -0.048 -23.667  1.00  0.00     0.010 C 
ATOM     22  C   UNL     1      -2.781   3.613 -23.651  1.00  0.00     0.012 C 
ATOM     23  C   UNL     1       0.122   1.362 -25.280  1.00  0.00     0.012 C 
ATOM     24  C   UNL     1       1.292   5.274 -29.222  1.00  0.00     0.014 C 
ATOM     25  C   UNL     1       2.385   6.765 -27.572  1.00  0.00     0.014 C 
ATOM     26  C   UNL     1       1.899   5.737 -24.516  1.00  0.00     0.012 C 
ENDROOT
BRANCH   1  27
ATOM     27  C   UNL     1      -0.109   0.158 -20.337  1.00  0.00    -0.077 C 
ATOM     28  C   UNL     1       0.529  -0.525 -21.524  1.00  0.00     0.039 C 
ATOM     29  C   UNL     1       0.653   0.332 -19.246  1.00  0.00     0.008 C 
ENDBRANCH   1  27
BRANCH   4  30
ATOM     30  C   UNL     1      -4.736   0.587 -21.926  1.00  0.00     0.163 C 
BRANCH  30  31
ATOM     31  O   UNL     1      -4.877   1.848 -21.338  1.00  0.00    -0.396 OA
ATOM     32  H   UNL     1      -4.523   1.775 -20.413  1.00  0.00     0.210 HD
ENDBRANCH  30  31
ENDBRANCH   4  30
BRANCH  13  33
ATOM     33  O   UNL     1       4.125   4.799 -28.637  1.00  0.00    -0.393 OA
ATOM     34  H   UNL     1       4.987   4.686 -28.158  1.00  0.00     0.210 HD
ENDBRANCH  13  33
TORSDOF 4
ENDMDL
MODEL 7
REMARK VINA RESULT:    -6.000      3.347      5.778
REMARK INTER + INTRA:          -7.268
REMARK INTER:                  -6.671
REMARK INTRA:                  -0.597
REMARK UNBOUND:                -0.217
REMARK SMILES C=C(C)[C@@H]1CC[C@]2(CO)CC[C@@]3(C)[C@@H](CC[C@H]4[C@@]5(C)CC[C@H](O)C(C)(C)[C@H]5CC[C@@]43C)[C@H]12
REMARK SMILES IDX 4 1 5 2 6 3 7 4 32 5 14 6 15 7 16 8 17 9 18 10 20 11 21 12
REMARK SMILES IDX 22 13 24 14 27 15 28 16 29 17 30 18 12 19 11 20 10 21 13 22
REMARK SMILES IDX 31 23 25 24 26 25 19 26 2 27 3 28 1 29 8 30 9 31 23 33
REMARK H PARENT 9 32 23 34
REMARK Flexibility Score: inf
ROOT
ATOM      1  C   UNL     1      -2.275   0.184 -28.016  1.00  0.00     0.018 C 
ATOM      2  C   UNL     1      -3.471   0.501 -28.911  1.00  0.00     0.009 C 
ATOM      3  C   UNL     1      -4.534   1.071 -27.997  1.00  0.00     0.010 C 
ATOM      4  C   UNL     1      -4.354   0.370 -26.628  1.00  0.00    -0.003 C 
ATOM      5  C   UNL     1      -2.856  -0.102 -26.586  1.00  0.00     0.008 C 
ATOM      6  C   UNL     1      -2.031   0.477 -25.379  1.00  0.00    -0.000 C 
ATOM      7  C   UNL     1      -0.610  -0.118 -25.285  1.00  0.00     0.005 C 
ATOM      8  C   UNL     1       0.255   0.659 -24.280  1.00  0.00     0.005 C 
ATOM      9  C   UNL     1      -0.388   0.729 -22.858  1.00  0.00     0.002 C 
ATOM     10  C   UNL     1       0.573   1.298 -21.708  1.00  0.00    -0.026 C 
ATOM     11  C   UNL     1       1.125   2.710 -22.060  1.00  0.00     0.010 C 
ATOM     12  C   UNL     1       1.979   3.322 -20.948  1.00  0.00     0.033 C 
ATOM     13  C   UNL     1       1.184   3.460 -19.641  1.00  0.00     0.120 C 
ATOM     14  C   UNL     1       0.618   2.102 -19.120  1.00  0.00    -0.006 C 
ATOM     15  C   UNL     1      -0.164   1.323 -20.292  1.00  0.00     0.003 C 
ATOM     16  C   UNL     1      -1.630   1.827 -20.411  1.00  0.00     0.005 C 
ATOM     17  C   UNL     1      -2.462   1.129 -21.490  1.00  0.00     0.008 C 
ATOM     18  C   UNL     1      -1.883   1.268 -22.922  1.00  0.00    -0.024 C 
ATOM     19  C   UNL     1      -2.749   0.383 -23.974  1.00  0.00    -0.024 C 
ATOM     20  C   UNL     1      -4.249   0.891 -24.094  1.00  0.00     0.008 C 
ATOM     21  C   UNL     1      -4.674   1.375 -25.489  1.00  0.00     0.010 C 
ATOM     22  C   UNL     1      -2.851  -1.124 -23.523  1.00  0.00     0.012 C 
ATOM     23  C   UNL     1      -1.926   2.782 -23.358  1.00  0.00     0.012 C 
ATOM     24  C   UNL     1      -0.329   2.434 -17.923  1.00  0.00     0.014 C 
ATOM     25  C   UNL     1       1.758   1.229 -18.502  1.00  0.00     0.014 C 
ATOM     26  C   UNL     1       1.787   0.311 -21.631  1.00  0.00     0.012 C 
ENDROOT
BRANCH   1  27
ATOM     27  C   UNL     1      -1.202   1.276 -28.169  1.00  0.00    -0.077 C 
ATOM     28  C   UNL     1      -1.484   2.739 -27.920  1.00  0.00     0.039 C 
ATOM     29  C   UNL     1       0.006   0.958 -28.659  1.00  0.00     0.008 C 
ENDBRANCH   1  27
BRANCH   4  30
ATOM     30  C   UNL     1      -5.360  -0.828 -26.618  1.00  0.00     0.163 C 
BRANCH  30  31
ATOM     31  O   UNL     1      -6.693  -0.415 -26.706  1.00  0.00    -0.396 OA
ATOM     32  H   UNL     1      -7.154  -0.759 -25.896  1.00  0.00     0.210 HD
ENDBRANCH  30  31
ENDBRANCH   4  30
BRANCH  13  33
ATOM     33  O   UNL     1       2.005   4.047 -18.661  1.00  0.00    -0.393 OA
ATOM     34  H   UNL     1       2.923   4.090 -19.036  1.00  0.00     0.210 HD
ENDBRANCH  13  33
TORSDOF 4
ENDMDL
MODEL 8
REMARK VINA RESULT:    -5.918      1.658      8.124
REMARK INTER + INTRA:          -7.173
REMARK INTER:                  -6.776
REMARK INTRA:                  -0.396
REMARK UNBOUND:                -0.217
REMARK SMILES C=C(C)[C@@H]1CC[C@]2(CO)CC[C@@]3(C)[C@@H](CC[C@H]4[C@@]5(C)CC[C@H](O)C(C)(C)[C@H]5CC[C@@]43C)[C@H]12
REMARK SMILES IDX 4 1 5 2 6 3 7 4 32 5 14 6 15 7 16 8 17 9 18 10 20 11 21 12
REMARK SMILES IDX 22 13 24 14 27 15 28 16 29 17 30 18 12 19 11 20 10 21 13 22
REMARK SMILES IDX 31 23 25 24 26 25 19 26 2 27 3 28 1 29 8 30 9 31 23 33
REMARK H PARENT 9 32 23 34
REMARK Flexibility Score: inf
ROOT
ATOM      1  C   UNL     1      -4.366  -1.020 -23.927  1.00  0.00     0.018 C 
ATOM      2  C   UNL     1      -5.447  -1.098 -22.852  1.00  0.00     0.009 C 
ATOM      3  C   UNL     1      -5.031  -0.120 -21.774  1.00  0.00     0.010 C 
ATOM      4  C   UNL     1      -3.483  -0.116 -21.763  1.00  0.00    -0.003 C 
ATOM      5  C   UNL     1      -3.047  -0.585 -23.198  1.00  0.00     0.008 C 
ATOM      6  C   UNL     1      -2.143   0.447 -23.967  1.00  0.00    -0.000 C 
ATOM      7  C   UNL     1      -1.613  -0.103 -25.308  1.00  0.00     0.005 C 
ATOM      8  C   UNL     1      -0.973   1.009 -26.154  1.00  0.00     0.005 C 
ATOM      9  C   UNL     1       0.171   1.759 -25.398  1.00  0.00     0.002 C 
ATOM     10  C   UNL     1       1.045   2.750 -26.305  1.00  0.00    -0.026 C 
ATOM     11  C   UNL     1       0.161   3.811 -27.023  1.00  0.00     0.010 C 
ATOM     12  C   UNL     1       0.969   4.827 -27.832  1.00  0.00     0.033 C 
ATOM     13  C   UNL     1       1.962   5.591 -26.942  1.00  0.00     0.120 C 
ATOM     14  C   UNL     1       2.968   4.656 -26.201  1.00  0.00    -0.006 C 
ATOM     15  C   UNL     1       2.192   3.461 -25.452  1.00  0.00     0.003 C 
ATOM     16  C   UNL     1       1.677   3.921 -24.060  1.00  0.00     0.005 C 
ATOM     17  C   UNL     1       0.939   2.844 -23.261  1.00  0.00     0.008 C 
ATOM     18  C   UNL     1      -0.316   2.277 -23.975  1.00  0.00    -0.024 C 
ATOM     19  C   UNL     1      -0.949   1.048 -23.121  1.00  0.00    -0.024 C 
ATOM     20  C   UNL     1      -1.471   1.513 -21.695  1.00  0.00     0.008 C 
ATOM     21  C   UNL     1      -2.974   1.315 -21.444  1.00  0.00     0.010 C 
ATOM     22  C   UNL     1       0.121  -0.074 -22.832  1.00  0.00     0.012 C 
ATOM     23  C   UNL     1      -1.394   3.418 -24.120  1.00  0.00     0.012 C 
ATOM     24  C   UNL     1       3.756   5.547 -25.191  1.00  0.00     0.014 C 
ATOM     25  C   UNL     1       4.051   4.116 -27.191  1.00  0.00     0.014 C 
ATOM     26  C   UNL     1       1.711   1.854 -27.405  1.00  0.00     0.012 C 
ENDROOT
BRANCH   1  27
ATOM     27  C   UNL     1      -4.864  -0.175 -25.112  1.00  0.00    -0.077 C 
ATOM     28  C   UNL     1      -4.858   1.336 -25.097  1.00  0.00     0.039 C 
ATOM     29  C   UNL     1      -5.445  -0.777 -26.162  1.00  0.00     0.008 C 
ENDBRANCH   1  27
BRANCH   4  30
ATOM     30  C   UNL     1      -3.053  -1.125 -20.647  1.00  0.00     0.163 C 
BRANCH  30  31
ATOM     31  O   UNL     1      -3.887  -1.077 -19.525  1.00  0.00    -0.396 OA
ATOM     32  H   UNL     1      -3.368  -0.640 -18.800  1.00  0.00     0.210 HD
ENDBRANCH  30  31
ENDBRANCH   4  30
BRANCH  13  33
ATOM     33  O   UNL     1       2.661   6.525 -27.727  1.00  0.00    -0.393 OA
ATOM     34  H   UNL     1       3.626   6.418 -27.519  1.00  0.00     0.210 HD
ENDBRANCH  13  33
TORSDOF 4
ENDMDL
MODEL 9
REMARK VINA RESULT:    -5.743      1.804      8.049
REMARK INTER + INTRA:          -6.967
REMARK INTER:                  -6.849
REMARK INTRA:                  -0.119
REMARK UNBOUND:                -0.217
REMARK SMILES C=C(C)[C@@H]1CC[C@]2(CO)CC[C@@]3(C)[C@@H](CC[C@H]4[C@@]5(C)CC[C@H](O)C(C)(C)[C@H]5CC[C@@]43C)[C@H]12
REMARK SMILES IDX 4 1 5 2 6 3 7 4 32 5 14 6 15 7 16 8 17 9 18 10 20 11 21 12
REMARK SMILES IDX 22 13 24 14 27 15 28 16 29 17 30 18 12 19 11 20 10 21 13 22
REMARK SMILES IDX 31 23 25 24 26 25 19 26 2 27 3 28 1 29 8 30 9 31 23 33
REMARK H PARENT 9 32 23 34
REMARK Flexibility Score: inf
ROOT
ATOM      1  C   UNL     1      -3.686  -1.077 -22.569  1.00  0.00     0.018 C 
ATOM      2  C   UNL     1      -4.368  -1.094 -21.203  1.00  0.00     0.009 C 
ATOM      3  C   UNL     1      -3.708   0.004 -20.396  1.00  0.00     0.010 C 
ATOM      4  C   UNL     1      -2.238   0.076 -20.878  1.00  0.00    -0.003 C 
ATOM      5  C   UNL     1      -2.239  -0.514 -22.334  1.00  0.00     0.008 C 
ATOM      6  C   UNL     1      -1.699   0.475 -23.431  1.00  0.00    -0.000 C 
ATOM      7  C   UNL     1      -1.577  -0.183 -24.823  1.00  0.00     0.005 C 
ATOM      8  C   UNL     1      -1.316   0.867 -25.915  1.00  0.00     0.005 C 
ATOM      9  C   UNL     1      -0.051   1.737 -25.625  1.00  0.00     0.002 C 
ATOM     10  C   UNL     1       0.421   2.670 -26.840  1.00  0.00    -0.026 C 
ATOM     11  C   UNL     1      -0.718   3.615 -27.322  1.00  0.00     0.010 C 
ATOM     12  C   UNL     1      -0.280   4.579 -28.426  1.00  0.00     0.033 C 
ATOM     13  C   UNL     1       0.883   5.471 -27.963  1.00  0.00     0.120 C 
ATOM     14  C   UNL     1       2.135   4.659 -27.508  1.00  0.00    -0.006 C 
ATOM     15  C   UNL     1       1.722   3.512 -26.457  1.00  0.00     0.003 C 
ATOM     16  C   UNL     1       1.635   4.086 -25.015  1.00  0.00     0.005 C 
ATOM     17  C   UNL     1       1.266   3.062 -23.938  1.00  0.00     0.008 C 
ATOM     18  C   UNL     1      -0.105   2.373 -24.168  1.00  0.00    -0.024 C 
ATOM     19  C   UNL     1      -0.348   1.208 -23.061  1.00  0.00    -0.024 C 
ATOM     20  C   UNL     1      -0.430   1.790 -21.586  1.00  0.00     0.008 C 
ATOM     21  C   UNL     1      -1.761   1.553 -20.854  1.00  0.00     0.010 C 
ATOM     22  C   UNL     1       0.837   0.169 -23.038  1.00  0.00     0.012 C 
ATOM     23  C   UNL     1      -1.255   3.445 -24.054  1.00  0.00     0.012 C 
ATOM     24  C   UNL     1       3.133   5.681 -26.876  1.00  0.00     0.014 C 
ATOM     25  C   UNL     1       2.891   4.071 -28.743  1.00  0.00     0.014 C 
ATOM     26  C   UNL     1       0.773   1.699 -28.019  1.00  0.00     0.012 C 
ENDROOT
BRANCH   1  27
ATOM     27  C   UNL     1      -4.589  -0.376 -23.598  1.00  0.00    -0.077 C 
ATOM     28  C   UNL     1      -4.852   1.111 -23.575  1.00  0.00     0.039 C 
ATOM     29  C   UNL     1      -5.280  -1.109 -24.485  1.00  0.00     0.008 C 
ENDBRANCH   1  27
BRANCH   4  30
ATOM     30  C   UNL     1      -1.409  -0.797 -19.879  1.00  0.00     0.163 C 
BRANCH  30  31
ATOM     31  O   UNL     1      -0.143  -0.263 -19.617  1.00  0.00    -0.396 OA
ATOM     32  H   UNL     1       0.512  -0.998 -19.756  1.00  0.00     0.210 HD
ENDBRANCH  30  31
ENDBRANCH   4  30
BRANCH  13  33
ATOM     33  O   UNL     1       1.231   6.352 -29.002  1.00  0.00    -0.393 OA
ATOM     34  H   UNL     1       0.508   6.304 -29.682  1.00  0.00     0.210 HD
ENDBRANCH  13  33
TORSDOF 4
ENDMDL
