MODEL 1
REMARK VINA RESULT:    -5.859      0.000      0.000
REMARK INTER + INTRA:          -6.243
REMARK INTER:                  -6.202
REMARK INTRA:                  -0.041
REMARK UNBOUND:                -0.041
REMARK SMILES COc1ccc2ccc(=O)oc2c1
REMARK SMILES IDX 3 1 13 2 12 3 6 4 5 5 4 6 7 7 8 8 9 9 10 10 11 11 2 12 1 13
REMARK H PARENT
REMARK Flexibility Score: inf
ROOT
ATOM      1  C   UNL     1     202.316 207.028 278.590  1.00  0.00     0.122 A 
ATOM      2  C   UNL     1     203.064 207.931 277.823  1.00  0.00     0.094 A 
ATOM      3  C   UNL     1     203.671 209.039 278.421  1.00  0.00     0.142 A 
ATOM      4  C   UNL     1     203.532 209.252 279.808  1.00  0.00     0.018 A 
ATOM      5  C   UNL     1     202.785 208.352 280.580  1.00  0.00     0.016 A 
ATOM      6  C   UNL     1     202.181 207.246 279.976  1.00  0.00     0.047 A 
ATOM      7  C   UNL     1     204.151 210.369 280.378  1.00  0.00     0.019 A 
ATOM      8  C   UNL     1     204.883 211.234 279.566  1.00  0.00     0.094 A 
ATOM      9  C   UNL     1     204.978 210.960 278.197  1.00  0.00     0.336 A 
ATOM     10  O   UNL     1     205.634 211.729 277.447  1.00  0.00    -0.246 OA
ATOM     11  O   UNL     1     204.379 209.890 277.681  1.00  0.00    -0.423 OA
ENDROOT
BRANCH   1  12
ATOM     12  O   UNL     1     201.727 205.932 277.940  1.00  0.00    -0.497 OA
ATOM     13  C   UNL     1     201.364 205.914 276.563  1.00  0.00     0.278 C 
ENDBRANCH   1  12
TORSDOF 1
ENDMDL
MODEL 2
REMARK VINA RESULT:    -5.736      2.782      4.396
REMARK INTER + INTRA:          -6.113
REMARK INTER:                  -6.077
REMARK INTRA:                  -0.036
REMARK UNBOUND:                -0.041
REMARK SMILES COc1ccc2ccc(=O)oc2c1
REMARK SMILES IDX 3 1 13 2 12 3 6 4 5 5 4 6 7 7 8 8 9 9 10 10 11 11 2 12 1 13
REMARK H PARENT
REMARK Flexibility Score: inf
ROOT
ATOM      1  C   UNL     1     204.709 206.602 276.538  1.00  0.00     0.122 A 
ATOM      2  C   UNL     1     204.098 205.781 277.495  1.00  0.00     0.094 A 
ATOM      3  C   UNL     1     203.507 206.336 278.634  1.00  0.00     0.142 A 
ATOM      4  C   UNL     1     203.526 207.734 278.824  1.00  0.00     0.018 A 
ATOM      5  C   UNL     1     204.136 208.559 277.870  1.00  0.00     0.016 A 
ATOM      6  C   UNL     1     204.724 207.998 276.733  1.00  0.00     0.047 A 
ATOM      7  C   UNL     1     202.927 208.260 279.973  1.00  0.00     0.019 A 
ATOM      8  C   UNL     1     202.333 207.395 280.892  1.00  0.00     0.094 A 
ATOM      9  C   UNL     1     202.353 206.020 280.638  1.00  0.00     0.336 A 
ATOM     10  O   UNL     1     201.822 205.223 281.455  1.00  0.00    -0.246 OA
ATOM     11  O   UNL     1     202.930 205.546 279.536  1.00  0.00    -0.423 OA
ENDROOT
BRANCH   1  12
ATOM     12  O   UNL     1     205.287 205.994 275.413  1.00  0.00    -0.497 OA
ATOM     13  C   UNL     1     204.560 205.263 274.431  1.00  0.00     0.278 C 
ENDBRANCH   1  12
TORSDOF 1
ENDMDL
MODEL 3
REMARK VINA RESULT:    -5.655      2.271      2.646
REMARK INTER + INTRA:          -6.028
REMARK INTER:                  -5.995
REMARK INTRA:                  -0.033
REMARK UNBOUND:                -0.041
REMARK SMILES COc1ccc2ccc(=O)oc2c1
REMARK SMILES IDX 3 1 13 2 12 3 6 4 5 5 4 6 7 7 8 8 9 9 10 10 11 11 2 12 1 13
REMARK H PARENT
REMARK Flexibility Score: inf
ROOT
ATOM      1  C   UNL     1     204.879 206.389 276.730  1.00  0.00     0.122 A 
ATOM      2  C   UNL     1     204.821 207.786 276.819  1.00  0.00     0.094 A 
ATOM      3  C   UNL     1     204.390 208.406 277.996  1.00  0.00     0.142 A 
ATOM      4  C   UNL     1     204.010 207.621 279.105  1.00  0.00     0.018 A 
ATOM      5  C   UNL     1     204.066 206.224 279.021  1.00  0.00     0.016 A 
ATOM      6  C   UNL     1     204.498 205.610 277.842  1.00  0.00     0.047 A 
ATOM      7  C   UNL     1     203.584 208.270 280.268  1.00  0.00     0.019 A 
ATOM      8  C   UNL     1     203.547 209.664 280.299  1.00  0.00     0.094 A 
ATOM      9  C   UNL     1     203.939 210.378 279.161  1.00  0.00     0.336 A 
ATOM     10  O   UNL     1     203.912 211.636 279.170  1.00  0.00    -0.246 OA
ATOM     11  O   UNL     1     204.340 209.734 278.068  1.00  0.00    -0.423 OA
ENDROOT
BRANCH   1  12
ATOM     12  O   UNL     1     205.318 205.817 275.527  1.00  0.00    -0.497 OA
ATOM     13  C   UNL     1     204.458 205.223 274.559  1.00  0.00     0.278 C 
ENDBRANCH   1  12
TORSDOF 1
ENDMDL
MODEL 4
REMARK VINA RESULT:    -5.599     13.109     13.964
REMARK INTER + INTRA:          -5.968
REMARK INTER:                  -5.935
REMARK INTRA:                  -0.033
REMARK UNBOUND:                -0.041
REMARK SMILES COc1ccc2ccc(=O)oc2c1
REMARK SMILES IDX 3 1 13 2 12 3 6 4 5 5 4 6 7 7 8 8 9 9 10 10 11 11 2 12 1 13
REMARK H PARENT
REMARK Flexibility Score: inf
ROOT
ATOM      1  C   UNL     1     213.720 203.908 287.950  1.00  0.00     0.122 A 
ATOM      2  C   UNL     1     212.661 204.040 287.042  1.00  0.00     0.094 A 
ATOM      3  C   UNL     1     212.808 203.630 285.714  1.00  0.00     0.142 A 
ATOM      4  C   UNL     1     214.033 203.079 285.281  1.00  0.00     0.018 A 
ATOM      5  C   UNL     1     215.095 202.945 286.185  1.00  0.00     0.016 A 
ATOM      6  C   UNL     1     214.941 203.356 287.512  1.00  0.00     0.047 A 
ATOM      7  C   UNL     1     214.150 202.677 283.947  1.00  0.00     0.019 A 
ATOM      8  C   UNL     1     213.063 202.832 283.088  1.00  0.00     0.094 A 
ATOM      9  C   UNL     1     211.879 203.387 283.586  1.00  0.00     0.336 A 
ATOM     10  O   UNL     1     210.887 203.535 282.826  1.00  0.00    -0.246 OA
ATOM     11  O   UNL     1     211.795 203.760 284.861  1.00  0.00    -0.423 OA
ENDROOT
BRANCH   1  12
ATOM     12  O   UNL     1     213.519 204.336 289.271  1.00  0.00    -0.497 OA
ATOM     13  C   UNL     1     213.867 205.628 289.760  1.00  0.00     0.278 C 
ENDBRANCH   1  12
TORSDOF 1
ENDMDL
MODEL 5
REMARK VINA RESULT:    -5.587      3.532      5.131
REMARK INTER + INTRA:          -5.955
REMARK INTER:                  -5.923
REMARK INTRA:                  -0.032
REMARK UNBOUND:                -0.041
REMARK SMILES COc1ccc2ccc(=O)oc2c1
REMARK SMILES IDX 3 1 13 2 12 3 6 4 5 5 4 6 7 7 8 8 9 9 10 10 11 11 2 12 1 13
REMARK H PARENT
REMARK Flexibility Score: inf
ROOT
ATOM      1  C   UNL     1     202.495 206.375 279.154  1.00  0.00     0.122 A 
ATOM      2  C   UNL     1     201.881 206.380 277.895  1.00  0.00     0.094 A 
ATOM      3  C   UNL     1     202.597 206.006 276.753  1.00  0.00     0.142 A 
ATOM      4  C   UNL     1     203.949 205.621 276.868  1.00  0.00     0.018 A 
ATOM      5  C   UNL     1     204.568 205.614 278.125  1.00  0.00     0.016 A 
ATOM      6  C   UNL     1     203.847 205.988 279.262  1.00  0.00     0.047 A 
ATOM      7  C   UNL     1     204.639 205.252 275.709  1.00  0.00     0.019 A 
ATOM      8  C   UNL     1     203.977 205.276 274.482  1.00  0.00     0.094 A 
ATOM      9  C   UNL     1     202.635 205.670 274.444  1.00  0.00     0.336 A 
ATOM     10  O   UNL     1     202.020 205.698 273.346  1.00  0.00    -0.246 OA
ATOM     11  O   UNL     1     202.002 206.015 275.563  1.00  0.00    -0.423 OA
ENDROOT
BRANCH   1  12
ATOM     12  O   UNL     1     201.732 206.759 280.267  1.00  0.00    -0.497 OA
ATOM     13  C   UNL     1     202.117 207.768 281.196  1.00  0.00     0.278 C 
ENDBRANCH   1  12
TORSDOF 1
ENDMDL
MODEL 6
REMARK VINA RESULT:    -5.546      2.384      4.456
REMARK INTER + INTRA:          -5.911
REMARK INTER:                  -5.868
REMARK INTRA:                  -0.043
REMARK UNBOUND:                -0.041
REMARK SMILES COc1ccc2ccc(=O)oc2c1
REMARK SMILES IDX 3 1 13 2 12 3 6 4 5 5 4 6 7 7 8 8 9 9 10 10 11 11 2 12 1 13
REMARK H PARENT
REMARK Flexibility Score: inf
ROOT
ATOM      1  C   UNL     1     203.899 208.807 279.778  1.00  0.00     0.122 A 
ATOM      2  C   UNL     1     204.453 208.770 278.491  1.00  0.00     0.094 A 
ATOM      3  C   UNL     1     204.458 207.583 277.752  1.00  0.00     0.142 A 
ATOM      4  C   UNL     1     203.900 206.411 278.304  1.00  0.00     0.018 A 
ATOM      5  C   UNL     1     203.344 206.442 279.590  1.00  0.00     0.016 A 
ATOM      6  C   UNL     1     203.342 207.632 280.323  1.00  0.00     0.047 A 
ATOM      7  C   UNL     1     203.919 205.239 277.542  1.00  0.00     0.019 A 
ATOM      8  C   UNL     1     204.484 205.262 276.267  1.00  0.00     0.094 A 
ATOM      9  C   UNL     1     205.019 206.461 275.784  1.00  0.00     0.336 A 
ATOM     10  O   UNL     1     205.534 206.502 274.637  1.00  0.00    -0.246 OA
ATOM     11  O   UNL     1     204.988 207.562 276.532  1.00  0.00    -0.423 OA
ENDROOT
BRANCH   1  12
ATOM     12  O   UNL     1     203.920 210.023 280.477  1.00  0.00    -0.497 OA
ATOM     13  C   UNL     1     204.570 211.204 280.016  1.00  0.00     0.278 C 
ENDBRANCH   1  12
TORSDOF 1
ENDMDL
MODEL 7
REMARK VINA RESULT:    -5.535      1.225      1.512
REMARK INTER + INTRA:          -5.900
REMARK INTER:                  -5.858
REMARK INTRA:                  -0.042
REMARK UNBOUND:                -0.041
REMARK SMILES COc1ccc2ccc(=O)oc2c1
REMARK SMILES IDX 3 1 13 2 12 3 6 4 5 5 4 6 7 7 8 8 9 9 10 10 11 11 2 12 1 13
REMARK H PARENT
REMARK Flexibility Score: inf
ROOT
ATOM      1  C   UNL     1     201.863 206.361 277.661  1.00  0.00     0.122 A 
ATOM      2  C   UNL     1     202.262 207.678 277.398  1.00  0.00     0.094 A 
ATOM      3  C   UNL     1     202.848 208.456 278.401  1.00  0.00     0.142 A 
ATOM      4  C   UNL     1     203.040 207.913 279.689  1.00  0.00     0.018 A 
ATOM      5  C   UNL     1     202.642 206.597 279.957  1.00  0.00     0.016 A 
ATOM      6  C   UNL     1     202.058 205.824 278.950  1.00  0.00     0.047 A 
ATOM      7  C   UNL     1     203.629 208.716 280.671  1.00  0.00     0.019 A 
ATOM      8  C   UNL     1     204.007 210.020 280.353  1.00  0.00     0.094 A 
ATOM      9  C   UNL     1     203.785 210.492 279.054  1.00  0.00     0.336 A 
ATOM     10  O   UNL     1     204.120 211.666 278.747  1.00  0.00    -0.246 OA
ATOM     11  O   UNL     1     203.223 209.706 278.139  1.00  0.00    -0.423 OA
ENDROOT
BRANCH   1  12
ATOM     12  O   UNL     1     201.279 205.623 276.620  1.00  0.00    -0.497 OA
ATOM     13  C   UNL     1     200.723 206.197 275.441  1.00  0.00     0.278 C 
ENDBRANCH   1  12
TORSDOF 1
ENDMDL
MODEL 8
REMARK VINA RESULT:    -5.529     13.889     14.419
REMARK INTER + INTRA:          -5.894
REMARK INTER:                  -5.851
REMARK INTRA:                  -0.043
REMARK UNBOUND:                -0.041
REMARK SMILES COc1ccc2ccc(=O)oc2c1
REMARK SMILES IDX 3 1 13 2 12 3 6 4 5 5 4 6 7 7 8 8 9 9 10 10 11 11 2 12 1 13
REMARK H PARENT
REMARK Flexibility Score: inf
ROOT
ATOM      1  C   UNL     1     213.306 203.045 284.621  1.00  0.00     0.122 A 
ATOM      2  C   UNL     1     212.839 203.674 285.783  1.00  0.00     0.094 A 
ATOM      3  C   UNL     1     213.658 203.782 286.911  1.00  0.00     0.142 A 
ATOM      4  C   UNL     1     214.966 203.255 286.882  1.00  0.00     0.018 A 
ATOM      5  C   UNL     1     215.439 202.626 285.722  1.00  0.00     0.016 A 
ATOM      6  C   UNL     1     214.615 202.521 284.598  1.00  0.00     0.047 A 
ATOM      7  C   UNL     1     215.762 203.379 288.025  1.00  0.00     0.019 A 
ATOM      8  C   UNL     1     215.244 204.014 289.153  1.00  0.00     0.094 A 
ATOM      9  C   UNL     1     213.937 204.512 289.110  1.00  0.00     0.336 A 
ATOM     10  O   UNL     1     213.452 205.089 290.118  1.00  0.00    -0.246 OA
ATOM     11  O   UNL     1     213.202 204.381 288.009  1.00  0.00    -0.423 OA
ENDROOT
BRANCH   1  12
ATOM     12  O   UNL     1     212.444 202.963 283.517  1.00  0.00    -0.497 OA
ATOM     13  C   UNL     1     211.242 203.714 283.378  1.00  0.00     0.278 C 
ENDBRANCH   1  12
TORSDOF 1
ENDMDL
MODEL 9
REMARK VINA RESULT:    -5.420     13.468     13.937
REMARK INTER + INTRA:          -5.778
REMARK INTER:                  -5.741
REMARK INTRA:                  -0.038
REMARK UNBOUND:                -0.041
REMARK SMILES COc1ccc2ccc(=O)oc2c1
REMARK SMILES IDX 3 1 13 2 12 3 6 4 5 5 4 6 7 7 8 8 9 9 10 10 11 11 2 12 1 13
REMARK H PARENT
REMARK Flexibility Score: inf
ROOT
ATOM      1  C   UNL     1     213.989 202.508 282.918  1.00  0.00     0.122 A 
ATOM      2  C   UNL     1     214.772 202.687 284.066  1.00  0.00     0.094 A 
ATOM      3  C   UNL     1     214.172 202.947 285.302  1.00  0.00     0.142 A 
ATOM      4  C   UNL     1     212.767 203.030 285.397  1.00  0.00     0.018 A 
ATOM      5  C   UNL     1     211.979 202.851 284.252  1.00  0.00     0.016 A 
ATOM      6  C   UNL     1     212.585 202.591 283.020  1.00  0.00     0.047 A 
ATOM      7  C   UNL     1     212.197 203.291 286.647  1.00  0.00     0.019 A 
ATOM      8  C   UNL     1     213.026 203.461 287.755  1.00  0.00     0.094 A 
ATOM      9  C   UNL     1     214.412 203.366 287.586  1.00  0.00     0.336 A 
ATOM     10  O   UNL     1     215.176 203.516 288.574  1.00  0.00    -0.246 OA
ATOM     11  O   UNL     1     214.928 203.116 286.385  1.00  0.00    -0.423 OA
ENDROOT
BRANCH   1  12
ATOM     12  O   UNL     1     214.640 202.250 281.702  1.00  0.00    -0.497 OA
ATOM     13  C   UNL     1     215.729 203.014 281.195  1.00  0.00     0.278 C 
ENDBRANCH   1  12
TORSDOF 1
ENDMDL
