MODEL 1
REMARK VINA RESULT:    -5.278      0.000      0.000
REMARK INTER + INTRA:          -8.955
REMARK INTER:                  -7.747
REMARK INTRA:                  -1.208
REMARK UNBOUND:                -1.208
REMARK SMILES CC(C)COC(=O)c1ccccc1C(=O)OCC(C)C
REMARK SMILES IDX 8 1 9 2 10 3 11 4 12 5 13 6 6 7 7 8 5 9 4 10 2 11 1 12 3 13
REMARK SMILES IDX 14 14 15 15 16 16 17 17 18 18 19 19 20 20
REMARK H PARENT
REMARK Flexibility Score: inf
ROOT
ATOM      1  C   UNL     1      13.851 -12.397 -43.802  1.00  0.00     0.074 A 
ATOM      2  C   UNL     1      15.003 -11.888 -43.172  1.00  0.00     0.016 A 
ATOM      3  C   UNL     1      16.275 -12.187 -43.661  1.00  0.00     0.001 A 
ATOM      4  C   UNL     1      16.420 -12.995 -44.786  1.00  0.00     0.001 A 
ATOM      5  C   UNL     1      15.293 -13.529 -45.413  1.00  0.00     0.016 A 
ATOM      6  C   UNL     1      14.002 -13.260 -44.923  1.00  0.00     0.074 A 
ENDROOT
BRANCH   1   7
ATOM      7  C   UNL     1      12.533 -11.949 -43.299  1.00  0.00     0.339 C 
ATOM      8  O   UNL     1      11.809 -12.732 -42.625  1.00  0.00    -0.246 OA
BRANCH   7   9
ATOM      9  O   UNL     1      12.070 -10.668 -43.631  1.00  0.00    -0.462 OA
BRANCH   9  10
ATOM     10  C   UNL     1      10.876 -10.092 -43.103  1.00  0.00     0.236 C 
BRANCH  10  11
ATOM     11  C   UNL     1      10.464  -8.840 -43.902  1.00  0.00     0.021 C 
ATOM     12  C   UNL     1      10.033  -7.720 -42.946  1.00  0.00     0.011 C 
ATOM     13  C   UNL     1      11.595  -8.349 -44.814  1.00  0.00     0.011 C 
ENDBRANCH  10  11
ENDBRANCH   9  10
ENDBRANCH   7   9
ENDBRANCH   1   7
BRANCH   6  14
ATOM     14  C   UNL     1      12.862 -13.950 -45.571  1.00  0.00     0.339 C 
ATOM     15  O   UNL     1      12.498 -15.091 -45.174  1.00  0.00    -0.246 OA
BRANCH  14  16
ATOM     16  O   UNL     1      12.228 -13.352 -46.664  1.00  0.00    -0.462 OA
BRANCH  16  17
ATOM     17  C   UNL     1      10.817 -13.392 -46.854  1.00  0.00     0.236 C 
BRANCH  17  18
ATOM     18  C   UNL     1      10.114 -12.603 -45.739  1.00  0.00     0.021 C 
ATOM     19  C   UNL     1       9.181 -13.510 -44.925  1.00  0.00     0.011 C 
ATOM     20  C   UNL     1       9.330 -11.426 -46.330  1.00  0.00     0.011 C 
ENDBRANCH  17  18
ENDBRANCH  16  17
ENDBRANCH  14  16
ENDBRANCH   6  14
TORSDOF 8
ENDMDL
MODEL 2
REMARK VINA RESULT:    -5.266      0.366      3.903
REMARK INTER + INTRA:          -8.936
REMARK INTER:                  -7.711
REMARK INTRA:                  -1.225
REMARK UNBOUND:                -1.208
REMARK SMILES CC(C)COC(=O)c1ccccc1C(=O)OCC(C)C
REMARK SMILES IDX 8 1 9 2 10 3 11 4 12 5 13 6 6 7 7 8 5 9 4 10 2 11 1 12 3 13
REMARK SMILES IDX 14 14 15 15 16 16 17 17 18 18 19 19 20 20
REMARK H PARENT
REMARK Flexibility Score: inf
ROOT
ATOM      1  C   UNL     1      13.646 -13.342 -45.101  1.00  0.00     0.074 A 
ATOM      2  C   UNL     1      14.892 -13.707 -45.644  1.00  0.00     0.016 A 
ATOM      3  C   UNL     1      16.080 -13.254 -45.071  1.00  0.00     0.001 A 
ATOM      4  C   UNL     1      16.046 -12.433 -43.947  1.00  0.00     0.001 A 
ATOM      5  C   UNL     1      14.822 -12.039 -43.406  1.00  0.00     0.016 A 
ATOM      6  C   UNL     1      13.610 -12.464 -43.981  1.00  0.00     0.074 A 
ENDROOT
BRANCH   1   7
ATOM      7  C   UNL     1      12.431 -13.949 -45.690  1.00  0.00     0.339 C 
ATOM      8  O   UNL     1      11.978 -15.035 -45.235  1.00  0.00    -0.246 OA
BRANCH   7   9
ATOM      9  O   UNL     1      11.824 -13.339 -46.797  1.00  0.00    -0.462 OA
BRANCH   9  10
ATOM     10  C   UNL     1      10.412 -13.246 -46.980  1.00  0.00     0.236 C 
BRANCH  10  11
ATOM     11  C   UNL     1       9.753 -12.462 -45.830  1.00  0.00     0.021 C 
ATOM     12  C   UNL     1       9.019 -11.232 -46.379  1.00  0.00     0.011 C 
ATOM     13  C   UNL     1       8.785 -13.337 -45.024  1.00  0.00     0.011 C 
ENDBRANCH  10  11
ENDBRANCH   9  10
ENDBRANCH   7   9
ENDBRANCH   1   7
BRANCH   6  14
ATOM     14  C   UNL     1      12.353 -11.919 -43.422  1.00  0.00     0.339 C 
ATOM     15  O   UNL     1      11.647 -12.614 -42.639  1.00  0.00    -0.246 OA
BRANCH  14  16
ATOM     16  O   UNL     1      11.920 -10.648 -43.813  1.00  0.00    -0.462 OA
BRANCH  16  17
ATOM     17  C   UNL     1      10.897  -9.935 -43.124  1.00  0.00     0.236 C 
BRANCH  17  18
ATOM     18  C   UNL     1      10.419  -8.749 -43.974  1.00  0.00     0.021 C 
ATOM     19  C   UNL     1      11.543  -8.233 -44.882  1.00  0.00     0.011 C 
ATOM     20  C   UNL     1       9.900  -7.621 -43.076  1.00  0.00     0.011 C 
ENDBRANCH  17  18
ENDBRANCH  16  17
ENDBRANCH  14  16
ENDBRANCH   6  14
TORSDOF 8
ENDMDL
MODEL 3
REMARK VINA RESULT:    -5.087      1.579      4.639
REMARK INTER + INTRA:          -8.674
REMARK INTER:                  -7.626
REMARK INTRA:                  -1.048
REMARK UNBOUND:                -1.208
REMARK SMILES CC(C)COC(=O)c1ccccc1C(=O)OCC(C)C
REMARK SMILES IDX 8 1 9 2 10 3 11 4 12 5 13 6 6 7 7 8 5 9 4 10 2 11 1 12 3 13
REMARK SMILES IDX 14 14 15 15 16 16 17 17 18 18 19 19 20 20
REMARK H PARENT
REMARK Flexibility Score: inf
ROOT
ATOM      1  C   UNL     1      11.563 -13.552 -44.732  1.00  0.00     0.074 A 
ATOM      2  C   UNL     1      12.309 -14.668 -45.155  1.00  0.00     0.016 A 
ATOM      3  C   UNL     1      12.316 -15.056 -46.495  1.00  0.00     0.001 A 
ATOM      4  C   UNL     1      11.581 -14.338 -47.435  1.00  0.00     0.001 A 
ATOM      5  C   UNL     1      10.816 -13.242 -47.035  1.00  0.00     0.016 A 
ATOM      6  C   UNL     1      10.775 -12.846 -45.685  1.00  0.00     0.074 A 
ENDROOT
BRANCH   1   7
ATOM      7  C   UNL     1      11.692 -13.129 -43.320  1.00  0.00     0.339 C 
ATOM      8  O   UNL     1      10.945 -13.630 -42.435  1.00  0.00    -0.246 OA
BRANCH   7   9
ATOM      9  O   UNL     1      12.607 -12.121 -42.984  1.00  0.00    -0.462 OA
BRANCH   9  10
ATOM     10  C   UNL     1      13.656 -11.679 -43.844  1.00  0.00     0.236 C 
BRANCH  10  11
ATOM     11  C   UNL     1      14.924 -12.532 -43.658  1.00  0.00     0.021 C 
ATOM     12  C   UNL     1      15.523 -12.897 -45.022  1.00  0.00     0.011 C 
ATOM     13  C   UNL     1      15.972 -11.815 -42.797  1.00  0.00     0.011 C 
ENDBRANCH  10  11
ENDBRANCH   9  10
ENDBRANCH   7   9
ENDBRANCH   1   7
BRANCH   6  14
ATOM     14  C   UNL     1       9.857 -11.745 -45.317  1.00  0.00     0.339 C 
ATOM     15  O   UNL     1       8.607 -11.900 -45.406  1.00  0.00    -0.246 OA
BRANCH  14  16
ATOM     16  O   UNL     1      10.384 -10.510 -44.926  1.00  0.00    -0.462 OA
BRANCH  16  17
ATOM     17  C   UNL     1       9.566  -9.414 -44.528  1.00  0.00     0.236 C 
BRANCH  17  18
ATOM     18  C   UNL     1      10.446  -8.220 -44.127  1.00  0.00     0.021 C 
ATOM     19  C   UNL     1      11.893  -8.420 -44.598  1.00  0.00     0.011 C 
ATOM     20  C   UNL     1      10.405  -8.010 -42.610  1.00  0.00     0.011 C 
ENDBRANCH  17  18
ENDBRANCH  16  17
ENDBRANCH  14  16
ENDBRANCH   6  14
TORSDOF 8
ENDMDL
MODEL 4
REMARK VINA RESULT:    -5.036      1.479      4.438
REMARK INTER + INTRA:          -8.599
REMARK INTER:                  -7.117
REMARK INTRA:                  -1.483
REMARK UNBOUND:                -1.208
REMARK SMILES CC(C)COC(=O)c1ccccc1C(=O)OCC(C)C
REMARK SMILES IDX 8 1 9 2 10 3 11 4 12 5 13 6 6 7 7 8 5 9 4 10 2 11 1 12 3 13
REMARK SMILES IDX 14 14 15 15 16 16 17 17 18 18 19 19 20 20
REMARK H PARENT
REMARK Flexibility Score: inf
ROOT
ATOM      1  C   UNL     1      13.168 -13.811 -44.109  1.00  0.00     0.074 A 
ATOM      2  C   UNL     1      14.541 -14.105 -44.207  1.00  0.00     0.016 A 
ATOM      3  C   UNL     1      15.499 -13.115 -43.990  1.00  0.00     0.001 A 
ATOM      4  C   UNL     1      15.106 -11.818 -43.670  1.00  0.00     0.001 A 
ATOM      5  C   UNL     1      13.750 -11.499 -43.590  1.00  0.00     0.016 A 
ATOM      6  C   UNL     1      12.765 -12.475 -43.828  1.00  0.00     0.074 A 
ENDROOT
BRANCH   1   7
ATOM      7  C   UNL     1      12.210 -14.932 -44.240  1.00  0.00     0.339 C 
ATOM      8  O   UNL     1      12.022 -15.724 -43.276  1.00  0.00    -0.246 OA
BRANCH   7   9
ATOM      9  O   UNL     1      11.560 -15.144 -45.464  1.00  0.00    -0.462 OA
BRANCH   9  10
ATOM     10  C   UNL     1      12.180 -15.740 -46.602  1.00  0.00     0.236 C 
BRANCH  10  11
ATOM     11  C   UNL     1      12.338 -14.721 -47.746  1.00  0.00     0.021 C 
ATOM     12  C   UNL     1      11.329 -13.578 -47.580  1.00  0.00     0.011 C 
ATOM     13  C   UNL     1      13.764 -14.159 -47.815  1.00  0.00     0.011 C 
ENDBRANCH  10  11
ENDBRANCH   9  10
ENDBRANCH   7   9
ENDBRANCH   1   7
BRANCH   6  14
ATOM     14  C   UNL     1      11.350 -12.040 -43.836  1.00  0.00     0.339 C 
ATOM     15  O   UNL     1      10.563 -12.411 -42.922  1.00  0.00    -0.246 OA
BRANCH  14  16
ATOM     16  O   UNL     1      10.875 -11.261 -44.895  1.00  0.00    -0.462 OA
BRANCH  16  17
ATOM     17  C   UNL     1      10.074 -10.100 -44.700  1.00  0.00     0.236 C 
BRANCH  17  18
ATOM     18  C   UNL     1      10.869  -9.035 -43.930  1.00  0.00     0.021 C 
ATOM     19  C   UNL     1       9.957  -7.886 -43.479  1.00  0.00     0.011 C 
ATOM     20  C   UNL     1      12.017  -8.497 -44.790  1.00  0.00     0.011 C 
ENDBRANCH  17  18
ENDBRANCH  16  17
ENDBRANCH  14  16
ENDBRANCH   6  14
TORSDOF 8
ENDMDL
MODEL 5
REMARK VINA RESULT:    -5.000      2.196      3.569
REMARK INTER + INTRA:          -8.545
REMARK INTER:                  -7.201
REMARK INTRA:                  -1.344
REMARK UNBOUND:                -1.208
REMARK SMILES CC(C)COC(=O)c1ccccc1C(=O)OCC(C)C
REMARK SMILES IDX 8 1 9 2 10 3 11 4 12 5 13 6 6 7 7 8 5 9 4 10 2 11 1 12 3 13
REMARK SMILES IDX 14 14 15 15 16 16 17 17 18 18 19 19 20 20
REMARK H PARENT
REMARK Flexibility Score: inf
ROOT
ATOM      1  C   UNL     1      10.952 -12.991 -43.463  1.00  0.00     0.074 A 
ATOM      2  C   UNL     1      10.433 -13.364 -42.209  1.00  0.00     0.016 A 
ATOM      3  C   UNL     1       9.511 -14.405 -42.100  1.00  0.00     0.001 A 
ATOM      4  C   UNL     1       9.093 -15.092 -43.237  1.00  0.00     0.001 A 
ATOM      5  C   UNL     1       9.578 -14.724 -44.493  1.00  0.00     0.016 A 
ATOM      6  C   UNL     1      10.490 -13.662 -44.630  1.00  0.00     0.074 A 
ENDROOT
BRANCH   1   7
ATOM      7  C   UNL     1      12.010 -11.956 -43.492  1.00  0.00     0.339 C 
ATOM      8  O   UNL     1      13.194 -12.247 -43.170  1.00  0.00    -0.246 OA
BRANCH   7   9
ATOM      9  O   UNL     1      11.672 -10.635 -43.821  1.00  0.00    -0.462 OA
BRANCH   9  10
ATOM     10  C   UNL     1      10.867  -9.791 -42.999  1.00  0.00     0.236 C 
BRANCH  10  11
ATOM     11  C   UNL     1      11.027  -8.312 -43.399  1.00  0.00     0.021 C 
ATOM     12  C   UNL     1      11.524  -8.205 -44.846  1.00  0.00     0.011 C 
ATOM     13  C   UNL     1       9.716  -7.532 -43.234  1.00  0.00     0.011 C 
ENDBRANCH  10  11
ENDBRANCH   9  10
ENDBRANCH   7   9
ENDBRANCH   1   7
BRANCH   6  14
ATOM     14  C   UNL     1      10.875 -13.256 -46.001  1.00  0.00     0.339 C 
ATOM     15  O   UNL     1      11.953 -13.670 -46.510  1.00  0.00    -0.246 OA
BRANCH  14  16
ATOM     16  O   UNL     1      10.063 -12.363 -46.707  1.00  0.00    -0.462 OA
BRANCH  16  17
ATOM     17  C   UNL     1       8.783 -12.722 -47.216  1.00  0.00     0.236 C 
BRANCH  17  18
ATOM     18  C   UNL     1       7.703 -11.811 -46.612  1.00  0.00     0.021 C 
ATOM     19  C   UNL     1       8.332 -10.707 -45.752  1.00  0.00     0.011 C 
ATOM     20  C   UNL     1       6.712 -12.634 -45.782  1.00  0.00     0.011 C 
ENDBRANCH  17  18
ENDBRANCH  16  17
ENDBRANCH  14  16
ENDBRANCH   6  14
TORSDOF 8
ENDMDL
MODEL 6
REMARK VINA RESULT:    -4.988      1.324      4.316
REMARK INTER + INTRA:          -8.528
REMARK INTER:                  -7.517
REMARK INTRA:                  -1.011
REMARK UNBOUND:                -1.208
REMARK SMILES CC(C)COC(=O)c1ccccc1C(=O)OCC(C)C
REMARK SMILES IDX 8 1 9 2 10 3 11 4 12 5 13 6 6 7 7 8 5 9 4 10 2 11 1 12 3 13
REMARK SMILES IDX 14 14 15 15 16 16 17 17 18 18 19 19 20 20
REMARK H PARENT
REMARK Flexibility Score: inf
ROOT
ATOM      1  C   UNL     1      11.439 -12.780 -44.727  1.00  0.00     0.074 A 
ATOM      2  C   UNL     1      10.390 -12.470 -45.613  1.00  0.00     0.016 A 
ATOM      3  C   UNL     1      10.381 -12.976 -46.913  1.00  0.00     0.001 A 
ATOM      4  C   UNL     1      11.416 -13.799 -47.350  1.00  0.00     0.001 A 
ATOM      5  C   UNL     1      12.477 -14.101 -46.497  1.00  0.00     0.016 A 
ATOM      6  C   UNL     1      12.519 -13.583 -45.189  1.00  0.00     0.074 A 
ENDROOT
BRANCH   1   7
ATOM      7  C   UNL     1      11.327 -12.304 -43.330  1.00  0.00     0.339 C 
ATOM      8  O   UNL     1      10.814 -13.042 -42.445  1.00  0.00    -0.246 OA
BRANCH   7   9
ATOM      9  O   UNL     1      11.740 -11.002 -43.011  1.00  0.00    -0.462 OA
BRANCH   9  10
ATOM     10  C   UNL     1      10.844  -9.930 -42.722  1.00  0.00     0.236 C 
BRANCH  10  11
ATOM     11  C   UNL     1      10.636  -9.032 -43.956  1.00  0.00     0.021 C 
ATOM     12  C   UNL     1       9.922  -7.736 -43.555  1.00  0.00     0.011 C 
ATOM     13  C   UNL     1      11.964  -8.708 -44.654  1.00  0.00     0.011 C 
ENDBRANCH  10  11
ENDBRANCH   9  10
ENDBRANCH   7   9
ENDBRANCH   1   7
BRANCH   6  14
ATOM     14  C   UNL     1      13.729 -13.854 -44.379  1.00  0.00     0.339 C 
ATOM     15  O   UNL     1      13.897 -14.983 -43.841  1.00  0.00    -0.246 OA
BRANCH  14  16
ATOM     16  O   UNL     1      14.657 -12.831 -44.165  1.00  0.00    -0.462 OA
BRANCH  16  17
ATOM     17  C   UNL     1      15.825 -12.670 -44.964  1.00  0.00     0.236 C 
BRANCH  17  18
ATOM     18  C   UNL     1      16.861 -11.816 -44.215  1.00  0.00     0.021 C 
ATOM     19  C   UNL     1      18.265 -12.422 -44.337  1.00  0.00     0.011 C 
ATOM     20  C   UNL     1      16.469 -11.671 -42.741  1.00  0.00     0.011 C 
ENDBRANCH  17  18
ENDBRANCH  16  17
ENDBRANCH  14  16
ENDBRANCH   6  14
TORSDOF 8
ENDMDL
MODEL 7
REMARK VINA RESULT:    -4.963      1.712      2.849
REMARK INTER + INTRA:          -8.491
REMARK INTER:                  -6.976
REMARK INTRA:                  -1.516
REMARK UNBOUND:                -1.208
REMARK SMILES CC(C)COC(=O)c1ccccc1C(=O)OCC(C)C
REMARK SMILES IDX 8 1 9 2 10 3 11 4 12 5 13 6 6 7 7 8 5 9 4 10 2 11 1 12 3 13
REMARK SMILES IDX 14 14 15 15 16 16 17 17 18 18 19 19 20 20
REMARK H PARENT
REMARK Flexibility Score: inf
ROOT
ATOM      1  C   UNL     1      12.699 -12.412 -44.258  1.00  0.00     0.074 A 
ATOM      2  C   UNL     1      13.615 -11.825 -43.365  1.00  0.00     0.016 A 
ATOM      3  C   UNL     1      14.985 -12.054 -43.495  1.00  0.00     0.001 A 
ATOM      4  C   UNL     1      15.464 -12.870 -44.517  1.00  0.00     0.001 A 
ATOM      5  C   UNL     1      14.573 -13.480 -45.400  1.00  0.00     0.016 A 
ATOM      6  C   UNL     1      13.186 -13.282 -45.274  1.00  0.00     0.074 A 
ENDROOT
BRANCH   1   7
ATOM      7  C   UNL     1      11.273 -12.035 -44.133  1.00  0.00     0.339 C 
ATOM      8  O   UNL     1      10.560 -12.538 -43.221  1.00  0.00    -0.246 OA
BRANCH   7   9
ATOM      9  O   UNL     1      10.706 -11.163 -45.072  1.00  0.00    -0.462 OA
BRANCH   9  10
ATOM     10  C   UNL     1       9.947 -10.005 -44.727  1.00  0.00     0.236 C 
BRANCH  10  11
ATOM     11  C   UNL     1      10.794  -9.007 -43.915  1.00  0.00     0.021 C 
ATOM     12  C   UNL     1      11.988  -8.525 -44.748  1.00  0.00     0.011 C 
ATOM     13  C   UNL     1       9.963  -7.807 -43.441  1.00  0.00     0.011 C 
ENDBRANCH  10  11
ENDBRANCH   9  10
ENDBRANCH   7   9
ENDBRANCH   1   7
BRANCH   6  14
ATOM     14  C   UNL     1      12.295 -14.049 -46.175  1.00  0.00     0.339 C 
ATOM     15  O   UNL     1      12.049 -13.628 -47.339  1.00  0.00    -0.246 OA
BRANCH  14  16
ATOM     16  O   UNL     1      11.681 -15.215 -45.707  1.00  0.00    -0.462 OA
BRANCH  16  17
ATOM     17  C   UNL     1      12.273 -16.504 -45.837  1.00  0.00     0.236 C 
BRANCH  17  18
ATOM     18  C   UNL     1      12.710 -17.023 -44.458  1.00  0.00     0.021 C 
ATOM     19  C   UNL     1      12.055 -16.213 -43.332  1.00  0.00     0.011 C 
ATOM     20  C   UNL     1      14.236 -16.977 -44.329  1.00  0.00     0.011 C 
ENDBRANCH  17  18
ENDBRANCH  16  17
ENDBRANCH  14  16
ENDBRANCH   6  14
TORSDOF 8
ENDMDL
MODEL 8
REMARK VINA RESULT:    -4.954      1.797      4.765
REMARK INTER + INTRA:          -8.479
REMARK INTER:                  -7.063
REMARK INTRA:                  -1.416
REMARK UNBOUND:                -1.208
REMARK SMILES CC(C)COC(=O)c1ccccc1C(=O)OCC(C)C
REMARK SMILES IDX 8 1 9 2 10 3 11 4 12 5 13 6 6 7 7 8 5 9 4 10 2 11 1 12 3 13
REMARK SMILES IDX 14 14 15 15 16 16 17 17 18 18 19 19 20 20
REMARK H PARENT
REMARK Flexibility Score: inf
ROOT
ATOM      1  C   UNL     1      13.012 -13.343 -45.286  1.00  0.00     0.074 A 
ATOM      2  C   UNL     1      14.385 -13.623 -45.416  1.00  0.00     0.016 A 
ATOM      3  C   UNL     1      15.319 -13.029 -44.566  1.00  0.00     0.001 A 
ATOM      4  C   UNL     1      14.899 -12.149 -43.572  1.00  0.00     0.001 A 
ATOM      5  C   UNL     1      13.545 -11.839 -43.439  1.00  0.00     0.016 A 
ATOM      6  C   UNL     1      12.588 -12.408 -44.300  1.00  0.00     0.074 A 
ENDROOT
BRANCH   1   7
ATOM      7  C   UNL     1      12.069 -14.093 -46.145  1.00  0.00     0.339 C 
ATOM      8  O   UNL     1      11.599 -13.563 -47.189  1.00  0.00    -0.246 OA
BRANCH   7   9
ATOM      9  O   UNL     1      11.655 -15.375 -45.756  1.00  0.00    -0.462 OA
BRANCH   9  10
ATOM     10  C   UNL     1      10.581 -15.624 -44.849  1.00  0.00     0.236 C 
BRANCH  10  11
ATOM     11  C   UNL     1      11.108 -15.897 -43.428  1.00  0.00     0.021 C 
ATOM     12  C   UNL     1      10.123 -16.786 -42.659  1.00  0.00     0.011 C 
ATOM     13  C   UNL     1      12.498 -16.548 -43.451  1.00  0.00     0.011 C 
ENDBRANCH  10  11
ENDBRANCH   9  10
ENDBRANCH   7   9
ENDBRANCH   1   7
BRANCH   6  14
ATOM     14  C   UNL     1      11.186 -11.949 -44.172  1.00  0.00     0.339 C 
ATOM     15  O   UNL     1      10.431 -12.442 -43.290  1.00  0.00    -0.246 OA
BRANCH  14  16
ATOM     16  O   UNL     1      10.686 -11.005 -45.075  1.00  0.00    -0.462 OA
BRANCH  16  17
ATOM     17  C   UNL     1       9.869  -9.910 -44.673  1.00  0.00     0.236 C 
BRANCH  17  18
ATOM     18  C   UNL     1      10.710  -8.882 -43.902  1.00  0.00     0.021 C 
ATOM     19  C   UNL     1       9.873  -7.648 -43.537  1.00  0.00     0.011 C 
ATOM     20  C   UNL     1      11.937  -8.470 -44.723  1.00  0.00     0.011 C 
ENDBRANCH  17  18
ENDBRANCH  16  17
ENDBRANCH  14  16
ENDBRANCH   6  14
TORSDOF 8
ENDMDL
MODEL 9
REMARK VINA RESULT:    -4.862      1.618      2.599
REMARK INTER + INTRA:          -8.343
REMARK INTER:                  -7.367
REMARK INTRA:                  -0.976
REMARK UNBOUND:                -1.208
REMARK SMILES CC(C)COC(=O)c1ccccc1C(=O)OCC(C)C
REMARK SMILES IDX 8 1 9 2 10 3 11 4 12 5 13 6 6 7 7 8 5 9 4 10 2 11 1 12 3 13
REMARK SMILES IDX 14 14 15 15 16 16 17 17 18 18 19 19 20 20
REMARK H PARENT
REMARK Flexibility Score: inf
ROOT
ATOM      1  C   UNL     1      13.686 -12.510 -43.850  1.00  0.00     0.074 A 
ATOM      2  C   UNL     1      14.725 -11.863 -43.156  1.00  0.00     0.016 A 
ATOM      3  C   UNL     1      16.055 -12.028 -43.546  1.00  0.00     0.001 A 
ATOM      4  C   UNL     1      16.369 -12.839 -44.634  1.00  0.00     0.001 A 
ATOM      5  C   UNL     1      15.356 -13.508 -45.323  1.00  0.00     0.016 A 
ATOM      6  C   UNL     1      14.011 -13.374 -44.933  1.00  0.00     0.074 A 
ENDROOT
BRANCH   1   7
ATOM      7  C   UNL     1      12.294 -12.200 -43.454  1.00  0.00     0.339 C 
ATOM      8  O   UNL     1      11.648 -12.998 -42.720  1.00  0.00    -0.246 OA
BRANCH   7   9
ATOM      9  O   UNL     1      11.677 -11.044 -43.952  1.00  0.00    -0.462 OA
BRANCH   9  10
ATOM     10  C   UNL     1      10.932 -10.129 -43.149  1.00  0.00     0.236 C 
BRANCH  10  11
ATOM     11  C   UNL     1      10.503  -8.896 -43.967  1.00  0.00     0.021 C 
ATOM     12  C   UNL     1      10.023  -7.780 -43.030  1.00  0.00     0.011 C 
ATOM     13  C   UNL     1      11.639  -8.381 -44.860  1.00  0.00     0.011 C 
ENDBRANCH  10  11
ENDBRANCH   9  10
ENDBRANCH   7   9
ENDBRANCH   1   7
BRANCH   6  14
ATOM     14  C   UNL     1      13.004 -14.200 -45.638  1.00  0.00     0.339 C 
ATOM     15  O   UNL     1      12.657 -15.320 -45.171  1.00  0.00    -0.246 OA
BRANCH  14  16
ATOM     16  O   UNL     1      12.482 -13.756 -46.857  1.00  0.00    -0.462 OA
BRANCH  16  17
ATOM     17  C   UNL     1      12.608 -14.498 -48.066  1.00  0.00     0.236 C 
BRANCH  17  18
ATOM     18  C   UNL     1      13.976 -14.226 -48.710  1.00  0.00     0.021 C 
ATOM     19  C   UNL     1      13.827 -13.908 -50.204  1.00  0.00     0.011 C 
ATOM     20  C   UNL     1      14.909 -15.425 -48.511  1.00  0.00     0.011 C 
ENDBRANCH  17  18
ENDBRANCH  16  17
ENDBRANCH  14  16
ENDBRANCH   6  14
TORSDOF 8
ENDMDL
