MODEL 1
REMARK VINA RESULT:    -3.470      0.000      0.000
REMARK INTER + INTRA:          -4.146
REMARK INTER:                  -4.078
REMARK INTRA:                  -0.068
REMARK UNBOUND:                -0.068
REMARK SMILES CCCCC(=O)[O-]
REMARK SMILES IDX 4 1 5 2 6 3 7 4 3 5 2 6 1 7
REMARK H PARENT
REMARK Flexibility Score: inf
ROOT
ATOM      1  C   UNL     1      16.247 -38.123  27.230  1.00  0.00     0.053 C 
ENDROOT
BRANCH   1   2
ATOM      2  C   UNL     1      17.072 -37.294  26.294  1.00  0.00     0.041 C 
ATOM      3  O   UNL     1      16.927 -36.044  26.257  1.00  0.00    -0.550 OA
ATOM      4  O   UNL     1      18.025 -37.899  25.484  1.00  0.00    -0.550 OA
ENDBRANCH   1   2
BRANCH   1   5
ATOM      5  C   UNL     1      16.071 -37.465  28.610  1.00  0.00     0.006 C 
BRANCH   5   6
ATOM      6  C   UNL     1      16.910 -38.117  29.723  1.00  0.00    -0.003 C 
ATOM      7  C   UNL     1      18.365 -37.646  29.734  1.00  0.00     0.004 C 
ENDBRANCH   5   6
ENDBRANCH   1   5
TORSDOF 3
ENDMDL
MODEL 2
REMARK VINA RESULT:    -3.447      9.699     10.361
REMARK INTER + INTRA:          -4.120
REMARK INTER:                  -4.051
REMARK INTRA:                  -0.069
REMARK UNBOUND:                -0.068
REMARK SMILES CCCCC(=O)[O-]
REMARK SMILES IDX 4 1 5 2 6 3 7 4 3 5 2 6 1 7
REMARK H PARENT
REMARK Flexibility Score: inf
ROOT
ATOM      1  C   UNL     1      12.429 -30.608  22.238  1.00  0.00     0.053 C 
ENDROOT
BRANCH   1   2
ATOM      2  C   UNL     1      13.370 -30.922  21.116  1.00  0.00     0.041 C 
ATOM      3  O   UNL     1      13.056 -31.774  20.243  1.00  0.00    -0.550 OA
ATOM      4  O   UNL     1      14.583 -30.253  21.017  1.00  0.00    -0.550 OA
ENDBRANCH   1   2
BRANCH   1   5
ATOM      5  C   UNL     1      13.140 -29.996  23.458  1.00  0.00     0.006 C 
BRANCH   5   6
ATOM      6  C   UNL     1      12.576 -28.630  23.888  1.00  0.00    -0.003 C 
ATOM      7  C   UNL     1      11.257 -28.279  23.200  1.00  0.00     0.004 C 
ENDBRANCH   5   6
ENDBRANCH   1   5
TORSDOF 3
ENDMDL
MODEL 3
REMARK VINA RESULT:    -3.442     10.833     11.739
REMARK INTER + INTRA:          -4.113
REMARK INTER:                  -4.071
REMARK INTRA:                  -0.042
REMARK UNBOUND:                -0.068
REMARK SMILES CCCCC(=O)[O-]
REMARK SMILES IDX 4 1 5 2 6 3 7 4 3 5 2 6 1 7
REMARK H PARENT
REMARK Flexibility Score: inf
ROOT
ATOM      1  C   UNL     1      12.474 -27.271  24.729  1.00  0.00     0.053 C 
ENDROOT
BRANCH   1   2
ATOM      2  C   UNL     1      13.495 -26.203  24.479  1.00  0.00     0.041 C 
ATOM      3  O   UNL     1      13.630 -25.709  23.328  1.00  0.00    -0.550 OA
ATOM      4  O   UNL     1      14.278 -25.731  25.524  1.00  0.00    -0.550 OA
ENDBRANCH   1   2
BRANCH   1   5
ATOM      5  C   UNL     1      12.204 -28.137  23.486  1.00  0.00     0.006 C 
BRANCH   5   6
ATOM      6  C   UNL     1      12.957 -29.480  23.487  1.00  0.00    -0.003 C 
ATOM      7  C   UNL     1      12.601 -30.371  22.297  1.00  0.00     0.004 C 
ENDBRANCH   5   6
ENDBRANCH   1   5
TORSDOF 3
ENDMDL
MODEL 4
REMARK VINA RESULT:    -3.346      9.690     10.658
REMARK INTER + INTRA:          -4.001
REMARK INTER:                  -3.984
REMARK INTRA:                  -0.017
REMARK UNBOUND:                -0.068
REMARK SMILES CCCCC(=O)[O-]
REMARK SMILES IDX 4 1 5 2 6 3 7 4 3 5 2 6 1 7
REMARK H PARENT
REMARK Flexibility Score: inf
ROOT
ATOM      1  C   UNL     1      13.304 -29.188  23.236  1.00  0.00     0.053 C 
ENDROOT
BRANCH   1   2
ATOM      2  C   UNL     1      12.863 -30.548  22.789  1.00  0.00     0.041 C 
ATOM      3  O   UNL     1      12.023 -30.670  21.859  1.00  0.00    -0.550 OA
ATOM      4  O   UNL     1      13.404 -31.683  23.380  1.00  0.00    -0.550 OA
ENDBRANCH   1   2
BRANCH   1   5
ATOM      5  C   UNL     1      12.155 -28.358  23.836  1.00  0.00     0.006 C 
BRANCH   5   6
ATOM      6  C   UNL     1      12.626 -27.146  24.659  1.00  0.00    -0.003 C 
ATOM      7  C   UNL     1      13.372 -26.104  23.826  1.00  0.00     0.004 C 
ENDBRANCH   5   6
ENDBRANCH   1   5
TORSDOF 3
ENDMDL
MODEL 5
REMARK VINA RESULT:    -3.333     10.331     11.144
REMARK INTER + INTRA:          -3.985
REMARK INTER:                  -3.936
REMARK INTRA:                  -0.049
REMARK UNBOUND:                -0.068
REMARK SMILES CCCCC(=O)[O-]
REMARK SMILES IDX 4 1 5 2 6 3 7 4 3 5 2 6 1 7
REMARK H PARENT
REMARK Flexibility Score: inf
ROOT
ATOM      1  C   UNL     1      13.402 -28.607  23.172  1.00  0.00     0.053 C 
ENDROOT
BRANCH   1   2
ATOM      2  C   UNL     1      12.376 -27.744  23.841  1.00  0.00     0.041 C 
ATOM      3  O   UNL     1      12.580 -27.297  25.001  1.00  0.00    -0.550 OA
ATOM      4  O   UNL     1      11.206 -27.408  23.171  1.00  0.00    -0.550 OA
ENDBRANCH   1   2
BRANCH   1   5
ATOM      5  C   UNL     1      13.056 -30.105  23.242  1.00  0.00     0.006 C 
BRANCH   5   6
ATOM      6  C   UNL     1      12.251 -30.616  22.034  1.00  0.00    -0.003 C 
ATOM      7  C   UNL     1      13.131 -31.186  20.922  1.00  0.00     0.004 C 
ENDBRANCH   5   6
ENDBRANCH   1   5
TORSDOF 3
ENDMDL
MODEL 6
REMARK VINA RESULT:    -3.314     13.501     14.610
REMARK INTER + INTRA:          -3.963
REMARK INTER:                  -3.859
REMARK INTRA:                  -0.105
REMARK UNBOUND:                -0.068
REMARK SMILES CCCCC(=O)[O-]
REMARK SMILES IDX 4 1 5 2 6 3 7 4 3 5 2 6 1 7
REMARK H PARENT
REMARK Flexibility Score: inf
ROOT
ATOM      1  C   UNL     1      21.706 -25.092  20.433  1.00  0.00     0.053 C 
ENDROOT
BRANCH   1   2
ATOM      2  C   UNL     1      22.774 -25.511  19.471  1.00  0.00     0.041 C 
ATOM      3  O   UNL     1      23.264 -24.678  18.663  1.00  0.00    -0.550 OA
ATOM      4  O   UNL     1      23.252 -26.815  19.486  1.00  0.00    -0.550 OA
ENDBRANCH   1   2
BRANCH   1   5
ATOM      5  C   UNL     1      20.326 -25.673  20.080  1.00  0.00     0.006 C 
BRANCH   5   6
ATOM      6  C   UNL     1      19.802 -26.701  21.099  1.00  0.00    -0.003 C 
ATOM      7  C   UNL     1      20.209 -28.137  20.769  1.00  0.00     0.004 C 
ENDBRANCH   5   6
ENDBRANCH   1   5
TORSDOF 3
ENDMDL
MODEL 7
REMARK VINA RESULT:    -3.288      8.837      9.532
REMARK INTER + INTRA:          -3.933
REMARK INTER:                  -3.885
REMARK INTRA:                  -0.048
REMARK UNBOUND:                -0.068
REMARK SMILES CCCCC(=O)[O-]
REMARK SMILES IDX 4 1 5 2 6 3 7 4 3 5 2 6 1 7
REMARK H PARENT
REMARK Flexibility Score: inf
ROOT
ATOM      1  C   UNL     1      13.559 -30.925  21.097  1.00  0.00     0.053 C 
ENDROOT
BRANCH   1   2
ATOM      2  C   UNL     1      13.992 -32.357  21.022  1.00  0.00     0.041 C 
ATOM      3  O   UNL     1      13.925 -32.985  19.932  1.00  0.00    -0.550 OA
ATOM      4  O   UNL     1      14.500 -32.991  22.149  1.00  0.00    -0.550 OA
ENDBRANCH   1   2
BRANCH   1   5
ATOM      5  C   UNL     1      12.531 -30.672  22.213  1.00  0.00     0.006 C 
BRANCH   5   6
ATOM      6  C   UNL     1      13.113 -29.958  23.446  1.00  0.00    -0.003 C 
ATOM      7  C   UNL     1      12.372 -28.669  23.801  1.00  0.00     0.004 C 
ENDBRANCH   5   6
ENDBRANCH   1   5
TORSDOF 3
ENDMDL
MODEL 8
REMARK VINA RESULT:    -3.168      7.740      8.773
REMARK INTER + INTRA:          -3.791
REMARK INTER:                  -3.744
REMARK INTRA:                  -0.048
REMARK UNBOUND:                -0.068
REMARK SMILES CCCCC(=O)[O-]
REMARK SMILES IDX 4 1 5 2 6 3 7 4 3 5 2 6 1 7
REMARK H PARENT
REMARK Flexibility Score: inf
ROOT
ATOM      1  C   UNL     1      14.751 -31.767  22.791  1.00  0.00     0.053 C 
ENDROOT
BRANCH   1   2
ATOM      2  C   UNL     1      14.575 -32.903  21.831  1.00  0.00     0.041 C 
ATOM      3  O   UNL     1      13.966 -32.727  20.743  1.00  0.00    -0.550 OA
ATOM      4  O   UNL     1      15.110 -34.151  22.124  1.00  0.00    -0.550 OA
ENDBRANCH   1   2
BRANCH   1   5
ATOM      5  C   UNL     1      13.423 -31.300  23.411  1.00  0.00     0.006 C 
BRANCH   5   6
ATOM      6  C   UNL     1      12.862 -30.010  22.786  1.00  0.00    -0.003 C 
ATOM      7  C   UNL     1      12.586 -28.913  23.815  1.00  0.00     0.004 C 
ENDBRANCH   5   6
ENDBRANCH   1   5
TORSDOF 3
ENDMDL
MODEL 9
REMARK VINA RESULT:    -3.104      7.288      8.140
REMARK INTER + INTRA:          -3.716
REMARK INTER:                  -3.614
REMARK INTRA:                  -0.102
REMARK UNBOUND:                -0.068
REMARK SMILES CCCCC(=O)[O-]
REMARK SMILES IDX 4 1 5 2 6 3 7 4 3 5 2 6 1 7
REMARK H PARENT
REMARK Flexibility Score: inf
ROOT
ATOM      1  C   UNL     1      15.217 -34.788  19.971  1.00  0.00     0.053 C 
ENDROOT
BRANCH   1   2
ATOM      2  C   UNL     1      15.218 -34.065  21.283  1.00  0.00     0.041 C 
ATOM      3  O   UNL     1      14.499 -33.043  21.446  1.00  0.00    -0.550 OA
ATOM      4  O   UNL     1      15.989 -34.536  22.337  1.00  0.00    -0.550 OA
ENDBRANCH   1   2
BRANCH   1   5
ATOM      5  C   UNL     1      16.623 -34.908  19.358  1.00  0.00     0.006 C 
BRANCH   5   6
ATOM      6  C   UNL     1      17.074 -36.359  19.112  1.00  0.00    -0.003 C 
ATOM      7  C   UNL     1      17.531 -37.071  20.385  1.00  0.00     0.004 C 
ENDBRANCH   5   6
ENDBRANCH   1   5
TORSDOF 3
ENDMDL
