MODEL 1
REMARK VINA RESULT:    -5.828      0.000      0.000
REMARK INTER + INTRA:          -9.143
REMARK INTER:                  -7.872
REMARK INTRA:                  -1.271
REMARK UNBOUND:                -1.271
REMARK SMILES O=c1c(-c2ccc(O)cc2)coc2c([C@H]3O[C@@H](CO)[C@@H](O)[C@H](O)[C@@H]3O)c(O)ccc12
REMARK SMILES IDX 3 1 11 2 12 3 13 4 30 5 2 6 1 7 29 8 28 9 26 10 14 11 4 12
REMARK SMILES IDX 5 13 6 14 7 15 10 16 9 17 8 18 15 20 24 21 16 22 22 23 17 24
REMARK SMILES IDX 20 25 25 26 23 28 18 30 19 31 21 33 27 35
REMARK H PARENT 8 19 25 27 23 29 19 32 21 34 27 36
REMARK Flexibility Score: inf
ROOT
ATOM      1  C   UNL     1     -15.748  88.855 -10.235  1.00  0.00     0.065 A 
ATOM      2  C   UNL     1     -16.039  87.486 -10.139  1.00  0.00     0.208 A 
ATOM      3  O   UNL     1     -15.080  86.595  -9.932  1.00  0.00    -0.463 OA
ATOM      4  C   UNL     1     -13.795  86.918  -9.798  1.00  0.00     0.147 A 
ATOM      5  C   UNL     1     -13.409  88.276  -9.881  1.00  0.00     0.066 A 
ATOM      6  C   UNL     1     -14.404  89.250 -10.087  1.00  0.00     0.200 A 
ATOM      7  O   UNL     1     -14.085  90.468 -10.162  1.00  0.00    -0.288 OA
ATOM      8  C   UNL     1     -12.057  88.621  -9.761  1.00  0.00     0.020 A 
ATOM      9  C   UNL     1     -11.094  87.627  -9.616  1.00  0.00     0.047 A 
ATOM     10  C   UNL     1     -11.456  86.277  -9.537  1.00  0.00     0.125 A 
ATOM     11  C   UNL     1     -12.824  85.904  -9.588  1.00  0.00     0.069 A 
ENDROOT
BRANCH   1  12
ATOM     12  C   UNL     1     -16.828  89.826 -10.572  1.00  0.00    -0.011 A 
ATOM     13  C   UNL     1     -17.516  90.500  -9.544  1.00  0.00     0.013 A 
ATOM     14  C   UNL     1     -18.553  91.384  -9.848  1.00  0.00     0.047 A 
ATOM     15  C   UNL     1     -18.921  91.612 -11.180  1.00  0.00     0.115 A 
ATOM     16  C   UNL     1     -17.188  90.082 -11.912  1.00  0.00     0.013 A 
ATOM     17  C   UNL     1     -18.230  90.967 -12.209  1.00  0.00     0.047 A 
BRANCH  15  18
ATOM     18  O   UNL     1     -19.958  92.493 -11.491  1.00  0.00    -0.508 OA
ATOM     19  H   UNL     1     -20.693  92.235 -12.145  1.00  0.00     0.293 HD
ENDBRANCH  15  18
ENDBRANCH   1  12
BRANCH  11  20
ATOM     20  C   UNL     1     -13.259  84.440  -9.531  1.00  0.00     0.188 C 
ATOM     21  C   UNL     1     -13.214  83.816  -8.115  1.00  0.00     0.179 C 
ATOM     22  O   UNL     1     -12.446  83.686 -10.416  1.00  0.00    -0.362 OA
ATOM     23  C   UNL     1     -13.736  82.367  -8.182  1.00  0.00     0.177 C 
ATOM     24  C   UNL     1     -12.995  82.393 -10.617  1.00  0.00     0.176 C 
ATOM     25  C   UNL     1     -12.992  81.583  -9.291  1.00  0.00     0.177 C 
BRANCH  21  26
ATOM     26  O   UNL     1     -13.979  84.582  -7.220  1.00  0.00    -0.387 OA
ATOM     27  H   UNL     1     -14.519  83.943  -6.687  1.00  0.00     0.211 HD
ENDBRANCH  21  26
BRANCH  23  28
ATOM     28  O   UNL     1     -15.118  82.375  -8.447  1.00  0.00    -0.387 OA
ATOM     29  H   UNL     1     -15.440  83.309  -8.327  1.00  0.00     0.211 HD
ENDBRANCH  23  28
BRANCH  24  30
ATOM     30  C   UNL     1     -12.191  81.693 -11.722  1.00  0.00     0.191 C 
BRANCH  30  31
ATOM     31  O   UNL     1     -10.829  82.022 -11.616  1.00  0.00    -0.394 OA
ATOM     32  H   UNL     1     -10.750  82.642 -10.847  1.00  0.00     0.210 HD
ENDBRANCH  30  31
ENDBRANCH  24  30
BRANCH  25  33
ATOM     33  O   UNL     1     -11.668  81.336  -8.885  1.00  0.00    -0.388 OA
ATOM     34  H   UNL     1     -11.549  81.766  -7.994  1.00  0.00     0.211 HD
ENDBRANCH  25  33
ENDBRANCH  11  20
BRANCH  10  35
ATOM     35  O   UNL     1     -10.452  85.318  -9.387  1.00  0.00    -0.507 OA
ATOM     36  H   UNL     1      -9.873  85.023 -10.165  1.00  0.00     0.293 HD
ENDBRANCH  10  35
TORSDOF 9
ENDMDL
MODEL 2
REMARK VINA RESULT:    -5.691      8.324     12.199
REMARK INTER + INTRA:          -8.958
REMARK INTER:                  -7.716
REMARK INTRA:                  -1.241
REMARK UNBOUND:                -1.271
REMARK SMILES O=c1c(-c2ccc(O)cc2)coc2c([C@H]3O[C@@H](CO)[C@@H](O)[C@H](O)[C@@H]3O)c(O)ccc12
REMARK SMILES IDX 3 1 11 2 12 3 13 4 30 5 2 6 1 7 29 8 28 9 26 10 14 11 4 12
REMARK SMILES IDX 5 13 6 14 7 15 10 16 9 17 8 18 15 20 24 21 16 22 22 23 17 24
REMARK SMILES IDX 20 25 25 26 23 28 18 30 19 31 21 33 27 35
REMARK H PARENT 8 19 25 27 23 29 19 32 21 34 27 36
REMARK Flexibility Score: inf
ROOT
ATOM      1  C   UNL     1      -6.577  88.711 -10.948  1.00  0.00     0.065 A 
ATOM      2  C   UNL     1      -6.474  88.801 -12.344  1.00  0.00     0.208 A 
ATOM      3  O   UNL     1      -5.894  89.843 -12.921  1.00  0.00    -0.463 OA
ATOM      4  C   UNL     1      -5.371  90.862 -12.242  1.00  0.00     0.147 A 
ATOM      5  C   UNL     1      -5.430  90.856 -10.829  1.00  0.00     0.066 A 
ATOM      6  C   UNL     1      -6.028  89.758 -10.183  1.00  0.00     0.200 A 
ATOM      7  O   UNL     1      -6.090  89.729  -8.923  1.00  0.00    -0.288 OA
ATOM      8  C   UNL     1      -4.901  91.934 -10.109  1.00  0.00     0.020 A 
ATOM      9  C   UNL     1      -4.370  93.030 -10.783  1.00  0.00     0.047 A 
ATOM     10  C   UNL     1      -4.308  93.057 -12.182  1.00  0.00     0.125 A 
ATOM     11  C   UNL     1      -4.775  91.949 -12.935  1.00  0.00     0.069 A 
ENDROOT
BRANCH   1  12
ATOM     12  C   UNL     1      -7.325  87.582 -10.325  1.00  0.00    -0.011 A 
ATOM     13  C   UNL     1      -6.705  86.326 -10.170  1.00  0.00     0.013 A 
ATOM     14  C   UNL     1      -7.410  85.253  -9.621  1.00  0.00     0.047 A 
ATOM     15  C   UNL     1      -8.742  85.412  -9.218  1.00  0.00     0.115 A 
ATOM     16  C   UNL     1      -8.659  87.739  -9.893  1.00  0.00     0.013 A 
ATOM     17  C   UNL     1      -9.359  86.659  -9.347  1.00  0.00     0.047 A 
BRANCH  15  18
ATOM     18  O   UNL     1      -9.453  84.343  -8.671  1.00  0.00    -0.508 OA
ATOM     19  H   UNL     1     -10.016  83.728  -9.254  1.00  0.00     0.293 HD
ENDBRANCH  15  18
ENDBRANCH   1  12
BRANCH  11  20
ATOM     20  C   UNL     1      -4.749  91.948 -14.463  1.00  0.00     0.188 C 
ATOM     21  C   UNL     1      -3.372  91.594 -15.076  1.00  0.00     0.179 C 
ATOM     22  O   UNL     1      -5.171  93.220 -14.928  1.00  0.00    -0.362 OA
ATOM     23  C   UNL     1      -3.494  91.564 -16.613  1.00  0.00     0.177 C 
ATOM     24  C   UNL     1      -5.441  93.177 -16.320  1.00  0.00     0.176 C 
ATOM     25  C   UNL     1      -4.145  92.873 -17.122  1.00  0.00     0.177 C 
BRANCH  21  26
ATOM     26  O   UNL     1      -2.924  90.356 -14.586  1.00  0.00    -0.387 OA
ATOM     27  H   UNL     1      -2.014  90.215 -14.957  1.00  0.00     0.211 HD
ENDBRANCH  21  26
BRANCH  23  28
ATOM     28  O   UNL     1      -4.274  90.459 -17.003  1.00  0.00    -0.387 OA
ATOM     29  H   UNL     1      -5.191  90.599 -16.644  1.00  0.00     0.211 HD
ENDBRANCH  23  28
BRANCH  24  30
ATOM     30  C   UNL     1      -6.073  94.515 -16.732  1.00  0.00     0.191 C 
BRANCH  30  31
ATOM     31  O   UNL     1      -5.439  95.578 -16.068  1.00  0.00    -0.394 OA
ATOM     32  H   UNL     1      -4.554  95.239 -15.776  1.00  0.00     0.210 HD
ENDBRANCH  30  31
ENDBRANCH  24  30
BRANCH  25  33
ATOM     33  O   UNL     1      -3.235  93.937 -16.981  1.00  0.00    -0.388 OA
ATOM     34  H   UNL     1      -2.320  93.544 -16.994  1.00  0.00     0.211 HD
ENDBRANCH  25  33
ENDBRANCH  11  20
BRANCH  10  35
ATOM     35  O   UNL     1      -3.761  94.177 -12.810  1.00  0.00    -0.507 OA
ATOM     36  H   UNL     1      -4.022  95.120 -12.545  1.00  0.00     0.293 HD
ENDBRANCH  10  35
TORSDOF 9
ENDMDL
MODEL 3
REMARK VINA RESULT:    -5.640      4.437      8.919
REMARK INTER + INTRA:          -8.889
REMARK INTER:                  -8.298
REMARK INTRA:                  -0.591
REMARK UNBOUND:                -1.271
REMARK SMILES O=c1c(-c2ccc(O)cc2)coc2c([C@H]3O[C@@H](CO)[C@@H](O)[C@H](O)[C@@H]3O)c(O)ccc12
REMARK SMILES IDX 3 1 11 2 12 3 13 4 30 5 2 6 1 7 29 8 28 9 26 10 14 11 4 12
REMARK SMILES IDX 5 13 6 14 7 15 10 16 9 17 8 18 15 20 24 21 16 22 22 23 17 24
REMARK SMILES IDX 20 25 25 26 23 28 18 30 19 31 21 33 27 35
REMARK H PARENT 8 19 25 27 23 29 19 32 21 34 27 36
REMARK Flexibility Score: inf
ROOT
ATOM      1  C   UNL     1      -7.228  84.076  -8.886  1.00  0.00     0.065 A 
ATOM      2  C   UNL     1      -8.309  83.231  -9.176  1.00  0.00     0.208 A 
ATOM      3  O   UNL     1      -9.553  83.689  -9.187  1.00  0.00    -0.463 OA
ATOM      4  C   UNL     1      -9.870  84.958  -8.934  1.00  0.00     0.147 A 
ATOM      5  C   UNL     1      -8.842  85.882  -8.631  1.00  0.00     0.066 A 
ATOM      6  C   UNL     1      -7.509  85.431  -8.624  1.00  0.00     0.200 A 
ATOM      7  O   UNL     1      -6.576  86.238  -8.359  1.00  0.00    -0.288 OA
ATOM      8  C   UNL     1      -9.170  87.212  -8.344  1.00  0.00     0.020 A 
ATOM      9  C   UNL     1     -10.504  87.609  -8.303  1.00  0.00     0.047 A 
ATOM     10  C   UNL     1     -11.535  86.708  -8.594  1.00  0.00     0.125 A 
ATOM     11  C   UNL     1     -11.228  85.370  -8.954  1.00  0.00     0.069 A 
ENDROOT
BRANCH   1  12
ATOM     12  C   UNL     1      -5.850  83.517  -8.777  1.00  0.00    -0.011 A 
ATOM     13  C   UNL     1      -5.114  83.225  -9.942  1.00  0.00     0.013 A 
ATOM     14  C   UNL     1      -3.837  82.667  -9.851  1.00  0.00     0.047 A 
ATOM     15  C   UNL     1      -3.273  82.390  -8.599  1.00  0.00     0.115 A 
ATOM     16  C   UNL     1      -5.264  83.259  -7.520  1.00  0.00     0.013 A 
ATOM     17  C   UNL     1      -3.986  82.697  -7.437  1.00  0.00     0.047 A 
BRANCH  15  18
ATOM     18  O   UNL     1      -1.999  81.830  -8.500  1.00  0.00    -0.508 OA
ATOM     19  H   UNL     1      -1.162  82.400  -8.591  1.00  0.00     0.293 HD
ENDBRANCH  15  18
ENDBRANCH   1  12
BRANCH  11  20
ATOM     20  C   UNL     1     -12.324  84.348  -9.255  1.00  0.00     0.188 C 
ATOM     21  C   UNL     1     -12.825  83.567  -8.016  1.00  0.00     0.179 C 
ATOM     22  O   UNL     1     -11.847  83.442 -10.237  1.00  0.00    -0.362 OA
ATOM     23  C   UNL     1     -13.967  82.621  -8.441  1.00  0.00     0.177 C 
ATOM     24  C   UNL     1     -12.914  82.664 -10.757  1.00  0.00     0.176 C 
ATOM     25  C   UNL     1     -13.526  81.762  -9.650  1.00  0.00     0.177 C 
BRANCH  21  26
ATOM     26  O   UNL     1     -13.257  84.457  -7.020  1.00  0.00    -0.387 OA
ATOM     27  H   UNL     1     -12.558  85.157  -6.940  1.00  0.00     0.211 HD
ENDBRANCH  21  26
BRANCH  23  28
ATOM     28  O   UNL     1     -15.104  83.378  -8.780  1.00  0.00    -0.387 OA
ATOM     29  H   UNL     1     -14.849  84.339  -8.731  1.00  0.00     0.211 HD
ENDBRANCH  23  28
BRANCH  24  30
ATOM     30  C   UNL     1     -12.381  81.843 -11.940  1.00  0.00     0.191 C 
BRANCH  30  31
ATOM     31  O   UNL     1     -10.986  81.709 -11.851  1.00  0.00    -0.394 OA
ATOM     32  H   UNL     1     -10.720  81.071 -12.561  1.00  0.00     0.210 HD
ENDBRANCH  30  31
ENDBRANCH  24  30
BRANCH  25  33
ATOM     33  O   UNL     1     -12.579  80.810  -9.231  1.00  0.00    -0.388 OA
ATOM     34  H   UNL     1     -12.104  81.195  -8.445  1.00  0.00     0.211 HD
ENDBRANCH  25  33
ENDBRANCH  11  20
BRANCH  10  35
ATOM     35  O   UNL     1     -12.856  87.156  -8.544  1.00  0.00    -0.507 OA
ATOM     36  H   UNL     1     -13.620  86.614  -8.928  1.00  0.00     0.293 HD
ENDBRANCH  10  35
TORSDOF 9
ENDMDL
MODEL 4
REMARK VINA RESULT:    -5.474      7.441     12.499
REMARK INTER + INTRA:          -8.665
REMARK INTER:                  -7.642
REMARK INTRA:                  -1.023
REMARK UNBOUND:                -1.271
REMARK SMILES O=c1c(-c2ccc(O)cc2)coc2c([C@H]3O[C@@H](CO)[C@@H](O)[C@H](O)[C@@H]3O)c(O)ccc12
REMARK SMILES IDX 3 1 11 2 12 3 13 4 30 5 2 6 1 7 29 8 28 9 26 10 14 11 4 12
REMARK SMILES IDX 5 13 6 14 7 15 10 16 9 17 8 18 15 20 24 21 16 22 22 23 17 24
REMARK SMILES IDX 20 25 25 26 23 28 18 30 19 31 21 33 27 35
REMARK H PARENT 8 19 25 27 23 29 19 32 21 34 27 36
REMARK Flexibility Score: inf
ROOT
ATOM      1  C   UNL     1      -4.823  84.916  -8.693  1.00  0.00     0.065 A 
ATOM      2  C   UNL     1      -4.093  86.091  -8.465  1.00  0.00     0.208 A 
ATOM      3  O   UNL     1      -4.581  87.277  -8.801  1.00  0.00    -0.463 OA
ATOM      4  C   UNL     1      -5.775  87.446  -9.364  1.00  0.00     0.147 A 
ATOM      5  C   UNL     1      -6.582  86.316  -9.631  1.00  0.00     0.066 A 
ATOM      6  C   UNL     1      -6.100  85.043  -9.276  1.00  0.00     0.200 A 
ATOM      7  O   UNL     1      -6.802  84.020  -9.503  1.00  0.00    -0.288 OA
ATOM      8  C   UNL     1      -7.830  86.485 -10.243  1.00  0.00     0.020 A 
ATOM      9  C   UNL     1      -8.250  87.753 -10.634  1.00  0.00     0.047 A 
ATOM     10  C   UNL     1      -7.463  88.883 -10.382  1.00  0.00     0.125 A 
ATOM     11  C   UNL     1      -6.224  88.750  -9.704  1.00  0.00     0.069 A 
ENDROOT
BRANCH   1  12
ATOM     12  C   UNL     1      -4.212  83.588  -8.404  1.00  0.00    -0.011 A 
ATOM     13  C   UNL     1      -4.455  82.954  -7.170  1.00  0.00     0.013 A 
ATOM     14  C   UNL     1      -3.857  81.726  -6.875  1.00  0.00     0.047 A 
ATOM     15  C   UNL     1      -3.009  81.111  -7.804  1.00  0.00     0.115 A 
ATOM     16  C   UNL     1      -3.377  82.948  -9.344  1.00  0.00     0.013 A 
ATOM     17  C   UNL     1      -2.780  81.720  -9.041  1.00  0.00     0.047 A 
BRANCH  15  18
ATOM     18  O   UNL     1      -2.407  79.886  -7.515  1.00  0.00    -0.508 OA
ATOM     19  H   UNL     1      -2.959  79.041  -7.391  1.00  0.00     0.293 HD
ENDBRANCH  15  18
ENDBRANCH   1  12
BRANCH  11  20
ATOM     20  C   UNL     1      -5.324  89.954  -9.433  1.00  0.00     0.188 C 
ATOM     21  C   UNL     1      -5.642  90.705  -8.116  1.00  0.00     0.179 C 
ATOM     22  O   UNL     1      -5.412  90.848 -10.531  1.00  0.00    -0.362 OA
ATOM     23  C   UNL     1      -4.628  91.851  -7.928  1.00  0.00     0.177 C 
ATOM     24  C   UNL     1      -4.386  91.826 -10.461  1.00  0.00     0.176 C 
ATOM     25  C   UNL     1      -4.566  92.723  -9.206  1.00  0.00     0.177 C 
BRANCH  21  26
ATOM     26  O   UNL     1      -5.602  89.818  -7.028  1.00  0.00    -0.387 OA
ATOM     27  H   UNL     1      -6.284  89.119  -7.204  1.00  0.00     0.211 HD
ENDBRANCH  21  26
BRANCH  23  28
ATOM     28  O   UNL     1      -3.356  91.316  -7.651  1.00  0.00    -0.387 OA
ATOM     29  H   UNL     1      -3.492  90.411  -7.259  1.00  0.00     0.211 HD
ENDBRANCH  23  28
BRANCH  24  30
ATOM     30  C   UNL     1      -4.408  92.642 -11.761  1.00  0.00     0.191 C 
BRANCH  30  31
ATOM     31  O   UNL     1      -3.732  91.953 -12.781  1.00  0.00    -0.394 OA
ATOM     32  H   UNL     1      -2.781  91.909 -12.506  1.00  0.00     0.210 HD
ENDBRANCH  30  31
ENDBRANCH  24  30
BRANCH  25  33
ATOM     33  O   UNL     1      -5.749  93.475  -9.321  1.00  0.00    -0.388 OA
ATOM     34  H   UNL     1      -5.508  94.428  -9.165  1.00  0.00     0.211 HD
ENDBRANCH  25  33
ENDBRANCH  11  20
BRANCH  10  35
ATOM     35  O   UNL     1      -7.931  90.134 -10.790  1.00  0.00    -0.507 OA
ATOM     36  H   UNL     1      -7.623  90.991 -10.348  1.00  0.00     0.293 HD
ENDBRANCH  10  35
TORSDOF 9
ENDMDL
MODEL 5
REMARK VINA RESULT:    -5.382      8.570     12.385
REMARK INTER + INTRA:          -8.541
REMARK INTER:                  -8.008
REMARK INTRA:                  -0.533
REMARK UNBOUND:                -1.271
REMARK SMILES O=c1c(-c2ccc(O)cc2)coc2c([C@H]3O[C@@H](CO)[C@@H](O)[C@H](O)[C@@H]3O)c(O)ccc12
REMARK SMILES IDX 3 1 11 2 12 3 13 4 30 5 2 6 1 7 29 8 28 9 26 10 14 11 4 12
REMARK SMILES IDX 5 13 6 14 7 15 10 16 9 17 8 18 15 20 24 21 16 22 22 23 17 24
REMARK SMILES IDX 20 25 25 26 23 28 18 30 19 31 21 33 27 35
REMARK H PARENT 8 19 25 27 23 29 19 32 21 34 27 36
REMARK Flexibility Score: inf
ROOT
ATOM      1  C   UNL     1      -6.036  89.503 -11.025  1.00  0.00     0.065 A 
ATOM      2  C   UNL     1      -5.917  89.812 -12.388  1.00  0.00     0.208 A 
ATOM      3  O   UNL     1      -5.391  90.961 -12.786  1.00  0.00    -0.463 OA
ATOM      4  C   UNL     1      -4.940  91.893 -11.947  1.00  0.00     0.147 A 
ATOM      5  C   UNL     1      -5.021  91.667 -10.553  1.00  0.00     0.066 A 
ATOM      6  C   UNL     1      -5.562  90.451 -10.096  1.00  0.00     0.200 A 
ATOM      7  O   UNL     1      -5.641  90.226  -8.857  1.00  0.00    -0.288 OA
ATOM      8  C   UNL     1      -4.568  92.650  -9.665  1.00  0.00     0.020 A 
ATOM      9  C   UNL     1      -4.093  93.865 -10.152  1.00  0.00     0.047 A 
ATOM     10  C   UNL     1      -4.011  94.109 -11.528  1.00  0.00     0.125 A 
ATOM     11  C   UNL     1      -4.400  93.104 -12.452  1.00  0.00     0.069 A 
ENDROOT
BRANCH   1  12
ATOM     12  C   UNL     1      -6.725  88.252 -10.599  1.00  0.00    -0.011 A 
ATOM     13  C   UNL     1      -6.011  87.038 -10.545  1.00  0.00     0.013 A 
ATOM     14  C   UNL     1      -6.656  85.854 -10.183  1.00  0.00     0.047 A 
ATOM     15  C   UNL     1      -8.021  85.859  -9.869  1.00  0.00     0.115 A 
ATOM     16  C   UNL     1      -8.093  88.252 -10.256  1.00  0.00     0.013 A 
ATOM     17  C   UNL     1      -8.733  87.061  -9.896  1.00  0.00     0.047 A 
BRANCH  15  18
ATOM     18  O   UNL     1      -8.673  84.679  -9.508  1.00  0.00    -0.508 OA
ATOM     19  H   UNL     1      -9.679  84.653  -9.362  1.00  0.00     0.293 HD
ENDBRANCH  15  18
ENDBRANCH   1  12
BRANCH  11  20
ATOM     20  C   UNL     1      -4.350  93.339 -13.961  1.00  0.00     0.188 C 
ATOM     21  C   UNL     1      -5.736  93.532 -14.623  1.00  0.00     0.179 C 
ATOM     22  O   UNL     1      -3.672  92.252 -14.571  1.00  0.00    -0.362 OA
ATOM     23  C   UNL     1      -5.544  93.824 -16.125  1.00  0.00     0.177 C 
ATOM     24  C   UNL     1      -3.345  92.561 -15.917  1.00  0.00     0.176 C 
ATOM     25  C   UNL     1      -4.633  92.749 -16.766  1.00  0.00     0.177 C 
BRANCH  21  26
ATOM     26  O   UNL     1      -6.434  94.578 -13.996  1.00  0.00    -0.387 OA
ATOM     27  H   UNL     1      -6.022  95.424 -14.309  1.00  0.00     0.211 HD
ENDBRANCH  21  26
BRANCH  23  28
ATOM     28  O   UNL     1      -4.969  95.098 -16.289  1.00  0.00    -0.387 OA
ATOM     29  H   UNL     1      -4.282  95.026 -17.005  1.00  0.00     0.211 HD
ENDBRANCH  23  28
BRANCH  24  30
ATOM     30  C   UNL     1      -2.452  91.440 -16.466  1.00  0.00     0.191 C 
BRANCH  30  31
ATOM     31  O   UNL     1      -1.875  90.715 -15.411  1.00  0.00    -0.394 OA
ATOM     32  H   UNL     1      -1.915  91.301 -14.613  1.00  0.00     0.210 HD
ENDBRANCH  30  31
ENDBRANCH  24  30
BRANCH  25  33
ATOM     33  O   UNL     1      -5.331  91.531 -16.852  1.00  0.00    -0.388 OA
ATOM     34  H   UNL     1      -4.833  90.952 -17.490  1.00  0.00     0.211 HD
ENDBRANCH  25  33
ENDBRANCH  11  20
BRANCH  10  35
ATOM     35  O   UNL     1      -3.523  95.342 -11.966  1.00  0.00    -0.507 OA
ATOM     36  H   UNL     1      -2.931  95.423 -12.784  1.00  0.00     0.293 HD
ENDBRANCH  10  35
TORSDOF 9
ENDMDL
MODEL 6
REMARK VINA RESULT:    -5.329      7.232      9.376
REMARK INTER + INTRA:          -8.469
REMARK INTER:                  -7.539
REMARK INTRA:                  -0.930
REMARK UNBOUND:                -1.271
REMARK SMILES O=c1c(-c2ccc(O)cc2)coc2c([C@H]3O[C@@H](CO)[C@@H](O)[C@H](O)[C@@H]3O)c(O)ccc12
REMARK SMILES IDX 3 1 11 2 12 3 13 4 30 5 2 6 1 7 29 8 28 9 26 10 14 11 4 12
REMARK SMILES IDX 5 13 6 14 7 15 10 16 9 17 8 18 15 20 24 21 16 22 22 23 17 24
REMARK SMILES IDX 20 25 25 26 23 28 18 30 19 31 21 33 27 35
REMARK H PARENT 8 19 25 27 23 29 19 32 21 34 27 36
REMARK Flexibility Score: inf
ROOT
ATOM      1  C   UNL     1      -6.240  90.907 -13.862  1.00  0.00     0.065 A 
ATOM      2  C   UNL     1      -6.885  89.687 -13.615  1.00  0.00     0.208 A 
ATOM      3  O   UNL     1      -6.790  89.089 -12.436  1.00  0.00    -0.463 OA
ATOM      4  C   UNL     1      -6.094  89.585 -11.415  1.00  0.00     0.147 A 
ATOM      5  C   UNL     1      -5.409  90.813 -11.575  1.00  0.00     0.066 A 
ATOM      6  C   UNL     1      -5.500  91.481 -12.809  1.00  0.00     0.200 A 
ATOM      7  O   UNL     1      -4.900  92.578 -12.975  1.00  0.00    -0.288 OA
ATOM      8  C   UNL     1      -4.658  91.330 -10.512  1.00  0.00     0.020 A 
ATOM      9  C   UNL     1      -4.542  90.613  -9.325  1.00  0.00     0.047 A 
ATOM     10  C   UNL     1      -5.209  89.394  -9.150  1.00  0.00     0.125 A 
ATOM     11  C   UNL     1      -6.031  88.878 -10.185  1.00  0.00     0.069 A 
ENDROOT
BRANCH   1  12
ATOM     12  C   UNL     1      -6.275  91.508 -15.226  1.00  0.00    -0.011 A 
ATOM     13  C   UNL     1      -7.124  92.601 -15.492  1.00  0.00     0.013 A 
ATOM     14  C   UNL     1      -7.191  93.148 -16.775  1.00  0.00     0.047 A 
ATOM     15  C   UNL     1      -6.416  92.616 -17.814  1.00  0.00     0.115 A 
ATOM     16  C   UNL     1      -5.479  90.996 -16.272  1.00  0.00     0.013 A 
ATOM     17  C   UNL     1      -5.554  91.547 -17.555  1.00  0.00     0.047 A 
BRANCH  15  18
ATOM     18  O   UNL     1      -6.480  93.156 -19.099  1.00  0.00    -0.508 OA
ATOM     19  H   UNL     1      -5.783  92.929 -19.803  1.00  0.00     0.293 HD
ENDBRANCH  15  18
ENDBRANCH   1  12
BRANCH  11  20
ATOM     20  C   UNL     1      -6.754  87.540 -10.044  1.00  0.00     0.188 C 
ATOM     21  C   UNL     1      -7.746  87.473  -8.857  1.00  0.00     0.179 C 
ATOM     22  O   UNL     1      -5.788  86.508  -9.924  1.00  0.00    -0.362 OA
ATOM     23  C   UNL     1      -8.454  86.103  -8.864  1.00  0.00     0.177 C 
ATOM     24  C   UNL     1      -6.396  85.236 -10.084  1.00  0.00     0.176 C 
ATOM     25  C   UNL     1      -7.410  84.963  -8.938  1.00  0.00     0.177 C 
BRANCH  21  26
ATOM     26  O   UNL     1      -8.680  88.519  -8.943  1.00  0.00    -0.387 OA
ATOM     27  H   UNL     1      -9.476  88.234  -8.423  1.00  0.00     0.211 HD
ENDBRANCH  21  26
BRANCH  23  28
ATOM     28  O   UNL     1      -9.324  86.028  -9.968  1.00  0.00    -0.387 OA
ATOM     29  H   UNL     1     -10.244  85.890  -9.614  1.00  0.00     0.211 HD
ENDBRANCH  23  28
BRANCH  24  30
ATOM     30  C   UNL     1      -5.288  84.174 -10.137  1.00  0.00     0.191 C 
BRANCH  30  31
ATOM     31  O   UNL     1      -5.847  82.886 -10.146  1.00  0.00    -0.394 OA
ATOM     32  H   UNL     1      -5.824  82.577 -11.087  1.00  0.00     0.210 HD
ENDBRANCH  30  31
ENDBRANCH  24  30
BRANCH  25  33
ATOM     33  O   UNL     1      -6.730  84.868  -7.710  1.00  0.00    -0.388 OA
ATOM     34  H   UNL     1      -7.347  85.207  -7.006  1.00  0.00     0.211 HD
ENDBRANCH  25  33
ENDBRANCH  11  20
BRANCH  10  35
ATOM     35  O   UNL     1      -5.064  88.716  -7.938  1.00  0.00    -0.507 OA
ATOM     36  H   UNL     1      -5.419  87.776  -7.805  1.00  0.00     0.293 HD
ENDBRANCH  10  35
TORSDOF 9
ENDMDL
MODEL 7
REMARK VINA RESULT:    -5.305      5.345      9.115
REMARK INTER + INTRA:          -8.436
REMARK INTER:                  -7.287
REMARK INTRA:                  -1.150
REMARK UNBOUND:                -1.271
REMARK SMILES O=c1c(-c2ccc(O)cc2)coc2c([C@H]3O[C@@H](CO)[C@@H](O)[C@H](O)[C@@H]3O)c(O)ccc12
REMARK SMILES IDX 3 1 11 2 12 3 13 4 30 5 2 6 1 7 29 8 28 9 26 10 14 11 4 12
REMARK SMILES IDX 5 13 6 14 7 15 10 16 9 17 8 18 15 20 24 21 16 22 22 23 17 24
REMARK SMILES IDX 20 25 25 26 23 28 18 30 19 31 21 33 27 35
REMARK H PARENT 8 19 25 27 23 29 19 32 21 34 27 36
REMARK Flexibility Score: inf
ROOT
ATOM      1  C   UNL     1     -10.179  84.545  -8.912  1.00  0.00     0.065 A 
ATOM      2  C   UNL     1      -9.907  85.900  -8.677  1.00  0.00     0.208 A 
ATOM      3  O   UNL     1      -8.675  86.378  -8.778  1.00  0.00    -0.463 OA
ATOM      4  C   UNL     1      -7.622  85.632  -9.106  1.00  0.00     0.147 A 
ATOM      5  C   UNL     1      -7.803  84.252  -9.360  1.00  0.00     0.066 A 
ATOM      6  C   UNL     1      -9.101  83.714  -9.275  1.00  0.00     0.200 A 
ATOM      7  O   UNL     1      -9.287  82.487  -9.499  1.00  0.00    -0.288 OA
ATOM      8  C   UNL     1      -6.697  83.457  -9.685  1.00  0.00     0.020 A 
ATOM      9  C   UNL     1      -5.421  84.011  -9.703  1.00  0.00     0.047 A 
ATOM     10  C   UNL     1      -5.221  85.373  -9.449  1.00  0.00     0.125 A 
ATOM     11  C   UNL     1      -6.331  86.216  -9.183  1.00  0.00     0.069 A 
ENDROOT
BRANCH   1  12
ATOM     12  C   UNL     1     -11.553  84.009  -8.691  1.00  0.00    -0.011 A 
ATOM     13  C   UNL     1     -11.944  83.584  -7.406  1.00  0.00     0.013 A 
ATOM     14  C   UNL     1     -13.216  83.047  -7.196  1.00  0.00     0.047 A 
ATOM     15  C   UNL     1     -14.118  82.924  -8.261  1.00  0.00     0.115 A 
ATOM     16  C   UNL     1     -12.477  83.906  -9.752  1.00  0.00     0.013 A 
ATOM     17  C   UNL     1     -13.748  83.365  -9.534  1.00  0.00     0.047 A 
BRANCH  15  18
ATOM     18  O   UNL     1     -15.389  82.386  -8.058  1.00  0.00    -0.508 OA
ATOM     19  H   UNL     1     -15.702  82.099  -7.134  1.00  0.00     0.293 HD
ENDBRANCH  15  18
ENDBRANCH   1  12
BRANCH  11  20
ATOM     20  C   UNL     1      -6.154  87.703  -8.876  1.00  0.00     0.188 C 
ATOM     21  C   UNL     1      -6.279  88.628 -10.111  1.00  0.00     0.179 C 
ATOM     22  O   UNL     1      -4.892  87.894  -8.256  1.00  0.00    -0.362 OA
ATOM     23  C   UNL     1      -6.147  90.097  -9.659  1.00  0.00     0.177 C 
ATOM     24  C   UNL     1      -4.806  89.195  -7.693  1.00  0.00     0.176 C 
ATOM     25  C   UNL     1      -4.869  90.279  -8.804  1.00  0.00     0.177 C 
BRANCH  21  26
ATOM     26  O   UNL     1      -7.506  88.413 -10.759  1.00  0.00    -0.387 OA
ATOM     27  H   UNL     1      -7.421  87.558 -11.255  1.00  0.00     0.211 HD
ENDBRANCH  21  26
BRANCH  23  28
ATOM     28  O   UNL     1      -7.280  90.464  -8.911  1.00  0.00    -0.387 OA
ATOM     29  H   UNL     1      -7.247  91.451  -8.783  1.00  0.00     0.211 HD
ENDBRANCH  23  28
BRANCH  24  30
ATOM     30  C   UNL     1      -3.510  89.282  -6.875  1.00  0.00     0.191 C 
BRANCH  30  31
ATOM     31  O   UNL     1      -2.993  90.587  -6.920  1.00  0.00    -0.394 OA
ATOM     32  H   UNL     1      -3.369  91.010  -7.733  1.00  0.00     0.210 HD
ENDBRANCH  30  31
ENDBRANCH  24  30
BRANCH  25  33
ATOM     33  O   UNL     1      -3.733  90.185  -9.629  1.00  0.00    -0.388 OA
ATOM     34  H   UNL     1      -3.689  91.024 -10.164  1.00  0.00     0.211 HD
ENDBRANCH  25  33
ENDBRANCH  11  20
BRANCH  10  35
ATOM     35  O   UNL     1      -3.921  85.881  -9.484  1.00  0.00    -0.507 OA
ATOM     36  H   UNL     1      -3.616  86.615  -8.856  1.00  0.00     0.293 HD
ENDBRANCH  10  35
TORSDOF 9
ENDMDL
MODEL 8
REMARK VINA RESULT:    -5.287      2.978      7.109
REMARK INTER + INTRA:          -8.412
REMARK INTER:                  -7.689
REMARK INTRA:                  -0.723
REMARK UNBOUND:                -1.271
REMARK SMILES O=c1c(-c2ccc(O)cc2)coc2c([C@H]3O[C@@H](CO)[C@@H](O)[C@H](O)[C@@H]3O)c(O)ccc12
REMARK SMILES IDX 3 1 11 2 12 3 13 4 30 5 2 6 1 7 29 8 28 9 26 10 14 11 4 12
REMARK SMILES IDX 5 13 6 14 7 15 10 16 9 17 8 18 15 20 24 21 16 22 22 23 17 24
REMARK SMILES IDX 20 25 25 26 23 28 18 30 19 31 21 33 27 35
REMARK H PARENT 8 19 25 27 23 29 19 32 21 34 27 36
REMARK Flexibility Score: inf
ROOT
ATOM      1  C   UNL     1      -8.817  86.948  -8.952  1.00  0.00     0.065 A 
ATOM      2  C   UNL     1      -9.291  85.629  -8.899  1.00  0.00     0.208 A 
ATOM      3  O   UNL     1     -10.557  85.345  -9.170  1.00  0.00    -0.463 OA
ATOM      4  C   UNL     1     -11.459  86.264  -9.510  1.00  0.00     0.147 A 
ATOM      5  C   UNL     1     -11.069  87.621  -9.588  1.00  0.00     0.066 A 
ATOM      6  C   UNL     1      -9.730  87.956  -9.319  1.00  0.00     0.200 A 
ATOM      7  O   UNL     1      -9.358  89.160  -9.384  1.00  0.00    -0.288 OA
ATOM      8  C   UNL     1     -12.018  88.596  -9.924  1.00  0.00     0.020 A 
ATOM      9  C   UNL     1     -13.347  88.235 -10.126  1.00  0.00     0.047 A 
ATOM     10  C   UNL     1     -13.752  86.897 -10.048  1.00  0.00     0.125 A 
ATOM     11  C   UNL     1     -12.800  85.881  -9.775  1.00  0.00     0.069 A 
ENDROOT
BRANCH   1  12
ATOM     12  C   UNL     1      -7.417  87.256  -8.541  1.00  0.00    -0.011 A 
ATOM     13  C   UNL     1      -6.355  87.031  -9.439  1.00  0.00     0.013 A 
ATOM     14  C   UNL     1      -5.036  87.283  -9.051  1.00  0.00     0.047 A 
ATOM     15  C   UNL     1      -4.756  87.761  -7.765  1.00  0.00     0.115 A 
ATOM     16  C   UNL     1      -7.127  87.762  -7.257  1.00  0.00     0.013 A 
ATOM     17  C   UNL     1      -5.805  88.009  -6.875  1.00  0.00     0.047 A 
BRANCH  15  18
ATOM     18  O   UNL     1      -3.441  88.012  -7.370  1.00  0.00    -0.508 OA
ATOM     19  H   UNL     1      -3.147  88.937  -7.068  1.00  0.00     0.293 HD
ENDBRANCH  15  18
ENDBRANCH   1  12
BRANCH  11  20
ATOM     20  C   UNL     1     -13.205  84.413  -9.657  1.00  0.00     0.188 C 
ATOM     21  C   UNL     1     -13.073  83.828  -8.229  1.00  0.00     0.179 C 
ATOM     22  O   UNL     1     -12.427  83.649 -10.564  1.00  0.00    -0.362 OA
ATOM     23  C   UNL     1     -13.571  82.368  -8.231  1.00  0.00     0.177 C 
ATOM     24  C   UNL     1     -12.962  82.341 -10.701  1.00  0.00     0.176 C 
ATOM     25  C   UNL     1     -12.873  81.568  -9.357  1.00  0.00     0.177 C 
BRANCH  21  26
ATOM     26  O   UNL     1     -13.804  84.604  -7.315  1.00  0.00    -0.387 OA
ATOM     27  H   UNL     1     -14.722  84.689  -7.682  1.00  0.00     0.211 HD
ENDBRANCH  21  26
BRANCH  23  28
ATOM     28  O   UNL     1     -14.966  82.346  -8.421  1.00  0.00    -0.387 OA
ATOM     29  H   UNL     1     -15.198  81.467  -8.827  1.00  0.00     0.211 HD
ENDBRANCH  23  28
BRANCH  24  30
ATOM     30  C   UNL     1     -12.204  81.626 -11.829  1.00  0.00     0.191 C 
BRANCH  30  31
ATOM     31  O   UNL     1     -10.836  81.933 -11.769  1.00  0.00    -0.394 OA
ATOM     32  H   UNL     1     -10.466  81.419 -11.006  1.00  0.00     0.210 HD
ENDBRANCH  30  31
ENDBRANCH  24  30
BRANCH  25  33
ATOM     33  O   UNL     1     -11.525  81.354  -9.016  1.00  0.00    -0.388 OA
ATOM     34  H   UNL     1     -11.248  80.496  -9.440  1.00  0.00     0.211 HD
ENDBRANCH  25  33
ENDBRANCH  11  20
BRANCH  10  35
ATOM     35  O   UNL     1     -15.096  86.587 -10.264  1.00  0.00    -0.507 OA
ATOM     36  H   UNL     1     -15.838  87.239 -10.039  1.00  0.00     0.293 HD
ENDBRANCH  10  35
TORSDOF 9
ENDMDL
MODEL 9
REMARK VINA RESULT:    -5.236     10.382     13.245
REMARK INTER + INTRA:          -8.344
REMARK INTER:                  -7.088
REMARK INTRA:                  -1.256
REMARK UNBOUND:                -1.271
REMARK SMILES O=c1c(-c2ccc(O)cc2)coc2c([C@H]3O[C@@H](CO)[C@@H](O)[C@H](O)[C@@H]3O)c(O)ccc12
REMARK SMILES IDX 3 1 11 2 12 3 13 4 30 5 2 6 1 7 29 8 28 9 26 10 14 11 4 12
REMARK SMILES IDX 5 13 6 14 7 15 10 16 9 17 8 18 15 20 24 21 16 22 22 23 17 24
REMARK SMILES IDX 20 25 25 26 23 28 18 30 19 31 21 33 27 35
REMARK H PARENT 8 19 25 27 23 29 19 32 21 34 27 36
REMARK Flexibility Score: inf
ROOT
ATOM      1  C   UNL     1      -5.787  93.732 -11.748  1.00  0.00     0.065 A 
ATOM      2  C   UNL     1      -5.292  94.334 -12.914  1.00  0.00     0.208 A 
ATOM      3  O   UNL     1      -5.138  93.639 -14.032  1.00  0.00    -0.463 OA
ATOM      4  C   UNL     1      -5.436  92.346 -14.139  1.00  0.00     0.147 A 
ATOM      5  C   UNL     1      -5.940  91.655 -13.012  1.00  0.00     0.066 A 
ATOM      6  C   UNL     1      -6.128  92.366 -11.813  1.00  0.00     0.200 A 
ATOM      7  O   UNL     1      -6.579  91.772 -10.795  1.00  0.00    -0.288 OA
ATOM      8  C   UNL     1      -6.235  90.290 -13.111  1.00  0.00     0.020 A 
ATOM      9  C   UNL     1      -5.981  89.606 -14.297  1.00  0.00     0.047 A 
ATOM     10  C   UNL     1      -5.477  90.271 -15.421  1.00  0.00     0.125 A 
ATOM     11  C   UNL     1      -5.232  91.668 -15.369  1.00  0.00     0.069 A 
ENDROOT
BRANCH   1  12
ATOM     12  C   UNL     1      -5.853  94.506 -10.477  1.00  0.00    -0.011 A 
ATOM     13  C   UNL     1      -6.966  95.327 -10.209  1.00  0.00     0.013 A 
ATOM     14  C   UNL     1      -7.021  96.085  -9.037  1.00  0.00     0.047 A 
ATOM     15  C   UNL     1      -5.968  96.038  -8.114  1.00  0.00     0.115 A 
ATOM     16  C   UNL     1      -4.810  94.446  -9.529  1.00  0.00     0.013 A 
ATOM     17  C   UNL     1      -4.870  95.209  -8.359  1.00  0.00     0.047 A 
BRANCH  15  18
ATOM     18  O   UNL     1      -6.015  96.794  -6.942  1.00  0.00    -0.508 OA
ATOM     19  H   UNL     1      -5.173  96.996  -6.408  1.00  0.00     0.293 HD
ENDBRANCH  15  18
ENDBRANCH   1  12
BRANCH  11  20
ATOM     20  C   UNL     1      -4.659  92.426 -16.565  1.00  0.00     0.188 C 
ATOM     21  C   UNL     1      -5.725  92.951 -17.558  1.00  0.00     0.179 C 
ATOM     22  O   UNL     1      -3.742  91.584 -17.244  1.00  0.00    -0.362 OA
ATOM     23  C   UNL     1      -5.026  93.750 -18.677  1.00  0.00     0.177 C 
ATOM     24  C   UNL     1      -2.974  92.331 -18.175  1.00  0.00     0.176 C 
ATOM     25  C   UNL     1      -3.881  92.911 -19.296  1.00  0.00     0.177 C 
BRANCH  21  26
ATOM     26  O   UNL     1      -6.665  93.750 -16.886  1.00  0.00    -0.387 OA
ATOM     27  H   UNL     1      -6.968  93.231 -16.097  1.00  0.00     0.211 HD
ENDBRANCH  21  26
BRANCH  23  28
ATOM     28  O   UNL     1      -4.511  94.949 -18.151  1.00  0.00    -0.387 OA
ATOM     29  H   UNL     1      -3.675  95.159 -18.648  1.00  0.00     0.211 HD
ENDBRANCH  23  28
BRANCH  24  30
ATOM     30  C   UNL     1      -1.875  91.418 -18.738  1.00  0.00     0.191 C 
BRANCH  30  31
ATOM     31  O   UNL     1      -2.333  90.093 -18.812  1.00  0.00    -0.394 OA
ATOM     32  H   UNL     1      -3.184  90.062 -18.306  1.00  0.00     0.210 HD
ENDBRANCH  30  31
ENDBRANCH  24  30
BRANCH  25  33
ATOM     33  O   UNL     1      -4.425  91.864 -20.061  1.00  0.00    -0.388 OA
ATOM     34  H   UNL     1      -4.988  92.280 -20.769  1.00  0.00     0.211 HD
ENDBRANCH  25  33
ENDBRANCH  11  20
BRANCH  10  35
ATOM     35  O   UNL     1      -5.244  89.540 -16.588  1.00  0.00    -0.507 OA
ATOM     36  H   UNL     1      -5.021  89.992 -17.466  1.00  0.00     0.293 HD
ENDBRANCH  10  35
TORSDOF 9
ENDMDL
