MODEL 1
REMARK VINA RESULT:    -4.821      0.000      0.000
REMARK INTER + INTRA:          -6.119
REMARK INTER:                  -5.807
REMARK INTRA:                  -0.312
REMARK UNBOUND:                -0.312
REMARK SMILES Oc1cc(O)c2cc(O)c(-c3ccc(O)c(O)c3)[o+]c2c1
REMARK SMILES IDX 10 1 19 2 20 3 21 4 2 5 3 6 4 7 6 8 7 9 8 10 11 11 12 12
REMARK SMILES IDX 13 13 14 14 18 15 16 16 15 17 17 19 9 21 1 23 5 25
REMARK H PARENT 15 18 17 20 9 22 1 24 5 26
REMARK Flexibility Score: inf
ROOT
ATOM      1  C   UNL     1      40.071 -30.546  10.630  1.00  0.00     0.402 A 
ATOM      2  O   UNL     1      39.199 -30.724   9.642  1.00  0.00    -0.202 OA
ATOM      3  C   UNL     1      37.897 -30.483   9.764  1.00  0.00     0.368 A 
ATOM      4  C   UNL     1      37.060 -30.699   8.667  1.00  0.00     0.162 A 
ATOM      5  C   UNL     1      35.690 -30.450   8.765  1.00  0.00     0.128 A 
ATOM      6  C   UNL     1      35.152 -29.983   9.969  1.00  0.00     0.093 A 
ATOM      7  C   UNL     1      35.971 -29.758  11.083  1.00  0.00     0.136 A 
ATOM      8  C   UNL     1      37.363 -30.011  10.988  1.00  0.00     0.125 A 
ATOM      9  C   UNL     1      38.257 -29.828  12.055  1.00  0.00     0.078 A 
ATOM     10  C   UNL     1      39.617 -30.104  11.887  1.00  0.00     0.223 A 
ENDROOT
BRANCH   1  11
ATOM     11  C   UNL     1      41.498 -30.840  10.367  1.00  0.00     0.087 A 
ATOM     12  C   UNL     1      42.395 -29.780  10.162  1.00  0.00     0.022 A 
ATOM     13  C   UNL     1      43.750 -30.033   9.931  1.00  0.00     0.051 A 
ATOM     14  C   UNL     1      44.229 -31.350   9.917  1.00  0.00     0.157 A 
ATOM     15  C   UNL     1      41.988 -32.159  10.373  1.00  0.00     0.068 A 
ATOM     16  C   UNL     1      43.348 -32.414  10.143  1.00  0.00     0.158 A 
BRANCH  14  17
ATOM     17  O   UNL     1      45.579 -31.606   9.686  1.00  0.00    -0.504 OA
ATOM     18  H   UNL     1      45.934 -32.552   9.611  1.00  0.00     0.293 HD
ENDBRANCH  14  17
BRANCH  16  19
ATOM     19  O   UNL     1      43.830 -33.721  10.144  1.00  0.00    -0.504 OA
ATOM     20  H   UNL     1      44.353 -34.094   9.360  1.00  0.00     0.293 HD
ENDBRANCH  16  19
ENDBRANCH   1  11
BRANCH  10  21
ATOM     21  O   UNL     1      40.496 -29.971  12.961  1.00  0.00    -0.500 OA
ATOM     22  H   UNL     1      40.828 -30.775  13.481  1.00  0.00     0.294 HD
ENDBRANCH  10  21
BRANCH   5  23
ATOM     23  O   UNL     1      34.871 -30.672   7.660  1.00  0.00    -0.507 OA
ATOM     24  H   UNL     1      33.882 -30.863   7.764  1.00  0.00     0.293 HD
ENDBRANCH   5  23
BRANCH   7  25
ATOM     25  O   UNL     1      35.357 -29.287  12.248  1.00  0.00    -0.507 OA
ATOM     26  H   UNL     1      35.839 -29.125  13.120  1.00  0.00     0.293 HD
ENDBRANCH   7  25
TORSDOF 6
ENDMDL
MODEL 2
REMARK VINA RESULT:    -4.496      1.852      2.598
REMARK INTER + INTRA:          -5.727
REMARK INTER:                  -5.374
REMARK INTRA:                  -0.353
REMARK UNBOUND:                -0.312
REMARK SMILES Oc1cc(O)c2cc(O)c(-c3ccc(O)c(O)c3)[o+]c2c1
REMARK SMILES IDX 10 1 19 2 20 3 21 4 2 5 3 6 4 7 6 8 7 9 8 10 11 11 12 12
REMARK SMILES IDX 13 13 14 14 18 15 16 16 15 17 17 19 9 21 1 23 5 25
REMARK H PARENT 15 18 17 20 9 22 1 24 5 26
REMARK Flexibility Score: inf
ROOT
ATOM      1  C   UNL     1      40.770 -30.727  11.086  1.00  0.00     0.402 A 
ATOM      2  O   UNL     1      39.780 -31.195  11.841  1.00  0.00    -0.202 OA
ATOM      3  C   UNL     1      38.500 -30.909  11.625  1.00  0.00     0.368 A 
ATOM      4  C   UNL     1      37.530 -31.451  12.472  1.00  0.00     0.162 A 
ATOM      5  C   UNL     1      36.178 -31.170  12.268  1.00  0.00     0.128 A 
ATOM      6  C   UNL     1      35.791 -30.341  11.210  1.00  0.00     0.093 A 
ATOM      7  C   UNL     1      36.745 -29.786  10.346  1.00  0.00     0.136 A 
ATOM      8  C   UNL     1      38.119 -30.067  10.552  1.00  0.00     0.125 A 
ATOM      9  C   UNL     1      39.144 -29.544   9.747  1.00  0.00     0.078 A 
ATOM     10  C   UNL     1      40.479 -29.862  10.014  1.00  0.00     0.223 A 
ENDROOT
BRANCH   1  11
ATOM     11  C   UNL     1      42.155 -31.128  11.421  1.00  0.00     0.087 A 
ATOM     12  C   UNL     1      42.874 -30.392  12.378  1.00  0.00     0.022 A 
ATOM     13  C   UNL     1      44.175 -30.763  12.725  1.00  0.00     0.051 A 
ATOM     14  C   UNL     1      44.772 -31.884  12.132  1.00  0.00     0.157 A 
ATOM     15  C   UNL     1      42.751 -32.264  10.844  1.00  0.00     0.068 A 
ATOM     16  C   UNL     1      44.057 -32.638  11.194  1.00  0.00     0.158 A 
BRANCH  14  17
ATOM     17  O   UNL     1      46.071 -32.256  12.474  1.00  0.00    -0.504 OA
ATOM     18  H   UNL     1      46.833 -31.589  12.466  1.00  0.00     0.293 HD
ENDBRANCH  14  17
BRANCH  16  19
ATOM     19  O   UNL     1      44.648 -33.761  10.616  1.00  0.00    -0.504 OA
ATOM     20  H   UNL     1      45.063 -34.491  11.183  1.00  0.00     0.293 HD
ENDBRANCH  16  19
ENDBRANCH   1  11
BRANCH  10  21
ATOM     21  O   UNL     1      41.500 -29.304   9.246  1.00  0.00    -0.500 OA
ATOM     22  H   UNL     1      41.555 -28.305   9.079  1.00  0.00     0.294 HD
ENDBRANCH  10  21
BRANCH   5  23
ATOM     23  O   UNL     1      35.226 -31.720  13.124  1.00  0.00    -0.507 OA
ATOM     24  H   UNL     1      34.460 -31.166  13.489  1.00  0.00     0.293 HD
ENDBRANCH   5  23
BRANCH   7  25
ATOM     25  O   UNL     1      36.277 -28.970   9.311  1.00  0.00    -0.507 OA
ATOM     26  H   UNL     1      35.383 -29.085   8.855  1.00  0.00     0.293 HD
ENDBRANCH   7  25
TORSDOF 6
ENDMDL
MODEL 3
REMARK VINA RESULT:    -4.403      1.511      6.951
REMARK INTER + INTRA:          -5.616
REMARK INTER:                  -5.265
REMARK INTRA:                  -0.351
REMARK UNBOUND:                -0.312
REMARK SMILES Oc1cc(O)c2cc(O)c(-c3ccc(O)c(O)c3)[o+]c2c1
REMARK SMILES IDX 10 1 19 2 20 3 21 4 2 5 3 6 4 7 6 8 7 9 8 10 11 11 12 12
REMARK SMILES IDX 13 13 14 14 18 15 16 16 15 17 17 19 9 21 1 23 5 25
REMARK H PARENT 15 18 17 20 9 22 1 24 5 26
REMARK Flexibility Score: inf
ROOT
ATOM      1  C   UNL     1      39.981 -30.753  10.381  1.00  0.00     0.402 A 
ATOM      2  O   UNL     1      40.984 -30.072   9.833  1.00  0.00    -0.202 OA
ATOM      3  C   UNL     1      42.262 -30.400   9.995  1.00  0.00     0.368 A 
ATOM      4  C   UNL     1      43.247 -29.624   9.377  1.00  0.00     0.162 A 
ATOM      5  C   UNL     1      44.596 -29.946   9.525  1.00  0.00     0.128 A 
ATOM      6  C   UNL     1      44.967 -31.052  10.297  1.00  0.00     0.093 A 
ATOM      7  C   UNL     1      43.999 -31.846  10.927  1.00  0.00     0.136 A 
ATOM      8  C   UNL     1      42.627 -31.520  10.780  1.00  0.00     0.125 A 
ATOM      9  C   UNL     1      41.590 -32.249  11.385  1.00  0.00     0.078 A 
ATOM     10  C   UNL     1      40.260 -31.865  11.198  1.00  0.00     0.223 A 
ENDROOT
BRANCH   1  11
ATOM     11  C   UNL     1      38.598 -30.294  10.118  1.00  0.00     0.087 A 
ATOM     12  C   UNL     1      38.016 -29.338  10.966  1.00  0.00     0.022 A 
ATOM     13  C   UNL     1      36.719 -28.875  10.727  1.00  0.00     0.051 A 
ATOM     14  C   UNL     1      35.992 -29.351   9.627  1.00  0.00     0.157 A 
ATOM     15  C   UNL     1      37.872 -30.752   9.004  1.00  0.00     0.068 A 
ATOM     16  C   UNL     1      36.571 -30.287   8.762  1.00  0.00     0.158 A 
BRANCH  14  17
ATOM     17  O   UNL     1      34.698 -28.893   9.385  1.00  0.00    -0.504 OA
ATOM     18  H   UNL     1      34.475 -28.339   8.567  1.00  0.00     0.293 HD
ENDBRANCH  14  17
BRANCH  16  19
ATOM     19  O   UNL     1      35.851 -30.747   7.660  1.00  0.00    -0.504 OA
ATOM     20  H   UNL     1      36.308 -30.969   6.784  1.00  0.00     0.293 HD
ENDBRANCH  16  19
ENDBRANCH   1  11
BRANCH  10  21
ATOM     21  O   UNL     1      39.233 -32.558  11.839  1.00  0.00    -0.500 OA
ATOM     22  H   UNL     1      39.418 -33.195  12.605  1.00  0.00     0.294 HD
ENDBRANCH  10  21
BRANCH   5  23
ATOM     23  O   UNL     1      45.563 -29.160   8.901  1.00  0.00    -0.507 OA
ATOM     24  H   UNL     1      45.308 -28.412   8.267  1.00  0.00     0.293 HD
ENDBRANCH   5  23
BRANCH   7  25
ATOM     25  O   UNL     1      44.451 -32.935  11.679  1.00  0.00    -0.507 OA
ATOM     26  H   UNL     1      45.248 -33.505  11.434  1.00  0.00     0.293 HD
ENDBRANCH   7  25
TORSDOF 6
ENDMDL
MODEL 4
REMARK VINA RESULT:    -4.393      1.567      7.183
REMARK INTER + INTRA:          -5.604
REMARK INTER:                  -5.290
REMARK INTRA:                  -0.314
REMARK UNBOUND:                -0.312
REMARK SMILES Oc1cc(O)c2cc(O)c(-c3ccc(O)c(O)c3)[o+]c2c1
REMARK SMILES IDX 10 1 19 2 20 3 21 4 2 5 3 6 4 7 6 8 7 9 8 10 11 11 12 12
REMARK SMILES IDX 13 13 14 14 18 15 16 16 15 17 17 19 9 21 1 23 5 25
REMARK H PARENT 15 18 17 20 9 22 1 24 5 26
REMARK Flexibility Score: inf
ROOT
ATOM      1  C   UNL     1      40.746 -30.670  10.621  1.00  0.00     0.402 A 
ATOM      2  O   UNL     1      41.149 -31.743  11.295  1.00  0.00    -0.202 OA
ATOM      3  C   UNL     1      42.402 -32.187  11.279  1.00  0.00     0.368 A 
ATOM      4  C   UNL     1      42.731 -33.324  12.022  1.00  0.00     0.162 A 
ATOM      5  C   UNL     1      44.038 -33.811  12.026  1.00  0.00     0.128 A 
ATOM      6  C   UNL     1      45.026 -33.158  11.282  1.00  0.00     0.093 A 
ATOM      7  C   UNL     1      44.723 -32.017  10.529  1.00  0.00     0.136 A 
ATOM      8  C   UNL     1      43.394 -31.521  10.520  1.00  0.00     0.125 A 
ATOM      9  C   UNL     1      42.995 -30.393   9.784  1.00  0.00     0.078 A 
ATOM     10  C   UNL     1      41.665 -29.965   9.821  1.00  0.00     0.223 A 
ENDROOT
BRANCH   1  11
ATOM     11  C   UNL     1      39.325 -30.269  10.729  1.00  0.00     0.087 A 
ATOM     12  C   UNL     1      38.901 -29.520  11.839  1.00  0.00     0.022 A 
ATOM     13  C   UNL     1      37.569 -29.114  11.952  1.00  0.00     0.051 A 
ATOM     14  C   UNL     1      36.645 -29.436  10.949  1.00  0.00     0.157 A 
ATOM     15  C   UNL     1      38.398 -30.572   9.714  1.00  0.00     0.068 A 
ATOM     16  C   UNL     1      37.062 -30.163   9.827  1.00  0.00     0.158 A 
BRANCH  14  17
ATOM     17  O   UNL     1      35.315 -29.034  11.059  1.00  0.00    -0.504 OA
ATOM     18  H   UNL     1      34.731 -28.903  10.242  1.00  0.00     0.293 HD
ENDBRANCH  14  17
BRANCH  16  19
ATOM     19  O   UNL     1      36.143 -30.469   8.824  1.00  0.00    -0.504 OA
ATOM     20  H   UNL     1      36.403 -31.031   8.022  1.00  0.00     0.293 HD
ENDBRANCH  16  19
ENDBRANCH   1  11
BRANCH  10  21
ATOM     21  O   UNL     1      41.258 -28.875   9.052  1.00  0.00    -0.500 OA
ATOM     22  H   UNL     1      40.964 -28.985   8.088  1.00  0.00     0.294 HD
ENDBRANCH  10  21
BRANCH   5  23
ATOM     23  O   UNL     1      44.346 -34.946  12.774  1.00  0.00    -0.507 OA
ATOM     24  H   UNL     1      44.405 -35.862  12.346  1.00  0.00     0.293 HD
ENDBRANCH   5  23
BRANCH   7  25
ATOM     25  O   UNL     1      45.767 -31.422   9.814  1.00  0.00    -0.507 OA
ATOM     26  H   UNL     1      46.732 -31.417  10.113  1.00  0.00     0.293 HD
ENDBRANCH   7  25
TORSDOF 6
ENDMDL
MODEL 5
REMARK VINA RESULT:    -4.271      1.745      7.299
REMARK INTER + INTRA:          -5.456
REMARK INTER:                  -5.192
REMARK INTRA:                  -0.264
REMARK UNBOUND:                -0.312
REMARK SMILES Oc1cc(O)c2cc(O)c(-c3ccc(O)c(O)c3)[o+]c2c1
REMARK SMILES IDX 10 1 19 2 20 3 21 4 2 5 3 6 4 7 6 8 7 9 8 10 11 11 12 12
REMARK SMILES IDX 13 13 14 14 18 15 16 16 15 17 17 19 9 21 1 23 5 25
REMARK H PARENT 15 18 17 20 9 22 1 24 5 26
REMARK Flexibility Score: inf
ROOT
ATOM      1  C   UNL     1      40.383 -30.661  10.717  1.00  0.00     0.402 A 
ATOM      2  O   UNL     1      41.265 -29.936  11.400  1.00  0.00    -0.202 OA
ATOM      3  C   UNL     1      42.548 -30.266  11.514  1.00  0.00     0.368 A 
ATOM      4  C   UNL     1      43.399 -29.439  12.251  1.00  0.00     0.162 A 
ATOM      5  C   UNL     1      44.751 -29.759  12.386  1.00  0.00     0.128 A 
ATOM      6  C   UNL     1      45.257 -30.913  11.780  1.00  0.00     0.093 A 
ATOM      7  C   UNL     1      44.424 -31.759  11.036  1.00  0.00     0.136 A 
ATOM      8  C   UNL     1      43.049 -31.438  10.899  1.00  0.00     0.125 A 
ATOM      9  C   UNL     1      42.138 -32.233  10.184  1.00  0.00     0.078 A 
ATOM     10  C   UNL     1      40.795 -31.855  10.097  1.00  0.00     0.223 A 
ENDROOT
BRANCH   1  11
ATOM     11  C   UNL     1      38.983 -30.183  10.654  1.00  0.00     0.087 A 
ATOM     12  C   UNL     1      38.473 -29.697   9.439  1.00  0.00     0.022 A 
ATOM     13  C   UNL     1      37.150 -29.258   9.351  1.00  0.00     0.051 A 
ATOM     14  C   UNL     1      36.312 -29.314  10.473  1.00  0.00     0.157 A 
ATOM     15  C   UNL     1      38.132 -30.255  11.772  1.00  0.00     0.068 A 
ATOM     16  C   UNL     1      36.803 -29.817  11.683  1.00  0.00     0.158 A 
BRANCH  14  17
ATOM     17  O   UNL     1      34.992 -28.876  10.389  1.00  0.00    -0.504 OA
ATOM     18  H   UNL     1      34.221 -29.452  10.704  1.00  0.00     0.293 HD
ENDBRANCH  14  17
BRANCH  16  19
ATOM     19  O   UNL     1      35.962 -29.884  12.794  1.00  0.00    -0.504 OA
ATOM     20  H   UNL     1      36.195 -30.452  13.600  1.00  0.00     0.293 HD
ENDBRANCH  16  19
ENDBRANCH   1  11
BRANCH  10  21
ATOM     21  O   UNL     1      39.880 -32.670   9.430  1.00  0.00    -0.500 OA
ATOM     22  H   UNL     1      39.095 -32.282   8.919  1.00  0.00     0.294 HD
ENDBRANCH  10  21
BRANCH   5  23
ATOM     23  O   UNL     1      45.584 -28.921  13.125  1.00  0.00    -0.507 OA
ATOM     24  H   UNL     1      45.522 -27.912  13.050  1.00  0.00     0.293 HD
ENDBRANCH   5  23
BRANCH   7  25
ATOM     25  O   UNL     1      45.007 -32.892  10.460  1.00  0.00    -0.507 OA
ATOM     26  H   UNL     1      44.753 -33.266   9.557  1.00  0.00     0.293 HD
ENDBRANCH   7  25
TORSDOF 6
ENDMDL
MODEL 6
REMARK VINA RESULT:    -3.971      2.286      7.286
REMARK INTER + INTRA:          -5.096
REMARK INTER:                  -5.327
REMARK INTRA:                   0.231
REMARK UNBOUND:                -0.312
REMARK SMILES Oc1cc(O)c2cc(O)c(-c3ccc(O)c(O)c3)[o+]c2c1
REMARK SMILES IDX 10 1 19 2 20 3 21 4 2 5 3 6 4 7 6 8 7 9 8 10 11 11 12 12
REMARK SMILES IDX 13 13 14 14 18 15 16 16 15 17 17 19 9 21 1 23 5 25
REMARK H PARENT 15 18 17 20 9 22 1 24 5 26
REMARK Flexibility Score: inf
ROOT
ATOM      1  C   UNL     1      40.562 -31.083  11.552  1.00  0.00     0.402 A 
ATOM      2  O   UNL     1      41.144 -32.128  12.136  1.00  0.00    -0.202 OA
ATOM      3  C   UNL     1      42.382 -32.523  11.857  1.00  0.00     0.368 A 
ATOM      4  C   UNL     1      42.909 -33.631  12.525  1.00  0.00     0.162 A 
ATOM      5  C   UNL     1      44.206 -34.067  12.255  1.00  0.00     0.128 A 
ATOM      6  C   UNL     1      44.985 -33.392  11.309  1.00  0.00     0.093 A 
ATOM      7  C   UNL     1      44.480 -32.278  10.626  1.00  0.00     0.136 A 
ATOM      8  C   UNL     1      43.161 -31.833  10.896  1.00  0.00     0.125 A 
ATOM      9  C   UNL     1      42.567 -30.736  10.251  1.00  0.00     0.078 A 
ATOM     10  C   UNL     1      41.259 -30.360  10.567  1.00  0.00     0.223 A 
ENDROOT
BRANCH   1  11
ATOM     11  C   UNL     1      39.181 -30.736  11.956  1.00  0.00     0.087 A 
ATOM     12  C   UNL     1      38.769 -29.393  11.923  1.00  0.00     0.022 A 
ATOM     13  C   UNL     1      37.465 -29.043  12.281  1.00  0.00     0.051 A 
ATOM     14  C   UNL     1      36.549 -30.033  12.664  1.00  0.00     0.157 A 
ATOM     15  C   UNL     1      38.251 -31.727  12.321  1.00  0.00     0.068 A 
ATOM     16  C   UNL     1      36.941 -31.376  12.679  1.00  0.00     0.158 A 
BRANCH  14  17
ATOM     17  O   UNL     1      35.247 -29.687  13.023  1.00  0.00    -0.504 OA
ATOM     18  H   UNL     1      34.470 -29.809  12.385  1.00  0.00     0.293 HD
ENDBRANCH  14  17
BRANCH  16  19
ATOM     19  O   UNL     1      36.023 -32.359  13.045  1.00  0.00    -0.504 OA
ATOM     20  H   UNL     1      35.830 -33.154  12.447  1.00  0.00     0.293 HD
ENDBRANCH  16  19
ENDBRANCH   1  11
BRANCH  10  21
ATOM     21  O   UNL     1      40.652 -29.302   9.890  1.00  0.00    -0.500 OA
ATOM     22  H   UNL     1      40.252 -28.513  10.385  1.00  0.00     0.294 HD
ENDBRANCH  10  21
BRANCH   5  23
ATOM     23  O   UNL     1      44.713 -35.175  12.932  1.00  0.00    -0.507 OA
ATOM     24  H   UNL     1      45.182 -35.927  12.441  1.00  0.00     0.293 HD
ENDBRANCH   5  23
BRANCH   7  25
ATOM     25  O   UNL     1      45.322 -31.656   9.699  1.00  0.00    -0.507 OA
ATOM     26  H   UNL     1      45.080 -30.827   9.177  1.00  0.00     0.293 HD
ENDBRANCH   7  25
TORSDOF 6
ENDMDL
MODEL 7
REMARK VINA RESULT:    -3.684      1.492      6.774
REMARK INTER + INTRA:          -4.749
REMARK INTER:                  -4.889
REMARK INTRA:                   0.139
REMARK UNBOUND:                -0.312
REMARK SMILES Oc1cc(O)c2cc(O)c(-c3ccc(O)c(O)c3)[o+]c2c1
REMARK SMILES IDX 10 1 19 2 20 3 21 4 2 5 3 6 4 7 6 8 7 9 8 10 11 11 12 12
REMARK SMILES IDX 13 13 14 14 18 15 16 16 15 17 17 19 9 21 1 23 5 25
REMARK H PARENT 15 18 17 20 9 22 1 24 5 26
REMARK Flexibility Score: inf
ROOT
ATOM      1  C   UNL     1      38.865 -30.666  10.714  1.00  0.00     0.402 A 
ATOM      2  O   UNL     1      39.713 -31.533  10.168  1.00  0.00    -0.202 OA
ATOM      3  C   UNL     1      40.966 -31.687  10.582  1.00  0.00     0.368 A 
ATOM      4  C   UNL     1      41.782 -32.627   9.946  1.00  0.00     0.162 A 
ATOM      5  C   UNL     1      43.101 -32.813  10.361  1.00  0.00     0.128 A 
ATOM      6  C   UNL     1      43.611 -32.054  11.420  1.00  0.00     0.093 A 
ATOM      7  C   UNL     1      42.814 -31.106  12.074  1.00  0.00     0.136 A 
ATOM      8  C   UNL     1      41.473 -30.913  11.653  1.00  0.00     0.125 A 
ATOM      9  C   UNL     1      40.606 -29.977  12.240  1.00  0.00     0.078 A 
ATOM     10  C   UNL     1      39.298 -29.839  11.767  1.00  0.00     0.223 A 
ENDROOT
BRANCH   1  11
ATOM     11  C   UNL     1      37.489 -30.595  10.170  1.00  0.00     0.087 A 
ATOM     12  C   UNL     1      36.410 -30.392  11.046  1.00  0.00     0.022 A 
ATOM     13  C   UNL     1      35.106 -30.302  10.554  1.00  0.00     0.051 A 
ATOM     14  C   UNL     1      34.863 -30.398   9.177  1.00  0.00     0.157 A 
ATOM     15  C   UNL     1      37.242 -30.670   8.787  1.00  0.00     0.068 A 
ATOM     16  C   UNL     1      35.933 -30.578   8.292  1.00  0.00     0.158 A 
BRANCH  14  17
ATOM     17  O   UNL     1      33.563 -30.310   8.682  1.00  0.00    -0.504 OA
ATOM     18  H   UNL     1      32.757 -30.417   9.286  1.00  0.00     0.293 HD
ENDBRANCH  14  17
BRANCH  16  19
ATOM     19  O   UNL     1      35.690 -30.658   6.922  1.00  0.00    -0.504 OA
ATOM     20  H   UNL     1      36.249 -31.249   6.318  1.00  0.00     0.293 HD
ENDBRANCH  16  19
ENDBRANCH   1  11
BRANCH  10  21
ATOM     21  O   UNL     1      38.452 -28.875  12.316  1.00  0.00    -0.500 OA
ATOM     22  H   UNL     1      38.341 -27.961  11.892  1.00  0.00     0.294 HD
ENDBRANCH  10  21
BRANCH   5  23
ATOM     23  O   UNL     1      43.898 -33.755   9.714  1.00  0.00    -0.507 OA
ATOM     24  H   UNL     1      44.804 -33.509   9.332  1.00  0.00     0.293 HD
ENDBRANCH   5  23
BRANCH   7  25
ATOM     25  O   UNL     1      43.396 -30.391  13.125  1.00  0.00    -0.507 OA
ATOM     26  H   UNL     1      44.367 -30.464  13.395  1.00  0.00     0.293 HD
ENDBRANCH   7  25
TORSDOF 6
ENDMDL
MODEL 8
REMARK VINA RESULT:    -2.622     16.659     18.521
REMARK INTER + INTRA:          -3.471
REMARK INTER:                  -3.967
REMARK INTRA:                   0.496
REMARK UNBOUND:                -0.312
REMARK SMILES Oc1cc(O)c2cc(O)c(-c3ccc(O)c(O)c3)[o+]c2c1
REMARK SMILES IDX 10 1 19 2 20 3 21 4 2 5 3 6 4 7 6 8 7 9 8 10 11 11 12 12
REMARK SMILES IDX 13 13 14 14 18 15 16 16 15 17 17 19 9 21 1 23 5 25
REMARK H PARENT 15 18 17 20 9 22 1 24 5 26
REMARK Flexibility Score: inf
ROOT
ATOM      1  C   UNL     1      25.962 -40.089   3.672  1.00  0.00     0.402 A 
ATOM      2  O   UNL     1      26.043 -38.871   3.141  1.00  0.00    -0.202 OA
ATOM      3  C   UNL     1      26.077 -38.648   1.831  1.00  0.00     0.368 A 
ATOM      4  C   UNL     1      26.159 -37.332   1.368  1.00  0.00     0.162 A 
ATOM      5  C   UNL     1      26.193 -37.066  -0.002  1.00  0.00     0.128 A 
ATOM      6  C   UNL     1      26.145 -38.123  -0.917  1.00  0.00     0.093 A 
ATOM      7  C   UNL     1      26.063 -39.451  -0.478  1.00  0.00     0.136 A 
ATOM      8  C   UNL     1      26.030 -39.725   0.913  1.00  0.00     0.125 A 
ATOM      9  C   UNL     1      25.962 -41.023   1.444  1.00  0.00     0.078 A 
ATOM     10  C   UNL     1      25.938 -41.215   2.828  1.00  0.00     0.223 A 
ENDROOT
BRANCH   1  11
ATOM     11  C   UNL     1      25.921 -40.208   5.147  1.00  0.00     0.087 A 
ATOM     12  C   UNL     1      25.895 -41.482   5.736  1.00  0.00     0.022 A 
ATOM     13  C   UNL     1      25.875 -41.619   7.126  1.00  0.00     0.051 A 
ATOM     14  C   UNL     1      25.897 -40.484   7.948  1.00  0.00     0.157 A 
ATOM     15  C   UNL     1      25.963 -39.072   5.976  1.00  0.00     0.068 A 
ATOM     16  C   UNL     1      25.945 -39.209   7.372  1.00  0.00     0.158 A 
BRANCH  14  17
ATOM     17  O   UNL     1      25.876 -40.616   9.335  1.00  0.00    -0.504 OA
ATOM     18  H   UNL     1      26.466 -40.049   9.931  1.00  0.00     0.293 HD
ENDBRANCH  14  17
BRANCH  16  19
ATOM     19  O   UNL     1      25.982 -38.082   8.191  1.00  0.00    -0.504 OA
ATOM     20  H   UNL     1      26.511 -38.072   9.055  1.00  0.00     0.293 HD
ENDBRANCH  16  19
ENDBRANCH   1  11
BRANCH  10  21
ATOM     21  O   UNL     1      25.921 -42.506   3.356  1.00  0.00    -0.500 OA
ATOM     22  H   UNL     1      25.993 -43.325   2.763  1.00  0.00     0.294 HD
ENDBRANCH  10  21
BRANCH   5  23
ATOM     23  O   UNL     1      26.276 -35.747  -0.443  1.00  0.00    -0.507 OA
ATOM     24  H   UNL     1      26.995 -35.450  -1.091  1.00  0.00     0.293 HD
ENDBRANCH   5  23
BRANCH   7  25
ATOM     25  O   UNL     1      26.016 -40.449  -1.456  1.00  0.00    -0.507 OA
ATOM     26  H   UNL     1      26.313 -40.323  -2.413  1.00  0.00     0.293 HD
ENDBRANCH   7  25
TORSDOF 6
ENDMDL
