MODEL 1
REMARK VINA RESULT:    -3.937      0.000      0.000
REMARK INTER + INTRA:         -16.447
REMARK INTER:                 -10.382
REMARK INTRA:                  -6.065
REMARK UNBOUND:                -6.065
REMARK SMILES CCCCCCCCCCCCCCCCCCCCCCCCCCCCCC(=O)[O-]
REMARK SMILES IDX 16 1 17 2 18 3 19 4 20 5 21 6 22 7 23 8 24 9 25 10 26 11
REMARK SMILES IDX 27 12 28 13 29 14 30 15 31 16 32 17 15 18 14 19 13 20 12 21
REMARK SMILES IDX 11 22 10 23 9 24 8 25 7 26 6 27 5 28 4 29 3 30 2 31 1 32
REMARK H PARENT
REMARK Flexibility Score: inf
ROOT
ATOM      1  C   UNL     1     191.917 192.446 199.436  1.00  0.00     0.000 C 
ENDROOT
BRANCH   1   2
ATOM      2  C   UNL     1     192.351 192.075 198.008  1.00  0.00     0.000 C 
BRANCH   2   3
ATOM      3  C   UNL     1     192.708 190.585 197.871  1.00  0.00     0.000 C 
BRANCH   3   4
ATOM      4  C   UNL     1     194.226 190.335 197.910  1.00  0.00     0.000 C 
BRANCH   4   5
ATOM      5  C   UNL     1     194.567 188.838 198.076  1.00  0.00     0.000 C 
BRANCH   5   6
ATOM      6  C   UNL     1     196.066 188.564 198.293  1.00  0.00     0.000 C 
BRANCH   6   7
ATOM      7  C   UNL     1     196.914 189.843 198.289  1.00  0.00     0.000 C 
BRANCH   7   8
ATOM      8  C   UNL     1     197.905 189.845 197.119  1.00  0.00     0.000 C 
BRANCH   8   9
ATOM      9  C   UNL     1     197.309 190.565 195.900  1.00  0.00     0.000 C 
BRANCH   9  10
ATOM     10  C   UNL     1     197.208 192.086 196.102  1.00  0.00     0.000 C 
BRANCH  10  11
ATOM     11  C   UNL     1     195.792 192.627 195.834  1.00  0.00     0.000 C 
BRANCH  11  12
ATOM     12  C   UNL     1     195.287 192.295 194.421  1.00  0.00     0.000 C 
BRANCH  12  13
ATOM     13  C   UNL     1     193.752 192.235 194.340  1.00  0.00     0.006 C 
BRANCH  13  14
ATOM     14  C   UNL     1     193.217 192.877 193.054  1.00  0.00     0.053 C 
BRANCH  14  15
ATOM     15  C   UNL     1     192.560 194.197 193.322  1.00  0.00     0.041 C 
ATOM     16  O   UNL     1     192.204 194.935 192.366  1.00  0.00    -0.550 OA
ATOM     17  O   UNL     1     192.363 194.621 194.630  1.00  0.00    -0.550 OA
ENDBRANCH  14  15
ENDBRANCH  13  14
ENDBRANCH  12  13
ENDBRANCH  11  12
ENDBRANCH  10  11
ENDBRANCH   9  10
ENDBRANCH   8   9
ENDBRANCH   7   8
ENDBRANCH   6   7
ENDBRANCH   5   6
ENDBRANCH   4   5
ENDBRANCH   3   4
ENDBRANCH   2   3
ENDBRANCH   1   2
BRANCH   1  18
ATOM     18  C   UNL     1     192.285 193.890 199.814  1.00  0.00     0.000 C 
BRANCH  18  19
ATOM     19  C   UNL     1     192.812 194.704 198.622  1.00  0.00     0.000 C 
BRANCH  19  20
ATOM     20  C   UNL     1     193.130 196.145 199.039  1.00  0.00     0.000 C 
BRANCH  20  21
ATOM     21  C   UNL     1     193.662 196.200 200.479  1.00  0.00     0.000 C 
BRANCH  21  22
ATOM     22  C   UNL     1     195.150 196.588 200.553  1.00  0.00     0.000 C 
BRANCH  22  23
ATOM     23  C   UNL     1     196.126 195.407 200.730  1.00  0.00     0.000 C 
BRANCH  23  24
ATOM     24  C   UNL     1     196.450 194.631 199.441  1.00  0.00    -0.000 C 
BRANCH  24  25
ATOM     25  C   UNL     1     196.087 193.141 199.536  1.00  0.00    -0.000 C 
BRANCH  25  26
ATOM     26  C   UNL     1     195.501 192.808 200.916  1.00  0.00    -0.000 C 
BRANCH  26  27
ATOM     27  C   UNL     1     195.392 191.294 201.174  1.00  0.00    -0.000 C 
BRANCH  27  28
ATOM     28  C   UNL     1     194.103 190.843 201.887  1.00  0.00    -0.000 C 
BRANCH  28  29
ATOM     29  C   UNL     1     193.747 189.373 201.609  1.00  0.00    -0.000 C 
BRANCH  29  30
ATOM     30  C   UNL     1     192.251 189.174 201.317  1.00  0.00    -0.000 C 
BRANCH  30  31
ATOM     31  C   UNL     1     191.975 187.933 200.457  1.00  0.00    -0.003 C 
ATOM     32  C   UNL     1     190.839 187.099 201.044  1.00  0.00     0.004 C 
ENDBRANCH  30  31
ENDBRANCH  29  30
ENDBRANCH  28  29
ENDBRANCH  27  28
ENDBRANCH  26  27
ENDBRANCH  25  26
ENDBRANCH  24  25
ENDBRANCH  23  24
ENDBRANCH  22  23
ENDBRANCH  21  22
ENDBRANCH  20  21
ENDBRANCH  19  20
ENDBRANCH  18  19
ENDBRANCH   1  18
TORSDOF 28
ENDMDL
MODEL 2
REMARK VINA RESULT:    -3.880      2.643      5.839
REMARK INTER + INTRA:         -16.296
REMARK INTER:                 -10.526
REMARK INTRA:                  -5.770
REMARK UNBOUND:                -6.065
REMARK SMILES CCCCCCCCCCCCCCCCCCCCCCCCCCCCCC(=O)[O-]
REMARK SMILES IDX 16 1 17 2 18 3 19 4 20 5 21 6 22 7 23 8 24 9 25 10 26 11
REMARK SMILES IDX 27 12 28 13 29 14 30 15 31 16 32 17 15 18 14 19 13 20 12 21
REMARK SMILES IDX 11 22 10 23 9 24 8 25 7 26 6 27 5 28 4 29 3 30 2 31 1 32
REMARK H PARENT
REMARK Flexibility Score: inf
ROOT
ATOM      1  C   UNL     1     197.302 194.180 198.445  1.00  0.00     0.000 C 
ENDROOT
BRANCH   1   2
ATOM      2  C   UNL     1     198.255 193.494 197.449  1.00  0.00     0.000 C 
BRANCH   2   3
ATOM      3  C   UNL     1     197.527 192.495 196.534  1.00  0.00     0.000 C 
BRANCH   3   4
ATOM      4  C   UNL     1     195.996 192.570 196.675  1.00  0.00     0.000 C 
BRANCH   4   5
ATOM      5  C   UNL     1     195.299 191.291 196.161  1.00  0.00     0.000 C 
BRANCH   5   6
ATOM      6  C   UNL     1     193.921 191.039 196.796  1.00  0.00     0.000 C 
BRANCH   6   7
ATOM      7  C   UNL     1     193.873 189.750 197.629  1.00  0.00     0.000 C 
BRANCH   7   8
ATOM      8  C   UNL     1     192.558 189.646 198.411  1.00  0.00     0.000 C 
BRANCH   8   9
ATOM      9  C   UNL     1     192.453 188.289 199.123  1.00  0.00     0.000 C 
BRANCH   9  10
ATOM     10  C   UNL     1     192.552 188.415 200.652  1.00  0.00     0.000 C 
BRANCH  10  11
ATOM     11  C   UNL     1     191.592 187.463 201.389  1.00  0.00     0.000 C 
BRANCH  11  12
ATOM     12  C   UNL     1     190.546 186.835 200.455  1.00  0.00     0.000 C 
BRANCH  12  13
ATOM     13  C   UNL     1     189.106 187.225 200.832  1.00  0.00     0.006 C 
BRANCH  13  14
ATOM     14  C   UNL     1     188.761 188.654 200.393  1.00  0.00     0.053 C 
BRANCH  14  15
ATOM     15  C   UNL     1     188.263 188.696 198.980  1.00  0.00     0.041 C 
ATOM     16  O   UNL     1     187.071 188.386 198.717  1.00  0.00    -0.550 OA
ATOM     17  O   UNL     1     189.124 189.058 197.951  1.00  0.00    -0.550 OA
ENDBRANCH  14  15
ENDBRANCH  13  14
ENDBRANCH  12  13
ENDBRANCH  11  12
ENDBRANCH  10  11
ENDBRANCH   9  10
ENDBRANCH   8   9
ENDBRANCH   7   8
ENDBRANCH   6   7
ENDBRANCH   5   6
ENDBRANCH   4   5
ENDBRANCH   3   4
ENDBRANCH   2   3
ENDBRANCH   1   2
BRANCH   1  18
ATOM     18  C   UNL     1     197.911 194.320 199.849  1.00  0.00     0.000 C 
BRANCH  18  19
ATOM     19  C   UNL     1     198.353 195.757 200.168  1.00  0.00     0.000 C 
BRANCH  19  20
ATOM     20  C   UNL     1     197.558 196.326 201.350  1.00  0.00     0.000 C 
BRANCH  20  21
ATOM     21  C   UNL     1     196.582 195.284 201.914  1.00  0.00     0.000 C 
BRANCH  21  22
ATOM     22  C   UNL     1     195.119 195.762 201.898  1.00  0.00     0.000 C 
BRANCH  22  23
ATOM     23  C   UNL     1     194.636 196.347 200.555  1.00  0.00     0.000 C 
BRANCH  23  24
ATOM     24  C   UNL     1     194.257 195.303 199.489  1.00  0.00    -0.000 C 
BRANCH  24  25
ATOM     25  C   UNL     1     192.872 194.683 199.728  1.00  0.00    -0.000 C 
BRANCH  25  26
ATOM     26  C   UNL     1     192.953 193.149 199.736  1.00  0.00    -0.000 C 
BRANCH  26  27
ATOM     27  C   UNL     1     194.349 192.623 200.118  1.00  0.00    -0.000 C 
BRANCH  27  28
ATOM     28  C   UNL     1     194.358 191.497 201.169  1.00  0.00    -0.000 C 
BRANCH  28  29
ATOM     29  C   UNL     1     195.525 190.512 200.982  1.00  0.00    -0.000 C 
BRANCH  29  30
ATOM     30  C   UNL     1     196.502 190.958 199.882  1.00  0.00    -0.000 C 
BRANCH  30  31
ATOM     31  C   UNL     1     197.269 189.782 199.259  1.00  0.00    -0.003 C 
ATOM     32  C   UNL     1     196.605 188.451 199.600  1.00  0.00     0.004 C 
ENDBRANCH  30  31
ENDBRANCH  29  30
ENDBRANCH  28  29
ENDBRANCH  27  28
ENDBRANCH  26  27
ENDBRANCH  25  26
ENDBRANCH  24  25
ENDBRANCH  23  24
ENDBRANCH  22  23
ENDBRANCH  21  22
ENDBRANCH  20  21
ENDBRANCH  19  20
ENDBRANCH  18  19
ENDBRANCH   1  18
TORSDOF 28
ENDMDL
MODEL 3
REMARK VINA RESULT:    -3.839      1.705      4.095
REMARK INTER + INTRA:         -16.188
REMARK INTER:                 -10.267
REMARK INTRA:                  -5.921
REMARK UNBOUND:                -6.065
REMARK SMILES CCCCCCCCCCCCCCCCCCCCCCCCCCCCCC(=O)[O-]
REMARK SMILES IDX 16 1 17 2 18 3 19 4 20 5 21 6 22 7 23 8 24 9 25 10 26 11
REMARK SMILES IDX 27 12 28 13 29 14 30 15 31 16 32 17 15 18 14 19 13 20 12 21
REMARK SMILES IDX 11 22 10 23 9 24 8 25 7 26 6 27 5 28 4 29 3 30 2 31 1 32
REMARK H PARENT
REMARK Flexibility Score: inf
ROOT
ATOM      1  C   UNL     1     197.684 189.358 195.843  1.00  0.00     0.000 C 
ENDROOT
BRANCH   1   2
ATOM      2  C   UNL     1     197.628 187.889 196.298  1.00  0.00     0.000 C 
BRANCH   2   3
ATOM      3  C   UNL     1     198.829 187.500 197.175  1.00  0.00     0.000 C 
BRANCH   3   4
ATOM      4  C   UNL     1     198.430 187.228 198.637  1.00  0.00     0.000 C 
BRANCH   4   5
ATOM      5  C   UNL     1     196.999 187.714 198.952  1.00  0.00     0.000 C 
BRANCH   5   6
ATOM      6  C   UNL     1     196.951 189.069 199.680  1.00  0.00     0.000 C 
BRANCH   6   7
ATOM      7  C   UNL     1     195.685 189.875 199.360  1.00  0.00     0.000 C 
BRANCH   7   8
ATOM      8  C   UNL     1     194.772 189.110 198.393  1.00  0.00     0.000 C 
BRANCH   8   9
ATOM      9  C   UNL     1     194.420 189.976 197.174  1.00  0.00     0.000 C 
BRANCH   9  10
ATOM     10  C   UNL     1     194.612 191.478 197.442  1.00  0.00     0.000 C 
BRANCH  10  11
ATOM     11  C   UNL     1     194.256 192.348 196.222  1.00  0.00     0.000 C 
BRANCH  11  12
ATOM     12  C   UNL     1     195.431 192.509 195.244  1.00  0.00     0.000 C 
BRANCH  12  13
ATOM     13  C   UNL     1     194.977 192.547 193.775  1.00  0.00     0.006 C 
BRANCH  13  14
ATOM     14  C   UNL     1     193.461 192.359 193.634  1.00  0.00     0.053 C 
BRANCH  14  15
ATOM     15  C   UNL     1     192.785 193.613 193.169  1.00  0.00     0.041 C 
ATOM     16  O   UNL     1     192.739 193.891 191.942  1.00  0.00    -0.550 OA
ATOM     17  O   UNL     1     192.227 194.484 194.095  1.00  0.00    -0.550 OA
ENDBRANCH  14  15
ENDBRANCH  13  14
ENDBRANCH  12  13
ENDBRANCH  11  12
ENDBRANCH  10  11
ENDBRANCH   9  10
ENDBRANCH   8   9
ENDBRANCH   7   8
ENDBRANCH   6   7
ENDBRANCH   5   6
ENDBRANCH   4   5
ENDBRANCH   3   4
ENDBRANCH   2   3
ENDBRANCH   1   2
BRANCH   1  18
ATOM     18  C   UNL     1     198.782 190.161 196.561  1.00  0.00     0.000 C 
BRANCH  18  19
ATOM     19  C   UNL     1     198.562 191.679 196.478  1.00  0.00     0.000 C 
BRANCH  19  20
ATOM     20  C   UNL     1     198.242 192.263 197.860  1.00  0.00     0.000 C 
BRANCH  20  21
ATOM     21  C   UNL     1     198.443 193.785 197.878  1.00  0.00     0.000 C 
BRANCH  21  22
ATOM     22  C   UNL     1     197.778 194.463 199.091  1.00  0.00     0.000 C 
BRANCH  22  23
ATOM     23  C   UNL     1     196.516 193.757 199.625  1.00  0.00     0.000 C 
BRANCH  23  24
ATOM     24  C   UNL     1     195.211 194.560 199.482  1.00  0.00    -0.000 C 
BRANCH  24  25
ATOM     25  C   UNL     1     194.026 193.905 200.209  1.00  0.00    -0.000 C 
BRANCH  25  26
ATOM     26  C   UNL     1     192.743 194.016 199.372  1.00  0.00    -0.000 C 
BRANCH  26  27
ATOM     27  C   UNL     1     191.697 192.943 199.730  1.00  0.00    -0.000 C 
BRANCH  27  28
ATOM     28  C   UNL     1     192.276 191.622 200.272  1.00  0.00    -0.000 C 
BRANCH  28  29
ATOM     29  C   UNL     1     191.604 190.380 199.663  1.00  0.00    -0.000 C 
BRANCH  29  30
ATOM     30  C   UNL     1     190.994 190.658 198.280  1.00  0.00    -0.000 C 
BRANCH  30  31
ATOM     31  C   UNL     1     190.154 189.483 197.756  1.00  0.00    -0.003 C 
ATOM     32  C   UNL     1     188.788 189.439 198.434  1.00  0.00     0.004 C 
ENDBRANCH  30  31
ENDBRANCH  29  30
ENDBRANCH  28  29
ENDBRANCH  27  28
ENDBRANCH  26  27
ENDBRANCH  25  26
ENDBRANCH  24  25
ENDBRANCH  23  24
ENDBRANCH  22  23
ENDBRANCH  21  22
ENDBRANCH  20  21
ENDBRANCH  19  20
ENDBRANCH  18  19
ENDBRANCH   1  18
TORSDOF 28
ENDMDL
MODEL 4
REMARK VINA RESULT:    -3.783      1.423      5.155
REMARK INTER + INTRA:         -16.039
REMARK INTER:                 -10.259
REMARK INTRA:                  -5.780
REMARK UNBOUND:                -6.065
REMARK SMILES CCCCCCCCCCCCCCCCCCCCCCCCCCCCCC(=O)[O-]
REMARK SMILES IDX 16 1 17 2 18 3 19 4 20 5 21 6 22 7 23 8 24 9 25 10 26 11
REMARK SMILES IDX 27 12 28 13 29 14 30 15 31 16 32 17 15 18 14 19 13 20 12 21
REMARK SMILES IDX 11 22 10 23 9 24 8 25 7 26 6 27 5 28 4 29 3 30 2 31 1 32
REMARK H PARENT
REMARK Flexibility Score: inf
ROOT
ATOM      1  C   UNL     1     195.138 190.717 200.678  1.00  0.00     0.000 C 
ENDROOT
BRANCH   1   2
ATOM      2  C   UNL     1     194.613 190.003 201.935  1.00  0.00     0.000 C 
BRANCH   2   3
ATOM      3  C   UNL     1     193.161 189.522 201.773  1.00  0.00     0.000 C 
BRANCH   3   4
ATOM      4  C   UNL     1     192.562 189.897 200.406  1.00  0.00     0.000 C 
BRANCH   4   5
ATOM      5  C   UNL     1     191.103 190.387 200.522  1.00  0.00     0.000 C 
BRANCH   5   6
ATOM      6  C   UNL     1     190.857 191.761 199.874  1.00  0.00     0.000 C 
BRANCH   6   7
ATOM      7  C   UNL     1     192.046 192.719 200.034  1.00  0.00     0.000 C 
BRANCH   7   8
ATOM      8  C   UNL     1     192.429 193.354 198.692  1.00  0.00     0.000 C 
BRANCH   8   9
ATOM      9  C   UNL     1     193.369 192.432 197.901  1.00  0.00     0.000 C 
BRANCH   9  10
ATOM     10  C   UNL     1     194.726 193.089 197.600  1.00  0.00     0.000 C 
BRANCH  10  11
ATOM     11  C   UNL     1     195.278 192.701 196.216  1.00  0.00     0.000 C 
BRANCH  11  12
ATOM     12  C   UNL     1     194.456 191.594 195.537  1.00  0.00     0.000 C 
BRANCH  12  13
ATOM     13  C   UNL     1     193.866 192.037 194.188  1.00  0.00     0.006 C 
BRANCH  13  14
ATOM     14  C   UNL     1     194.074 193.536 193.932  1.00  0.00     0.053 C 
BRANCH  14  15
ATOM     15  C   UNL     1     192.780 194.290 193.959  1.00  0.00     0.041 C 
ATOM     16  O   UNL     1     192.205 194.605 192.884  1.00  0.00    -0.550 OA
ATOM     17  O   UNL     1     192.221 194.666 195.175  1.00  0.00    -0.550 OA
ENDBRANCH  14  15
ENDBRANCH  13  14
ENDBRANCH  12  13
ENDBRANCH  11  12
ENDBRANCH  10  11
ENDBRANCH   9  10
ENDBRANCH   8   9
ENDBRANCH   7   8
ENDBRANCH   6   7
ENDBRANCH   5   6
ENDBRANCH   4   5
ENDBRANCH   3   4
ENDBRANCH   2   3
ENDBRANCH   1   2
BRANCH   1  18
ATOM     18  C   UNL     1     196.293 189.960 200.002  1.00  0.00     0.000 C 
BRANCH  18  19
ATOM     19  C   UNL     1     196.027 189.667 198.517  1.00  0.00     0.000 C 
BRANCH  19  20
ATOM     20  C   UNL     1     197.251 190.014 197.661  1.00  0.00     0.000 C 
BRANCH  20  21
ATOM     21  C   UNL     1     198.275 190.829 198.464  1.00  0.00     0.000 C 
BRANCH  21  22
ATOM     22  C   UNL     1     198.519 192.231 197.877  1.00  0.00     0.000 C 
BRANCH  22  23
ATOM     23  C   UNL     1     198.159 193.404 198.810  1.00  0.00     0.000 C 
BRANCH  23  24
ATOM     24  C   UNL     1     198.392 193.140 200.309  1.00  0.00    -0.000 C 
BRANCH  24  25
ATOM     25  C   UNL     1     197.742 194.201 201.209  1.00  0.00    -0.000 C 
BRANCH  25  26
ATOM     26  C   UNL     1     196.400 193.700 201.763  1.00  0.00    -0.000 C 
BRANCH  26  27
ATOM     27  C   UNL     1     195.228 194.647 201.448  1.00  0.00    -0.000 C 
BRANCH  27  28
ATOM     28  C   UNL     1     195.537 195.748 200.416  1.00  0.00    -0.000 C 
BRANCH  28  29
ATOM     29  C   UNL     1     194.287 196.227 199.659  1.00  0.00    -0.000 C 
BRANCH  29  30
ATOM     30  C   UNL     1     193.545 197.352 200.398  1.00  0.00    -0.000 C 
BRANCH  30  31
ATOM     31  C   UNL     1     192.112 197.554 199.884  1.00  0.00    -0.003 C 
ATOM     32  C   UNL     1     192.004 197.200 198.404  1.00  0.00     0.004 C 
ENDBRANCH  30  31
ENDBRANCH  29  30
ENDBRANCH  28  29
ENDBRANCH  27  28
ENDBRANCH  26  27
ENDBRANCH  25  26
ENDBRANCH  24  25
ENDBRANCH  23  24
ENDBRANCH  22  23
ENDBRANCH  21  22
ENDBRANCH  20  21
ENDBRANCH  19  20
ENDBRANCH  18  19
ENDBRANCH   1  18
TORSDOF 28
ENDMDL
MODEL 5
REMARK VINA RESULT:    -3.779      2.433      7.081
REMARK INTER + INTRA:         -16.029
REMARK INTER:                  -9.925
REMARK INTRA:                  -6.104
REMARK UNBOUND:                -6.065
REMARK SMILES CCCCCCCCCCCCCCCCCCCCCCCCCCCCCC(=O)[O-]
REMARK SMILES IDX 16 1 17 2 18 3 19 4 20 5 21 6 22 7 23 8 24 9 25 10 26 11
REMARK SMILES IDX 27 12 28 13 29 14 30 15 31 16 32 17 15 18 14 19 13 20 12 21
REMARK SMILES IDX 11 22 10 23 9 24 8 25 7 26 6 27 5 28 4 29 3 30 2 31 1 32
REMARK H PARENT
REMARK Flexibility Score: inf
ROOT
ATOM      1  C   UNL     1     192.386 192.366 197.681  1.00  0.00     0.000 C 
ENDROOT
BRANCH   1   2
ATOM      2  C   UNL     1     193.322 193.185 198.586  1.00  0.00     0.000 C 
BRANCH   2   3
ATOM      3  C   UNL     1     192.618 193.687 199.858  1.00  0.00     0.000 C 
BRANCH   3   4
ATOM      4  C   UNL     1     193.017 195.127 200.227  1.00  0.00     0.000 C 
BRANCH   4   5
ATOM      5  C   UNL     1     194.141 195.672 199.319  1.00  0.00     0.000 C 
BRANCH   5   6
ATOM      6  C   UNL     1     195.544 195.579 199.946  1.00  0.00     0.000 C 
BRANCH   6   7
ATOM      7  C   UNL     1     195.507 195.403 201.470  1.00  0.00     0.000 C 
BRANCH   7   8
ATOM      8  C   UNL     1     196.209 194.108 201.895  1.00  0.00     0.000 C 
BRANCH   8   9
ATOM      9  C   UNL     1     196.637 193.291 200.666  1.00  0.00     0.000 C 
BRANCH   9  10
ATOM     10  C   UNL     1     196.156 191.832 200.731  1.00  0.00     0.000 C 
BRANCH  10  11
ATOM     11  C   UNL     1     195.038 191.621 201.768  1.00  0.00     0.000 C 
BRANCH  11  12
ATOM     12  C   UNL     1     194.571 190.159 201.850  1.00  0.00     0.000 C 
BRANCH  12  13
ATOM     13  C   UNL     1     193.056 190.009 201.628  1.00  0.00     0.006 C 
BRANCH  13  14
ATOM     14  C   UNL     1     192.697 188.656 201.000  1.00  0.00     0.053 C 
BRANCH  14  15
ATOM     15  C   UNL     1     191.216 188.490 200.843  1.00  0.00     0.041 C 
ATOM     16  O   UNL     1     190.583 187.697 201.588  1.00  0.00    -0.550 OA
ATOM     17  O   UNL     1     190.540 189.197 199.857  1.00  0.00    -0.550 OA
ENDBRANCH  14  15
ENDBRANCH  13  14
ENDBRANCH  12  13
ENDBRANCH  11  12
ENDBRANCH  10  11
ENDBRANCH   9  10
ENDBRANCH   8   9
ENDBRANCH   7   8
ENDBRANCH   6   7
ENDBRANCH   5   6
ENDBRANCH   4   5
ENDBRANCH   3   4
ENDBRANCH   2   3
ENDBRANCH   1   2
BRANCH   1  18
ATOM     18  C   UNL     1     192.753 190.873 197.643  1.00  0.00     0.000 C 
BRANCH  18  19
ATOM     19  C   UNL     1     194.164 190.590 198.182  1.00  0.00     0.000 C 
BRANCH  19  20
ATOM     20  C   UNL     1     194.654 189.206 197.735  1.00  0.00     0.000 C 
BRANCH  20  21
ATOM     21  C   UNL     1     195.776 188.695 198.650  1.00  0.00     0.000 C 
BRANCH  21  22
ATOM     22  C   UNL     1     197.155 188.698 197.966  1.00  0.00     0.000 C 
BRANCH  22  23
ATOM     23  C   UNL     1     198.006 189.959 198.216  1.00  0.00     0.000 C 
BRANCH  23  24
ATOM     24  C   UNL     1     198.192 190.873 196.991  1.00  0.00    -0.000 C 
BRANCH  24  25
ATOM     25  C   UNL     1     197.931 192.353 197.307  1.00  0.00    -0.000 C 
BRANCH  25  26
ATOM     26  C   UNL     1     196.532 192.774 196.833  1.00  0.00    -0.000 C 
BRANCH  26  27
ATOM     27  C   UNL     1     196.101 192.072 195.531  1.00  0.00    -0.000 C 
BRANCH  27  28
ATOM     28  C   UNL     1     195.073 192.842 194.683  1.00  0.00    -0.000 C 
BRANCH  28  29
ATOM     29  C   UNL     1     193.878 191.973 194.254  1.00  0.00    -0.000 C 
BRANCH  29  30
ATOM     30  C   UNL     1     193.066 192.608 193.114  1.00  0.00    -0.000 C 
BRANCH  30  31
ATOM     31  C   UNL     1     193.661 193.940 192.634  1.00  0.00    -0.003 C 
ATOM     32  C   UNL     1     192.590 194.824 192.002  1.00  0.00     0.004 C 
ENDBRANCH  30  31
ENDBRANCH  29  30
ENDBRANCH  28  29
ENDBRANCH  27  28
ENDBRANCH  26  27
ENDBRANCH  25  26
ENDBRANCH  24  25
ENDBRANCH  23  24
ENDBRANCH  22  23
ENDBRANCH  21  22
ENDBRANCH  20  21
ENDBRANCH  19  20
ENDBRANCH  18  19
ENDBRANCH   1  18
TORSDOF 28
ENDMDL
MODEL 6
REMARK VINA RESULT:    -3.763      2.589      5.102
REMARK INTER + INTRA:         -15.988
REMARK INTER:                 -10.205
REMARK INTRA:                  -5.783
REMARK UNBOUND:                -6.065
REMARK SMILES CCCCCCCCCCCCCCCCCCCCCCCCCCCCCC(=O)[O-]
REMARK SMILES IDX 16 1 17 2 18 3 19 4 20 5 21 6 22 7 23 8 24 9 25 10 26 11
REMARK SMILES IDX 27 12 28 13 29 14 30 15 31 16 32 17 15 18 14 19 13 20 12 21
REMARK SMILES IDX 11 22 10 23 9 24 8 25 7 26 6 27 5 28 4 29 3 30 2 31 1 32
REMARK H PARENT
REMARK Flexibility Score: inf
ROOT
ATOM      1  C   UNL     1     192.748 194.474 198.338  1.00  0.00     0.000 C 
ENDROOT
BRANCH   1   2
ATOM      2  C   UNL     1     193.874 193.525 197.895  1.00  0.00     0.000 C 
BRANCH   2   3
ATOM      3  C   UNL     1     193.669 192.998 196.464  1.00  0.00     0.000 C 
BRANCH   3   4
ATOM      4  C   UNL     1     193.981 191.496 196.336  1.00  0.00     0.000 C 
BRANCH   4   5
ATOM      5  C   UNL     1     194.928 191.000 197.450  1.00  0.00     0.000 C 
BRANCH   5   6
ATOM      6  C   UNL     1     195.193 189.484 197.408  1.00  0.00     0.000 C 
BRANCH   6   7
ATOM      7  C   UNL     1     196.251 189.034 198.424  1.00  0.00     0.000 C 
BRANCH   7   8
ATOM      8  C   UNL     1     196.278 189.964 199.643  1.00  0.00     0.000 C 
BRANCH   8   9
ATOM      9  C   UNL     1     195.564 189.317 200.839  1.00  0.00     0.000 C 
BRANCH   9  10
ATOM     10  C   UNL     1     194.770 190.335 201.674  1.00  0.00     0.000 C 
BRANCH  10  11
ATOM     11  C   UNL     1     193.946 191.301 200.804  1.00  0.00     0.000 C 
BRANCH  11  12
ATOM     12  C   UNL     1     192.468 190.893 200.698  1.00  0.00     0.000 C 
BRANCH  12  13
ATOM     13  C   UNL     1     192.201 189.936 199.523  1.00  0.00     0.006 C 
BRANCH  13  14
ATOM     14  C   UNL     1     191.218 190.530 198.507  1.00  0.00     0.053 C 
BRANCH  14  15
ATOM     15  C   UNL     1     189.831 189.993 198.694  1.00  0.00     0.041 C 
ATOM     16  O   UNL     1     189.249 189.396 197.751  1.00  0.00    -0.550 OA
ATOM     17  O   UNL     1     189.175 190.174 199.906  1.00  0.00    -0.550 OA
ENDBRANCH  14  15
ENDBRANCH  13  14
ENDBRANCH  12  13
ENDBRANCH  11  12
ENDBRANCH  10  11
ENDBRANCH   9  10
ENDBRANCH   8   9
ENDBRANCH   7   8
ENDBRANCH   6   7
ENDBRANCH   5   6
ENDBRANCH   4   5
ENDBRANCH   3   4
ENDBRANCH   2   3
ENDBRANCH   1   2
BRANCH   1  18
ATOM     18  C   UNL     1     193.234 195.916 198.552  1.00  0.00     0.000 C 
BRANCH  18  19
ATOM     19  C   UNL     1     192.091 196.943 198.530  1.00  0.00     0.000 C 
BRANCH  19  20
ATOM     20  C   UNL     1     192.098 197.800 199.802  1.00  0.00     0.000 C 
BRANCH  20  21
ATOM     21  C   UNL     1     191.796 196.949 201.044  1.00  0.00     0.000 C 
BRANCH  21  22
ATOM     22  C   UNL     1     192.929 196.986 202.086  1.00  0.00     0.000 C 
BRANCH  22  23
ATOM     23  C   UNL     1     194.173 197.799 201.672  1.00  0.00     0.000 C 
BRANCH  23  24
ATOM     24  C   UNL     1     195.518 197.075 201.866  1.00  0.00    -0.000 C 
BRANCH  24  25
ATOM     25  C   UNL     1     195.430 195.568 201.581  1.00  0.00    -0.000 C 
BRANCH  25  26
ATOM     26  C   UNL     1     196.253 195.199 200.337  1.00  0.00    -0.000 C 
BRANCH  26  27
ATOM     27  C   UNL     1     196.598 193.700 200.268  1.00  0.00    -0.000 C 
BRANCH  27  28
ATOM     28  C   UNL     1     197.781 193.343 199.348  1.00  0.00    -0.000 C 
BRANCH  28  29
ATOM     29  C   UNL     1     197.469 193.565 197.858  1.00  0.00    -0.000 C 
BRANCH  29  30
ATOM     30  C   UNL     1     198.585 193.044 196.939  1.00  0.00    -0.000 C 
BRANCH  30  31
ATOM     31  C   UNL     1     198.578 191.514 196.807  1.00  0.00    -0.003 C 
ATOM     32  C   UNL     1     197.971 191.080 195.476  1.00  0.00     0.004 C 
ENDBRANCH  30  31
ENDBRANCH  29  30
ENDBRANCH  28  29
ENDBRANCH  27  28
ENDBRANCH  26  27
ENDBRANCH  25  26
ENDBRANCH  24  25
ENDBRANCH  23  24
ENDBRANCH  22  23
ENDBRANCH  21  22
ENDBRANCH  20  21
ENDBRANCH  19  20
ENDBRANCH  18  19
ENDBRANCH   1  18
TORSDOF 28
ENDMDL
MODEL 7
REMARK VINA RESULT:    -3.741      3.130      6.305
REMARK INTER + INTRA:         -15.929
REMARK INTER:                 -10.242
REMARK INTRA:                  -5.687
REMARK UNBOUND:                -6.065
REMARK SMILES CCCCCCCCCCCCCCCCCCCCCCCCCCCCCC(=O)[O-]
REMARK SMILES IDX 16 1 17 2 18 3 19 4 20 5 21 6 22 7 23 8 24 9 25 10 26 11
REMARK SMILES IDX 27 12 28 13 29 14 30 15 31 16 32 17 15 18 14 19 13 20 12 21
REMARK SMILES IDX 11 22 10 23 9 24 8 25 7 26 6 27 5 28 4 29 3 30 2 31 1 32
REMARK H PARENT
REMARK Flexibility Score: inf
ROOT
ATOM      1  C   UNL     1     198.438 193.913 199.555  1.00  0.00     0.000 C 
ENDROOT
BRANCH   1   2
ATOM      2  C   UNL     1     198.323 192.726 198.584  1.00  0.00     0.000 C 
BRANCH   2   3
ATOM      3  C   UNL     1     197.589 193.100 197.284  1.00  0.00     0.000 C 
BRANCH   3   4
ATOM      4  C   UNL     1     196.669 191.974 196.780  1.00  0.00     0.000 C 
BRANCH   4   5
ATOM      5  C   UNL     1     195.548 192.505 195.860  1.00  0.00     0.000 C 
BRANCH   5   6
ATOM      6  C   UNL     1     194.276 191.640 195.870  1.00  0.00     0.000 C 
BRANCH   6   7
ATOM      7  C   UNL     1     194.349 190.482 196.876  1.00  0.00     0.000 C 
BRANCH   7   8
ATOM      8  C   UNL     1     193.033 190.339 197.650  1.00  0.00     0.000 C 
BRANCH   8   9
ATOM      9  C   UNL     1     193.028 189.051 198.485  1.00  0.00     0.000 C 
BRANCH   9  10
ATOM     10  C   UNL     1     192.317 189.225 199.837  1.00  0.00     0.000 C 
BRANCH  10  11
ATOM     11  C   UNL     1     192.173 187.900 200.607  1.00  0.00     0.000 C 
BRANCH  11  12
ATOM     12  C   UNL     1     190.733 187.636 201.073  1.00  0.00     0.000 C 
BRANCH  12  13
ATOM     13  C   UNL     1     189.701 188.492 200.318  1.00  0.00     0.006 C 
BRANCH  13  14
ATOM     14  C   UNL     1     188.260 188.099 200.668  1.00  0.00     0.053 C 
BRANCH  14  15
ATOM     15  C   UNL     1     187.721 187.064 199.727  1.00  0.00     0.041 C 
ATOM     16  O   UNL     1     187.506 187.353 198.521  1.00  0.00    -0.550 OA
ATOM     17  O   UNL     1     187.433 185.786 200.191  1.00  0.00    -0.550 OA
ENDBRANCH  14  15
ENDBRANCH  13  14
ENDBRANCH  12  13
ENDBRANCH  11  12
ENDBRANCH  10  11
ENDBRANCH   9  10
ENDBRANCH   8   9
ENDBRANCH   7   8
ENDBRANCH   6   7
ENDBRANCH   5   6
ENDBRANCH   4   5
ENDBRANCH   3   4
ENDBRANCH   2   3
ENDBRANCH   1   2
BRANCH   1  18
ATOM     18  C   UNL     1     198.150 193.519 201.013  1.00  0.00     0.000 C 
BRANCH  18  19
ATOM     19  C   UNL     1     197.274 194.546 201.748  1.00  0.00     0.000 C 
BRANCH  19  20
ATOM     20  C   UNL     1     196.893 195.706 200.820  1.00  0.00     0.000 C 
BRANCH  20  21
ATOM     21  C   UNL     1     195.372 195.784 200.627  1.00  0.00     0.000 C 
BRANCH  21  22
ATOM     22  C   UNL     1     194.889 195.036 199.371  1.00  0.00     0.000 C 
BRANCH  22  23
ATOM     23  C   UNL     1     194.022 193.791 199.644  1.00  0.00     0.000 C 
BRANCH  23  24
ATOM     24  C   UNL     1     194.806 192.479 199.827  1.00  0.00    -0.000 C 
BRANCH  24  25
ATOM     25  C   UNL     1     194.680 191.902 201.245  1.00  0.00    -0.000 C 
BRANCH  25  26
ATOM     26  C   UNL     1     195.347 190.521 201.335  1.00  0.00    -0.000 C 
BRANCH  26  27
ATOM     27  C   UNL     1     196.227 190.198 200.113  1.00  0.00    -0.000 C 
BRANCH  27  28
ATOM     28  C   UNL     1     196.628 188.718 199.970  1.00  0.00    -0.000 C 
BRANCH  28  29
ATOM     29  C   UNL     1     196.684 188.250 198.506  1.00  0.00    -0.000 C 
BRANCH  29  30
ATOM     30  C   UNL     1     197.979 187.490 198.179  1.00  0.00    -0.000 C 
BRANCH  30  31
ATOM     31  C   UNL     1     198.253 187.408 196.670  1.00  0.00    -0.003 C 
ATOM     32  C   UNL     1     197.263 188.263 195.884  1.00  0.00     0.004 C 
ENDBRANCH  30  31
ENDBRANCH  29  30
ENDBRANCH  28  29
ENDBRANCH  27  28
ENDBRANCH  26  27
ENDBRANCH  25  26
ENDBRANCH  24  25
ENDBRANCH  23  24
ENDBRANCH  22  23
ENDBRANCH  21  22
ENDBRANCH  20  21
ENDBRANCH  19  20
ENDBRANCH  18  19
ENDBRANCH   1  18
TORSDOF 28
ENDMDL
MODEL 8
REMARK VINA RESULT:    -3.729     10.760     13.285
REMARK INTER + INTRA:         -15.896
REMARK INTER:                 -10.610
REMARK INTRA:                  -5.287
REMARK UNBOUND:                -6.065
REMARK SMILES CCCCCCCCCCCCCCCCCCCCCCCCCCCCCC(=O)[O-]
REMARK SMILES IDX 16 1 17 2 18 3 19 4 20 5 21 6 22 7 23 8 24 9 25 10 26 11
REMARK SMILES IDX 27 12 28 13 29 14 30 15 31 16 32 17 15 18 14 19 13 20 12 21
REMARK SMILES IDX 11 22 10 23 9 24 8 25 7 26 6 27 5 28 4 29 3 30 2 31 1 32
REMARK H PARENT
REMARK Flexibility Score: inf
ROOT
ATOM      1  C   UNL     1     180.307 187.223 197.088  1.00  0.00     0.000 C 
ENDROOT
BRANCH   1   2
ATOM      2  C   UNL     1     180.651 188.706 197.305  1.00  0.00     0.000 C 
BRANCH   2   3
ATOM      3  C   UNL     1     181.429 189.308 196.122  1.00  0.00     0.000 C 
BRANCH   3   4
ATOM      4  C   UNL     1     182.881 189.662 196.488  1.00  0.00     0.000 C 
BRANCH   4   5
ATOM      5  C   UNL     1     183.038 190.010 197.983  1.00  0.00     0.000 C 
BRANCH   5   6
ATOM      6  C   UNL     1     184.380 189.560 198.587  1.00  0.00     0.000 C 
BRANCH   6   7
ATOM      7  C   UNL     1     184.210 188.651 199.812  1.00  0.00     0.000 C 
BRANCH   7   8
ATOM      8  C   UNL     1     183.983 187.194 199.392  1.00  0.00     0.000 C 
BRANCH   8   9
ATOM      9  C   UNL     1     184.853 186.834 198.178  1.00  0.00     0.000 C 
BRANCH   9  10
ATOM     10  C   UNL     1     184.061 186.107 197.079  1.00  0.00     0.000 C 
BRANCH  10  11
ATOM     11  C   UNL     1     184.572 186.437 195.664  1.00  0.00     0.000 C 
BRANCH  11  12
ATOM     12  C   UNL     1     183.453 186.424 194.611  1.00  0.00     0.000 C 
BRANCH  12  13
ATOM     13  C   UNL     1     183.993 186.316 193.175  1.00  0.00     0.006 C 
BRANCH  13  14
ATOM     14  C   UNL     1     185.520 186.166 193.142  1.00  0.00     0.053 C 
BRANCH  14  15
ATOM     15  C   UNL     1     186.047 186.143 191.740  1.00  0.00     0.041 C 
ATOM     16  O   UNL     1     185.963 187.167 191.012  1.00  0.00    -0.550 OA
ATOM     17  O   UNL     1     186.611 184.979 191.230  1.00  0.00    -0.550 OA
ENDBRANCH  14  15
ENDBRANCH  13  14
ENDBRANCH  12  13
ENDBRANCH  11  12
ENDBRANCH  10  11
ENDBRANCH   9  10
ENDBRANCH   8   9
ENDBRANCH   7   8
ENDBRANCH   6   7
ENDBRANCH   5   6
ENDBRANCH   4   5
ENDBRANCH   3   4
ENDBRANCH   2   3
ENDBRANCH   1   2
BRANCH   1  18
ATOM     18  C   UNL     1     180.644 186.349 198.307  1.00  0.00     0.000 C 
BRANCH  18  19
ATOM     19  C   UNL     1     180.320 184.863 198.086  1.00  0.00     0.000 C 
BRANCH  19  20
ATOM     20  C   UNL     1     180.254 184.112 199.421  1.00  0.00     0.000 C 
BRANCH  20  21
ATOM     21  C   UNL     1     180.499 185.061 200.604  1.00  0.00     0.000 C 
BRANCH  21  22
ATOM     22  C   UNL     1     181.302 184.405 201.741  1.00  0.00     0.000 C 
BRANCH  22  23
ATOM     23  C   UNL     1     182.810 184.727 201.749  1.00  0.00     0.000 C 
BRANCH  23  24
ATOM     24  C   UNL     1     183.721 183.594 201.243  1.00  0.00    -0.000 C 
BRANCH  24  25
ATOM     25  C   UNL     1     183.798 183.531 199.710  1.00  0.00    -0.000 C 
BRANCH  25  26
ATOM     26  C   UNL     1     185.221 183.182 199.248  1.00  0.00    -0.000 C 
BRANCH  26  27
ATOM     27  C   UNL     1     186.305 183.645 200.239  1.00  0.00    -0.000 C 
BRANCH  27  28
ATOM     28  C   UNL     1     187.354 182.578 200.605  1.00  0.00    -0.000 C 
BRANCH  28  29
ATOM     29  C   UNL     1     186.780 181.151 200.611  1.00  0.00    -0.000 C 
BRANCH  29  30
ATOM     30  C   UNL     1     186.156 180.772 201.964  1.00  0.00    -0.000 C 
BRANCH  30  31
ATOM     31  C   UNL     1     185.095 179.668 201.839  1.00  0.00    -0.003 C 
ATOM     32  C   UNL     1     184.171 179.926 200.652  1.00  0.00     0.004 C 
ENDBRANCH  30  31
ENDBRANCH  29  30
ENDBRANCH  28  29
ENDBRANCH  27  28
ENDBRANCH  26  27
ENDBRANCH  25  26
ENDBRANCH  24  25
ENDBRANCH  23  24
ENDBRANCH  22  23
ENDBRANCH  21  22
ENDBRANCH  20  21
ENDBRANCH  19  20
ENDBRANCH  18  19
ENDBRANCH   1  18
TORSDOF 28
ENDMDL
MODEL 9
REMARK VINA RESULT:    -3.672      3.258      7.591
REMARK INTER + INTRA:         -15.746
REMARK INTER:                 -10.417
REMARK INTRA:                  -5.329
REMARK UNBOUND:                -6.065
REMARK SMILES CCCCCCCCCCCCCCCCCCCCCCCCCCCCCC(=O)[O-]
REMARK SMILES IDX 16 1 17 2 18 3 19 4 20 5 21 6 22 7 23 8 24 9 25 10 26 11
REMARK SMILES IDX 27 12 28 13 29 14 30 15 31 16 32 17 15 18 14 19 13 20 12 21
REMARK SMILES IDX 11 22 10 23 9 24 8 25 7 26 6 27 5 28 4 29 3 30 2 31 1 32
REMARK H PARENT
REMARK Flexibility Score: inf
ROOT
ATOM      1  C   UNL     1     195.345 194.093 199.415  1.00  0.00     0.000 C 
ENDROOT
BRANCH   1   2
ATOM      2  C   UNL     1     194.277 195.160 199.118  1.00  0.00     0.000 C 
BRANCH   2   3
ATOM      3  C   UNL     1     192.875 194.552 198.942  1.00  0.00     0.000 C 
BRANCH   3   4
ATOM      4  C   UNL     1     192.792 193.592 197.742  1.00  0.00     0.000 C 
BRANCH   4   5
ATOM      5  C   UNL     1     192.365 192.169 198.161  1.00  0.00     0.000 C 
BRANCH   5   6
ATOM      6  C   UNL     1     191.914 192.065 199.629  1.00  0.00     0.000 C 
BRANCH   6   7
ATOM      7  C   UNL     1     191.733 190.614 200.097  1.00  0.00     0.000 C 
BRANCH   7   8
ATOM      8  C   UNL     1     191.758 189.643 198.910  1.00  0.00     0.000 C 
BRANCH   8   9
ATOM      9  C   UNL     1     192.120 188.224 199.373  1.00  0.00     0.000 C 
BRANCH   9  10
ATOM     10  C   UNL     1     192.024 188.059 200.899  1.00  0.00     0.000 C 
BRANCH  10  11
ATOM     11  C   UNL     1     190.858 187.148 201.325  1.00  0.00     0.000 C 
BRANCH  11  12
ATOM     12  C   UNL     1     189.731 187.918 202.030  1.00  0.00     0.000 C 
BRANCH  12  13
ATOM     13  C   UNL     1     188.819 188.669 201.045  1.00  0.00     0.006 C 
BRANCH  13  14
ATOM     14  C   UNL     1     188.404 187.789 199.859  1.00  0.00     0.053 C 
BRANCH  14  15
ATOM     15  C   UNL     1     187.310 186.833 200.230  1.00  0.00     0.041 C 
ATOM     16  O   UNL     1     187.531 185.594 200.253  1.00  0.00    -0.550 OA
ATOM     17  O   UNL     1     186.041 187.313 200.528  1.00  0.00    -0.550 OA
ENDBRANCH  14  15
ENDBRANCH  13  14
ENDBRANCH  12  13
ENDBRANCH  11  12
ENDBRANCH  10  11
ENDBRANCH   9  10
ENDBRANCH   8   9
ENDBRANCH   7   8
ENDBRANCH   6   7
ENDBRANCH   5   6
ENDBRANCH   4   5
ENDBRANCH   3   4
ENDBRANCH   2   3
ENDBRANCH   1   2
BRANCH   1  18
ATOM     18  C   UNL     1     195.554 193.864 200.921  1.00  0.00     0.000 C 
BRANCH  18  19
ATOM     19  C   UNL     1     195.304 192.408 201.344  1.00  0.00     0.000 C 
BRANCH  19  20
ATOM     20  C   UNL     1     195.427 191.459 200.145  1.00  0.00     0.000 C 
BRANCH  20  21
ATOM     21  C   UNL     1     195.454 189.993 200.600  1.00  0.00     0.000 C 
BRANCH  21  22
ATOM     22  C   UNL     1     195.828 189.021 199.467  1.00  0.00     0.000 C 
BRANCH  22  23
ATOM     23  C   UNL     1     195.226 189.359 198.089  1.00  0.00     0.000 C 
BRANCH  23  24
ATOM     24  C   UNL     1     196.133 189.040 196.886  1.00  0.00    -0.000 C 
BRANCH  24  25
ATOM     25  C   UNL     1     196.559 190.296 196.112  1.00  0.00    -0.000 C 
BRANCH  25  26
ATOM     26  C   UNL     1     196.038 191.566 196.801  1.00  0.00    -0.000 C 
BRANCH  26  27
ATOM     27  C   UNL     1     195.853 192.746 195.828  1.00  0.00    -0.000 C 
BRANCH  27  28
ATOM     28  C   UNL     1     195.359 192.361 194.421  1.00  0.00    -0.000 C 
BRANCH  28  29
ATOM     29  C   UNL     1     193.825 192.342 194.309  1.00  0.00    -0.000 C 
BRANCH  29  30
ATOM     30  C   UNL     1     193.232 193.747 194.111  1.00  0.00    -0.000 C 
BRANCH  30  31
ATOM     31  C   UNL     1     193.882 194.506 192.945  1.00  0.00    -0.003 C 
ATOM     32  C   UNL     1     192.959 194.540 191.730  1.00  0.00     0.004 C 
ENDBRANCH  30  31
ENDBRANCH  29  30
ENDBRANCH  28  29
ENDBRANCH  27  28
ENDBRANCH  26  27
ENDBRANCH  25  26
ENDBRANCH  24  25
ENDBRANCH  23  24
ENDBRANCH  22  23
ENDBRANCH  21  22
ENDBRANCH  20  21
ENDBRANCH  19  20
ENDBRANCH  18  19
ENDBRANCH   1  18
TORSDOF 28
ENDMDL
