MODEL 1
REMARK VINA RESULT:    -1.263      0.000      0.000
REMARK INTER + INTRA:           0.272
REMARK INTER:                  -1.706
REMARK INTRA:                   1.978
REMARK UNBOUND:                 1.978
REMARK SMILES CC[C@H](CC[C@H](C)[C@@H]1CC[C@H]2[C@@H]3CC(=O)C4=CC(=O)CC[C@]4(C)[C@@H]3CC[C@@]21C)C(C)C
REMARK SMILES IDX 4 1 3 2 2 3 1 4 29 5 30 6 31 7 5 8 6 9 7 10 8 11 9 12 27 13
REMARK SMILES IDX 10 14 11 15 26 16 28 17 12 18 25 19 24 20 13 21 22 22 14 23
REMARK SMILES IDX 16 24 21 25 23 26 15 27 17 28 20 29 18 30 19 31
REMARK H PARENT
REMARK Flexibility Score: inf
ROOT
ATOM      1  C   UNL     1       7.237 -31.747  17.543  1.00  0.00     0.004 C 
ENDROOT
BRANCH   1   2
ATOM      2  C   UNL     1       7.175 -30.360  18.261  1.00  0.00    -0.009 C 
BRANCH   2   3
ATOM      3  C   UNL     1       8.489 -29.571  17.985  1.00  0.00     0.000 C 
ATOM      4  C   UNL     1       9.134 -28.997  19.254  1.00  0.00     0.004 C 
ENDBRANCH   2   3
BRANCH   2   5
ATOM      5  C   UNL     1       5.930 -29.491  17.849  1.00  0.00    -0.014 C 
ATOM      6  C   UNL     1       5.877 -29.283  16.322  1.00  0.00     0.007 C 
ATOM      7  C   UNL     1       5.875 -28.106  18.514  1.00  0.00     0.007 C 
ENDBRANCH   2   5
ENDBRANCH   1   2
BRANCH   1   8
ATOM      8  C   UNL     1       5.924 -32.123  16.799  1.00  0.00     0.004 C 
BRANCH   8   9
ATOM      9  C   UNL     1       5.875 -33.579  16.255  1.00  0.00    -0.011 C 
ATOM     10  C   UNL     1       6.813 -34.456  17.129  1.00  0.00     0.008 C 
BRANCH   9  11
ATOM     11  C   UNL     1       6.181 -33.772  14.720  1.00  0.00    -0.002 C 
ATOM     12  C   UNL     1       7.049 -35.021  14.370  1.00  0.00     0.005 C 
ATOM     13  C   UNL     1       6.971 -32.592  14.030  1.00  0.00    -0.026 C 
ATOM     14  C   UNL     1       8.441 -34.539  13.967  1.00  0.00     0.005 C 
ATOM     15  C   UNL     1       8.431 -33.035  14.214  1.00  0.00    -0.001 C 
ATOM     16  C   UNL     1       6.819 -31.136  14.598  1.00  0.00     0.007 C 
ATOM     17  C   UNL     1       6.540 -32.575  12.525  1.00  0.00     0.012 C 
ATOM     18  C   UNL     1       9.432 -32.197  13.375  1.00  0.00     0.004 C 
ATOM     19  C   UNL     1       8.142 -30.325  14.657  1.00  0.00     0.005 C 
ATOM     20  C   UNL     1       9.164 -30.643  13.525  1.00  0.00     0.003 C 
ATOM     21  C   UNL     1      10.862 -32.611  13.711  1.00  0.00     0.085 C 
ATOM     22  C   UNL     1      10.437 -29.647  13.495  1.00  0.00    -0.000 C 
ATOM     23  C   UNL     1      11.793 -31.779  12.917  1.00  0.00     0.159 C 
ATOM     24  C   UNL     1      11.762 -30.341  13.149  1.00  0.00     0.005 C 
ATOM     25  C   UNL     1      10.676 -28.912  14.857  1.00  0.00     0.020 C 
ATOM     26  C   UNL     1      10.162 -28.582  12.393  1.00  0.00     0.017 C 
ATOM     27  O   UNL     1      12.621 -32.305  12.123  1.00  0.00    -0.295 OA
ATOM     28  C   UNL     1      12.935 -29.702  13.291  1.00  0.00     0.055 C 
ATOM     29  C   UNL     1      11.854 -27.912  14.816  1.00  0.00     0.081 C 
ATOM     30  C   UNL     1      13.023 -28.430  14.027  1.00  0.00     0.156 C 
ATOM     31  O   UNL     1      14.104 -27.785  14.020  1.00  0.00    -0.295 OA
ENDBRANCH   9  11
ENDBRANCH   8   9
ENDBRANCH   1   8
TORSDOF 6
ENDMDL
MODEL 2
REMARK VINA RESULT:     0.348      2.314      5.959
REMARK INTER + INTRA:           2.448
REMARK INTER:                   1.276
REMARK INTRA:                   1.172
REMARK UNBOUND:                 1.978
REMARK SMILES CC[C@H](CC[C@H](C)[C@@H]1CC[C@H]2[C@@H]3CC(=O)C4=CC(=O)CC[C@]4(C)[C@@H]3CC[C@@]21C)C(C)C
REMARK SMILES IDX 4 1 3 2 2 3 1 4 29 5 30 6 31 7 5 8 6 9 7 10 8 11 9 12 27 13
REMARK SMILES IDX 10 14 11 15 26 16 28 17 12 18 25 19 24 20 13 21 22 22 14 23
REMARK SMILES IDX 16 24 21 25 23 26 15 27 17 28 20 29 18 30 19 31
REMARK H PARENT
REMARK Flexibility Score: inf
ROOT
ATOM      1  C   UNL     1       9.846 -33.649  13.042  1.00  0.00     0.004 C 
ENDROOT
BRANCH   1   2
ATOM      2  C   UNL     1      11.030 -33.903  12.054  1.00  0.00    -0.009 C 
BRANCH   2   3
ATOM      3  C   UNL     1      11.856 -32.594  11.881  1.00  0.00     0.000 C 
ATOM      4  C   UNL     1      11.939 -31.752  13.161  1.00  0.00     0.004 C 
ENDBRANCH   2   3
BRANCH   2   5
ATOM      5  C   UNL     1      11.976 -35.082  12.493  1.00  0.00    -0.014 C 
ATOM      6  C   UNL     1      12.135 -35.125  14.026  1.00  0.00     0.007 C 
ATOM      7  C   UNL     1      13.383 -35.029  11.875  1.00  0.00     0.007 C 
ENDBRANCH   2   5
ENDBRANCH   1   2
BRANCH   1   8
ATOM      8  C   UNL     1       8.703 -34.698  12.928  1.00  0.00     0.004 C 
BRANCH   8   9
ATOM      9  C   UNL     1       7.266 -34.116  13.056  1.00  0.00    -0.011 C 
ATOM     10  C   UNL     1       6.292 -35.052  12.291  1.00  0.00     0.008 C 
BRANCH   9  11
ATOM     11  C   UNL     1       7.071 -32.612  12.623  1.00  0.00    -0.002 C 
ATOM     12  C   UNL     1       8.284 -31.976  11.876  1.00  0.00     0.005 C 
ATOM     13  C   UNL     1       6.811 -31.593  13.800  1.00  0.00    -0.026 C 
ATOM     14  C   UNL     1       8.960 -30.983  12.820  1.00  0.00     0.005 C 
ATOM     15  C   UNL     1       8.237 -31.140  14.151  1.00  0.00    -0.001 C 
ATOM     16  C   UNL     1       6.115 -32.103  15.112  1.00  0.00     0.007 C 
ATOM     17  C   UNL     1       5.945 -30.429  13.212  1.00  0.00     0.012 C 
ATOM     18  C   UNL     1       8.271 -29.911  15.097  1.00  0.00     0.004 C 
ATOM     19  C   UNL     1       6.724 -31.541  16.426  1.00  0.00     0.005 C 
ATOM     20  C   UNL     1       7.288 -30.092  16.327  1.00  0.00     0.003 C 
ATOM     21  C   UNL     1       9.710 -29.606  15.500  1.00  0.00     0.085 C 
ATOM     22  C   UNL     1       7.728 -29.463  17.750  1.00  0.00    -0.000 C 
ATOM     23  C   UNL     1       9.708 -28.448  16.420  1.00  0.00     0.159 C 
ATOM     24  C   UNL     1       8.999 -28.605  17.684  1.00  0.00     0.005 C 
ATOM     25  C   UNL     1       7.994 -30.548  18.847  1.00  0.00     0.020 C 
ATOM     26  C   UNL     1       6.564 -28.544  18.226  1.00  0.00     0.017 C 
ATOM     27  O   UNL     1      10.351 -27.397  16.146  1.00  0.00    -0.295 OA
ATOM     28  C   UNL     1       9.612 -28.190  18.805  1.00  0.00     0.055 C 
ATOM     29  C   UNL     1       8.355 -29.951  20.225  1.00  0.00     0.081 C 
ATOM     30  C   UNL     1       9.259 -28.755  20.117  1.00  0.00     0.156 C 
ATOM     31  O   UNL     1       9.745 -28.246  21.160  1.00  0.00    -0.295 OA
ENDBRANCH   9  11
ENDBRANCH   8   9
ENDBRANCH   1   8
TORSDOF 6
ENDMDL
