MODEL 1
REMARK VINA RESULT:    -2.767      0.000      0.000
REMARK INTER + INTRA:          -3.330
REMARK INTER:                  -3.252
REMARK INTRA:                  -0.078
REMARK UNBOUND:                -0.078
REMARK SMILES O=C([O-])CCC(=O)[O-]
REMARK SMILES IDX 4 1 2 2 1 3 3 4 5 5 6 6 7 7 8 8
REMARK H PARENT
REMARK Flexibility Score: inf
ROOT
ATOM      1  C   UNL     1      32.353  10.868  23.375  1.00  0.00     0.059 C 
ENDROOT
BRANCH   1   2
ATOM      2  C   UNL     1      31.920   9.646  22.625  1.00  0.00     0.042 C 
ATOM      3  O   UNL     1      30.881   9.024  22.972  1.00  0.00    -0.550 OA
ATOM      4  O   UNL     1      32.686   9.169  21.569  1.00  0.00    -0.550 OA
ENDBRANCH   1   2
BRANCH   1   5
ATOM      5  C   UNL     1      32.818  11.977  22.426  1.00  0.00     0.059 C 
BRANCH   5   6
ATOM      6  C   UNL     1      34.312  12.093  22.404  1.00  0.00     0.042 C 
ATOM      7  O   UNL     1      34.962  12.124  23.482  1.00  0.00    -0.550 OA
ATOM      8  O   UNL     1      34.990  12.125  21.192  1.00  0.00    -0.550 OA
ENDBRANCH   5   6
ENDBRANCH   1   5
TORSDOF 3
ENDMDL
MODEL 2
REMARK VINA RESULT:    -2.760      1.919      3.936
REMARK INTER + INTRA:          -3.322
REMARK INTER:                  -3.290
REMARK INTRA:                  -0.032
REMARK UNBOUND:                -0.078
REMARK SMILES O=C([O-])CCC(=O)[O-]
REMARK SMILES IDX 4 1 2 2 1 3 3 4 5 5 6 6 7 7 8 8
REMARK H PARENT
REMARK Flexibility Score: inf
ROOT
ATOM      1  C   UNL     1      34.431  11.030  23.286  1.00  0.00     0.059 C 
ENDROOT
BRANCH   1   2
ATOM      2  C   UNL     1      35.844  10.745  22.879  1.00  0.00     0.042 C 
ATOM      3  O   UNL     1      36.714  11.654  22.929  1.00  0.00    -0.550 OA
ATOM      4  O   UNL     1      36.192   9.486  22.405  1.00  0.00    -0.550 OA
ENDBRANCH   1   2
BRANCH   1   5
ATOM      5  C   UNL     1      33.428  10.263  22.419  1.00  0.00     0.059 C 
BRANCH   5   6
ATOM      6  C   UNL     1      32.031  10.391  22.947  1.00  0.00     0.042 C 
ATOM      7  O   UNL     1      31.610  11.501  23.366  1.00  0.00    -0.550 OA
ATOM      8  O   UNL     1      31.182   9.292  22.938  1.00  0.00    -0.550 OA
ENDBRANCH   5   6
ENDBRANCH   1   5
TORSDOF 3
ENDMDL
MODEL 3
REMARK VINA RESULT:    -2.742      1.891      2.156
REMARK INTER + INTRA:          -3.301
REMARK INTER:                  -3.266
REMARK INTRA:                  -0.035
REMARK UNBOUND:                -0.078
REMARK SMILES O=C([O-])CCC(=O)[O-]
REMARK SMILES IDX 4 1 2 2 1 3 3 4 5 5 6 6 7 7 8 8
REMARK H PARENT
REMARK Flexibility Score: inf
ROOT
ATOM      1  C   UNL     1      33.434  10.261  22.388  1.00  0.00     0.059 C 
ENDROOT
BRANCH   1   2
ATOM      2  C   UNL     1      32.036  10.356  22.918  1.00  0.00     0.042 C 
ATOM      3  O   UNL     1      31.627  11.426  23.439  1.00  0.00    -0.550 OA
ATOM      4  O   UNL     1      31.198   9.248  22.873  1.00  0.00    -0.550 OA
ENDBRANCH   1   2
BRANCH   1   5
ATOM      5  C   UNL     1      34.424  11.033  23.266  1.00  0.00     0.059 C 
BRANCH   5   6
ATOM      6  C   UNL     1      35.843  10.755  22.872  1.00  0.00     0.042 C 
ATOM      7  O   UNL     1      36.180   9.607  22.480  1.00  0.00    -0.550 OA
ATOM      8  O   UNL     1      36.785  11.776  22.900  1.00  0.00    -0.550 OA
ENDBRANCH   5   6
ENDBRANCH   1   5
TORSDOF 3
ENDMDL
MODEL 4
REMARK VINA RESULT:    -2.676      1.976      2.153
REMARK INTER + INTRA:          -3.224
REMARK INTER:                  -3.190
REMARK INTRA:                  -0.034
REMARK UNBOUND:                -0.078
REMARK SMILES O=C([O-])CCC(=O)[O-]
REMARK SMILES IDX 4 1 2 2 1 3 3 4 5 5 6 6 7 7 8 8
REMARK H PARENT
REMARK Flexibility Score: inf
ROOT
ATOM      1  C   UNL     1      33.355  10.088  22.284  1.00  0.00     0.059 C 
ENDROOT
BRANCH   1   2
ATOM      2  C   UNL     1      31.994  10.241  22.892  1.00  0.00     0.042 C 
ATOM      3  O   UNL     1      31.189   9.272  22.898  1.00  0.00    -0.550 OA
ATOM      4  O   UNL     1      31.599  11.466  23.416  1.00  0.00    -0.550 OA
ENDBRANCH   1   2
BRANCH   1   5
ATOM      5  C   UNL     1      34.402  10.922  23.028  1.00  0.00     0.059 C 
BRANCH   5   6
ATOM      6  C   UNL     1      35.795  10.471  22.706  1.00  0.00     0.042 C 
ATOM      7  O   UNL     1      36.776  11.221  22.949  1.00  0.00    -0.550 OA
ATOM      8  O   UNL     1      36.011   9.206  22.175  1.00  0.00    -0.550 OA
ENDBRANCH   5   6
ENDBRANCH   1   5
TORSDOF 3
ENDMDL
MODEL 5
REMARK VINA RESULT:    -2.671      1.632      3.838
REMARK INTER + INTRA:          -3.218
REMARK INTER:                  -3.100
REMARK INTRA:                  -0.118
REMARK UNBOUND:                -0.078
REMARK SMILES O=C([O-])CCC(=O)[O-]
REMARK SMILES IDX 4 1 2 2 1 3 3 4 5 5 6 6 7 7 8 8
REMARK H PARENT
REMARK Flexibility Score: inf
ROOT
ATOM      1  C   UNL     1      34.429   9.930  22.017  1.00  0.00     0.059 C 
ENDROOT
BRANCH   1   2
ATOM      2  C   UNL     1      35.360  10.789  22.817  1.00  0.00     0.042 C 
ATOM      3  O   UNL     1      36.475  10.339  23.190  1.00  0.00    -0.550 OA
ATOM      4  O   UNL     1      34.979  12.074  23.185  1.00  0.00    -0.550 OA
ENDBRANCH   1   2
BRANCH   1   5
ATOM      5  C   UNL     1      33.058  10.590  21.846  1.00  0.00     0.059 C 
BRANCH   5   6
ATOM      6  C   UNL     1      32.078  10.099  22.869  1.00  0.00     0.042 C 
ATOM      7  O   UNL     1      31.998  10.660  23.992  1.00  0.00    -0.550 OA
ATOM      8  O   UNL     1      31.225   9.046  22.564  1.00  0.00    -0.550 OA
ENDBRANCH   5   6
ENDBRANCH   1   5
TORSDOF 3
ENDMDL
MODEL 6
REMARK VINA RESULT:    -2.565      2.365      4.039
REMARK INTER + INTRA:          -3.093
REMARK INTER:                  -3.067
REMARK INTRA:                  -0.026
REMARK UNBOUND:                -0.078
REMARK SMILES O=C([O-])CCC(=O)[O-]
REMARK SMILES IDX 4 1 2 2 1 3 3 4 5 5 6 6 7 7 8 8
REMARK H PARENT
REMARK Flexibility Score: inf
ROOT
ATOM      1  C   UNL     1      35.316  10.474  22.492  1.00  0.00     0.059 C 
ENDROOT
BRANCH   1   2
ATOM      2  C   UNL     1      36.742  10.525  22.948  1.00  0.00     0.042 C 
ATOM      3  O   UNL     1      37.297   9.494  23.410  1.00  0.00    -0.550 OA
ATOM      4  O   UNL     1      37.445  11.723  22.902  1.00  0.00    -0.550 OA
ENDBRANCH   1   2
BRANCH   1   5
ATOM      5  C   UNL     1      34.399  11.285  23.413  1.00  0.00     0.059 C 
BRANCH   5   6
ATOM      6  C   UNL     1      32.960  11.153  23.013  1.00  0.00     0.042 C 
ATOM      7  O   UNL     1      32.142  10.566  23.768  1.00  0.00    -0.550 OA
ATOM      8  O   UNL     1      32.515  11.717  21.823  1.00  0.00    -0.550 OA
ENDBRANCH   5   6
ENDBRANCH   1   5
TORSDOF 3
ENDMDL
MODEL 7
REMARK VINA RESULT:    -2.435      2.388      3.192
REMARK INTER + INTRA:          -2.940
REMARK INTER:                  -2.911
REMARK INTRA:                  -0.029
REMARK UNBOUND:                -0.078
REMARK SMILES O=C([O-])CCC(=O)[O-]
REMARK SMILES IDX 4 1 2 2 1 3 3 4 5 5 6 6 7 7 8 8
REMARK H PARENT
REMARK Flexibility Score: inf
ROOT
ATOM      1  C   UNL     1      32.332   8.352  21.342  1.00  0.00     0.059 C 
ENDROOT
BRANCH   1   2
ATOM      2  C   UNL     1      31.660   7.075  20.940  1.00  0.00     0.042 C 
ATOM      3  O   UNL     1      30.875   7.054  19.956  1.00  0.00    -0.550 OA
ATOM      4  O   UNL     1      31.868   5.916  21.679  1.00  0.00    -0.550 OA
ENDBRANCH   1   2
BRANCH   1   5
ATOM      5  C   UNL     1      31.516   9.114  22.390  1.00  0.00     0.059 C 
BRANCH   5   6
ATOM      6  C   UNL     1      32.245  10.329  22.880  1.00  0.00     0.042 C 
ATOM      7  O   UNL     1      31.605  11.317  23.324  1.00  0.00    -0.550 OA
ATOM      8  O   UNL     1      33.634  10.351  22.884  1.00  0.00    -0.550 OA
ENDBRANCH   5   6
ENDBRANCH   1   5
TORSDOF 3
ENDMDL
MODEL 8
REMARK VINA RESULT:    -2.430      1.922      4.008
REMARK INTER + INTRA:          -2.935
REMARK INTER:                  -2.824
REMARK INTRA:                  -0.111
REMARK UNBOUND:                -0.078
REMARK SMILES O=C([O-])CCC(=O)[O-]
REMARK SMILES IDX 4 1 2 2 1 3 3 4 5 5 6 6 7 7 8 8
REMARK H PARENT
REMARK Flexibility Score: inf
ROOT
ATOM      1  C   UNL     1      33.072  10.394  21.573  1.00  0.00     0.059 C 
ENDROOT
BRANCH   1   2
ATOM      2  C   UNL     1      33.194  10.689  23.037  1.00  0.00     0.042 C 
ATOM      3  O   UNL     1      32.185  10.613  23.786  1.00  0.00    -0.550 OA
ATOM      4  O   UNL     1      34.415  11.089  23.567  1.00  0.00    -0.550 OA
ENDBRANCH   1   2
BRANCH   1   5
ATOM      5  C   UNL     1      33.551   8.977  21.241  1.00  0.00     0.059 C 
BRANCH   5   6
ATOM      6  C   UNL     1      32.402   8.065  20.933  1.00  0.00     0.042 C 
ATOM      7  O   UNL     1      32.408   7.368  19.885  1.00  0.00    -0.550 OA
ATOM      8  O   UNL     1      31.343   7.956  21.826  1.00  0.00    -0.550 OA
ENDBRANCH   5   6
ENDBRANCH   1   5
TORSDOF 3
ENDMDL
MODEL 9
REMARK VINA RESULT:    -2.429      2.240      3.191
REMARK INTER + INTRA:          -2.933
REMARK INTER:                  -2.833
REMARK INTRA:                  -0.100
REMARK UNBOUND:                -0.078
REMARK SMILES O=C([O-])CCC(=O)[O-]
REMARK SMILES IDX 4 1 2 2 1 3 3 4 5 5 6 6 7 7 8 8
REMARK H PARENT
REMARK Flexibility Score: inf
ROOT
ATOM      1  C   UNL     1      32.827  10.625  21.743  1.00  0.00     0.059 C 
ENDROOT
BRANCH   1   2
ATOM      2  C   UNL     1      31.946  10.189  22.874  1.00  0.00     0.042 C 
ATOM      3  O   UNL     1      32.082  10.699  24.017  1.00  0.00    -0.550 OA
ATOM      4  O   UNL     1      31.002   9.188  22.675  1.00  0.00    -0.550 OA
ENDBRANCH   1   2
BRANCH   1   5
ATOM      5  C   UNL     1      34.159   9.870  21.741  1.00  0.00     0.059 C 
BRANCH   5   6
ATOM      6  C   UNL     1      34.087   8.628  20.905  1.00  0.00     0.042 C 
ATOM      7  O   UNL     1      33.094   8.421  20.159  1.00  0.00    -0.550 OA
ATOM      8  O   UNL     1      35.137   7.718  20.920  1.00  0.00    -0.550 OA
ENDBRANCH   5   6
ENDBRANCH   1   5
TORSDOF 3
ENDMDL
