MODEL 1
REMARK VINA RESULT:    -4.239      0.000      0.000
REMARK INTER + INTRA:          -6.193
REMARK INTER:                  -5.726
REMARK INTRA:                  -0.466
REMARK UNBOUND:                -0.466
REMARK SMILES CCCCCCCC(=O)[O-]
REMARK SMILES IDX 5 1 6 2 7 3 8 4 9 5 10 6 4 7 3 8 2 9 1 10
REMARK H PARENT
REMARK Flexibility Score: inf
ROOT
ATOM      1  C   UNL     1      14.965  -3.005  17.348  1.00  0.00     0.000 C 
ENDROOT
BRANCH   1   2
ATOM      2  C   UNL     1      13.771  -3.574  16.565  1.00  0.00     0.006 C 
BRANCH   2   3
ATOM      3  C   UNL     1      13.910  -3.376  15.051  1.00  0.00     0.053 C 
BRANCH   3   4
ATOM      4  C   UNL     1      12.705  -2.681  14.502  1.00  0.00     0.041 C 
ATOM      5  O   UNL     1      11.550  -3.043  14.853  1.00  0.00    -0.550 OA
ATOM      6  O   UNL     1      12.856  -1.600  13.643  1.00  0.00    -0.550 OA
ENDBRANCH   3   4
ENDBRANCH   2   3
ENDBRANCH   1   2
BRANCH   1   7
ATOM      7  C   UNL     1      16.233  -2.881  16.484  1.00  0.00     0.000 C 
BRANCH   7   8
ATOM      8  C   UNL     1      17.372  -3.789  16.974  1.00  0.00    -0.000 C 
BRANCH   8   9
ATOM      9  C   UNL     1      17.764  -4.854  15.940  1.00  0.00    -0.003 C 
ATOM     10  C   UNL     1      16.731  -5.976  15.887  1.00  0.00     0.004 C 
ENDBRANCH   8   9
ENDBRANCH   7   8
ENDBRANCH   1   7
TORSDOF 6
ENDMDL
MODEL 2
REMARK VINA RESULT:    -4.177      5.104      6.933
REMARK INTER + INTRA:          -6.109
REMARK INTER:                  -5.771
REMARK INTRA:                  -0.338
REMARK UNBOUND:                -0.466
REMARK SMILES CCCCCCCC(=O)[O-]
REMARK SMILES IDX 5 1 6 2 7 3 8 4 9 5 10 6 4 7 3 8 2 9 1 10
REMARK H PARENT
REMARK Flexibility Score: inf
ROOT
ATOM      1  C   UNL     1      16.157  -5.567   9.810  1.00  0.00     0.000 C 
ENDROOT
BRANCH   1   2
ATOM      2  C   UNL     1      16.403  -5.630  11.325  1.00  0.00     0.006 C 
BRANCH   2   3
ATOM      3  C   UNL     1      17.866  -5.928  11.673  1.00  0.00     0.053 C 
BRANCH   3   4
ATOM      4  C   UNL     1      18.444  -4.821  12.496  1.00  0.00     0.041 C 
ATOM      5  O   UNL     1      19.693  -4.695  12.600  1.00  0.00    -0.550 OA
ATOM      6  O   UNL     1      17.606  -3.897  13.107  1.00  0.00    -0.550 OA
ENDBRANCH   3   4
ENDBRANCH   2   3
ENDBRANCH   1   2
BRANCH   1   7
ATOM      7  C   UNL     1      14.659  -5.558   9.454  1.00  0.00     0.000 C 
BRANCH   7   8
ATOM      8  C   UNL     1      13.756  -5.588  10.699  1.00  0.00    -0.000 C 
BRANCH   8   9
ATOM      9  C   UNL     1      12.861  -4.346  10.808  1.00  0.00    -0.003 C 
ATOM     10  C   UNL     1      13.436  -3.339  11.799  1.00  0.00     0.004 C 
ENDBRANCH   8   9
ENDBRANCH   7   8
ENDBRANCH   1   7
TORSDOF 6
ENDMDL
MODEL 3
REMARK VINA RESULT:    -4.149      4.525      5.995
REMARK INTER + INTRA:          -6.071
REMARK INTER:                  -5.407
REMARK INTRA:                  -0.663
REMARK UNBOUND:                -0.466
REMARK SMILES CCCCCCCC(=O)[O-]
REMARK SMILES IDX 5 1 6 2 7 3 8 4 9 5 10 6 4 7 3 8 2 9 1 10
REMARK H PARENT
REMARK Flexibility Score: inf
ROOT
ATOM      1  C   UNL     1      13.747  -6.500  12.776  1.00  0.00     0.000 C 
ENDROOT
BRANCH   1   2
ATOM      2  C   UNL     1      14.963  -6.449  13.713  1.00  0.00     0.006 C 
BRANCH   2   3
ATOM      3  C   UNL     1      16.273  -6.802  12.999  1.00  0.00     0.053 C 
BRANCH   3   4
ATOM      4  C   UNL     1      16.994  -5.558  12.584  1.00  0.00     0.041 C 
ATOM      5  O   UNL     1      17.831  -5.596  11.644  1.00  0.00    -0.550 OA
ATOM      6  O   UNL     1      16.705  -4.348  13.201  1.00  0.00    -0.550 OA
ENDBRANCH   3   4
ENDBRANCH   2   3
ENDBRANCH   1   2
BRANCH   1   7
ATOM      7  C   UNL     1      13.165  -5.104  12.486  1.00  0.00     0.000 C 
BRANCH   7   8
ATOM      8  C   UNL     1      13.623  -4.544  11.129  1.00  0.00    -0.000 C 
BRANCH   8   9
ATOM      9  C   UNL     1      13.705  -5.625  10.042  1.00  0.00    -0.003 C 
ATOM     10  C   UNL     1      15.076  -5.630   9.373  1.00  0.00     0.004 C 
ENDBRANCH   8   9
ENDBRANCH   7   8
ENDBRANCH   1   7
TORSDOF 6
ENDMDL
MODEL 4
REMARK VINA RESULT:    -4.128      2.824      3.867
REMARK INTER + INTRA:          -6.042
REMARK INTER:                  -5.701
REMARK INTRA:                  -0.341
REMARK UNBOUND:                -0.466
REMARK SMILES CCCCCCCC(=O)[O-]
REMARK SMILES IDX 5 1 6 2 7 3 8 4 9 5 10 6 4 7 3 8 2 9 1 10
REMARK H PARENT
REMARK Flexibility Score: inf
ROOT
ATOM      1  C   UNL     1      14.983  -4.130  15.724  1.00  0.00     0.000 C 
ENDROOT
BRANCH   1   2
ATOM      2  C   UNL     1      14.833  -5.651  15.878  1.00  0.00     0.006 C 
BRANCH   2   3
ATOM      3  C   UNL     1      15.955  -6.428  15.179  1.00  0.00     0.053 C 
BRANCH   3   4
ATOM      4  C   UNL     1      15.760  -6.408  13.696  1.00  0.00     0.041 C 
ATOM      5  O   UNL     1      16.699  -6.045  12.939  1.00  0.00    -0.550 OA
ATOM      6  O   UNL     1      14.559  -6.839  13.146  1.00  0.00    -0.550 OA
ENDBRANCH   3   4
ENDBRANCH   2   3
ENDBRANCH   1   2
BRANCH   1   7
ATOM      7  C   UNL     1      14.362  -3.353  16.900  1.00  0.00     0.000 C 
BRANCH   7   8
ATOM      8  C   UNL     1      15.416  -2.625  17.748  1.00  0.00    -0.000 C 
BRANCH   8   9
ATOM      9  C   UNL     1      16.853  -2.971  17.331  1.00  0.00    -0.003 C 
ATOM     10  C   UNL     1      17.770  -3.071  18.546  1.00  0.00     0.004 C 
ENDBRANCH   8   9
ENDBRANCH   7   8
ENDBRANCH   1   7
TORSDOF 6
ENDMDL
MODEL 5
REMARK VINA RESULT:    -4.109      4.442      5.754
REMARK INTER + INTRA:          -6.016
REMARK INTER:                  -5.680
REMARK INTRA:                  -0.336
REMARK UNBOUND:                -0.466
REMARK SMILES CCCCCCCC(=O)[O-]
REMARK SMILES IDX 5 1 6 2 7 3 8 4 9 5 10 6 4 7 3 8 2 9 1 10
REMARK H PARENT
REMARK Flexibility Score: inf
ROOT
ATOM      1  C   UNL     1      16.325  -5.757  12.629  1.00  0.00     0.000 C 
ENDROOT
BRANCH   1   2
ATOM      2  C   UNL     1      16.187  -7.086  13.387  1.00  0.00     0.006 C 
BRANCH   2   3
ATOM      3  C   UNL     1      15.234  -6.986  14.584  1.00  0.00     0.053 C 
BRANCH   3   4
ATOM      4  C   UNL     1      15.712  -5.946  15.547  1.00  0.00     0.041 C 
ATOM      5  O   UNL     1      14.946  -5.009  15.898  1.00  0.00    -0.550 OA
ATOM      6  O   UNL     1      16.984  -6.038  16.097  1.00  0.00    -0.550 OA
ENDBRANCH   3   4
ENDBRANCH   2   3
ENDBRANCH   1   2
BRANCH   1   7
ATOM      7  C   UNL     1      17.151  -5.896  11.337  1.00  0.00     0.000 C 
BRANCH   7   8
ATOM      8  C   UNL     1      16.310  -5.667  10.071  1.00  0.00    -0.000 C 
BRANCH   8   9
ATOM      9  C   UNL     1      14.923  -5.086  10.381  1.00  0.00    -0.003 C 
ATOM     10  C   UNL     1      13.839  -5.786   9.567  1.00  0.00     0.004 C 
ENDBRANCH   8   9
ENDBRANCH   7   8
ENDBRANCH   1   7
TORSDOF 6
ENDMDL
MODEL 6
REMARK VINA RESULT:    -4.109      1.570      2.339
REMARK INTER + INTRA:          -6.016
REMARK INTER:                  -5.763
REMARK INTRA:                  -0.253
REMARK UNBOUND:                -0.466
REMARK SMILES CCCCCCCC(=O)[O-]
REMARK SMILES IDX 5 1 6 2 7 3 8 4 9 5 10 6 4 7 3 8 2 9 1 10
REMARK H PARENT
REMARK Flexibility Score: inf
ROOT
ATOM      1  C   UNL     1      13.928  -3.468  16.608  1.00  0.00     0.000 C 
ENDROOT
BRANCH   1   2
ATOM      2  C   UNL     1      13.418  -3.319  15.167  1.00  0.00     0.006 C 
BRANCH   2   3
ATOM      3  C   UNL     1      14.556  -3.143  14.154  1.00  0.00     0.053 C 
BRANCH   3   4
ATOM      4  C   UNL     1      14.170  -2.153  13.101  1.00  0.00     0.041 C 
ATOM      5  O   UNL     1      14.919  -1.962  12.106  1.00  0.00    -0.550 OA
ATOM      6  O   UNL     1      12.960  -1.477  13.191  1.00  0.00    -0.550 OA
ENDBRANCH   3   4
ENDBRANCH   2   3
ENDBRANCH   1   2
BRANCH   1   7
ATOM      7  C   UNL     1      15.464  -3.535  16.688  1.00  0.00     0.000 C 
BRANCH   7   8
ATOM      8  C   UNL     1      16.040  -2.612  17.774  1.00  0.00    -0.000 C 
BRANCH   8   9
ATOM      9  C   UNL     1      17.480  -2.980  18.159  1.00  0.00    -0.003 C 
ATOM     10  C   UNL     1      18.342  -3.195  16.919  1.00  0.00     0.004 C 
ENDBRANCH   8   9
ENDBRANCH   7   8
ENDBRANCH   1   7
TORSDOF 6
ENDMDL
MODEL 7
REMARK VINA RESULT:    -4.090      3.560      5.191
REMARK INTER + INTRA:          -5.991
REMARK INTER:                  -5.729
REMARK INTRA:                  -0.262
REMARK UNBOUND:                -0.466
REMARK SMILES CCCCCCCC(=O)[O-]
REMARK SMILES IDX 5 1 6 2 7 3 8 4 9 5 10 6 4 7 3 8 2 9 1 10
REMARK H PARENT
REMARK Flexibility Score: inf
ROOT
ATOM      1  C   UNL     1      16.264  -2.665  17.854  1.00  0.00     0.000 C 
ENDROOT
BRANCH   1   2
ATOM      2  C   UNL     1      17.763  -2.986  17.955  1.00  0.00     0.006 C 
BRANCH   2   3
ATOM      3  C   UNL     1      18.307  -3.667  16.694  1.00  0.00     0.053 C 
BRANCH   3   4
ATOM      4  C   UNL     1      19.445  -2.880  16.124  1.00  0.00     0.041 C 
ATOM      5  O   UNL     1      20.434  -2.585  16.846  1.00  0.00    -0.550 OA
ATOM      6  O   UNL     1      19.437  -2.515  14.784  1.00  0.00    -0.550 OA
ENDBRANCH   3   4
ENDBRANCH   2   3
ENDBRANCH   1   2
BRANCH   1   7
ATOM      7  C   UNL     1      15.589  -3.364  16.660  1.00  0.00     0.000 C 
BRANCH   7   8
ATOM      8  C   UNL     1      14.059  -3.418  16.794  1.00  0.00    -0.000 C 
BRANCH   8   9
ATOM      9  C   UNL     1      13.343  -3.324  15.439  1.00  0.00    -0.003 C 
ATOM     10  C   UNL     1      14.341  -3.110  14.305  1.00  0.00     0.004 C 
ENDBRANCH   8   9
ENDBRANCH   7   8
ENDBRANCH   1   7
TORSDOF 6
ENDMDL
MODEL 8
REMARK VINA RESULT:    -4.060      4.180      5.183
REMARK INTER + INTRA:          -5.951
REMARK INTER:                  -5.535
REMARK INTRA:                  -0.416
REMARK UNBOUND:                -0.466
REMARK SMILES CCCCCCCC(=O)[O-]
REMARK SMILES IDX 5 1 6 2 7 3 8 4 9 5 10 6 4 7 3 8 2 9 1 10
REMARK H PARENT
REMARK Flexibility Score: inf
ROOT
ATOM      1  C   UNL     1      14.120  -6.722  13.223  1.00  0.00     0.000 C 
ENDROOT
BRANCH   1   2
ATOM      2  C   UNL     1      14.490  -5.769  12.077  1.00  0.00     0.006 C 
BRANCH   2   3
ATOM      3  C   UNL     1      15.895  -5.176  12.232  1.00  0.00     0.053 C 
BRANCH   3   4
ATOM      4  C   UNL     1      16.800  -5.687  11.155  1.00  0.00     0.041 C 
ATOM      5  O   UNL     1      17.931  -6.156  11.449  1.00  0.00    -0.550 OA
ATOM      6  O   UNL     1      16.374  -5.692   9.833  1.00  0.00    -0.550 OA
ENDBRANCH   3   4
ENDBRANCH   2   3
ENDBRANCH   1   2
BRANCH   1   7
ATOM      7  C   UNL     1      15.242  -6.849  14.270  1.00  0.00     0.000 C 
BRANCH   7   8
ATOM      8  C   UNL     1      14.817  -6.335  15.656  1.00  0.00    -0.000 C 
BRANCH   8   9
ATOM      9  C   UNL     1      15.253  -4.885  15.905  1.00  0.00    -0.003 C 
ATOM     10  C   UNL     1      14.071  -4.022  16.338  1.00  0.00     0.004 C 
ENDBRANCH   8   9
ENDBRANCH   7   8
ENDBRANCH   1   7
TORSDOF 6
ENDMDL
MODEL 9
REMARK VINA RESULT:    -4.003      3.485      4.328
REMARK INTER + INTRA:          -5.874
REMARK INTER:                  -5.552
REMARK INTRA:                  -0.322
REMARK UNBOUND:                -0.466
REMARK SMILES CCCCCCCC(=O)[O-]
REMARK SMILES IDX 5 1 6 2 7 3 8 4 9 5 10 6 4 7 3 8 2 9 1 10
REMARK H PARENT
REMARK Flexibility Score: inf
ROOT
ATOM      1  C   UNL     1      14.175  -3.722  16.623  1.00  0.00     0.000 C 
ENDROOT
BRANCH   1   2
ATOM      2  C   UNL     1      15.283  -2.960  17.365  1.00  0.00     0.006 C 
BRANCH   2   3
ATOM      3  C   UNL     1      16.635  -3.034  16.645  1.00  0.00     0.053 C 
BRANCH   3   4
ATOM      4  C   UNL     1      17.758  -2.969  17.632  1.00  0.00     0.041 C 
ATOM      5  O   UNL     1      17.514  -2.955  18.867  1.00  0.00    -0.550 OA
ATOM      6  O   UNL     1      19.074  -2.975  17.189  1.00  0.00    -0.550 OA
ENDBRANCH   3   4
ENDBRANCH   2   3
ENDBRANCH   1   2
BRANCH   1   7
ATOM      7  C   UNL     1      14.721  -4.585  15.471  1.00  0.00     0.000 C 
BRANCH   7   8
ATOM      8  C   UNL     1      14.867  -6.066  15.861  1.00  0.00    -0.000 C 
BRANCH   8   9
ATOM      9  C   UNL     1      15.918  -6.798  15.014  1.00  0.00    -0.003 C 
ATOM     10  C   UNL     1      16.172  -6.066  13.700  1.00  0.00     0.004 C 
ENDBRANCH   8   9
ENDBRANCH   7   8
ENDBRANCH   1   7
TORSDOF 6
ENDMDL
