MODEL 1
REMARK VINA RESULT:    31.029      0.000      0.000
REMARK INTER + INTRA:          80.185
REMARK INTER:                  81.820
REMARK INTRA:                  -1.636
REMARK UNBOUND:                -1.636
REMARK SMILES CCCCCCCCCCCCCCCCCCCCCCCCCCCCCC(=O)[O-]
REMARK SMILES IDX 16 1 17 2 18 3 19 4 20 5 21 6 22 7 23 8 24 9 25 10 26 11
REMARK SMILES IDX 27 12 28 13 29 14 30 15 31 16 32 17 15 18 14 19 13 20 12 21
REMARK SMILES IDX 11 22 10 23 9 24 8 25 7 26 6 27 5 28 4 29 3 30 2 31 1 32
REMARK H PARENT
REMARK Flexibility Score: inf
ROOT
ATOM      1  C   UNL     1      -9.753  16.257 -18.742  1.00  0.00     0.000 C 
ENDROOT
BRANCH   1   2
ATOM      2  C   UNL     1      -9.222  15.159 -17.799  1.00  0.00     0.000 C 
BRANCH   2   3
ATOM      3  C   UNL     1      -8.890  13.814 -18.473  1.00  0.00     0.000 C 
BRANCH   3   4
ATOM      4  C   UNL     1      -8.503  13.957 -19.952  1.00  0.00     0.000 C 
BRANCH   4   5
ATOM      5  C   UNL     1      -8.924  12.714 -20.754  1.00  0.00     0.000 C 
BRANCH   5   6
ATOM      6  C   UNL     1      -8.454  12.762 -22.217  1.00  0.00     0.000 C 
BRANCH   6   7
ATOM      7  C   UNL     1      -6.935  12.549 -22.363  1.00  0.00     0.000 C 
BRANCH   7   8
ATOM      8  C   UNL     1      -6.558  11.856 -23.689  1.00  0.00     0.000 C 
BRANCH   8   9
ATOM      9  C   UNL     1      -6.651  12.774 -24.921  1.00  0.00     0.000 C 
BRANCH   9  10
ATOM     10  C   UNL     1      -5.313  13.440 -25.273  1.00  0.00     0.000 C 
BRANCH  10  11
ATOM     11  C   UNL     1      -5.484  14.459 -26.409  1.00  0.00     0.000 C 
BRANCH  11  12
ATOM     12  C   UNL     1      -4.696  15.761 -26.169  1.00  0.00     0.000 C 
BRANCH  12  13
ATOM     13  C   UNL     1      -5.425  17.055 -26.589  1.00  0.00     0.006 C 
BRANCH  13  14
ATOM     14  C   UNL     1      -5.053  18.297 -25.763  1.00  0.00     0.053 C 
BRANCH  14  15
ATOM     15  C   UNL     1      -6.110  18.639 -24.756  1.00  0.00     0.041 C 
ATOM     16  O   UNL     1      -5.804  19.258 -23.703  1.00  0.00    -0.550 OA
ATOM     17  O   UNL     1      -7.426  18.247 -24.967  1.00  0.00    -0.550 OA
ENDBRANCH  14  15
ENDBRANCH  13  14
ENDBRANCH  12  13
ENDBRANCH  11  12
ENDBRANCH  10  11
ENDBRANCH   9  10
ENDBRANCH   8   9
ENDBRANCH   7   8
ENDBRANCH   6   7
ENDBRANCH   5   6
ENDBRANCH   4   5
ENDBRANCH   3   4
ENDBRANCH   2   3
ENDBRANCH   1   2
BRANCH   1  18
ATOM     18  C   UNL     1     -10.251  17.509 -17.994  1.00  0.00     0.000 C 
BRANCH  18  19
ATOM     19  C   UNL     1      -9.351  17.887 -16.803  1.00  0.00     0.000 C 
BRANCH  19  20
ATOM     20  C   UNL     1      -8.728  19.292 -16.885  1.00  0.00     0.000 C 
BRANCH  20  21
ATOM     21  C   UNL     1      -7.259  19.322 -16.432  1.00  0.00     0.000 C 
BRANCH  21  22
ATOM     22  C   UNL     1      -7.044  20.380 -15.344  1.00  0.00     0.000 C 
BRANCH  22  23
ATOM     23  C   UNL     1      -6.905  19.730 -13.958  1.00  0.00     0.000 C 
BRANCH  23  24
ATOM     24  C   UNL     1      -8.072  20.083 -13.021  1.00  0.00    -0.000 C 
BRANCH  24  25
ATOM     25  C   UNL     1      -9.445  19.892 -13.690  1.00  0.00    -0.000 C 
BRANCH  25  26
ATOM     26  C   UNL     1     -10.248  21.209 -13.801  1.00  0.00    -0.000 C 
BRANCH  26  27
ATOM     27  C   UNL     1     -10.561  21.867 -12.443  1.00  0.00    -0.000 C 
BRANCH  27  28
ATOM     28  C   UNL     1      -9.713  23.113 -12.133  1.00  0.00    -0.000 C 
BRANCH  28  29
ATOM     29  C   UNL     1      -9.412  23.293 -10.625  1.00  0.00    -0.000 C 
BRANCH  29  30
ATOM     30  C   UNL     1      -9.462  24.759 -10.157  1.00  0.00    -0.000 C 
BRANCH  30  31
ATOM     31  C   UNL     1     -10.236  25.660 -11.130  1.00  0.00    -0.003 C 
ATOM     32  C   UNL     1      -9.390  26.854 -11.561  1.00  0.00     0.004 C 
ENDBRANCH  30  31
ENDBRANCH  29  30
ENDBRANCH  28  29
ENDBRANCH  27  28
ENDBRANCH  26  27
ENDBRANCH  25  26
ENDBRANCH  24  25
ENDBRANCH  23  24
ENDBRANCH  22  23
ENDBRANCH  21  22
ENDBRANCH  20  21
ENDBRANCH  19  20
ENDBRANCH  18  19
ENDBRANCH   1  18
TORSDOF 28
ENDMDL
MODEL 2
REMARK VINA RESULT:    31.342      4.688     13.466
REMARK INTER + INTRA:          81.009
REMARK INTER:                  81.493
REMARK INTRA:                  -0.483
REMARK UNBOUND:                -1.636
REMARK SMILES CCCCCCCCCCCCCCCCCCCCCCCCCCCCCC(=O)[O-]
REMARK SMILES IDX 16 1 17 2 18 3 19 4 20 5 21 6 22 7 23 8 24 9 25 10 26 11
REMARK SMILES IDX 27 12 28 13 29 14 30 15 31 16 32 17 15 18 14 19 13 20 12 21
REMARK SMILES IDX 11 22 10 23 9 24 8 25 7 26 6 27 5 28 4 29 3 30 2 31 1 32
REMARK H PARENT
REMARK Flexibility Score: inf
ROOT
ATOM      1  C   UNL     1      -6.622  12.828 -22.882  1.00  0.00     0.000 C 
ENDROOT
BRANCH   1   2
ATOM      2  C   UNL     1      -7.896  12.582 -22.048  1.00  0.00     0.000 C 
BRANCH   2   3
ATOM      3  C   UNL     1      -8.364  13.773 -21.191  1.00  0.00     0.000 C 
BRANCH   3   4
ATOM      4  C   UNL     1      -9.000  13.348 -19.860  1.00  0.00     0.000 C 
BRANCH   4   5
ATOM      5  C   UNL     1      -8.331  14.065 -18.675  1.00  0.00     0.000 C 
BRANCH   5   6
ATOM      6  C   UNL     1      -9.191  14.040 -17.400  1.00  0.00     0.000 C 
BRANCH   6   7
ATOM      7  C   UNL     1     -10.179  15.220 -17.325  1.00  0.00     0.000 C 
BRANCH   7   8
ATOM      8  C   UNL     1      -9.705  16.443 -18.138  1.00  0.00     0.000 C 
BRANCH   8   9
ATOM      9  C   UNL     1      -8.953  17.494 -17.303  1.00  0.00     0.000 C 
BRANCH   9  10
ATOM     10  C   UNL     1      -9.508  18.914 -17.488  1.00  0.00     0.000 C 
BRANCH  10  11
ATOM     11  C   UNL     1     -10.310  19.360 -16.256  1.00  0.00     0.000 C 
BRANCH  11  12
ATOM     12  C   UNL     1      -9.415  19.890 -15.120  1.00  0.00     0.000 C 
BRANCH  12  13
ATOM     13  C   UNL     1      -7.989  19.301 -15.080  1.00  0.00     0.006 C 
BRANCH  13  14
ATOM     14  C   UNL     1      -6.875  20.335 -14.852  1.00  0.00     0.053 C 
BRANCH  14  15
ATOM     15  C   UNL     1      -6.038  20.006 -13.652  1.00  0.00     0.041 C 
ATOM     16  O   UNL     1      -6.185  18.905 -13.061  1.00  0.00    -0.550 OA
ATOM     17  O   UNL     1      -5.117  20.929 -13.171  1.00  0.00    -0.550 OA
ENDBRANCH  14  15
ENDBRANCH  13  14
ENDBRANCH  12  13
ENDBRANCH  11  12
ENDBRANCH  10  11
ENDBRANCH   9  10
ENDBRANCH   8   9
ENDBRANCH   7   8
ENDBRANCH   6   7
ENDBRANCH   5   6
ENDBRANCH   4   5
ENDBRANCH   3   4
ENDBRANCH   2   3
ENDBRANCH   1   2
BRANCH   1  18
ATOM     18  C   UNL     1      -6.577  11.998 -24.179  1.00  0.00     0.000 C 
BRANCH  18  19
ATOM     19  C   UNL     1      -6.031  10.575 -23.955  1.00  0.00     0.000 C 
BRANCH  19  20
ATOM     20  C   UNL     1      -5.923   9.717 -25.229  1.00  0.00     0.000 C 
BRANCH  20  21
ATOM     21  C   UNL     1      -4.771   8.700 -25.170  1.00  0.00     0.000 C 
BRANCH  21  22
ATOM     22  C   UNL     1      -3.419   9.412 -25.054  1.00  0.00     0.000 C 
BRANCH  22  23
ATOM     23  C   UNL     1      -2.412   8.564 -24.263  1.00  0.00     0.000 C 
BRANCH  23  24
ATOM     24  C   UNL     1      -0.952   8.951 -24.558  1.00  0.00    -0.000 C 
BRANCH  24  25
ATOM     25  C   UNL     1      -0.706  10.464 -24.422  1.00  0.00    -0.000 C 
BRANCH  25  26
ATOM     26  C   UNL     1      -0.739  10.949 -22.954  1.00  0.00    -0.000 C 
BRANCH  26  27
ATOM     27  C   UNL     1      -1.252   9.891 -21.957  1.00  0.00    -0.000 C 
BRANCH  27  28
ATOM     28  C   UNL     1      -0.185   8.881 -21.501  1.00  0.00    -0.000 C 
BRANCH  28  29
ATOM     29  C   UNL     1      -0.774   7.521 -21.055  1.00  0.00    -0.000 C 
BRANCH  29  30
ATOM     30  C   UNL     1      -2.314   7.490 -21.040  1.00  0.00    -0.000 C 
BRANCH  30  31
ATOM     31  C   UNL     1      -2.878   7.030 -19.688  1.00  0.00    -0.003 C 
ATOM     32  C   UNL     1      -3.866   8.052 -19.131  1.00  0.00     0.004 C 
ENDBRANCH  30  31
ENDBRANCH  29  30
ENDBRANCH  28  29
ENDBRANCH  27  28
ENDBRANCH  26  27
ENDBRANCH  25  26
ENDBRANCH  24  25
ENDBRANCH  23  24
ENDBRANCH  22  23
ENDBRANCH  21  22
ENDBRANCH  20  21
ENDBRANCH  19  20
ENDBRANCH  18  19
ENDBRANCH   1  18
TORSDOF 28
ENDMDL
MODEL 3
REMARK VINA RESULT:    31.479      4.445     13.325
REMARK INTER + INTRA:          81.370
REMARK INTER:                  81.849
REMARK INTRA:                  -0.479
REMARK UNBOUND:                -1.636
REMARK SMILES CCCCCCCCCCCCCCCCCCCCCCCCCCCCCC(=O)[O-]
REMARK SMILES IDX 16 1 17 2 18 3 19 4 20 5 21 6 22 7 23 8 24 9 25 10 26 11
REMARK SMILES IDX 27 12 28 13 29 14 30 15 31 16 32 17 15 18 14 19 13 20 12 21
REMARK SMILES IDX 11 22 10 23 9 24 8 25 7 26 6 27 5 28 4 29 3 30 2 31 1 32
REMARK H PARENT
REMARK Flexibility Score: inf
ROOT
ATOM      1  C   UNL     1      -8.359  13.840 -21.100  1.00  0.00     0.000 C 
ENDROOT
BRANCH   1   2
ATOM      2  C   UNL     1      -9.348  13.757 -19.921  1.00  0.00     0.000 C 
BRANCH   2   3
ATOM      3  C   UNL     1      -8.784  13.137 -18.627  1.00  0.00     0.000 C 
BRANCH   3   4
ATOM      4  C   UNL     1      -8.275  14.184 -17.626  1.00  0.00     0.000 C 
BRANCH   4   5
ATOM      5  C   UNL     1      -9.331  14.472 -16.546  1.00  0.00     0.000 C 
BRANCH   5   6
ATOM      6  C   UNL     1     -10.398  15.478 -17.008  1.00  0.00     0.000 C 
BRANCH   6   7
ATOM      7  C   UNL     1      -9.907  16.382 -18.155  1.00  0.00     0.000 C 
BRANCH   7   8
ATOM      8  C   UNL     1     -10.321  17.857 -17.966  1.00  0.00     0.000 C 
BRANCH   8   9
ATOM      9  C   UNL     1      -9.139  18.809 -17.710  1.00  0.00     0.000 C 
BRANCH   9  10
ATOM     10  C   UNL     1      -8.799  18.954 -16.220  1.00  0.00     0.000 C 
BRANCH  10  11
ATOM     11  C   UNL     1      -7.330  19.355 -16.023  1.00  0.00     0.000 C 
BRANCH  11  12
ATOM     12  C   UNL     1      -6.957  19.552 -14.541  1.00  0.00     0.000 C 
BRANCH  12  13
ATOM     13  C   UNL     1      -7.915  20.457 -13.739  1.00  0.00     0.006 C 
BRANCH  13  14
ATOM     14  C   UNL     1      -9.200  19.763 -13.259  1.00  0.00     0.053 C 
BRANCH  14  15
ATOM     15  C   UNL     1     -10.432  20.501 -13.689  1.00  0.00     0.041 C 
ATOM     16  O   UNL     1     -10.765  20.524 -14.903  1.00  0.00    -0.550 OA
ATOM     17  O   UNL     1     -11.196  21.187 -12.752  1.00  0.00    -0.550 OA
ENDBRANCH  14  15
ENDBRANCH  13  14
ENDBRANCH  12  13
ENDBRANCH  11  12
ENDBRANCH  10  11
ENDBRANCH   9  10
ENDBRANCH   8   9
ENDBRANCH   7   8
ENDBRANCH   6   7
ENDBRANCH   5   6
ENDBRANCH   4   5
ENDBRANCH   3   4
ENDBRANCH   2   3
ENDBRANCH   1   2
BRANCH   1  18
ATOM     18  C   UNL     1      -8.381  12.588 -21.998  1.00  0.00     0.000 C 
BRANCH  18  19
ATOM     19  C   UNL     1      -6.977  12.177 -22.478  1.00  0.00     0.000 C 
BRANCH  19  20
ATOM     20  C   UNL     1      -6.623  12.634 -23.905  1.00  0.00     0.000 C 
BRANCH  20  21
ATOM     21  C   UNL     1      -6.432  11.461 -24.880  1.00  0.00     0.000 C 
BRANCH  21  22
ATOM     22  C   UNL     1      -5.808  10.255 -24.169  1.00  0.00     0.000 C 
BRANCH  22  23
ATOM     23  C   UNL     1      -5.492   9.127 -25.163  1.00  0.00     0.000 C 
BRANCH  23  24
ATOM     24  C   UNL     1      -3.996   9.048 -25.513  1.00  0.00    -0.000 C 
BRANCH  24  25
ATOM     25  C   UNL     1      -3.096   9.094 -24.265  1.00  0.00    -0.000 C 
BRANCH  25  26
ATOM     26  C   UNL     1      -1.623   8.736 -24.574  1.00  0.00    -0.000 C 
BRANCH  26  27
ATOM     27  C   UNL     1      -0.810   8.309 -23.336  1.00  0.00    -0.000 C 
BRANCH  27  28
ATOM     28  C   UNL     1      -1.443   8.712 -21.993  1.00  0.00    -0.000 C 
BRANCH  28  29
ATOM     29  C   UNL     1      -1.574   7.535 -20.996  1.00  0.00    -0.000 C 
BRANCH  29  30
ATOM     30  C   UNL     1      -1.964   7.972 -19.572  1.00  0.00    -0.000 C 
BRANCH  30  31
ATOM     31  C   UNL     1      -3.254   7.296 -19.084  1.00  0.00    -0.003 C 
ATOM     32  C   UNL     1      -4.487   8.019 -19.619  1.00  0.00     0.004 C 
ENDBRANCH  30  31
ENDBRANCH  29  30
ENDBRANCH  28  29
ENDBRANCH  27  28
ENDBRANCH  26  27
ENDBRANCH  25  26
ENDBRANCH  24  25
ENDBRANCH  23  24
ENDBRANCH  22  23
ENDBRANCH  21  22
ENDBRANCH  20  21
ENDBRANCH  19  20
ENDBRANCH  18  19
ENDBRANCH   1  18
TORSDOF 28
ENDMDL
MODEL 4
REMARK VINA RESULT:    31.883      5.164     14.462
REMARK INTER + INTRA:          82.436
REMARK INTER:                  83.895
REMARK INTRA:                  -1.459
REMARK UNBOUND:                -1.636
REMARK SMILES CCCCCCCCCCCCCCCCCCCCCCCCCCCCCC(=O)[O-]
REMARK SMILES IDX 16 1 17 2 18 3 19 4 20 5 21 6 22 7 23 8 24 9 25 10 26 11
REMARK SMILES IDX 27 12 28 13 29 14 30 15 31 16 32 17 15 18 14 19 13 20 12 21
REMARK SMILES IDX 11 22 10 23 9 24 8 25 7 26 6 27 5 28 4 29 3 30 2 31 1 32
REMARK H PARENT
REMARK Flexibility Score: inf
ROOT
ATOM      1  C   UNL     1      -8.893  13.499 -20.189  1.00  0.00     0.000 C 
ENDROOT
BRANCH   1   2
ATOM      2  C   UNL     1      -9.293  14.797 -19.460  1.00  0.00     0.000 C 
BRANCH   2   3
ATOM      3  C   UNL     1      -9.130  14.771 -17.928  1.00  0.00     0.000 C 
BRANCH   3   4
ATOM      4  C   UNL     1      -9.873  15.914 -17.221  1.00  0.00     0.000 C 
BRANCH   4   5
ATOM      5  C   UNL     1      -9.918  17.172 -18.105  1.00  0.00     0.000 C 
BRANCH   5   6
ATOM      6  C   UNL     1     -10.069  18.468 -17.291  1.00  0.00     0.000 C 
BRANCH   6   7
ATOM      7  C   UNL     1      -8.731  18.969 -16.716  1.00  0.00     0.000 C 
BRANCH   7   8
ATOM      8  C   UNL     1      -8.633  18.780 -15.187  1.00  0.00     0.000 C 
BRANCH   8   9
ATOM      9  C   UNL     1      -8.986  20.040 -14.378  1.00  0.00     0.000 C 
BRANCH   9  10
ATOM     10  C   UNL     1     -10.482  20.136 -14.043  1.00  0.00     0.000 C 
BRANCH  10  11
ATOM     11  C   UNL     1     -10.715  21.002 -12.795  1.00  0.00     0.000 C 
BRANCH  11  12
ATOM     12  C   UNL     1      -9.732  22.184 -12.695  1.00  0.00     0.000 C 
BRANCH  12  13
ATOM     13  C   UNL     1     -10.210  23.361 -11.820  1.00  0.00     0.006 C 
BRANCH  13  14
ATOM     14  C   UNL     1      -9.095  24.320 -11.370  1.00  0.00     0.053 C 
BRANCH  14  15
ATOM     15  C   UNL     1      -9.644  25.573 -10.758  1.00  0.00     0.041 C 
ATOM     16  O   UNL     1     -10.044  25.572  -9.564  1.00  0.00    -0.550 OA
ATOM     17  O   UNL     1      -9.741  26.734 -11.516  1.00  0.00    -0.550 OA
ENDBRANCH  14  15
ENDBRANCH  13  14
ENDBRANCH  12  13
ENDBRANCH  11  12
ENDBRANCH  10  11
ENDBRANCH   9  10
ENDBRANCH   8   9
ENDBRANCH   7   8
ENDBRANCH   6   7
ENDBRANCH   5   6
ENDBRANCH   4   5
ENDBRANCH   3   4
ENDBRANCH   2   3
ENDBRANCH   1   2
BRANCH   1  18
ATOM     18  C   UNL     1      -7.929  13.738 -21.367  1.00  0.00     0.000 C 
BRANCH  18  19
ATOM     19  C   UNL     1      -7.583  12.442 -22.124  1.00  0.00     0.000 C 
BRANCH  19  20
ATOM     20  C   UNL     1      -6.819  12.650 -23.444  1.00  0.00     0.000 C 
BRANCH  20  21
ATOM     21  C   UNL     1      -5.867  11.489 -23.775  1.00  0.00     0.000 C 
BRANCH  21  22
ATOM     22  C   UNL     1      -6.167  10.913 -25.163  1.00  0.00     0.000 C 
BRANCH  22  23
ATOM     23  C   UNL     1      -5.923   9.397 -25.200  1.00  0.00     0.000 C 
BRANCH  23  24
ATOM     24  C   UNL     1      -4.455   9.042 -25.492  1.00  0.00    -0.000 C 
BRANCH  24  25
ATOM     25  C   UNL     1      -3.689   8.613 -24.227  1.00  0.00    -0.000 C 
BRANCH  25  26
ATOM     26  C   UNL     1      -2.221   9.096 -24.221  1.00  0.00    -0.000 C 
BRANCH  26  27
ATOM     27  C   UNL     1      -1.350   8.440 -23.132  1.00  0.00    -0.000 C 
BRANCH  27  28
ATOM     28  C   UNL     1      -1.791   7.020 -22.738  1.00  0.00    -0.000 C 
BRANCH  28  29
ATOM     29  C   UNL     1      -2.135   6.876 -21.236  1.00  0.00    -0.000 C 
BRANCH  29  30
ATOM     30  C   UNL     1      -2.284   8.222 -20.504  1.00  0.00    -0.000 C 
BRANCH  30  31
ATOM     31  C   UNL     1      -3.230   8.133 -19.298  1.00  0.00    -0.003 C 
ATOM     32  C   UNL     1      -2.906   6.915 -18.438  1.00  0.00     0.004 C 
ENDBRANCH  30  31
ENDBRANCH  29  30
ENDBRANCH  28  29
ENDBRANCH  27  28
ENDBRANCH  26  27
ENDBRANCH  25  26
ENDBRANCH  24  25
ENDBRANCH  23  24
ENDBRANCH  22  23
ENDBRANCH  21  22
ENDBRANCH  20  21
ENDBRANCH  19  20
ENDBRANCH  18  19
ENDBRANCH   1  18
TORSDOF 28
ENDMDL
MODEL 5
REMARK VINA RESULT:    31.995      6.637      9.076
REMARK INTER + INTRA:          82.731
REMARK INTER:                  84.430
REMARK INTRA:                  -1.699
REMARK UNBOUND:                -1.636
REMARK SMILES CCCCCCCCCCCCCCCCCCCCCCCCCCCCCC(=O)[O-]
REMARK SMILES IDX 16 1 17 2 18 3 19 4 20 5 21 6 22 7 23 8 24 9 25 10 26 11
REMARK SMILES IDX 27 12 28 13 29 14 30 15 31 16 32 17 15 18 14 19 13 20 12 21
REMARK SMILES IDX 11 22 10 23 9 24 8 25 7 26 6 27 5 28 4 29 3 30 2 31 1 32
REMARK H PARENT
REMARK Flexibility Score: inf
ROOT
ATOM      1  C   UNL     1      -6.741  12.662 -23.279  1.00  0.00     0.000 C 
ENDROOT
BRANCH   1   2
ATOM      2  C   UNL     1      -6.227  11.779 -24.433  1.00  0.00     0.000 C 
BRANCH   2   3
ATOM      3  C   UNL     1      -5.881  10.327 -24.050  1.00  0.00     0.000 C 
BRANCH   3   4
ATOM      4  C   UNL     1      -5.267   9.526 -25.208  1.00  0.00     0.000 C 
BRANCH   4   5
ATOM      5  C   UNL     1      -4.325   8.431 -24.681  1.00  0.00     0.000 C 
BRANCH   5   6
ATOM      6  C   UNL     1      -4.889   7.700 -23.451  1.00  0.00     0.000 C 
BRANCH   6   7
ATOM      7  C   UNL     1      -3.813   6.914 -22.679  1.00  0.00     0.000 C 
BRANCH   7   8
ATOM      8  C   UNL     1      -3.656   7.396 -21.221  1.00  0.00     0.000 C 
BRANCH   8   9
ATOM      9  C   UNL     1      -2.199   7.660 -20.804  1.00  0.00     0.000 C 
BRANCH   9  10
ATOM     10  C   UNL     1      -1.220   7.615 -21.986  1.00  0.00     0.000 C 
BRANCH  10  11
ATOM     11  C   UNL     1      -0.504   8.961 -22.165  1.00  0.00     0.000 C 
BRANCH  11  12
ATOM     12  C   UNL     1      -1.055   9.779 -23.349  1.00  0.00     0.000 C 
BRANCH  12  13
ATOM     13  C   UNL     1      -1.210   8.996 -24.669  1.00  0.00     0.006 C 
BRANCH  13  14
ATOM     14  C   UNL     1      -0.035   9.152 -25.648  1.00  0.00     0.053 C 
BRANCH  14  15
ATOM     15  C   UNL     1       0.635   7.842 -25.936  1.00  0.00     0.041 C 
ATOM     16  O   UNL     1       1.458   7.359 -25.115  1.00  0.00    -0.550 OA
ATOM     17  O   UNL     1       0.373   7.172 -27.125  1.00  0.00    -0.550 OA
ENDBRANCH  14  15
ENDBRANCH  13  14
ENDBRANCH  12  13
ENDBRANCH  11  12
ENDBRANCH  10  11
ENDBRANCH   9  10
ENDBRANCH   8   9
ENDBRANCH   7   8
ENDBRANCH   6   7
ENDBRANCH   5   6
ENDBRANCH   4   5
ENDBRANCH   3   4
ENDBRANCH   2   3
ENDBRANCH   1   2
BRANCH   1  18
ATOM     18  C   UNL     1      -7.801  11.964 -22.407  1.00  0.00     0.000 C 
BRANCH  18  19
ATOM     19  C   UNL     1      -8.756  12.958 -21.721  1.00  0.00     0.000 C 
BRANCH  19  20
ATOM     20  C   UNL     1      -8.755  12.900 -20.183  1.00  0.00     0.000 C 
BRANCH  20  21
ATOM     21  C   UNL     1      -8.417  14.251 -19.533  1.00  0.00     0.000 C 
BRANCH  21  22
ATOM     22  C   UNL     1      -7.564  14.055 -18.275  1.00  0.00     0.000 C 
BRANCH  22  23
ATOM     23  C   UNL     1      -7.935  15.074 -17.187  1.00  0.00     0.000 C 
BRANCH  23  24
ATOM     24  C   UNL     1      -9.124  15.963 -17.592  1.00  0.00    -0.000 C 
BRANCH  24  25
ATOM     25  C   UNL     1     -10.468  15.424 -17.069  1.00  0.00    -0.000 C 
BRANCH  25  26
ATOM     26  C   UNL     1     -10.649  13.910 -17.327  1.00  0.00    -0.000 C 
BRANCH  26  27
ATOM     27  C   UNL     1     -11.390  13.167 -16.199  1.00  0.00    -0.000 C 
BRANCH  27  28
ATOM     28  C   UNL     1     -10.751  13.326 -14.809  1.00  0.00    -0.000 C 
BRANCH  28  29
ATOM     29  C   UNL     1      -9.580  12.346 -14.553  1.00  0.00    -0.000 C 
BRANCH  29  30
ATOM     30  C   UNL     1      -9.466  11.891 -13.086  1.00  0.00    -0.000 C 
BRANCH  30  31
ATOM     31  C   UNL     1      -9.272  13.069 -12.120  1.00  0.00    -0.003 C 
ATOM     32  C   UNL     1      -7.959  13.794 -12.398  1.00  0.00     0.004 C 
ENDBRANCH  30  31
ENDBRANCH  29  30
ENDBRANCH  28  29
ENDBRANCH  27  28
ENDBRANCH  26  27
ENDBRANCH  25  26
ENDBRANCH  24  25
ENDBRANCH  23  24
ENDBRANCH  22  23
ENDBRANCH  21  22
ENDBRANCH  20  21
ENDBRANCH  19  20
ENDBRANCH  18  19
ENDBRANCH   1  18
TORSDOF 28
ENDMDL
MODEL 6
REMARK VINA RESULT:    32.061      2.895      4.873
REMARK INTER + INTRA:          82.905
REMARK INTER:                  84.288
REMARK INTRA:                  -1.382
REMARK UNBOUND:                -1.636
REMARK SMILES CCCCCCCCCCCCCCCCCCCCCCCCCCCCCC(=O)[O-]
REMARK SMILES IDX 16 1 17 2 18 3 19 4 20 5 21 6 22 7 23 8 24 9 25 10 26 11
REMARK SMILES IDX 27 12 28 13 29 14 30 15 31 16 32 17 15 18 14 19 13 20 12 21
REMARK SMILES IDX 11 22 10 23 9 24 8 25 7 26 6 27 5 28 4 29 3 30 2 31 1 32
REMARK H PARENT
REMARK Flexibility Score: inf
ROOT
ATOM      1  C   UNL     1      -9.537  15.602 -17.262  1.00  0.00     0.000 C 
ENDROOT
BRANCH   1   2
ATOM      2  C   UNL     1      -8.799  14.359 -17.799  1.00  0.00     0.000 C 
BRANCH   2   3
ATOM      3  C   UNL     1      -8.758  14.226 -19.333  1.00  0.00     0.000 C 
BRANCH   3   4
ATOM      4  C   UNL     1      -9.407  12.932 -19.846  1.00  0.00     0.000 C 
BRANCH   4   5
ATOM      5  C   UNL     1      -9.190  12.769 -21.360  1.00  0.00     0.000 C 
BRANCH   5   6
ATOM      6  C   UNL     1      -7.704  12.811 -21.757  1.00  0.00     0.000 C 
BRANCH   6   7
ATOM      7  C   UNL     1      -7.494  12.766 -23.282  1.00  0.00     0.000 C 
BRANCH   7   8
ATOM      8  C   UNL     1      -6.242  11.958 -23.685  1.00  0.00     0.000 C 
BRANCH   8   9
ATOM      9  C   UNL     1      -5.478  12.547 -24.883  1.00  0.00     0.000 C 
BRANCH   9  10
ATOM     10  C   UNL     1      -5.803  14.027 -25.131  1.00  0.00     0.000 C 
BRANCH  10  11
ATOM     11  C   UNL     1      -5.027  14.570 -26.340  1.00  0.00     0.000 C 
BRANCH  11  12
ATOM     12  C   UNL     1      -5.522  15.956 -26.796  1.00  0.00     0.000 C 
BRANCH  12  13
ATOM     13  C   UNL     1      -4.811  17.155 -26.135  1.00  0.00     0.006 C 
BRANCH  13  14
ATOM     14  C   UNL     1      -5.751  18.272 -25.654  1.00  0.00     0.053 C 
BRANCH  14  15
ATOM     15  C   UNL     1      -5.747  18.407 -24.161  1.00  0.00     0.041 C 
ATOM     16  O   UNL     1      -4.877  17.810 -23.474  1.00  0.00    -0.550 OA
ATOM     17  O   UNL     1      -6.722  19.169 -23.528  1.00  0.00    -0.550 OA
ENDBRANCH  14  15
ENDBRANCH  13  14
ENDBRANCH  12  13
ENDBRANCH  11  12
ENDBRANCH  10  11
ENDBRANCH   9  10
ENDBRANCH   8   9
ENDBRANCH   7   8
ENDBRANCH   6   7
ENDBRANCH   5   6
ENDBRANCH   4   5
ENDBRANCH   3   4
ENDBRANCH   2   3
ENDBRANCH   1   2
BRANCH   1  18
ATOM     18  C   UNL     1      -9.513  16.790 -18.242  1.00  0.00     0.000 C 
BRANCH  18  19
ATOM     19  C   UNL     1     -10.307  18.004 -17.723  1.00  0.00     0.000 C 
BRANCH  19  20
ATOM     20  C   UNL     1      -9.480  19.017 -16.911  1.00  0.00     0.000 C 
BRANCH  20  21
ATOM     21  C   UNL     1      -8.066  18.511 -16.583  1.00  0.00     0.000 C 
BRANCH  21  22
ATOM     22  C   UNL     1      -7.081  19.680 -16.464  1.00  0.00     0.000 C 
BRANCH  22  23
ATOM     23  C   UNL     1      -6.638  19.885 -15.007  1.00  0.00     0.000 C 
BRANCH  23  24
ATOM     24  C   UNL     1      -7.671  19.361 -13.995  1.00  0.00    -0.000 C 
BRANCH  24  25
ATOM     25  C   UNL     1      -7.080  18.307 -13.042  1.00  0.00    -0.000 C 
BRANCH  25  26
ATOM     26  C   UNL     1      -8.135  17.703 -12.086  1.00  0.00    -0.000 C 
BRANCH  26  27
ATOM     27  C   UNL     1      -7.896  16.219 -11.746  1.00  0.00    -0.000 C 
BRANCH  27  28
ATOM     28  C   UNL     1      -8.812  15.241 -12.503  1.00  0.00    -0.000 C 
BRANCH  28  29
ATOM     29  C   UNL     1      -8.132  13.890 -12.832  1.00  0.00    -0.000 C 
BRANCH  29  30
ATOM     30  C   UNL     1      -8.992  12.663 -12.474  1.00  0.00    -0.000 C 
BRANCH  30  31
ATOM     31  C   UNL     1      -9.926  12.929 -11.284  1.00  0.00    -0.003 C 
ATOM     32  C   UNL     1     -11.352  13.195 -11.758  1.00  0.00     0.004 C 
ENDBRANCH  30  31
ENDBRANCH  29  30
ENDBRANCH  28  29
ENDBRANCH  27  28
ENDBRANCH  26  27
ENDBRANCH  25  26
ENDBRANCH  24  25
ENDBRANCH  23  24
ENDBRANCH  22  23
ENDBRANCH  21  22
ENDBRANCH  20  21
ENDBRANCH  19  20
ENDBRANCH  18  19
ENDBRANCH   1  18
TORSDOF 28
ENDMDL
MODEL 7
REMARK VINA RESULT:    32.085      1.994      3.086
REMARK INTER + INTRA:          82.968
REMARK INTER:                  84.264
REMARK INTRA:                  -1.296
REMARK UNBOUND:                -1.636
REMARK SMILES CCCCCCCCCCCCCCCCCCCCCCCCCCCCCC(=O)[O-]
REMARK SMILES IDX 16 1 17 2 18 3 19 4 20 5 21 6 22 7 23 8 24 9 25 10 26 11
REMARK SMILES IDX 27 12 28 13 29 14 30 15 31 16 32 17 15 18 14 19 13 20 12 21
REMARK SMILES IDX 11 22 10 23 9 24 8 25 7 26 6 27 5 28 4 29 3 30 2 31 1 32
REMARK H PARENT
REMARK Flexibility Score: inf
ROOT
ATOM      1  C   UNL     1      -8.679  14.074 -18.443  1.00  0.00     0.000 C 
ENDROOT
BRANCH   1   2
ATOM      2  C   UNL     1      -9.055  14.675 -19.812  1.00  0.00     0.000 C 
BRANCH   2   3
ATOM      3  C   UNL     1      -8.357  14.035 -21.028  1.00  0.00     0.000 C 
BRANCH   3   4
ATOM      4  C   UNL     1      -8.765  12.573 -21.260  1.00  0.00     0.000 C 
BRANCH   4   5
ATOM      5  C   UNL     1      -7.805  11.883 -22.243  1.00  0.00     0.000 C 
BRANCH   5   6
ATOM      6  C   UNL     1      -6.918  12.879 -23.009  1.00  0.00     0.000 C 
BRANCH   6   7
ATOM      7  C   UNL     1      -6.206  12.237 -24.215  1.00  0.00     0.000 C 
BRANCH   7   8
ATOM      8  C   UNL     1      -6.848  12.632 -25.562  1.00  0.00     0.000 C 
BRANCH   8   9
ATOM      9  C   UNL     1      -6.048  13.685 -26.349  1.00  0.00     0.000 C 
BRANCH   9  10
ATOM     10  C   UNL     1      -4.997  14.403 -25.491  1.00  0.00     0.000 C 
BRANCH  10  11
ATOM     11  C   UNL     1      -4.532  15.706 -26.159  1.00  0.00     0.000 C 
BRANCH  11  12
ATOM     12  C   UNL     1      -5.675  16.722 -26.346  1.00  0.00     0.000 C 
BRANCH  12  13
ATOM     13  C   UNL     1      -5.264  18.203 -26.198  1.00  0.00     0.006 C 
BRANCH  13  14
ATOM     14  C   UNL     1      -6.043  18.979 -25.123  1.00  0.00     0.053 C 
BRANCH  14  15
ATOM     15  C   UNL     1      -5.940  18.331 -23.776  1.00  0.00     0.041 C 
ATOM     16  O   UNL     1      -6.908  18.383 -22.972  1.00  0.00    -0.550 OA
ATOM     17  O   UNL     1      -4.763  17.695 -23.397  1.00  0.00    -0.550 OA
ENDBRANCH  14  15
ENDBRANCH  13  14
ENDBRANCH  12  13
ENDBRANCH  11  12
ENDBRANCH  10  11
ENDBRANCH   9  10
ENDBRANCH   8   9
ENDBRANCH   7   8
ENDBRANCH   6   7
ENDBRANCH   5   6
ENDBRANCH   4   5
ENDBRANCH   3   4
ENDBRANCH   2   3
ENDBRANCH   1   2
BRANCH   1  18
ATOM     18  C   UNL     1      -9.803  14.200 -17.397  1.00  0.00     0.000 C 
BRANCH  18  19
ATOM     19  C   UNL     1      -9.819  15.575 -16.704  1.00  0.00     0.000 C 
BRANCH  19  20
ATOM     20  C   UNL     1      -9.301  16.740 -17.567  1.00  0.00     0.000 C 
BRANCH  20  21
ATOM     21  C   UNL     1      -9.676  18.119 -17.000  1.00  0.00     0.000 C 
BRANCH  21  22
ATOM     22  C   UNL     1      -8.632  19.172 -17.388  1.00  0.00     0.000 C 
BRANCH  22  23
ATOM     23  C   UNL     1      -7.374  19.055 -16.513  1.00  0.00     0.000 C 
BRANCH  23  24
ATOM     24  C   UNL     1      -6.728  20.420 -16.222  1.00  0.00    -0.000 C 
BRANCH  24  25
ATOM     25  C   UNL     1      -6.459  20.636 -14.721  1.00  0.00    -0.000 C 
BRANCH  25  26
ATOM     26  C   UNL     1      -6.289  19.310 -13.944  1.00  0.00    -0.000 C 
BRANCH  26  27
ATOM     27  C   UNL     1      -7.618  18.600 -13.619  1.00  0.00    -0.000 C 
BRANCH  27  28
ATOM     28  C   UNL     1      -8.599  19.443 -12.785  1.00  0.00    -0.000 C 
BRANCH  28  29
ATOM     29  C   UNL     1      -9.954  19.691 -13.491  1.00  0.00    -0.000 C 
BRANCH  29  30
ATOM     30  C   UNL     1     -10.438  21.149 -13.405  1.00  0.00    -0.000 C 
BRANCH  30  31
ATOM     31  C   UNL     1     -11.784  21.279 -12.676  1.00  0.00    -0.003 C 
ATOM     32  C   UNL     1     -11.824  20.387 -11.439  1.00  0.00     0.004 C 
ENDBRANCH  30  31
ENDBRANCH  29  30
ENDBRANCH  28  29
ENDBRANCH  27  28
ENDBRANCH  26  27
ENDBRANCH  25  26
ENDBRANCH  24  25
ENDBRANCH  23  24
ENDBRANCH  22  23
ENDBRANCH  21  22
ENDBRANCH  20  21
ENDBRANCH  19  20
ENDBRANCH  18  19
ENDBRANCH   1  18
TORSDOF 28
ENDMDL
MODEL 8
REMARK VINA RESULT:    32.105      5.309      7.306
REMARK INTER + INTRA:          83.022
REMARK INTER:                  82.985
REMARK INTRA:                   0.036
REMARK UNBOUND:                -1.636
REMARK SMILES CCCCCCCCCCCCCCCCCCCCCCCCCCCCCC(=O)[O-]
REMARK SMILES IDX 16 1 17 2 18 3 19 4 20 5 21 6 22 7 23 8 24 9 25 10 26 11
REMARK SMILES IDX 27 12 28 13 29 14 30 15 31 16 32 17 15 18 14 19 13 20 12 21
REMARK SMILES IDX 11 22 10 23 9 24 8 25 7 26 6 27 5 28 4 29 3 30 2 31 1 32
REMARK H PARENT
REMARK Flexibility Score: inf
ROOT
ATOM      1  C   UNL     1      -8.921  14.840 -19.060  1.00  0.00     0.000 C 
ENDROOT
BRANCH   1   2
ATOM      2  C   UNL     1      -8.841  13.567 -19.926  1.00  0.00     0.000 C 
BRANCH   2   3
ATOM      3  C   UNL     1      -8.209  13.755 -21.319  1.00  0.00     0.000 C 
BRANCH   3   4
ATOM      4  C   UNL     1      -7.749  12.436 -21.958  1.00  0.00     0.000 C 
BRANCH   4   5
ATOM      5  C   UNL     1      -6.657  12.687 -23.011  1.00  0.00     0.000 C 
BRANCH   5   6
ATOM      6  C   UNL     1      -6.154  11.390 -23.668  1.00  0.00     0.000 C 
BRANCH   6   7
ATOM      7  C   UNL     1      -6.042  11.504 -25.201  1.00  0.00     0.000 C 
BRANCH   7   8
ATOM      8  C   UNL     1      -7.180  12.344 -25.818  1.00  0.00     0.000 C 
BRANCH   8   9
ATOM      9  C   UNL     1      -6.750  13.758 -26.248  1.00  0.00     0.000 C 
BRANCH   9  10
ATOM     10  C   UNL     1      -5.225  13.929 -26.297  1.00  0.00     0.000 C 
BRANCH  10  11
ATOM     11  C   UNL     1      -4.782  15.172 -25.510  1.00  0.00     0.000 C 
BRANCH  11  12
ATOM     12  C   UNL     1      -4.737  16.445 -26.377  1.00  0.00     0.000 C 
BRANCH  12  13
ATOM     13  C   UNL     1      -5.957  17.378 -26.234  1.00  0.00     0.006 C 
BRANCH  13  14
ATOM     14  C   UNL     1      -5.687  18.671 -25.448  1.00  0.00     0.053 C 
BRANCH  14  15
ATOM     15  C   UNL     1      -5.777  18.458 -23.967  1.00  0.00     0.041 C 
ATOM     16  O   UNL     1      -6.769  18.889 -23.324  1.00  0.00    -0.550 OA
ATOM     17  O   UNL     1      -4.748  17.809 -23.293  1.00  0.00    -0.550 OA
ENDBRANCH  14  15
ENDBRANCH  13  14
ENDBRANCH  12  13
ENDBRANCH  11  12
ENDBRANCH  10  11
ENDBRANCH   9  10
ENDBRANCH   8   9
ENDBRANCH   7   8
ENDBRANCH   6   7
ENDBRANCH   5   6
ENDBRANCH   4   5
ENDBRANCH   3   4
ENDBRANCH   2   3
ENDBRANCH   1   2
BRANCH   1  18
ATOM     18  C   UNL     1      -9.168  14.543 -17.569  1.00  0.00     0.000 C 
BRANCH  18  19
ATOM     19  C   UNL     1     -10.056  13.305 -17.348  1.00  0.00     0.000 C 
BRANCH  19  20
ATOM     20  C   UNL     1     -11.274  13.538 -16.436  1.00  0.00     0.000 C 
BRANCH  20  21
ATOM     21  C   UNL     1     -10.895  13.669 -14.952  1.00  0.00     0.000 C 
BRANCH  21  22
ATOM     22  C   UNL     1     -11.910  14.540 -14.203  1.00  0.00     0.000 C 
BRANCH  22  23
ATOM     23  C   UNL     1     -11.550  14.656 -12.714  1.00  0.00     0.000 C 
BRANCH  23  24
ATOM     24  C   UNL     1     -12.039  13.451 -11.893  1.00  0.00    -0.000 C 
BRANCH  24  25
ATOM     25  C   UNL     1     -10.884  12.692 -11.215  1.00  0.00    -0.000 C 
BRANCH  25  26
ATOM     26  C   UNL     1      -9.595  13.539 -11.099  1.00  0.00    -0.000 C 
BRANCH  26  27
ATOM     27  C   UNL     1      -8.823  13.688 -12.425  1.00  0.00    -0.000 C 
BRANCH  27  28
ATOM     28  C   UNL     1      -8.545  12.359 -13.149  1.00  0.00    -0.000 C 
BRANCH  28  29
ATOM     29  C   UNL     1      -9.545  11.236 -12.781  1.00  0.00    -0.000 C 
BRANCH  29  30
ATOM     30  C   UNL     1      -9.552  10.064 -13.779  1.00  0.00    -0.000 C 
BRANCH  30  31
ATOM     31  C   UNL     1     -10.618   9.011 -13.441  1.00  0.00    -0.003 C 
ATOM     32  C   UNL     1     -10.860   8.079 -14.624  1.00  0.00     0.004 C 
ENDBRANCH  30  31
ENDBRANCH  29  30
ENDBRANCH  28  29
ENDBRANCH  27  28
ENDBRANCH  26  27
ENDBRANCH  25  26
ENDBRANCH  24  25
ENDBRANCH  23  24
ENDBRANCH  22  23
ENDBRANCH  21  22
ENDBRANCH  20  21
ENDBRANCH  19  20
ENDBRANCH  18  19
ENDBRANCH   1  18
TORSDOF 28
ENDMDL
MODEL 9
REMARK VINA RESULT:    32.279      4.771      7.166
REMARK INTER + INTRA:          83.481
REMARK INTER:                  82.560
REMARK INTRA:                   0.921
REMARK UNBOUND:                -1.636
REMARK SMILES CCCCCCCCCCCCCCCCCCCCCCCCCCCCCC(=O)[O-]
REMARK SMILES IDX 16 1 17 2 18 3 19 4 20 5 21 6 22 7 23 8 24 9 25 10 26 11
REMARK SMILES IDX 27 12 28 13 29 14 30 15 31 16 32 17 15 18 14 19 13 20 12 21
REMARK SMILES IDX 11 22 10 23 9 24 8 25 7 26 6 27 5 28 4 29 3 30 2 31 1 32
REMARK H PARENT
REMARK Flexibility Score: inf
ROOT
ATOM      1  C   UNL     1      -8.740  12.566 -21.309  1.00  0.00     0.000 C 
ENDROOT
BRANCH   1   2
ATOM      2  C   UNL     1      -8.140  12.073 -22.641  1.00  0.00     0.000 C 
BRANCH   2   3
ATOM      3  C   UNL     1      -6.916  12.861 -23.146  1.00  0.00     0.000 C 
BRANCH   3   4
ATOM      4  C   UNL     1      -6.239  12.213 -24.363  1.00  0.00     0.000 C 
BRANCH   4   5
ATOM      5  C   UNL     1      -6.011  10.711 -24.131  1.00  0.00     0.000 C 
BRANCH   5   6
ATOM      6  C   UNL     1      -5.614   9.963 -25.415  1.00  0.00     0.000 C 
BRANCH   6   7
ATOM      7  C   UNL     1      -4.934   8.610 -25.130  1.00  0.00     0.000 C 
BRANCH   7   8
ATOM      8  C   UNL     1      -3.462   8.766 -24.693  1.00  0.00     0.000 C 
BRANCH   8   9
ATOM      9  C   UNL     1      -2.897   7.540 -23.955  1.00  0.00     0.000 C 
BRANCH   9  10
ATOM     10  C   UNL     1      -1.838   7.908 -22.906  1.00  0.00     0.000 C 
BRANCH  10  11
ATOM     11  C   UNL     1      -1.677   9.431 -22.792  1.00  0.00     0.000 C 
BRANCH  11  12
ATOM     12  C   UNL     1      -0.332   9.933 -23.350  1.00  0.00     0.000 C 
BRANCH  12  13
ATOM     13  C   UNL     1      -0.391  10.513 -24.779  1.00  0.00     0.006 C 
BRANCH  13  14
ATOM     14  C   UNL     1      -0.666   9.476 -25.880  1.00  0.00     0.053 C 
BRANCH  14  15
ATOM     15  C   UNL     1       0.494   8.547 -26.081  1.00  0.00     0.041 C 
ATOM     16  O   UNL     1       1.233   8.666 -27.093  1.00  0.00    -0.550 OA
ATOM     17  O   UNL     1       0.739   7.531 -25.164  1.00  0.00    -0.550 OA
ENDBRANCH  14  15
ENDBRANCH  13  14
ENDBRANCH  12  13
ENDBRANCH  11  12
ENDBRANCH  10  11
ENDBRANCH   9  10
ENDBRANCH   8   9
ENDBRANCH   7   8
ENDBRANCH   6   7
ENDBRANCH   5   6
ENDBRANCH   4   5
ENDBRANCH   3   4
ENDBRANCH   2   3
ENDBRANCH   1   2
BRANCH   1  18
ATOM     18  C   UNL     1      -8.361  14.021 -20.976  1.00  0.00     0.000 C 
BRANCH  18  19
ATOM     19  C   UNL     1      -8.766  14.428 -19.547  1.00  0.00     0.000 C 
BRANCH  19  20
ATOM     20  C   UNL     1      -8.896  13.258 -18.554  1.00  0.00     0.000 C 
BRANCH  20  21
ATOM     21  C   UNL     1      -9.794  13.590 -17.351  1.00  0.00     0.000 C 
BRANCH  21  22
ATOM     22  C   UNL     1      -9.130  14.632 -16.444  1.00  0.00     0.000 C 
BRANCH  22  23
ATOM     23  C   UNL     1      -9.105  16.015 -17.113  1.00  0.00     0.000 C 
BRANCH  23  24
ATOM     24  C   UNL     1     -10.468  16.409 -17.708  1.00  0.00    -0.000 C 
BRANCH  24  25
ATOM     25  C   UNL     1     -10.424  17.763 -18.438  1.00  0.00    -0.000 C 
BRANCH  25  26
ATOM     26  C   UNL     1      -9.681  18.855 -17.634  1.00  0.00    -0.000 C 
BRANCH  26  27
ATOM     27  C   UNL     1      -8.549  18.312 -16.739  1.00  0.00    -0.000 C 
BRANCH  27  28
ATOM     28  C   UNL     1      -7.508  19.367 -16.326  1.00  0.00    -0.000 C 
BRANCH  28  29
ATOM     29  C   UNL     1      -7.550  19.716 -14.818  1.00  0.00    -0.000 C 
BRANCH  29  30
ATOM     30  C   UNL     1      -6.465  20.719 -14.387  1.00  0.00    -0.000 C 
BRANCH  30  31
ATOM     31  C   UNL     1      -5.664  20.230 -13.171  1.00  0.00    -0.003 C 
ATOM     32  C   UNL     1      -6.048  18.801 -12.802  1.00  0.00     0.004 C 
ENDBRANCH  30  31
ENDBRANCH  29  30
ENDBRANCH  28  29
ENDBRANCH  27  28
ENDBRANCH  26  27
ENDBRANCH  25  26
ENDBRANCH  24  25
ENDBRANCH  23  24
ENDBRANCH  22  23
ENDBRANCH  21  22
ENDBRANCH  20  21
ENDBRANCH  19  20
ENDBRANCH  18  19
ENDBRANCH   1  18
TORSDOF 28
ENDMDL
