MODEL 1
REMARK VINA RESULT:    -3.944      0.000      0.000
REMARK INTER + INTRA:         -12.888
REMARK INTER:                  -9.017
REMARK INTRA:                  -3.871
REMARK UNBOUND:                -3.871
REMARK SMILES CCCCCCCCCCCCCCCCCCCCCCCC(=O)[O-]
REMARK SMILES IDX 13 1 14 2 15 3 16 4 17 5 18 6 19 7 20 8 21 9 22 10 23 11
REMARK SMILES IDX 24 12 25 13 26 14 12 15 11 16 10 17 9 18 8 19 7 20 6 21 5 22
REMARK SMILES IDX 4 23 3 24 2 25 1 26
REMARK H PARENT
REMARK Flexibility Score: inf
ROOT
ATOM      1  C   UNL     1     -31.512  16.899  22.133  1.00  0.00     0.000 C 
ENDROOT
BRANCH   1   2
ATOM      2  C   UNL     1     -32.983  16.613  22.465  1.00  0.00     0.000 C 
BRANCH   2   3
ATOM      3  C   UNL     1     -33.323  17.076  23.890  1.00  0.00     0.000 C 
BRANCH   3   4
ATOM      4  C   UNL     1     -33.980  15.969  24.729  1.00  0.00     0.000 C 
BRANCH   4   5
ATOM      5  C   UNL     1     -33.453  14.565  24.382  1.00  0.00     0.000 C 
BRANCH   5   6
ATOM      6  C   UNL     1     -32.613  13.943  25.513  1.00  0.00     0.000 C 
BRANCH   6   7
ATOM      7  C   UNL     1     -32.688  14.690  26.857  1.00  0.00     0.000 C 
BRANCH   7   8
ATOM      8  C   UNL     1     -31.423  14.508  27.714  1.00  0.00     0.000 C 
BRANCH   8   9
ATOM      9  C   UNL     1     -30.183  15.153  27.076  1.00  0.00     0.000 C 
BRANCH   9  10
ATOM     10  C   UNL     1     -29.015  14.161  26.926  1.00  0.00     0.006 C 
BRANCH  10  11
ATOM     11  C   UNL     1     -29.493  12.705  26.873  1.00  0.00     0.053 C 
BRANCH  11  12
ATOM     12  C   UNL     1     -28.862  11.952  25.741  1.00  0.00     0.041 C 
ATOM     13  O   UNL     1     -27.614  11.791  25.705  1.00  0.00    -0.550 OA
ATOM     14  O   UNL     1     -29.656  11.407  24.739  1.00  0.00    -0.550 OA
ENDBRANCH  11  12
ENDBRANCH  10  11
ENDBRANCH   9  10
ENDBRANCH   8   9
ENDBRANCH   7   8
ENDBRANCH   6   7
ENDBRANCH   5   6
ENDBRANCH   4   5
ENDBRANCH   3   4
ENDBRANCH   2   3
ENDBRANCH   1   2
BRANCH   1  15
ATOM     15  C   UNL     1     -30.645  17.114  23.386  1.00  0.00     0.000 C 
BRANCH  15  16
ATOM     16  C   UNL     1     -29.458  16.137  23.540  1.00  0.00     0.000 C 
BRANCH  16  17
ATOM     17  C   UNL     1     -29.781  14.663  23.236  1.00  0.00     0.000 C 
BRANCH  17  18
ATOM     18  C   UNL     1     -28.887  14.014  22.163  1.00  0.00    -0.000 C 
BRANCH  18  19
ATOM     19  C   UNL     1     -27.481  13.630  22.678  1.00  0.00    -0.000 C 
BRANCH  19  20
ATOM     20  C   UNL     1     -26.352  13.866  21.658  1.00  0.00    -0.000 C 
BRANCH  20  21
ATOM     21  C   UNL     1     -26.429  15.256  20.999  1.00  0.00    -0.000 C 
BRANCH  21  22
ATOM     22  C   UNL     1     -25.750  15.285  19.614  1.00  0.00    -0.000 C 
BRANCH  22  23
ATOM     23  C   UNL     1     -26.719  15.539  18.443  1.00  0.00    -0.000 C 
BRANCH  23  24
ATOM     24  C   UNL     1     -28.209  15.501  18.836  1.00  0.00    -0.000 C 
BRANCH  24  25
ATOM     25  C   UNL     1     -28.919  16.837  18.572  1.00  0.00    -0.003 C 
ATOM     26  C   UNL     1     -28.682  17.821  19.714  1.00  0.00     0.004 C 
ENDBRANCH  24  25
ENDBRANCH  23  24
ENDBRANCH  22  23
ENDBRANCH  21  22
ENDBRANCH  20  21
ENDBRANCH  19  20
ENDBRANCH  18  19
ENDBRANCH  17  18
ENDBRANCH  16  17
ENDBRANCH  15  16
ENDBRANCH   1  15
TORSDOF 22
ENDMDL
MODEL 2
REMARK VINA RESULT:    -3.926      5.731      9.103
REMARK INTER + INTRA:         -12.847
REMARK INTER:                  -9.030
REMARK INTRA:                  -3.816
REMARK UNBOUND:                -3.871
REMARK SMILES CCCCCCCCCCCCCCCCCCCCCCCC(=O)[O-]
REMARK SMILES IDX 13 1 14 2 15 3 16 4 17 5 18 6 19 7 20 8 21 9 22 10 23 11
REMARK SMILES IDX 24 12 25 13 26 14 12 15 11 16 10 17 9 18 8 19 7 20 6 21 5 22
REMARK SMILES IDX 4 23 3 24 2 25 1 26
REMARK H PARENT
REMARK Flexibility Score: inf
ROOT
ATOM      1  C   UNL     1     -31.171  13.444  17.604  1.00  0.00     0.000 C 
ENDROOT
BRANCH   1   2
ATOM      2  C   UNL     1     -30.939  14.709  16.765  1.00  0.00     0.000 C 
BRANCH   2   3
ATOM      3  C   UNL     1     -29.612  14.621  15.996  1.00  0.00     0.000 C 
BRANCH   3   4
ATOM      4  C   UNL     1     -29.814  14.572  14.474  1.00  0.00     0.000 C 
BRANCH   4   5
ATOM      5  C   UNL     1     -31.173  15.146  14.034  1.00  0.00     0.000 C 
BRANCH   5   6
ATOM      6  C   UNL     1     -31.912  14.239  13.034  1.00  0.00     0.000 C 
BRANCH   6   7
ATOM      7  C   UNL     1     -33.391  13.977  13.372  1.00  0.00     0.000 C 
BRANCH   7   8
ATOM      8  C   UNL     1     -33.692  12.490  13.629  1.00  0.00     0.000 C 
BRANCH   8   9
ATOM      9  C   UNL     1     -32.669  11.837  14.572  1.00  0.00     0.000 C 
BRANCH   9  10
ATOM     10  C   UNL     1     -31.880  10.705  13.891  1.00  0.00     0.006 C 
BRANCH  10  11
ATOM     11  C   UNL     1     -30.364  10.926  13.971  1.00  0.00     0.053 C 
BRANCH  11  12
ATOM     12  C   UNL     1     -29.701  10.721  12.642  1.00  0.00     0.041 C 
ATOM     13  O   UNL     1     -30.382  10.377  11.641  1.00  0.00    -0.550 OA
ATOM     14  O   UNL     1     -28.336  10.935  12.504  1.00  0.00    -0.550 OA
ENDBRANCH  11  12
ENDBRANCH  10  11
ENDBRANCH   9  10
ENDBRANCH   8   9
ENDBRANCH   7   8
ENDBRANCH   6   7
ENDBRANCH   5   6
ENDBRANCH   4   5
ENDBRANCH   3   4
ENDBRANCH   2   3
ENDBRANCH   1   2
BRANCH   1  15
ATOM     15  C   UNL     1     -31.959  13.718  18.896  1.00  0.00     0.000 C 
BRANCH  15  16
ATOM     16  C   UNL     1     -31.176  14.464  19.999  1.00  0.00     0.000 C 
BRANCH  16  17
ATOM     17  C   UNL     1     -30.399  13.560  20.973  1.00  0.00     0.000 C 
BRANCH  17  18
ATOM     18  C   UNL     1     -29.092  12.975  20.408  1.00  0.00    -0.000 C 
BRANCH  18  19
ATOM     19  C   UNL     1     -27.923  13.986  20.375  1.00  0.00    -0.000 C 
BRANCH  19  20
ATOM     20  C   UNL     1     -27.592  14.516  18.967  1.00  0.00    -0.000 C 
BRANCH  20  21
ATOM     21  C   UNL     1     -27.346  16.037  18.948  1.00  0.00    -0.000 C 
BRANCH  21  22
ATOM     22  C   UNL     1     -28.661  16.840  18.879  1.00  0.00    -0.000 C 
BRANCH  22  23
ATOM     23  C   UNL     1     -28.766  17.969  19.922  1.00  0.00    -0.000 C 
BRANCH  23  24
ATOM     24  C   UNL     1     -29.588  17.599  21.173  1.00  0.00    -0.000 C 
BRANCH  24  25
ATOM     25  C   UNL     1     -28.724  16.976  22.280  1.00  0.00    -0.003 C 
ATOM     26  C   UNL     1     -29.591  16.378  23.383  1.00  0.00     0.004 C 
ENDBRANCH  24  25
ENDBRANCH  23  24
ENDBRANCH  22  23
ENDBRANCH  21  22
ENDBRANCH  20  21
ENDBRANCH  19  20
ENDBRANCH  18  19
ENDBRANCH  17  18
ENDBRANCH  16  17
ENDBRANCH  15  16
ENDBRANCH   1  15
TORSDOF 22
ENDMDL
MODEL 3
REMARK VINA RESULT:    -3.907      3.349      4.949
REMARK INTER + INTRA:         -12.803
REMARK INTER:                  -9.777
REMARK INTRA:                  -3.026
REMARK UNBOUND:                -3.871
REMARK SMILES CCCCCCCCCCCCCCCCCCCCCCCC(=O)[O-]
REMARK SMILES IDX 13 1 14 2 15 3 16 4 17 5 18 6 19 7 20 8 21 9 22 10 23 11
REMARK SMILES IDX 24 12 25 13 26 14 12 15 11 16 10 17 9 18 8 19 7 20 6 21 5 22
REMARK SMILES IDX 4 23 3 24 2 25 1 26
REMARK H PARENT
REMARK Flexibility Score: inf
ROOT
ATOM      1  C   UNL     1     -27.742  17.275  20.210  1.00  0.00     0.000 C 
ENDROOT
BRANCH   1   2
ATOM      2  C   UNL     1     -29.172  17.726  20.539  1.00  0.00     0.000 C 
BRANCH   2   3
ATOM      3  C   UNL     1     -29.248  18.314  21.957  1.00  0.00     0.000 C 
BRANCH   3   4
ATOM      4  C   UNL     1     -30.421  17.744  22.770  1.00  0.00     0.000 C 
BRANCH   4   5
ATOM      5  C   UNL     1     -30.039  16.479  23.559  1.00  0.00     0.000 C 
BRANCH   5   6
ATOM      6  C   UNL     1     -30.557  15.185  22.905  1.00  0.00     0.000 C 
BRANCH   6   7
ATOM      7  C   UNL     1     -29.896  13.893  23.421  1.00  0.00     0.000 C 
BRANCH   7   8
ATOM      8  C   UNL     1     -28.513  14.137  24.048  1.00  0.00     0.000 C 
BRANCH   8   9
ATOM      9  C   UNL     1     -28.237  13.211  25.243  1.00  0.00     0.000 C 
BRANCH   9  10
ATOM     10  C   UNL     1     -28.428  13.921  26.595  1.00  0.00     0.006 C 
BRANCH  10  11
ATOM     11  C   UNL     1     -29.837  13.713  27.165  1.00  0.00     0.053 C 
BRANCH  11  12
ATOM     12  C   UNL     1     -30.611  14.996  27.217  1.00  0.00     0.041 C 
ATOM     13  O   UNL     1     -30.040  16.090  26.971  1.00  0.00    -0.550 OA
ATOM     14  O   UNL     1     -31.968  14.979  27.512  1.00  0.00    -0.550 OA
ENDBRANCH  11  12
ENDBRANCH  10  11
ENDBRANCH   9  10
ENDBRANCH   8   9
ENDBRANCH   7   8
ENDBRANCH   6   7
ENDBRANCH   5   6
ENDBRANCH   4   5
ENDBRANCH   3   4
ENDBRANCH   2   3
ENDBRANCH   1   2
BRANCH   1  15
ATOM     15  C   UNL     1     -27.390  15.906  20.819  1.00  0.00     0.000 C 
BRANCH  15  16
ATOM     16  C   UNL     1     -27.309  14.739  19.811  1.00  0.00     0.000 C 
BRANCH  16  17
ATOM     17  C   UNL     1     -28.340  13.616  20.028  1.00  0.00     0.000 C 
BRANCH  17  18
ATOM     18  C   UNL     1     -29.364  13.450  18.889  1.00  0.00    -0.000 C 
BRANCH  18  19
ATOM     19  C   UNL     1     -30.273  14.684  18.689  1.00  0.00    -0.000 C 
BRANCH  19  20
ATOM     20  C   UNL     1     -30.484  15.077  17.215  1.00  0.00    -0.000 C 
BRANCH  20  21
ATOM     21  C   UNL     1     -29.169  15.099  16.413  1.00  0.00    -0.000 C 
BRANCH  21  22
ATOM     22  C   UNL     1     -29.348  14.553  14.981  1.00  0.00    -0.000 C 
BRANCH  22  23
ATOM     23  C   UNL     1     -30.688  14.936  14.324  1.00  0.00    -0.000 C 
BRANCH  23  24
ATOM     24  C   UNL     1     -31.097  14.027  13.148  1.00  0.00    -0.000 C 
BRANCH  24  25
ATOM     25  C   UNL     1     -30.230  12.763  13.053  1.00  0.00    -0.003 C 
ATOM     26  C   UNL     1     -31.089  11.522  12.830  1.00  0.00     0.004 C 
ENDBRANCH  24  25
ENDBRANCH  23  24
ENDBRANCH  22  23
ENDBRANCH  21  22
ENDBRANCH  20  21
ENDBRANCH  19  20
ENDBRANCH  18  19
ENDBRANCH  17  18
ENDBRANCH  16  17
ENDBRANCH  15  16
ENDBRANCH   1  15
TORSDOF 22
ENDMDL
MODEL 4
REMARK VINA RESULT:    -3.864      5.761      8.992
REMARK INTER + INTRA:         -12.705
REMARK INTER:                  -8.458
REMARK INTRA:                  -4.247
REMARK UNBOUND:                -3.871
REMARK SMILES CCCCCCCCCCCCCCCCCCCCCCCC(=O)[O-]
REMARK SMILES IDX 13 1 14 2 15 3 16 4 17 5 18 6 19 7 20 8 21 9 22 10 23 11
REMARK SMILES IDX 24 12 25 13 26 14 12 15 11 16 10 17 9 18 8 19 7 20 6 21 5 22
REMARK SMILES IDX 4 23 3 24 2 25 1 26
REMARK H PARENT
REMARK Flexibility Score: inf
ROOT
ATOM      1  C   UNL     1     -29.867  14.305  14.209  1.00  0.00     0.000 C 
ENDROOT
BRANCH   1   2
ATOM      2  C   UNL     1     -31.221  15.029  14.255  1.00  0.00     0.000 C 
BRANCH   2   3
ATOM      3  C   UNL     1     -32.233  14.357  13.316  1.00  0.00     0.000 C 
BRANCH   3   4
ATOM      4  C   UNL     1     -31.845  12.913  12.965  1.00  0.00     0.000 C 
BRANCH   4   5
ATOM      5  C   UNL     1     -32.940  11.896  13.332  1.00  0.00     0.000 C 
BRANCH   5   6
ATOM      6  C   UNL     1     -33.557  12.152  14.720  1.00  0.00     0.000 C 
BRANCH   6   7
ATOM      7  C   UNL     1     -32.898  11.372  15.872  1.00  0.00     0.000 C 
BRANCH   7   8
ATOM      8  C   UNL     1     -31.862  12.207  16.644  1.00  0.00     0.000 C 
BRANCH   8   9
ATOM      9  C   UNL     1     -30.467  11.563  16.641  1.00  0.00     0.000 C 
BRANCH   9  10
ATOM     10  C   UNL     1     -30.301  10.521  15.520  1.00  0.00     0.006 C 
BRANCH  10  11
ATOM     11  C   UNL     1     -29.004  10.724  14.727  1.00  0.00     0.053 C 
BRANCH  11  12
ATOM     12  C   UNL     1     -29.187  10.413  13.272  1.00  0.00     0.041 C 
ATOM     13  O   UNL     1     -28.433  10.937  12.412  1.00  0.00    -0.550 OA
ATOM     14  O   UNL     1     -30.175   9.522  12.870  1.00  0.00    -0.550 OA
ENDBRANCH  11  12
ENDBRANCH  10  11
ENDBRANCH   9  10
ENDBRANCH   8   9
ENDBRANCH   7   8
ENDBRANCH   6   7
ENDBRANCH   5   6
ENDBRANCH   4   5
ENDBRANCH   3   4
ENDBRANCH   2   3
ENDBRANCH   1   2
BRANCH   1  15
ATOM     15  C   UNL     1     -28.879  14.814  15.273  1.00  0.00     0.000 C 
BRANCH  15  16
ATOM     16  C   UNL     1     -29.506  15.156  16.643  1.00  0.00     0.000 C 
BRANCH  16  17
ATOM     17  C   UNL     1     -28.670  16.099  17.527  1.00  0.00     0.000 C 
BRANCH  17  18
ATOM     18  C   UNL     1     -27.348  15.500  18.041  1.00  0.00    -0.000 C 
BRANCH  18  19
ATOM     19  C   UNL     1     -26.797  16.205  19.301  1.00  0.00    -0.000 C 
BRANCH  19  20
ATOM     20  C   UNL     1     -26.970  15.396  20.600  1.00  0.00    -0.000 C 
BRANCH  20  21
ATOM     21  C   UNL     1     -27.276  13.909  20.337  1.00  0.00    -0.000 C 
BRANCH  21  22
ATOM     22  C   UNL     1     -28.628  13.475  20.939  1.00  0.00    -0.000 C 
BRANCH  22  23
ATOM     23  C   UNL     1     -29.747  13.279  19.899  1.00  0.00    -0.000 C 
BRANCH  23  24
ATOM     24  C   UNL     1     -30.919  14.272  20.036  1.00  0.00    -0.000 C 
BRANCH  24  25
ATOM     25  C   UNL     1     -30.593  15.437  20.984  1.00  0.00    -0.003 C 
ATOM     26  C   UNL     1     -31.748  15.702  21.946  1.00  0.00     0.004 C 
ENDBRANCH  24  25
ENDBRANCH  23  24
ENDBRANCH  22  23
ENDBRANCH  21  22
ENDBRANCH  20  21
ENDBRANCH  19  20
ENDBRANCH  18  19
ENDBRANCH  17  18
ENDBRANCH  16  17
ENDBRANCH  15  16
ENDBRANCH   1  15
TORSDOF 22
ENDMDL
MODEL 5
REMARK VINA RESULT:    -3.864      1.515      3.054
REMARK INTER + INTRA:         -12.705
REMARK INTER:                  -8.541
REMARK INTRA:                  -4.164
REMARK UNBOUND:                -3.871
REMARK SMILES CCCCCCCCCCCCCCCCCCCCCCCC(=O)[O-]
REMARK SMILES IDX 13 1 14 2 15 3 16 4 17 5 18 6 19 7 20 8 21 9 22 10 23 11
REMARK SMILES IDX 24 12 25 13 26 14 12 15 11 16 10 17 9 18 8 19 7 20 6 21 5 22
REMARK SMILES IDX 4 23 3 24 2 25 1 26
REMARK H PARENT
REMARK Flexibility Score: inf
ROOT
ATOM      1  C   UNL     1     -32.397  15.456  22.036  1.00  0.00     0.000 C 
ENDROOT
BRANCH   1   2
ATOM      2  C   UNL     1     -32.121  14.585  23.270  1.00  0.00     0.000 C 
BRANCH   2   3
ATOM      3  C   UNL     1     -33.358  14.515  24.178  1.00  0.00     0.000 C 
BRANCH   3   4
ATOM      4  C   UNL     1     -33.350  15.595  25.271  1.00  0.00     0.000 C 
BRANCH   4   5
ATOM      5  C   UNL     1     -33.392  15.005  26.692  1.00  0.00     0.000 C 
BRANCH   5   6
ATOM      6  C   UNL     1     -32.203  14.075  26.992  1.00  0.00     0.000 C 
BRANCH   6   7
ATOM      7  C   UNL     1     -31.044  14.737  27.760  1.00  0.00     0.000 C 
BRANCH   7   8
ATOM      8  C   UNL     1     -29.678  14.516  27.089  1.00  0.00     0.000 C 
BRANCH   8   9
ATOM      9  C   UNL     1     -29.754  13.537  25.907  1.00  0.00     0.000 C 
BRANCH   9  10
ATOM     10  C   UNL     1     -28.752  13.883  24.790  1.00  0.00     0.006 C 
BRANCH  10  11
ATOM     11  C   UNL     1     -27.611  14.778  25.291  1.00  0.00     0.053 C 
BRANCH  11  12
ATOM     12  C   UNL     1     -26.366  13.989  25.564  1.00  0.00     0.041 C 
ATOM     13  O   UNL     1     -25.834  14.021  26.704  1.00  0.00    -0.550 OA
ATOM     14  O   UNL     1     -25.809  13.199  24.566  1.00  0.00    -0.550 OA
ENDBRANCH  11  12
ENDBRANCH  10  11
ENDBRANCH   9  10
ENDBRANCH   8   9
ENDBRANCH   7   8
ENDBRANCH   6   7
ENDBRANCH   5   6
ENDBRANCH   4   5
ENDBRANCH   3   4
ENDBRANCH   2   3
ENDBRANCH   1   2
BRANCH   1  15
ATOM     15  C   UNL     1     -31.574  16.756  22.024  1.00  0.00     0.000 C 
BRANCH  15  16
ATOM     16  C   UNL     1     -30.609  16.934  23.217  1.00  0.00     0.000 C 
BRANCH  16  17
ATOM     17  C   UNL     1     -29.127  17.103  22.839  1.00  0.00     0.000 C 
BRANCH  17  18
ATOM     18  C   UNL     1     -28.822  18.325  21.951  1.00  0.00    -0.000 C 
BRANCH  18  19
ATOM     19  C   UNL     1     -28.049  17.974  20.659  1.00  0.00    -0.000 C 
BRANCH  19  20
ATOM     20  C   UNL     1     -28.933  17.890  19.401  1.00  0.00    -0.000 C 
BRANCH  20  21
ATOM     21  C   UNL     1     -28.787  16.547  18.662  1.00  0.00    -0.000 C 
BRANCH  21  22
ATOM     22  C   UNL     1     -29.152  15.345  19.557  1.00  0.00    -0.000 C 
BRANCH  22  23
ATOM     23  C   UNL     1     -27.999  14.346  19.774  1.00  0.00    -0.000 C 
BRANCH  23  24
ATOM     24  C   UNL     1     -27.493  14.272  21.228  1.00  0.00    -0.000 C 
BRANCH  24  25
ATOM     25  C   UNL     1     -26.076  14.843  21.387  1.00  0.00    -0.003 C 
ATOM     26  C   UNL     1     -25.498  15.264  20.039  1.00  0.00     0.004 C 
ENDBRANCH  24  25
ENDBRANCH  23  24
ENDBRANCH  22  23
ENDBRANCH  21  22
ENDBRANCH  20  21
ENDBRANCH  19  20
ENDBRANCH  18  19
ENDBRANCH  17  18
ENDBRANCH  16  17
ENDBRANCH  15  16
ENDBRANCH   1  15
TORSDOF 22
ENDMDL
MODEL 6
REMARK VINA RESULT:    -3.850      5.160      8.608
REMARK INTER + INTRA:         -12.671
REMARK INTER:                  -9.313
REMARK INTRA:                  -3.358
REMARK UNBOUND:                -3.871
REMARK SMILES CCCCCCCCCCCCCCCCCCCCCCCC(=O)[O-]
REMARK SMILES IDX 13 1 14 2 15 3 16 4 17 5 18 6 19 7 20 8 21 9 22 10 23 11
REMARK SMILES IDX 24 12 25 13 26 14 12 15 11 16 10 17 9 18 8 19 7 20 6 21 5 22
REMARK SMILES IDX 4 23 3 24 2 25 1 26
REMARK H PARENT
REMARK Flexibility Score: inf
ROOT
ATOM      1  C   UNL     1     -31.892  14.382  19.635  1.00  0.00     0.000 C 
ENDROOT
BRANCH   1   2
ATOM      2  C   UNL     1     -31.748  13.128  18.760  1.00  0.00     0.000 C 
BRANCH   2   3
ATOM      3  C   UNL     1     -30.841  13.404  17.552  1.00  0.00     0.000 C 
BRANCH   3   4
ATOM      4  C   UNL     1     -31.475  14.378  16.548  1.00  0.00     0.000 C 
BRANCH   4   5
ATOM      5  C   UNL     1     -30.493  14.829  15.453  1.00  0.00     0.000 C 
BRANCH   5   6
ATOM      6  C   UNL     1     -31.120  14.829  14.046  1.00  0.00     0.000 C 
BRANCH   6   7
ATOM      7  C   UNL     1     -32.598  14.400  13.999  1.00  0.00     0.000 C 
BRANCH   7   8
ATOM      8  C   UNL     1     -32.813  13.078  13.243  1.00  0.00     0.000 C 
BRANCH   8   9
ATOM      9  C   UNL     1     -31.501  12.318  13.000  1.00  0.00     0.000 C 
BRANCH   9  10
ATOM     10  C   UNL     1     -31.278  11.186  14.019  1.00  0.00     0.006 C 
BRANCH  10  11
ATOM     11  C   UNL     1     -29.867  11.216  14.620  1.00  0.00     0.053 C 
BRANCH  11  12
ATOM     12  C   UNL     1     -28.825  11.500  13.581  1.00  0.00     0.041 C 
ATOM     13  O   UNL     1     -28.221  12.604  13.576  1.00  0.00    -0.550 OA
ATOM     14  O   UNL     1     -28.504  10.535  12.635  1.00  0.00    -0.550 OA
ENDBRANCH  11  12
ENDBRANCH  10  11
ENDBRANCH   9  10
ENDBRANCH   8   9
ENDBRANCH   7   8
ENDBRANCH   6   7
ENDBRANCH   5   6
ENDBRANCH   4   5
ENDBRANCH   3   4
ENDBRANCH   2   3
ENDBRANCH   1   2
BRANCH   1  15
ATOM     15  C   UNL     1     -31.319  14.193  21.051  1.00  0.00     0.000 C 
BRANCH  15  16
ATOM     16  C   UNL     1     -32.179  14.781  22.192  1.00  0.00     0.000 C 
BRANCH  16  17
ATOM     17  C   UNL     1     -32.512  16.277  22.054  1.00  0.00     0.000 C 
BRANCH  17  18
ATOM     18  C   UNL     1     -31.835  17.188  23.096  1.00  0.00    -0.000 C 
BRANCH  18  19
ATOM     19  C   UNL     1     -30.295  17.229  22.975  1.00  0.00    -0.000 C 
BRANCH  19  20
ATOM     20  C   UNL     1     -29.774  18.211  21.909  1.00  0.00    -0.000 C 
BRANCH  20  21
ATOM     21  C   UNL     1     -28.587  17.643  21.109  1.00  0.00    -0.000 C 
BRANCH  21  22
ATOM     22  C   UNL     1     -28.738  17.879  19.592  1.00  0.00    -0.000 C 
BRANCH  22  23
ATOM     23  C   UNL     1     -29.064  16.607  18.786  1.00  0.00    -0.000 C 
BRANCH  23  24
ATOM     24  C   UNL     1     -28.254  15.365  19.210  1.00  0.00    -0.000 C 
BRANCH  24  25
ATOM     25  C   UNL     1     -26.932  15.235  18.439  1.00  0.00    -0.003 C 
ATOM     26  C   UNL     1     -27.141  15.467  16.946  1.00  0.00     0.004 C 
ENDBRANCH  24  25
ENDBRANCH  23  24
ENDBRANCH  22  23
ENDBRANCH  21  22
ENDBRANCH  20  21
ENDBRANCH  19  20
ENDBRANCH  18  19
ENDBRANCH  17  18
ENDBRANCH  16  17
ENDBRANCH  15  16
ENDBRANCH   1  15
TORSDOF 22
ENDMDL
MODEL 7
REMARK VINA RESULT:    -3.825      2.821      6.438
REMARK INTER + INTRA:         -12.615
REMARK INTER:                  -8.615
REMARK INTRA:                  -4.000
REMARK UNBOUND:                -3.871
REMARK SMILES CCCCCCCCCCCCCCCCCCCCCCCC(=O)[O-]
REMARK SMILES IDX 13 1 14 2 15 3 16 4 17 5 18 6 19 7 20 8 21 9 22 10 23 11
REMARK SMILES IDX 24 12 25 13 26 14 12 15 11 16 10 17 9 18 8 19 7 20 6 21 5 22
REMARK SMILES IDX 4 23 3 24 2 25 1 26
REMARK H PARENT
REMARK Flexibility Score: inf
ROOT
ATOM      1  C   UNL     1     -26.696  15.590  18.234  1.00  0.00     0.000 C 
ENDROOT
BRANCH   1   2
ATOM      2  C   UNL     1     -25.950  15.152  19.503  1.00  0.00     0.000 C 
BRANCH   2   3
ATOM      3  C   UNL     1     -25.041  16.277  20.020  1.00  0.00     0.000 C 
BRANCH   3   4
ATOM      4  C   UNL     1     -24.370  15.926  21.357  1.00  0.00     0.000 C 
BRANCH   4   5
ATOM      5  C   UNL     1     -24.283  14.409  21.600  1.00  0.00     0.000 C 
BRANCH   5   6
ATOM      6  C   UNL     1     -24.967  13.971  22.908  1.00  0.00     0.000 C 
BRANCH   6   7
ATOM      7  C   UNL     1     -26.298  13.219  22.719  1.00  0.00     0.000 C 
BRANCH   7   8
ATOM      8  C   UNL     1     -27.354  13.597  23.772  1.00  0.00     0.000 C 
BRANCH   8   9
ATOM      9  C   UNL     1     -28.512  12.591  23.832  1.00  0.00     0.000 C 
BRANCH   9  10
ATOM     10  C   UNL     1     -29.680  13.087  24.704  1.00  0.00     0.006 C 
BRANCH  10  11
ATOM     11  C   UNL     1     -29.656  14.609  24.894  1.00  0.00     0.053 C 
BRANCH  11  12
ATOM     12  C   UNL     1     -29.632  14.989  26.344  1.00  0.00     0.041 C 
ATOM     13  O   UNL     1     -30.153  16.070  26.724  1.00  0.00    -0.550 OA
ATOM     14  O   UNL     1     -29.060  14.134  27.278  1.00  0.00    -0.550 OA
ENDBRANCH  11  12
ENDBRANCH  10  11
ENDBRANCH   9  10
ENDBRANCH   8   9
ENDBRANCH   7   8
ENDBRANCH   6   7
ENDBRANCH   5   6
ENDBRANCH   4   5
ENDBRANCH   3   4
ENDBRANCH   2   3
ENDBRANCH   1   2
BRANCH   1  15
ATOM     15  C   UNL     1     -28.225  15.573  18.402  1.00  0.00     0.000 C 
BRANCH  15  16
ATOM     16  C   UNL     1     -28.895  16.963  18.461  1.00  0.00     0.000 C 
BRANCH  16  17
ATOM     17  C   UNL     1     -28.556  17.799  19.708  1.00  0.00     0.000 C 
BRANCH  17  18
ATOM     18  C   UNL     1     -29.238  17.329  21.006  1.00  0.00    -0.000 C 
BRANCH  18  19
ATOM     19  C   UNL     1     -28.275  16.634  21.996  1.00  0.00    -0.000 C 
BRANCH  19  20
ATOM     20  C   UNL     1     -27.309  17.596  22.712  1.00  0.00    -0.000 C 
BRANCH  20  21
ATOM     21  C   UNL     1     -26.764  17.015  24.031  1.00  0.00    -0.000 C 
BRANCH  21  22
ATOM     22  C   UNL     1     -25.695  17.924  24.672  1.00  0.00    -0.000 C 
BRANCH  22  23
ATOM     23  C   UNL     1     -24.317  17.255  24.839  1.00  0.00    -0.000 C 
BRANCH  23  24
ATOM     24  C   UNL     1     -23.973  16.871  26.292  1.00  0.00    -0.000 C 
BRANCH  24  25
ATOM     25  C   UNL     1     -23.701  15.368  26.453  1.00  0.00    -0.003 C 
ATOM     26  C   UNL     1     -25.003  14.585  26.584  1.00  0.00     0.004 C 
ENDBRANCH  24  25
ENDBRANCH  23  24
ENDBRANCH  22  23
ENDBRANCH  21  22
ENDBRANCH  20  21
ENDBRANCH  19  20
ENDBRANCH  18  19
ENDBRANCH  17  18
ENDBRANCH  16  17
ENDBRANCH  15  16
ENDBRANCH   1  15
TORSDOF 22
ENDMDL
MODEL 8
REMARK VINA RESULT:    -3.761      2.062      4.319
REMARK INTER + INTRA:         -12.470
REMARK INTER:                  -7.896
REMARK INTRA:                  -4.574
REMARK UNBOUND:                -3.871
REMARK SMILES CCCCCCCCCCCCCCCCCCCCCCCC(=O)[O-]
REMARK SMILES IDX 13 1 14 2 15 3 16 4 17 5 18 6 19 7 20 8 21 9 22 10 23 11
REMARK SMILES IDX 24 12 25 13 26 14 12 15 11 16 10 17 9 18 8 19 7 20 6 21 5 22
REMARK SMILES IDX 4 23 3 24 2 25 1 26
REMARK H PARENT
REMARK Flexibility Score: inf
ROOT
ATOM      1  C   UNL     1     -27.973  18.105  20.858  1.00  0.00     0.000 C 
ENDROOT
BRANCH   1   2
ATOM      2  C   UNL     1     -28.797  18.546  22.076  1.00  0.00     0.000 C 
BRANCH   2   3
ATOM      3  C   UNL     1     -29.577  17.362  22.667  1.00  0.00     0.000 C 
BRANCH   3   4
ATOM      4  C   UNL     1     -31.024  17.730  23.028  1.00  0.00     0.000 C 
BRANCH   4   5
ATOM      5  C   UNL     1     -32.061  16.903  22.249  1.00  0.00     0.000 C 
BRANCH   5   6
ATOM      6  C   UNL     1     -31.460  15.641  21.604  1.00  0.00     0.000 C 
BRANCH   6   7
ATOM      7  C   UNL     1     -32.006  14.311  22.156  1.00  0.00     0.000 C 
BRANCH   7   8
ATOM      8  C   UNL     1     -33.118  14.509  23.201  1.00  0.00     0.000 C 
BRANCH   8   9
ATOM      9  C   UNL     1     -32.707  14.023  24.598  1.00  0.00     0.000 C 
BRANCH   9  10
ATOM     10  C   UNL     1     -32.381  15.184  25.554  1.00  0.00     0.006 C 
BRANCH  10  11
ATOM     11  C   UNL     1     -30.880  15.281  25.858  1.00  0.00     0.053 C 
BRANCH  11  12
ATOM     12  C   UNL     1     -30.567  14.848  27.259  1.00  0.00     0.041 C 
ATOM     13  O   UNL     1     -29.436  14.371  27.536  1.00  0.00    -0.550 OA
ATOM     14  O   UNL     1     -31.517  14.996  28.262  1.00  0.00    -0.550 OA
ENDBRANCH  11  12
ENDBRANCH  10  11
ENDBRANCH   9  10
ENDBRANCH   8   9
ENDBRANCH   7   8
ENDBRANCH   6   7
ENDBRANCH   5   6
ENDBRANCH   4   5
ENDBRANCH   3   4
ENDBRANCH   2   3
ENDBRANCH   1   2
BRANCH   1  15
ATOM     15  C   UNL     1     -28.847  17.737  19.646  1.00  0.00     0.000 C 
BRANCH  15  16
ATOM     16  C   UNL     1     -28.625  16.316  19.083  1.00  0.00     0.000 C 
BRANCH  16  17
ATOM     17  C   UNL     1     -27.164  15.830  19.093  1.00  0.00     0.000 C 
BRANCH  17  18
ATOM     18  C   UNL     1     -26.870  14.689  20.085  1.00  0.00    -0.000 C 
BRANCH  18  19
ATOM     19  C   UNL     1     -28.141  14.047  20.686  1.00  0.00    -0.000 C 
BRANCH  19  20
ATOM     20  C   UNL     1     -27.902  13.299  22.011  1.00  0.00    -0.000 C 
BRANCH  20  21
ATOM     21  C   UNL     1     -28.559  14.000  23.215  1.00  0.00    -0.000 C 
BRANCH  21  22
ATOM     22  C   UNL     1     -27.636  14.027  24.450  1.00  0.00    -0.000 C 
BRANCH  22  23
ATOM     23  C   UNL     1     -26.263  14.679  24.198  1.00  0.00    -0.000 C 
BRANCH  23  24
ATOM     24  C   UNL     1     -26.322  16.201  23.958  1.00  0.00    -0.000 C 
BRANCH  24  25
ATOM     25  C   UNL     1     -24.947  16.795  23.619  1.00  0.00    -0.003 C 
ATOM     26  C   UNL     1     -24.769  16.946  22.111  1.00  0.00     0.004 C 
ENDBRANCH  24  25
ENDBRANCH  23  24
ENDBRANCH  22  23
ENDBRANCH  21  22
ENDBRANCH  20  21
ENDBRANCH  19  20
ENDBRANCH  18  19
ENDBRANCH  17  18
ENDBRANCH  16  17
ENDBRANCH  15  16
ENDBRANCH   1  15
TORSDOF 22
ENDMDL
MODEL 9
REMARK VINA RESULT:    -3.742      1.692      2.521
REMARK INTER + INTRA:         -12.425
REMARK INTER:                  -8.239
REMARK INTRA:                  -4.186
REMARK UNBOUND:                -3.871
REMARK SMILES CCCCCCCCCCCCCCCCCCCCCCCC(=O)[O-]
REMARK SMILES IDX 13 1 14 2 15 3 16 4 17 5 18 6 19 7 20 8 21 9 22 10 23 11
REMARK SMILES IDX 24 12 25 13 26 14 12 15 11 16 10 17 9 18 8 19 7 20 6 21 5 22
REMARK SMILES IDX 4 23 3 24 2 25 1 26
REMARK H PARENT
REMARK Flexibility Score: inf
ROOT
ATOM      1  C   UNL     1     -31.263  16.499  22.268  1.00  0.00     0.000 C 
ENDROOT
BRANCH   1   2
ATOM      2  C   UNL     1     -32.793  16.523  22.401  1.00  0.00     0.000 C 
BRANCH   2   3
ATOM      3  C   UNL     1     -33.214  17.049  23.781  1.00  0.00     0.000 C 
BRANCH   3   4
ATOM      4  C   UNL     1     -33.850  15.960  24.659  1.00  0.00     0.000 C 
BRANCH   4   5
ATOM      5  C   UNL     1     -33.412  14.540  24.257  1.00  0.00     0.000 C 
BRANCH   5   6
ATOM      6  C   UNL     1     -32.683  13.794  25.389  1.00  0.00     0.000 C 
BRANCH   6   7
ATOM      7  C   UNL     1     -32.330  14.662  26.611  1.00  0.00     0.000 C 
BRANCH   7   8
ATOM      8  C   UNL     1     -30.814  14.791  26.835  1.00  0.00     0.000 C 
BRANCH   8   9
ATOM      9  C   UNL     1     -30.149  15.742  25.828  1.00  0.00     0.000 C 
BRANCH   9  10
ATOM     10  C   UNL     1     -29.010  15.067  25.043  1.00  0.00     0.006 C 
BRANCH  10  11
ATOM     11  C   UNL     1     -28.329  13.954  25.851  1.00  0.00     0.053 C 
BRANCH  11  12
ATOM     12  C   UNL     1     -26.837  14.002  25.715  1.00  0.00     0.041 C 
ATOM     13  O   UNL     1     -26.108  14.025  26.741  1.00  0.00    -0.550 OA
ATOM     14  O   UNL     1     -26.252  13.993  24.455  1.00  0.00    -0.550 OA
ENDBRANCH  11  12
ENDBRANCH  10  11
ENDBRANCH   9  10
ENDBRANCH   8   9
ENDBRANCH   7   8
ENDBRANCH   6   7
ENDBRANCH   5   6
ENDBRANCH   4   5
ENDBRANCH   3   4
ENDBRANCH   2   3
ENDBRANCH   1   2
BRANCH   1  15
ATOM     15  C   UNL     1     -30.593  17.767  22.824  1.00  0.00     0.000 C 
BRANCH  15  16
ATOM     16  C   UNL     1     -29.307  18.207  22.091  1.00  0.00     0.000 C 
BRANCH  16  17
ATOM     17  C   UNL     1     -29.201  17.748  20.625  1.00  0.00     0.000 C 
BRANCH  17  18
ATOM     18  C   UNL     1     -27.957  16.901  20.301  1.00  0.00    -0.000 C 
BRANCH  18  19
ATOM     19  C   UNL     1     -27.502  15.996  21.468  1.00  0.00    -0.000 C 
BRANCH  19  20
ATOM     20  C   UNL     1     -27.595  14.488  21.168  1.00  0.00    -0.000 C 
BRANCH  20  21
ATOM     21  C   UNL     1     -28.994  13.911  21.453  1.00  0.00    -0.000 C 
BRANCH  21  22
ATOM     22  C   UNL     1     -29.656  13.330  20.187  1.00  0.00    -0.000 C 
BRANCH  22  23
ATOM     23  C   UNL     1     -30.663  14.279  19.509  1.00  0.00    -0.000 C 
BRANCH  23  24
ATOM     24  C   UNL     1     -30.348  14.584  18.031  1.00  0.00    -0.000 C 
BRANCH  24  25
ATOM     25  C   UNL     1     -28.862  14.387  17.695  1.00  0.00    -0.003 C 
ATOM     26  C   UNL     1     -28.325  15.553  16.871  1.00  0.00     0.004 C 
ENDBRANCH  24  25
ENDBRANCH  23  24
ENDBRANCH  22  23
ENDBRANCH  21  22
ENDBRANCH  20  21
ENDBRANCH  19  20
ENDBRANCH  18  19
ENDBRANCH  17  18
ENDBRANCH  16  17
ENDBRANCH  15  16
ENDBRANCH   1  15
TORSDOF 22
ENDMDL
