MODEL 1
REMARK VINA RESULT:    -3.170      0.000      0.000
REMARK INTER + INTRA:         -13.781
REMARK INTER:                  -8.360
REMARK INTRA:                  -5.421
REMARK UNBOUND:                -5.421
REMARK SMILES CCCCCCCCCCCCCCCCCCCCCCCCCCCCCC(=O)[O-]
REMARK SMILES IDX 16 1 17 2 18 3 19 4 20 5 21 6 22 7 23 8 24 9 25 10 26 11
REMARK SMILES IDX 27 12 28 13 29 14 30 15 31 16 32 17 15 18 14 19 13 20 12 21
REMARK SMILES IDX 11 22 10 23 9 24 8 25 7 26 6 27 5 28 4 29 3 30 2 31 1 32
REMARK H PARENT
REMARK Flexibility Score: inf
ROOT
ATOM      1  C   UNL     1      41.058  29.635   4.664  1.00  0.00     0.000 C 
ENDROOT
BRANCH   1   2
ATOM      2  C   UNL     1      42.187  28.692   5.122  1.00  0.00     0.000 C 
BRANCH   2   3
ATOM      3  C   UNL     1      42.080  28.184   6.577  1.00  0.00     0.000 C 
BRANCH   3   4
ATOM      4  C   UNL     1      42.578  29.167   7.653  1.00  0.00     0.000 C 
BRANCH   4   5
ATOM      5  C   UNL     1      44.015  29.652   7.398  1.00  0.00     0.000 C 
BRANCH   5   6
ATOM      6  C   UNL     1      44.122  31.188   7.320  1.00  0.00     0.000 C 
BRANCH   6   7
ATOM      7  C   UNL     1      43.016  31.940   8.084  1.00  0.00     0.000 C 
BRANCH   7   8
ATOM      8  C   UNL     1      42.496  33.177   7.334  1.00  0.00     0.000 C 
BRANCH   8   9
ATOM      9  C   UNL     1      40.969  33.166   7.162  1.00  0.00     0.000 C 
BRANCH   9  10
ATOM     10  C   UNL     1      40.290  32.068   7.993  1.00  0.00     0.000 C 
BRANCH  10  11
ATOM     11  C   UNL     1      38.966  31.633   7.348  1.00  0.00     0.000 C 
BRANCH  11  12
ATOM     12  C   UNL     1      38.913  30.107   7.176  1.00  0.00     0.000 C 
BRANCH  12  13
ATOM     13  C   UNL     1      37.469  29.578   7.126  1.00  0.00     0.006 C 
BRANCH  13  14
ATOM     14  C   UNL     1      37.288  28.488   6.061  1.00  0.00     0.053 C 
BRANCH  14  15
ATOM     15  C   UNL     1      36.784  29.073   4.777  1.00  0.00     0.041 C 
ATOM     16  O   UNL     1      36.884  28.422   3.701  1.00  0.00    -0.550 OA
ATOM     17  O   UNL     1      36.199  30.335   4.765  1.00  0.00    -0.550 OA
ENDBRANCH  14  15
ENDBRANCH  13  14
ENDBRANCH  12  13
ENDBRANCH  11  12
ENDBRANCH  10  11
ENDBRANCH   9  10
ENDBRANCH   8   9
ENDBRANCH   7   8
ENDBRANCH   6   7
ENDBRANCH   5   6
ENDBRANCH   4   5
ENDBRANCH   3   4
ENDBRANCH   2   3
ENDBRANCH   1   2
BRANCH   1  18
ATOM     18  C   UNL     1      41.557  31.053   4.337  1.00  0.00     0.000 C 
BRANCH  18  19
ATOM     19  C   UNL     1      42.679  31.060   3.288  1.00  0.00     0.000 C 
BRANCH  19  20
ATOM     20  C   UNL     1      43.939  31.809   3.757  1.00  0.00     0.000 C 
BRANCH  20  21
ATOM     21  C   UNL     1      43.749  33.337   3.771  1.00  0.00     0.000 C 
BRANCH  21  22
ATOM     22  C   UNL     1      42.987  33.848   2.536  1.00  0.00     0.000 C 
BRANCH  22  23
ATOM     23  C   UNL     1      43.930  34.298   1.408  1.00  0.00     0.000 C 
BRANCH  23  24
ATOM     24  C   UNL     1      44.003  33.287   0.250  1.00  0.00    -0.000 C 
BRANCH  24  25
ATOM     25  C   UNL     1      42.665  32.561   0.014  1.00  0.00    -0.000 C 
BRANCH  25  26
ATOM     26  C   UNL     1      42.160  32.596  -1.443  1.00  0.00    -0.000 C 
BRANCH  26  27
ATOM     27  C   UNL     1      40.907  33.464  -1.673  1.00  0.00    -0.000 C 
BRANCH  27  28
ATOM     28  C   UNL     1      39.894  33.462  -0.509  1.00  0.00    -0.000 C 
BRANCH  28  29
ATOM     29  C   UNL     1      39.539  34.853   0.050  1.00  0.00    -0.000 C 
BRANCH  29  30
ATOM     30  C   UNL     1      39.543  34.964   1.588  1.00  0.00    -0.000 C 
BRANCH  30  31
ATOM     31  C   UNL     1      39.184  33.651   2.317  1.00  0.00    -0.003 C 
ATOM     32  C   UNL     1      39.313  33.755   3.838  1.00  0.00     0.004 C 
ENDBRANCH  30  31
ENDBRANCH  29  30
ENDBRANCH  28  29
ENDBRANCH  27  28
ENDBRANCH  26  27
ENDBRANCH  25  26
ENDBRANCH  24  25
ENDBRANCH  23  24
ENDBRANCH  22  23
ENDBRANCH  21  22
ENDBRANCH  20  21
ENDBRANCH  19  20
ENDBRANCH  18  19
ENDBRANCH   1  18
TORSDOF 28
ENDMDL
MODEL 2
REMARK VINA RESULT:    -3.136      3.895      5.303
REMARK INTER + INTRA:         -13.691
REMARK INTER:                  -9.183
REMARK INTRA:                  -4.508
REMARK UNBOUND:                -5.421
REMARK SMILES CCCCCCCCCCCCCCCCCCCCCCCCCCCCCC(=O)[O-]
REMARK SMILES IDX 16 1 17 2 18 3 19 4 20 5 21 6 22 7 23 8 24 9 25 10 26 11
REMARK SMILES IDX 27 12 28 13 29 14 30 15 31 16 32 17 15 18 14 19 13 20 12 21
REMARK SMILES IDX 11 22 10 23 9 24 8 25 7 26 6 27 5 28 4 29 3 30 2 31 1 32
REMARK H PARENT
REMARK Flexibility Score: inf
ROOT
ATOM      1  C   UNL     1      38.445  28.755   6.477  1.00  0.00     0.000 C 
ENDROOT
BRANCH   1   2
ATOM      2  C   UNL     1      39.003  27.558   7.271  1.00  0.00     0.000 C 
BRANCH   2   3
ATOM      3  C   UNL     1      40.433  27.736   7.827  1.00  0.00     0.000 C 
BRANCH   3   4
ATOM      4  C   UNL     1      41.563  27.265   6.893  1.00  0.00     0.000 C 
BRANCH   4   5
ATOM      5  C   UNL     1      42.160  28.409   6.056  1.00  0.00     0.000 C 
BRANCH   5   6
ATOM      6  C   UNL     1      43.616  28.735   6.443  1.00  0.00     0.000 C 
BRANCH   6   7
ATOM      7  C   UNL     1      43.820  30.154   7.006  1.00  0.00     0.000 C 
BRANCH   7   8
ATOM      8  C   UNL     1      42.574  30.710   7.712  1.00  0.00     0.000 C 
BRANCH   8   9
ATOM      9  C   UNL     1      42.793  30.921   9.219  1.00  0.00     0.000 C 
BRANCH   9  10
ATOM     10  C   UNL     1      42.859  29.598   9.996  1.00  0.00     0.000 C 
BRANCH  10  11
ATOM     11  C   UNL     1      41.744  29.526  11.049  1.00  0.00     0.000 C 
BRANCH  11  12
ATOM     12  C   UNL     1      41.998  30.523  12.190  1.00  0.00     0.000 C 
BRANCH  12  13
ATOM     13  C   UNL     1      42.399  29.820  13.497  1.00  0.00     0.006 C 
BRANCH  13  14
ATOM     14  C   UNL     1      41.928  30.590  14.738  1.00  0.00     0.053 C 
BRANCH  14  15
ATOM     15  C   UNL     1      40.742  29.921  15.364  1.00  0.00     0.041 C 
ATOM     16  O   UNL     1      40.813  29.477  16.542  1.00  0.00    -0.550 OA
ATOM     17  O   UNL     1      39.555  29.791  14.651  1.00  0.00    -0.550 OA
ENDBRANCH  14  15
ENDBRANCH  13  14
ENDBRANCH  12  13
ENDBRANCH  11  12
ENDBRANCH  10  11
ENDBRANCH   9  10
ENDBRANCH   8   9
ENDBRANCH   7   8
ENDBRANCH   6   7
ENDBRANCH   5   6
ENDBRANCH   4   5
ENDBRANCH   3   4
ENDBRANCH   2   3
ENDBRANCH   1   2
BRANCH   1  18
ATOM     18  C   UNL     1      38.768  30.110   7.130  1.00  0.00     0.000 C 
BRANCH  18  19
ATOM     19  C   UNL     1      39.221  31.166   6.111  1.00  0.00     0.000 C 
BRANCH  19  20
ATOM     20  C   UNL     1      39.478  30.581   4.711  1.00  0.00     0.000 C 
BRANCH  20  21
ATOM     21  C   UNL     1      40.812  31.054   4.106  1.00  0.00     0.000 C 
BRANCH  21  22
ATOM     22  C   UNL     1      41.293  32.386   4.708  1.00  0.00     0.000 C 
BRANCH  22  23
ATOM     23  C   UNL     1      42.765  32.683   4.379  1.00  0.00     0.000 C 
BRANCH  23  24
ATOM     24  C   UNL     1      43.439  31.555   3.578  1.00  0.00    -0.000 C 
BRANCH  24  25
ATOM     25  C   UNL     1      43.301  31.745   2.056  1.00  0.00    -0.000 C 
BRANCH  25  26
ATOM     26  C   UNL     1      43.960  33.025   1.503  1.00  0.00    -0.000 C 
BRANCH  26  27
ATOM     27  C   UNL     1      43.746  33.264  -0.004  1.00  0.00    -0.000 C 
BRANCH  27  28
ATOM     28  C   UNL     1      42.508  32.565  -0.603  1.00  0.00    -0.000 C 
BRANCH  28  29
ATOM     29  C   UNL     1      41.343  33.504  -0.972  1.00  0.00    -0.000 C 
BRANCH  29  30
ATOM     30  C   UNL     1      40.053  33.305  -0.151  1.00  0.00    -0.000 C 
BRANCH  30  31
ATOM     31  C   UNL     1      40.219  33.573   1.361  1.00  0.00    -0.003 C 
ATOM     32  C   UNL     1      38.884  33.675   2.102  1.00  0.00     0.004 C 
ENDBRANCH  30  31
ENDBRANCH  29  30
ENDBRANCH  28  29
ENDBRANCH  27  28
ENDBRANCH  26  27
ENDBRANCH  25  26
ENDBRANCH  24  25
ENDBRANCH  23  24
ENDBRANCH  22  23
ENDBRANCH  21  22
ENDBRANCH  20  21
ENDBRANCH  19  20
ENDBRANCH  18  19
ENDBRANCH   1  18
TORSDOF 28
ENDMDL
MODEL 3
REMARK VINA RESULT:    -3.133     14.359     17.484
REMARK INTER + INTRA:         -13.682
REMARK INTER:                  -7.787
REMARK INTRA:                  -5.895
REMARK UNBOUND:                -5.421
REMARK SMILES CCCCCCCCCCCCCCCCCCCCCCCCCCCCCC(=O)[O-]
REMARK SMILES IDX 16 1 17 2 18 3 19 4 20 5 21 6 22 7 23 8 24 9 25 10 26 11
REMARK SMILES IDX 27 12 28 13 29 14 30 15 31 16 32 17 15 18 14 19 13 20 12 21
REMARK SMILES IDX 11 22 10 23 9 24 8 25 7 26 6 27 5 28 4 29 3 30 2 31 1 32
REMARK H PARENT
REMARK Flexibility Score: inf
ROOT
ATOM      1  C   UNL     1      24.214  40.429   6.693  1.00  0.00     0.000 C 
ENDROOT
BRANCH   1   2
ATOM      2  C   UNL     1      24.052  41.946   6.913  1.00  0.00     0.000 C 
BRANCH   2   3
ATOM      3  C   UNL     1      25.007  42.574   7.952  1.00  0.00     0.000 C 
BRANCH   3   4
ATOM      4  C   UNL     1      26.343  43.092   7.386  1.00  0.00     0.000 C 
BRANCH   4   5
ATOM      5  C   UNL     1      26.324  44.603   7.104  1.00  0.00     0.000 C 
BRANCH   5   6
ATOM      6  C   UNL     1      26.716  44.945   5.652  1.00  0.00     0.000 C 
BRANCH   6   7
ATOM      7  C   UNL     1      26.087  44.022   4.592  1.00  0.00     0.000 C 
BRANCH   7   8
ATOM      8  C   UNL     1      27.124  43.383   3.654  1.00  0.00     0.000 C 
BRANCH   8   9
ATOM      9  C   UNL     1      28.457  43.088   4.361  1.00  0.00     0.000 C 
BRANCH   9  10
ATOM     10  C   UNL     1      28.967  41.666   4.090  1.00  0.00     0.000 C 
BRANCH  10  11
ATOM     11  C   UNL     1      27.865  40.798   3.466  1.00  0.00     0.000 C 
BRANCH  11  12
ATOM     12  C   UNL     1      27.406  39.704   4.443  1.00  0.00     0.000 C 
BRANCH  12  13
ATOM     13  C   UNL     1      27.978  39.910   5.856  1.00  0.00     0.006 C 
BRANCH  13  14
ATOM     14  C   UNL     1      28.009  38.606   6.664  1.00  0.00     0.053 C 
BRANCH  14  15
ATOM     15  C   UNL     1      27.343  38.786   7.995  1.00  0.00     0.041 C 
ATOM     16  O   UNL     1      27.281  39.929   8.524  1.00  0.00    -0.550 OA
ATOM     17  O   UNL     1      26.786  37.693   8.652  1.00  0.00    -0.550 OA
ENDBRANCH  14  15
ENDBRANCH  13  14
ENDBRANCH  12  13
ENDBRANCH  11  12
ENDBRANCH  10  11
ENDBRANCH   9  10
ENDBRANCH   8   9
ENDBRANCH   7   8
ENDBRANCH   6   7
ENDBRANCH   5   6
ENDBRANCH   4   5
ENDBRANCH   3   4
ENDBRANCH   2   3
ENDBRANCH   1   2
BRANCH   1  18
ATOM     18  C   UNL     1      23.957  40.004   5.237  1.00  0.00     0.000 C 
BRANCH  18  19
ATOM     19  C   UNL     1      23.951  41.192   4.265  1.00  0.00     0.000 C 
BRANCH  19  20
ATOM     20  C   UNL     1      24.238  40.782   2.809  1.00  0.00     0.000 C 
BRANCH  20  21
ATOM     21  C   UNL     1      24.249  39.255   2.614  1.00  0.00     0.000 C 
BRANCH  21  22
ATOM     22  C   UNL     1      25.090  38.821   1.401  1.00  0.00     0.000 C 
BRANCH  22  23
ATOM     23  C   UNL     1      25.382  39.986   0.441  1.00  0.00     0.000 C 
BRANCH  23  24
ATOM     24  C   UNL     1      25.386  39.557  -1.037  1.00  0.00    -0.000 C 
BRANCH  24  25
ATOM     25  C   UNL     1      26.762  39.743  -1.703  1.00  0.00    -0.000 C 
BRANCH  25  26
ATOM     26  C   UNL     1      27.637  38.473  -1.742  1.00  0.00    -0.000 C 
BRANCH  26  27
ATOM     27  C   UNL     1      28.979  38.588  -0.993  1.00  0.00    -0.000 C 
BRANCH  27  28
ATOM     28  C   UNL     1      28.859  38.688   0.542  1.00  0.00    -0.000 C 
BRANCH  28  29
ATOM     29  C   UNL     1      28.507  37.370   1.257  1.00  0.00    -0.000 C 
BRANCH  29  30
ATOM     30  C   UNL     1      29.083  37.219   2.679  1.00  0.00    -0.000 C 
BRANCH  30  31
ATOM     31  C   UNL     1      30.544  37.698   2.822  1.00  0.00    -0.003 C 
ATOM     32  C   UNL     1      30.869  38.219   4.224  1.00  0.00     0.004 C 
ENDBRANCH  30  31
ENDBRANCH  29  30
ENDBRANCH  28  29
ENDBRANCH  27  28
ENDBRANCH  26  27
ENDBRANCH  25  26
ENDBRANCH  24  25
ENDBRANCH  23  24
ENDBRANCH  22  23
ENDBRANCH  21  22
ENDBRANCH  20  21
ENDBRANCH  19  20
ENDBRANCH  18  19
ENDBRANCH   1  18
TORSDOF 28
ENDMDL
MODEL 4
REMARK VINA RESULT:    -3.129     15.373     17.940
REMARK INTER + INTRA:         -13.672
REMARK INTER:                  -7.486
REMARK INTRA:                  -6.186
REMARK UNBOUND:                -5.421
REMARK SMILES CCCCCCCCCCCCCCCCCCCCCCCCCCCCCC(=O)[O-]
REMARK SMILES IDX 16 1 17 2 18 3 19 4 20 5 21 6 22 7 23 8 24 9 25 10 26 11
REMARK SMILES IDX 27 12 28 13 29 14 30 15 31 16 32 17 15 18 14 19 13 20 12 21
REMARK SMILES IDX 11 22 10 23 9 24 8 25 7 26 6 27 5 28 4 29 3 30 2 31 1 32
REMARK H PARENT
REMARK Flexibility Score: inf
ROOT
ATOM      1  C   UNL     1      26.932  44.373   7.327  1.00  0.00     0.000 C 
ENDROOT
BRANCH   1   2
ATOM      2  C   UNL     1      25.742  43.682   8.021  1.00  0.00     0.000 C 
BRANCH   2   3
ATOM      3  C   UNL     1      25.950  43.335   9.511  1.00  0.00     0.000 C 
BRANCH   3   4
ATOM      4  C   UNL     1      25.884  41.834   9.851  1.00  0.00     0.000 C 
BRANCH   4   5
ATOM      5  C   UNL     1      27.267  41.228  10.141  1.00  0.00     0.000 C 
BRANCH   5   6
ATOM      6  C   UNL     1      27.246  39.687  10.188  1.00  0.00     0.000 C 
BRANCH   6   7
ATOM      7  C   UNL     1      25.882  39.061   9.841  1.00  0.00     0.000 C 
BRANCH   7   8
ATOM      8  C   UNL     1      25.863  38.375   8.465  1.00  0.00     0.000 C 
BRANCH   8   9
ATOM      9  C   UNL     1      24.927  39.076   7.468  1.00  0.00     0.000 C 
BRANCH   9  10
ATOM     10  C   UNL     1      25.647  40.143   6.632  1.00  0.00     0.000 C 
BRANCH  10  11
ATOM     11  C   UNL     1      27.134  39.800   6.469  1.00  0.00     0.000 C 
BRANCH  11  12
ATOM     12  C   UNL     1      27.985  41.075   6.367  1.00  0.00     0.000 C 
BRANCH  12  13
ATOM     13  C   UNL     1      29.346  40.922   7.067  1.00  0.00     0.006 C 
BRANCH  13  14
ATOM     14  C   UNL     1      29.892  42.263   7.573  1.00  0.00     0.053 C 
BRANCH  14  15
ATOM     15  C   UNL     1      30.656  42.971   6.497  1.00  0.00     0.041 C 
ATOM     16  O   UNL     1      30.146  43.959   5.901  1.00  0.00    -0.550 OA
ATOM     17  O   UNL     1      31.934  42.545   6.151  1.00  0.00    -0.550 OA
ENDBRANCH  14  15
ENDBRANCH  13  14
ENDBRANCH  12  13
ENDBRANCH  11  12
ENDBRANCH  10  11
ENDBRANCH   9  10
ENDBRANCH   8   9
ENDBRANCH   7   8
ENDBRANCH   6   7
ENDBRANCH   5   6
ENDBRANCH   4   5
ENDBRANCH   3   4
ENDBRANCH   2   3
ENDBRANCH   1   2
BRANCH   1  18
ATOM     18  C   UNL     1      26.577  44.926   5.936  1.00  0.00     0.000 C 
BRANCH  18  19
ATOM     19  C   UNL     1      25.789  43.921   5.083  1.00  0.00     0.000 C 
BRANCH  19  20
ATOM     20  C   UNL     1      26.567  43.439   3.845  1.00  0.00     0.000 C 
BRANCH  20  21
ATOM     21  C   UNL     1      26.173  42.015   3.413  1.00  0.00     0.000 C 
BRANCH  21  22
ATOM     22  C   UNL     1      24.676  41.728   3.623  1.00  0.00     0.000 C 
BRANCH  22  23
ATOM     23  C   UNL     1      24.247  40.376   3.031  1.00  0.00     0.000 C 
BRANCH  23  24
ATOM     24  C   UNL     1      23.875  40.466   1.540  1.00  0.00    -0.000 C 
BRANCH  24  25
ATOM     25  C   UNL     1      24.319  39.225   0.744  1.00  0.00    -0.000 C 
BRANCH  25  26
ATOM     26  C   UNL     1      25.420  39.489  -0.303  1.00  0.00    -0.000 C 
BRANCH  26  27
ATOM     27  C   UNL     1      26.811  38.940   0.067  1.00  0.00    -0.000 C 
BRANCH  27  28
ATOM     28  C   UNL     1      27.476  39.623   1.280  1.00  0.00    -0.000 C 
BRANCH  28  29
ATOM     29  C   UNL     1      27.870  38.674   2.429  1.00  0.00    -0.000 C 
BRANCH  29  30
ATOM     30  C   UNL     1      26.992  37.414   2.571  1.00  0.00    -0.000 C 
BRANCH  30  31
ATOM     31  C   UNL     1      26.464  37.170   4.001  1.00  0.00    -0.003 C 
ATOM     32  C   UNL     1      24.936  37.162   4.082  1.00  0.00     0.004 C 
ENDBRANCH  30  31
ENDBRANCH  29  30
ENDBRANCH  28  29
ENDBRANCH  27  28
ENDBRANCH  26  27
ENDBRANCH  25  26
ENDBRANCH  24  25
ENDBRANCH  23  24
ENDBRANCH  22  23
ENDBRANCH  21  22
ENDBRANCH  20  21
ENDBRANCH  19  20
ENDBRANCH  18  19
ENDBRANCH   1  18
TORSDOF 28
ENDMDL
MODEL 5
REMARK VINA RESULT:    -3.116     14.963     18.507
REMARK INTER + INTRA:         -13.638
REMARK INTER:                  -8.393
REMARK INTRA:                  -5.245
REMARK UNBOUND:                -5.421
REMARK SMILES CCCCCCCCCCCCCCCCCCCCCCCCCCCCCC(=O)[O-]
REMARK SMILES IDX 16 1 17 2 18 3 19 4 20 5 21 6 22 7 23 8 24 9 25 10 26 11
REMARK SMILES IDX 27 12 28 13 29 14 30 15 31 16 32 17 15 18 14 19 13 20 12 21
REMARK SMILES IDX 11 22 10 23 9 24 8 25 7 26 6 27 5 28 4 29 3 30 2 31 1 32
REMARK H PARENT
REMARK Flexibility Score: inf
ROOT
ATOM      1  C   UNL     1      27.589  42.572   3.962  1.00  0.00     0.000 C 
ENDROOT
BRANCH   1   2
ATOM      2  C   UNL     1      28.218  42.229   5.326  1.00  0.00     0.000 C 
BRANCH   2   3
ATOM      3  C   UNL     1      27.637  40.984   6.033  1.00  0.00     0.000 C 
BRANCH   3   4
ATOM      4  C   UNL     1      26.658  40.146   5.188  1.00  0.00     0.000 C 
BRANCH   4   5
ATOM      5  C   UNL     1      25.281  39.990   5.853  1.00  0.00     0.000 C 
BRANCH   5   6
ATOM      6  C   UNL     1      24.122  39.999   4.836  1.00  0.00     0.000 C 
BRANCH   6   7
ATOM      7  C   UNL     1      24.095  41.233   3.916  1.00  0.00     0.000 C 
BRANCH   7   8
ATOM      8  C   UNL     1      24.322  40.890   2.435  1.00  0.00     0.000 C 
BRANCH   8   9
ATOM      9  C   UNL     1      24.440  39.377   2.191  1.00  0.00     0.000 C 
BRANCH   9  10
ATOM     10  C   UNL     1      24.344  39.010   0.703  1.00  0.00     0.000 C 
BRANCH  10  11
ATOM     11  C   UNL     1      25.133  40.006  -0.159  1.00  0.00     0.000 C 
BRANCH  11  12
ATOM     12  C   UNL     1      25.841  39.290  -1.319  1.00  0.00     0.000 C 
BRANCH  12  13
ATOM     13  C   UNL     1      27.369  39.265  -1.141  1.00  0.00     0.006 C 
BRANCH  13  14
ATOM     14  C   UNL     1      27.814  38.229  -0.099  1.00  0.00     0.053 C 
BRANCH  14  15
ATOM     15  C   UNL     1      28.609  38.877   0.994  1.00  0.00     0.041 C 
ATOM     16  O   UNL     1      29.850  38.676   1.080  1.00  0.00    -0.550 OA
ATOM     17  O   UNL     1      27.981  39.708   1.916  1.00  0.00    -0.550 OA
ENDBRANCH  14  15
ENDBRANCH  13  14
ENDBRANCH  12  13
ENDBRANCH  11  12
ENDBRANCH  10  11
ENDBRANCH   9  10
ENDBRANCH   8   9
ENDBRANCH   7   8
ENDBRANCH   6   7
ENDBRANCH   5   6
ENDBRANCH   4   5
ENDBRANCH   3   4
ENDBRANCH   2   3
ENDBRANCH   1   2
BRANCH   1  18
ATOM     18  C   UNL     1      26.522  43.677   4.055  1.00  0.00     0.000 C 
BRANCH  18  19
ATOM     19  C   UNL     1      26.727  44.597   5.268  1.00  0.00     0.000 C 
BRANCH  19  20
ATOM     20  C   UNL     1      25.417  44.912   6.013  1.00  0.00     0.000 C 
BRANCH  20  21
ATOM     21  C   UNL     1      24.754  43.654   6.604  1.00  0.00     0.000 C 
BRANCH  21  22
ATOM     22  C   UNL     1      25.491  43.127   7.847  1.00  0.00     0.000 C 
BRANCH  22  23
ATOM     23  C   UNL     1      25.350  44.066   9.056  1.00  0.00     0.000 C 
BRANCH  23  24
ATOM     24  C   UNL     1      26.646  44.833   9.373  1.00  0.00    -0.000 C 
BRANCH  24  25
ATOM     25  C   UNL     1      27.892  44.167   8.760  1.00  0.00    -0.000 C 
BRANCH  25  26
ATOM     26  C   UNL     1      29.024  45.143   8.380  1.00  0.00    -0.000 C 
BRANCH  26  27
ATOM     27  C   UNL     1      30.033  44.595   7.352  1.00  0.00    -0.000 C 
BRANCH  27  28
ATOM     28  C   UNL     1      30.275  45.506   6.130  1.00  0.00    -0.000 C 
BRANCH  28  29
ATOM     29  C   UNL     1      30.713  44.775   4.847  1.00  0.00    -0.000 C 
BRANCH  29  30
ATOM     30  C   UNL     1      32.172  44.275   4.840  1.00  0.00    -0.000 C 
BRANCH  30  31
ATOM     31  C   UNL     1      32.329  42.781   5.197  1.00  0.00    -0.003 C 
ATOM     32  C   UNL     1      31.718  41.848   4.149  1.00  0.00     0.004 C 
ENDBRANCH  30  31
ENDBRANCH  29  30
ENDBRANCH  28  29
ENDBRANCH  27  28
ENDBRANCH  26  27
ENDBRANCH  25  26
ENDBRANCH  24  25
ENDBRANCH  23  24
ENDBRANCH  22  23
ENDBRANCH  21  22
ENDBRANCH  20  21
ENDBRANCH  19  20
ENDBRANCH  18  19
ENDBRANCH   1  18
TORSDOF 28
ENDMDL
MODEL 6
REMARK VINA RESULT:    -3.115     14.537     18.304
REMARK INTER + INTRA:         -13.633
REMARK INTER:                  -8.052
REMARK INTRA:                  -5.581
REMARK UNBOUND:                -5.421
REMARK SMILES CCCCCCCCCCCCCCCCCCCCCCCCCCCCCC(=O)[O-]
REMARK SMILES IDX 16 1 17 2 18 3 19 4 20 5 21 6 22 7 23 8 24 9 25 10 26 11
REMARK SMILES IDX 27 12 28 13 29 14 30 15 31 16 32 17 15 18 14 19 13 20 12 21
REMARK SMILES IDX 11 22 10 23 9 24 8 25 7 26 6 27 5 28 4 29 3 30 2 31 1 32
REMARK H PARENT
REMARK Flexibility Score: inf
ROOT
ATOM      1  C   UNL     1      26.722  41.342   3.691  1.00  0.00     0.000 C 
ENDROOT
BRANCH   1   2
ATOM      2  C   UNL     1      27.296  40.048   3.083  1.00  0.00     0.000 C 
BRANCH   2   3
ATOM      3  C   UNL     1      27.022  38.757   3.884  1.00  0.00     0.000 C 
BRANCH   3   4
ATOM      4  C   UNL     1      25.621  38.148   3.688  1.00  0.00     0.000 C 
BRANCH   4   5
ATOM      5  C   UNL     1      25.296  37.865   2.211  1.00  0.00     0.000 C 
BRANCH   5   6
ATOM      6  C   UNL     1      23.922  38.420   1.785  1.00  0.00     0.000 C 
BRANCH   6   7
ATOM      7  C   UNL     1      23.918  39.113   0.409  1.00  0.00     0.000 C 
BRANCH   7   8
ATOM      8  C   UNL     1      25.224  39.865   0.106  1.00  0.00     0.000 C 
BRANCH   8   9
ATOM      9  C   UNL     1      25.703  39.658  -1.339  1.00  0.00     0.000 C 
BRANCH   9  10
ATOM     10  C   UNL     1      26.936  38.748  -1.428  1.00  0.00     0.000 C 
BRANCH  10  11
ATOM     11  C   UNL     1      27.976  39.129  -0.366  1.00  0.00     0.000 C 
BRANCH  11  12
ATOM     12  C   UNL     1      28.587  37.876   0.281  1.00  0.00     0.000 C 
BRANCH  12  13
ATOM     13  C   UNL     1      29.992  38.141   0.846  1.00  0.00     0.006 C 
BRANCH  13  14
ATOM     14  C   UNL     1      30.258  37.351   2.135  1.00  0.00     0.053 C 
BRANCH  14  15
ATOM     15  C   UNL     1      30.632  38.270   3.258  1.00  0.00     0.041 C 
ATOM     16  O   UNL     1      30.785  37.816   4.424  1.00  0.00    -0.550 OA
ATOM     17  O   UNL     1      30.815  39.628   3.019  1.00  0.00    -0.550 OA
ENDBRANCH  14  15
ENDBRANCH  13  14
ENDBRANCH  12  13
ENDBRANCH  11  12
ENDBRANCH  10  11
ENDBRANCH   9  10
ENDBRANCH   8   9
ENDBRANCH   7   8
ENDBRANCH   6   7
ENDBRANCH   5   6
ENDBRANCH   4   5
ENDBRANCH   3   4
ENDBRANCH   2   3
ENDBRANCH   1   2
BRANCH   1  18
ATOM     18  C   UNL     1      25.379  41.755   3.064  1.00  0.00     0.000 C 
BRANCH  18  19
ATOM     19  C   UNL     1      24.196  41.581   4.028  1.00  0.00     0.000 C 
BRANCH  19  20
ATOM     20  C   UNL     1      24.549  41.932   5.485  1.00  0.00     0.000 C 
BRANCH  20  21
ATOM     21  C   UNL     1      24.410  43.436   5.783  1.00  0.00     0.000 C 
BRANCH  21  22
ATOM     22  C   UNL     1      25.760  44.174   5.732  1.00  0.00     0.000 C 
BRANCH  22  23
ATOM     23  C   UNL     1      26.162  44.760   7.095  1.00  0.00     0.000 C 
BRANCH  23  24
ATOM     24  C   UNL     1      25.548  43.993   8.280  1.00  0.00    -0.000 C 
BRANCH  24  25
ATOM     25  C   UNL     1      26.611  43.503   9.281  1.00  0.00    -0.000 C 
BRANCH  25  26
ATOM     26  C   UNL     1      26.140  42.375  10.222  1.00  0.00    -0.000 C 
BRANCH  26  27
ATOM     27  C   UNL     1      27.047  41.129  10.245  1.00  0.00    -0.000 C 
BRANCH  27  28
ATOM     28  C   UNL     1      26.367  39.824   9.782  1.00  0.00    -0.000 C 
BRANCH  28  29
ATOM     29  C   UNL     1      26.911  39.235   8.466  1.00  0.00    -0.000 C 
BRANCH  29  30
ATOM     30  C   UNL     1      27.004  40.229   7.290  1.00  0.00    -0.000 C 
BRANCH  30  31
ATOM     31  C   UNL     1      28.447  40.536   6.835  1.00  0.00    -0.003 C 
ATOM     32  C   UNL     1      28.723  42.034   6.689  1.00  0.00     0.004 C 
ENDBRANCH  30  31
ENDBRANCH  29  30
ENDBRANCH  28  29
ENDBRANCH  27  28
ENDBRANCH  26  27
ENDBRANCH  25  26
ENDBRANCH  24  25
ENDBRANCH  23  24
ENDBRANCH  22  23
ENDBRANCH  21  22
ENDBRANCH  20  21
ENDBRANCH  19  20
ENDBRANCH  18  19
ENDBRANCH   1  18
TORSDOF 28
ENDMDL
MODEL 7
REMARK VINA RESULT:    -3.110     15.438     18.435
REMARK INTER + INTRA:         -13.622
REMARK INTER:                  -7.986
REMARK INTRA:                  -5.636
REMARK UNBOUND:                -5.421
REMARK SMILES CCCCCCCCCCCCCCCCCCCCCCCCCCCCCC(=O)[O-]
REMARK SMILES IDX 16 1 17 2 18 3 19 4 20 5 21 6 22 7 23 8 24 9 25 10 26 11
REMARK SMILES IDX 27 12 28 13 29 14 30 15 31 16 32 17 15 18 14 19 13 20 12 21
REMARK SMILES IDX 11 22 10 23 9 24 8 25 7 26 6 27 5 28 4 29 3 30 2 31 1 32
REMARK H PARENT
REMARK Flexibility Score: inf
ROOT
ATOM      1  C   UNL     1      25.954  41.854   3.121  1.00  0.00     0.000 C 
ENDROOT
BRANCH   1   2
ATOM      2  C   UNL     1      27.274  41.934   3.913  1.00  0.00     0.000 C 
BRANCH   2   3
ATOM      3  C   UNL     1      27.914  43.337   4.002  1.00  0.00     0.000 C 
BRANCH   3   4
ATOM      4  C   UNL     1      27.963  43.947   5.415  1.00  0.00     0.000 C 
BRANCH   4   5
ATOM      5  C   UNL     1      26.800  44.917   5.686  1.00  0.00     0.000 C 
BRANCH   5   6
ATOM      6  C   UNL     1      25.805  44.377   6.734  1.00  0.00     0.000 C 
BRANCH   6   7
ATOM      7  C   UNL     1      24.389  44.118   6.188  1.00  0.00     0.000 C 
BRANCH   7   8
ATOM      8  C   UNL     1      23.996  42.632   6.206  1.00  0.00     0.000 C 
BRANCH   8   9
ATOM      9  C   UNL     1      25.060  41.748   6.875  1.00  0.00     0.000 C 
BRANCH   9  10
ATOM     10  C   UNL     1      24.449  40.699   7.816  1.00  0.00     0.000 C 
BRANCH  10  11
ATOM     11  C   UNL     1      25.047  40.813   9.225  1.00  0.00     0.000 C 
BRANCH  11  12
ATOM     12  C   UNL     1      26.422  41.496   9.187  1.00  0.00     0.000 C 
BRANCH  12  13
ATOM     13  C   UNL     1      26.678  42.357  10.435  1.00  0.00     0.006 C 
BRANCH  13  14
ATOM     14  C   UNL     1      25.993  43.727  10.346  1.00  0.00     0.053 C 
BRANCH  14  15
ATOM     15  C   UNL     1      26.288  44.553  11.561  1.00  0.00     0.041 C 
ATOM     16  O   UNL     1      26.927  45.634  11.452  1.00  0.00    -0.550 OA
ATOM     17  O   UNL     1      25.855  44.133  12.814  1.00  0.00    -0.550 OA
ENDBRANCH  14  15
ENDBRANCH  13  14
ENDBRANCH  12  13
ENDBRANCH  11  12
ENDBRANCH  10  11
ENDBRANCH   9  10
ENDBRANCH   8   9
ENDBRANCH   7   8
ENDBRANCH   6   7
ENDBRANCH   5   6
ENDBRANCH   4   5
ENDBRANCH   3   4
ENDBRANCH   2   3
ENDBRANCH   1   2
BRANCH   1  18
ATOM     18  C   UNL     1      25.208  40.526   3.332  1.00  0.00     0.000 C 
BRANCH  18  19
ATOM     19  C   UNL     1      24.191  40.234   2.218  1.00  0.00     0.000 C 
BRANCH  19  20
ATOM     20  C   UNL     1      24.591  39.039   1.334  1.00  0.00     0.000 C 
BRANCH  20  21
ATOM     21  C   UNL     1      24.611  39.390  -0.164  1.00  0.00     0.000 C 
BRANCH  21  22
ATOM     22  C   UNL     1      26.012  39.244  -0.785  1.00  0.00     0.000 C 
BRANCH  22  23
ATOM     23  C   UNL     1      27.134  39.601   0.203  1.00  0.00     0.000 C 
BRANCH  23  24
ATOM     24  C   UNL     1      28.443  38.841  -0.077  1.00  0.00    -0.000 C 
BRANCH  24  25
ATOM     25  C   UNL     1      29.292  38.639   1.192  1.00  0.00    -0.000 C 
BRANCH  25  26
ATOM     26  C   UNL     1      28.549  38.910   2.516  1.00  0.00    -0.000 C 
BRANCH  26  27
ATOM     27  C   UNL     1      28.452  37.698   3.464  1.00  0.00    -0.000 C 
BRANCH  27  28
ATOM     28  C   UNL     1      27.024  37.151   3.672  1.00  0.00    -0.000 C 
BRANCH  28  29
ATOM     29  C   UNL     1      26.513  37.196   5.125  1.00  0.00    -0.000 C 
BRANCH  29  30
ATOM     30  C   UNL     1      26.570  38.582   5.799  1.00  0.00    -0.000 C 
BRANCH  30  31
ATOM     31  C   UNL     1      27.630  38.698   6.915  1.00  0.00    -0.003 C 
ATOM     32  C   UNL     1      28.621  39.840   6.683  1.00  0.00     0.004 C 
ENDBRANCH  30  31
ENDBRANCH  29  30
ENDBRANCH  28  29
ENDBRANCH  27  28
ENDBRANCH  26  27
ENDBRANCH  25  26
ENDBRANCH  24  25
ENDBRANCH  23  24
ENDBRANCH  22  23
ENDBRANCH  21  22
ENDBRANCH  20  21
ENDBRANCH  19  20
ENDBRANCH  18  19
ENDBRANCH   1  18
TORSDOF 28
ENDMDL
MODEL 8
REMARK VINA RESULT:    -3.094     15.233     17.903
REMARK INTER + INTRA:         -13.580
REMARK INTER:                  -8.431
REMARK INTRA:                  -5.149
REMARK UNBOUND:                -5.421
REMARK SMILES CCCCCCCCCCCCCCCCCCCCCCCCCCCCCC(=O)[O-]
REMARK SMILES IDX 16 1 17 2 18 3 19 4 20 5 21 6 22 7 23 8 24 9 25 10 26 11
REMARK SMILES IDX 27 12 28 13 29 14 30 15 31 16 32 17 15 18 14 19 13 20 12 21
REMARK SMILES IDX 11 22 10 23 9 24 8 25 7 26 6 27 5 28 4 29 3 30 2 31 1 32
REMARK H PARENT
REMARK Flexibility Score: inf
ROOT
ATOM      1  C   UNL     1      24.460  40.621   5.225  1.00  0.00     0.000 C 
ENDROOT
BRANCH   1   2
ATOM      2  C   UNL     1      24.942  41.698   6.216  1.00  0.00     0.000 C 
BRANCH   2   3
ATOM      3  C   UNL     1      23.875  42.727   6.651  1.00  0.00     0.000 C 
BRANCH   3   4
ATOM      4  C   UNL     1      24.214  44.197   6.336  1.00  0.00     0.000 C 
BRANCH   4   5
ATOM      5  C   UNL     1      25.663  44.383   5.853  1.00  0.00     0.000 C 
BRANCH   5   6
ATOM      6  C   UNL     1      26.516  45.213   6.833  1.00  0.00     0.000 C 
BRANCH   6   7
ATOM      7  C   UNL     1      27.094  44.406   8.011  1.00  0.00     0.000 C 
BRANCH   7   8
ATOM      8  C   UNL     1      26.503  44.813   9.371  1.00  0.00     0.000 C 
BRANCH   8   9
ATOM      9  C   UNL     1      25.872  43.628  10.119  1.00  0.00     0.000 C 
BRANCH   9  10
ATOM     10  C   UNL     1      26.110  42.287   9.410  1.00  0.00     0.000 C 
BRANCH  10  11
ATOM     11  C   UNL     1      27.237  41.499  10.092  1.00  0.00     0.000 C 
BRANCH  11  12
ATOM     12  C   UNL     1      26.841  40.028  10.286  1.00  0.00     0.000 C 
BRANCH  12  13
ATOM     13  C   UNL     1      25.451  39.719   9.705  1.00  0.00     0.006 C 
BRANCH  13  14
ATOM     14  C   UNL     1      25.287  38.234   9.353  1.00  0.00     0.053 C 
BRANCH  14  15
ATOM     15  C   UNL     1      25.193  38.044   7.869  1.00  0.00     0.041 C 
ATOM     16  O   UNL     1      26.222  38.152   7.149  1.00  0.00    -0.550 OA
ATOM     17  O   UNL     1      23.970  37.742   7.280  1.00  0.00    -0.550 OA
ENDBRANCH  14  15
ENDBRANCH  13  14
ENDBRANCH  12  13
ENDBRANCH  11  12
ENDBRANCH  10  11
ENDBRANCH   9  10
ENDBRANCH   8   9
ENDBRANCH   7   8
ENDBRANCH   6   7
ENDBRANCH   5   6
ENDBRANCH   4   5
ENDBRANCH   3   4
ENDBRANCH   2   3
ENDBRANCH   1   2
BRANCH   1  18
ATOM     18  C   UNL     1      24.272  41.161   3.797  1.00  0.00     0.000 C 
BRANCH  18  19
ATOM     19  C   UNL     1      25.527  41.865   3.260  1.00  0.00     0.000 C 
BRANCH  19  20
ATOM     20  C   UNL     1      26.604  40.884   2.765  1.00  0.00     0.000 C 
BRANCH  20  21
ATOM     21  C   UNL     1      27.938  41.037   3.520  1.00  0.00     0.000 C 
BRANCH  21  22
ATOM     22  C   UNL     1      28.258  39.818   4.403  1.00  0.00     0.000 C 
BRANCH  22  23
ATOM     23  C   UNL     1      27.537  38.545   3.933  1.00  0.00     0.000 C 
BRANCH  23  24
ATOM     24  C   UNL     1      28.482  37.536   3.257  1.00  0.00    -0.000 C 
BRANCH  24  25
ATOM     25  C   UNL     1      28.150  37.320   1.768  1.00  0.00    -0.000 C 
BRANCH  25  26
ATOM     26  C   UNL     1      28.903  38.253   0.798  1.00  0.00    -0.000 C 
BRANCH  26  27
ATOM     27  C   UNL     1      28.004  39.212  -0.007  1.00  0.00    -0.000 C 
BRANCH  27  28
ATOM     28  C   UNL     1      27.229  38.554  -1.167  1.00  0.00    -0.000 C 
BRANCH  28  29
ATOM     29  C   UNL     1      25.795  39.079  -1.375  1.00  0.00    -0.000 C 
BRANCH  29  30
ATOM     30  C   UNL     1      25.244  39.956  -0.233  1.00  0.00    -0.000 C 
BRANCH  30  31
ATOM     31  C   UNL     1      24.085  39.309   0.557  1.00  0.00    -0.003 C 
ATOM     32  C   UNL     1      24.545  38.173   1.473  1.00  0.00     0.004 C 
ENDBRANCH  30  31
ENDBRANCH  29  30
ENDBRANCH  28  29
ENDBRANCH  27  28
ENDBRANCH  26  27
ENDBRANCH  25  26
ENDBRANCH  24  25
ENDBRANCH  23  24
ENDBRANCH  22  23
ENDBRANCH  21  22
ENDBRANCH  20  21
ENDBRANCH  19  20
ENDBRANCH  18  19
ENDBRANCH   1  18
TORSDOF 28
ENDMDL
MODEL 9
REMARK VINA RESULT:    -3.084      2.270      4.952
REMARK INTER + INTRA:         -13.553
REMARK INTER:                  -8.578
REMARK INTRA:                  -4.974
REMARK UNBOUND:                -5.421
REMARK SMILES CCCCCCCCCCCCCCCCCCCCCCCCCCCCCC(=O)[O-]
REMARK SMILES IDX 16 1 17 2 18 3 19 4 20 5 21 6 22 7 23 8 24 9 25 10 26 11
REMARK SMILES IDX 27 12 28 13 29 14 30 15 31 16 32 17 15 18 14 19 13 20 12 21
REMARK SMILES IDX 11 22 10 23 9 24 8 25 7 26 6 27 5 28 4 29 3 30 2 31 1 32
REMARK H PARENT
REMARK Flexibility Score: inf
ROOT
ATOM      1  C   UNL     1      42.984  32.200   2.717  1.00  0.00     0.000 C 
ENDROOT
BRANCH   1   2
ATOM      2  C   UNL     1      43.652  31.552   3.944  1.00  0.00     0.000 C 
BRANCH   2   3
ATOM      3  C   UNL     1      42.951  30.290   4.495  1.00  0.00     0.000 C 
BRANCH   3   4
ATOM      4  C   UNL     1      42.933  30.167   6.030  1.00  0.00     0.000 C 
BRANCH   4   5
ATOM      5  C   UNL     1      43.371  28.777   6.521  1.00  0.00     0.000 C 
BRANCH   5   6
ATOM      6  C   UNL     1      42.354  27.671   6.169  1.00  0.00     0.000 C 
BRANCH   6   7
ATOM      7  C   UNL     1      40.894  28.023   6.507  1.00  0.00     0.000 C 
BRANCH   7   8
ATOM      8  C   UNL     1      40.578  27.925   8.008  1.00  0.00     0.000 C 
BRANCH   8   9
ATOM      9  C   UNL     1      39.950  29.213   8.565  1.00  0.00     0.000 C 
BRANCH   9  10
ATOM     10  C   UNL     1      40.485  29.576   9.957  1.00  0.00     0.000 C 
BRANCH  10  11
ATOM     11  C   UNL     1      41.869  28.954  10.192  1.00  0.00     0.000 C 
BRANCH  11  12
ATOM     12  C   UNL     1      42.983  29.986   9.958  1.00  0.00     0.000 C 
BRANCH  12  13
ATOM     13  C   UNL     1      42.506  31.425  10.216  1.00  0.00     0.006 C 
BRANCH  13  14
ATOM     14  C   UNL     1      43.079  32.418   9.196  1.00  0.00     0.053 C 
BRANCH  14  15
ATOM     15  C   UNL     1      42.008  32.918   8.276  1.00  0.00     0.041 C 
ATOM     16  O   UNL     1      40.793  32.785   8.585  1.00  0.00    -0.550 OA
ATOM     17  O   UNL     1      42.349  33.534   7.076  1.00  0.00    -0.550 OA
ENDBRANCH  14  15
ENDBRANCH  13  14
ENDBRANCH  12  13
ENDBRANCH  11  12
ENDBRANCH  10  11
ENDBRANCH   9  10
ENDBRANCH   8   9
ENDBRANCH   7   8
ENDBRANCH   6   7
ENDBRANCH   5   6
ENDBRANCH   4   5
ENDBRANCH   3   4
ENDBRANCH   2   3
ENDBRANCH   1   2
BRANCH   1  18
ATOM     18  C   UNL     1      43.822  33.340   2.111  1.00  0.00     0.000 C 
BRANCH  18  19
ATOM     19  C   UNL     1      43.454  33.633   0.649  1.00  0.00     0.000 C 
BRANCH  19  20
ATOM     20  C   UNL     1      42.637  32.504  -0.005  1.00  0.00     0.000 C 
BRANCH  20  21
ATOM     21  C   UNL     1      42.202  32.843  -1.442  1.00  0.00     0.000 C 
BRANCH  21  22
ATOM     22  C   UNL     1      40.736  32.466  -1.719  1.00  0.00     0.000 C 
BRANCH  22  23
ATOM     23  C   UNL     1      39.774  33.644  -1.495  1.00  0.00     0.000 C 
BRANCH  23  24
ATOM     24  C   UNL     1      39.248  33.721  -0.050  1.00  0.00    -0.000 C 
BRANCH  24  25
ATOM     25  C   UNL     1      39.850  34.900   0.736  1.00  0.00    -0.000 C 
BRANCH  25  26
ATOM     26  C   UNL     1      40.218  34.580   2.199  1.00  0.00    -0.000 C 
BRANCH  26  27
ATOM     27  C   UNL     1      39.538  33.323   2.778  1.00  0.00    -0.000 C 
BRANCH  27  28
ATOM     28  C   UNL     1      39.370  33.324   4.311  1.00  0.00    -0.000 C 
BRANCH  28  29
ATOM     29  C   UNL     1      39.805  32.025   5.017  1.00  0.00    -0.000 C 
BRANCH  29  30
ATOM     30  C   UNL     1      39.298  30.722   4.365  1.00  0.00    -0.000 C 
BRANCH  30  31
ATOM     31  C   UNL     1      37.806  30.425   4.627  1.00  0.00    -0.003 C 
ATOM     32  C   UNL     1      37.579  29.099   5.357  1.00  0.00     0.004 C 
ENDBRANCH  30  31
ENDBRANCH  29  30
ENDBRANCH  28  29
ENDBRANCH  27  28
ENDBRANCH  26  27
ENDBRANCH  25  26
ENDBRANCH  24  25
ENDBRANCH  23  24
ENDBRANCH  22  23
ENDBRANCH  21  22
ENDBRANCH  20  21
ENDBRANCH  19  20
ENDBRANCH  18  19
ENDBRANCH   1  18
TORSDOF 28
ENDMDL
