MODEL 1
REMARK VINA RESULT:    -4.122      0.000      0.000
REMARK INTER + INTRA:          -4.935
REMARK INTER:                  -4.845
REMARK INTRA:                  -0.089
REMARK UNBOUND:                -0.089
REMARK SMILES O=C([O-])CCC(=O)[O-]
REMARK SMILES IDX 4 1 2 2 1 3 3 4 5 5 6 6 7 7 8 8
REMARK H PARENT
REMARK Flexibility Score: inf
ROOT
ATOM      1  C   UNL     1     -30.517   3.274  33.946  1.00  0.00     0.059 C 
ENDROOT
BRANCH   1   2
ATOM      2  C   UNL     1     -31.452   2.984  32.811  1.00  0.00     0.042 C 
ATOM      3  O   UNL     1     -31.138   3.299  31.634  1.00  0.00    -0.550 OA
ATOM      4  O   UNL     1     -32.689   2.403  33.062  1.00  0.00    -0.550 OA
ENDBRANCH   1   2
BRANCH   1   5
ATOM      5  C   UNL     1     -29.122   3.662  33.442  1.00  0.00     0.059 C 
BRANCH   5   6
ATOM      6  C   UNL     1     -28.151   2.530  33.584  1.00  0.00     0.042 C 
ATOM      7  O   UNL     1     -28.547   1.397  33.964  1.00  0.00    -0.550 OA
ATOM      8  O   UNL     1     -26.801   2.739  33.335  1.00  0.00    -0.550 OA
ENDBRANCH   5   6
ENDBRANCH   1   5
TORSDOF 3
ENDMDL
MODEL 2
REMARK VINA RESULT:    -4.100      0.378      3.806
REMARK INTER + INTRA:          -4.909
REMARK INTER:                  -4.836
REMARK INTRA:                  -0.073
REMARK UNBOUND:                -0.089
REMARK SMILES O=C([O-])CCC(=O)[O-]
REMARK SMILES IDX 4 1 2 2 1 3 3 4 5 5 6 6 7 7 8 8
REMARK H PARENT
REMARK Flexibility Score: inf
ROOT
ATOM      1  C   UNL     1     -29.031   3.737  33.403  1.00  0.00     0.059 C 
ENDROOT
BRANCH   1   2
ATOM      2  C   UNL     1     -28.165   2.539  33.650  1.00  0.00     0.042 C 
ATOM      3  O   UNL     1     -28.662   1.485  34.125  1.00  0.00    -0.550 OA
ATOM      4  O   UNL     1     -26.801   2.603  33.393  1.00  0.00    -0.550 OA
ENDBRANCH   1   2
BRANCH   1   5
ATOM      5  C   UNL     1     -30.503   3.443  33.712  1.00  0.00     0.059 C 
BRANCH   5   6
ATOM      6  C   UNL     1     -31.256   3.048  32.478  1.00  0.00     0.042 C 
ATOM      7  O   UNL     1     -32.443   2.637  32.564  1.00  0.00    -0.550 OA
ATOM      8  O   UNL     1     -30.633   3.097  31.239  1.00  0.00    -0.550 OA
ENDBRANCH   5   6
ENDBRANCH   1   5
TORSDOF 3
ENDMDL
MODEL 3
REMARK VINA RESULT:    -4.031     10.246     10.941
REMARK INTER + INTRA:          -4.827
REMARK INTER:                  -4.640
REMARK INTRA:                  -0.188
REMARK UNBOUND:                -0.089
REMARK SMILES O=C([O-])CCC(=O)[O-]
REMARK SMILES IDX 4 1 2 2 1 3 3 4 5 5 6 6 7 7 8 8
REMARK H PARENT
REMARK Flexibility Score: inf
ROOT
ATOM      1  C   UNL     1     -26.677  -1.458  24.122  1.00  0.00     0.059 C 
ENDROOT
BRANCH   1   2
ATOM      2  C   UNL     1     -28.035  -1.915  24.560  1.00  0.00     0.042 C 
ATOM      3  O   UNL     1     -28.593  -2.885  23.984  1.00  0.00    -0.550 OA
ATOM      4  O   UNL     1     -28.700  -1.242  25.577  1.00  0.00    -0.550 OA
ENDBRANCH   1   2
BRANCH   1   5
ATOM      5  C   UNL     1     -26.704  -0.011  23.617  1.00  0.00     0.059 C 
BRANCH   5   6
ATOM      6  C   UNL     1     -27.637   0.149  22.455  1.00  0.00     0.042 C 
ATOM      7  O   UNL     1     -27.427  -0.475  21.382  1.00  0.00    -0.550 OA
ATOM      8  O   UNL     1     -28.715   1.020  22.545  1.00  0.00    -0.550 OA
ENDBRANCH   5   6
ENDBRANCH   1   5
TORSDOF 3
ENDMDL
MODEL 4
REMARK VINA RESULT:    -4.022     10.243     10.846
REMARK INTER + INTRA:          -4.816
REMARK INTER:                  -4.632
REMARK INTRA:                  -0.185
REMARK UNBOUND:                -0.089
REMARK SMILES O=C([O-])CCC(=O)[O-]
REMARK SMILES IDX 4 1 2 2 1 3 3 4 5 5 6 6 7 7 8 8
REMARK H PARENT
REMARK Flexibility Score: inf
ROOT
ATOM      1  C   UNL     1     -26.747   0.093  23.586  1.00  0.00     0.059 C 
ENDROOT
BRANCH   1   2
ATOM      2  C   UNL     1     -27.683   0.180  22.420  1.00  0.00     0.042 C 
ATOM      3  O   UNL     1     -27.449  -0.471  21.369  1.00  0.00    -0.550 OA
ATOM      4  O   UNL     1     -28.793   1.012  22.482  1.00  0.00    -0.550 OA
ENDBRANCH   1   2
BRANCH   1   5
ATOM      5  C   UNL     1     -26.660  -1.336  24.135  1.00  0.00     0.059 C 
BRANCH   5   6
ATOM      6  C   UNL     1     -27.994  -1.826  24.609  1.00  0.00     0.042 C 
ATOM      7  O   UNL     1     -28.540  -1.307  25.617  1.00  0.00    -0.550 OA
ATOM      8  O   UNL     1     -28.615  -2.885  23.958  1.00  0.00    -0.550 OA
ENDBRANCH   5   6
ENDBRANCH   1   5
TORSDOF 3
ENDMDL
MODEL 5
REMARK VINA RESULT:    -4.016      1.861      2.265
REMARK INTER + INTRA:          -4.810
REMARK INTER:                  -4.642
REMARK INTRA:                  -0.168
REMARK UNBOUND:                -0.089
REMARK SMILES O=C([O-])CCC(=O)[O-]
REMARK SMILES IDX 4 1 2 2 1 3 3 4 5 5 6 6 7 7 8 8
REMARK H PARENT
REMARK Flexibility Score: inf
ROOT
ATOM      1  C   UNL     1     -30.046   1.557  32.949  1.00  0.00     0.059 C 
ENDROOT
BRANCH   1   2
ATOM      2  C   UNL     1     -29.814   1.823  31.493  1.00  0.00     0.042 C 
ATOM      3  O   UNL     1     -28.998   1.120  30.842  1.00  0.00    -0.550 OA
ATOM      4  O   UNL     1     -30.470   2.875  30.867  1.00  0.00    -0.550 OA
ENDBRANCH   1   2
BRANCH   1   5
ATOM      5  C   UNL     1     -28.728   1.506  33.730  1.00  0.00     0.059 C 
BRANCH   5   6
ATOM      6  C   UNL     1     -28.025   2.829  33.711  1.00  0.00     0.042 C 
ATOM      7  O   UNL     1     -28.609   3.864  34.125  1.00  0.00    -0.550 OA
ATOM      8  O   UNL     1     -26.738   2.923  33.197  1.00  0.00    -0.550 OA
ENDBRANCH   5   6
ENDBRANCH   1   5
TORSDOF 3
ENDMDL
MODEL 6
REMARK VINA RESULT:    -4.008     10.164     10.862
REMARK INTER + INTRA:          -4.800
REMARK INTER:                  -4.613
REMARK INTRA:                  -0.187
REMARK UNBOUND:                -0.089
REMARK SMILES O=C([O-])CCC(=O)[O-]
REMARK SMILES IDX 4 1 2 2 1 3 3 4 5 5 6 6 7 7 8 8
REMARK H PARENT
REMARK Flexibility Score: inf
ROOT
ATOM      1  C   UNL     1     -26.732  -1.178  24.229  1.00  0.00     0.059 C 
ENDROOT
BRANCH   1   2
ATOM      2  C   UNL     1     -28.066  -1.703  24.663  1.00  0.00     0.042 C 
ATOM      3  O   UNL     1     -28.638  -1.222  25.676  1.00  0.00    -0.550 OA
ATOM      4  O   UNL     1     -28.658  -2.752  23.971  1.00  0.00    -0.550 OA
ENDBRANCH   1   2
BRANCH   1   5
ATOM      5  C   UNL     1     -26.840   0.245  23.669  1.00  0.00     0.059 C 
BRANCH   5   6
ATOM      6  C   UNL     1     -27.730   0.297  22.464  1.00  0.00     0.042 C 
ATOM      7  O   UNL     1     -28.769   1.007  22.472  1.00  0.00    -0.550 OA
ATOM      8  O   UNL     1     -27.430  -0.471  21.347  1.00  0.00    -0.550 OA
ENDBRANCH   5   6
ENDBRANCH   1   5
TORSDOF 3
ENDMDL
MODEL 7
REMARK VINA RESULT:    -4.005     10.171     10.788
REMARK INTER + INTRA:          -4.797
REMARK INTER:                  -4.606
REMARK INTRA:                  -0.191
REMARK UNBOUND:                -0.089
REMARK SMILES O=C([O-])CCC(=O)[O-]
REMARK SMILES IDX 4 1 2 2 1 3 3 4 5 5 6 6 7 7 8 8
REMARK H PARENT
REMARK Flexibility Score: inf
ROOT
ATOM      1  C   UNL     1     -26.730   0.123  23.640  1.00  0.00     0.059 C 
ENDROOT
BRANCH   1   2
ATOM      2  C   UNL     1     -27.737   0.303  22.546  1.00  0.00     0.042 C 
ATOM      3  O   UNL     1     -28.715   1.078  22.705  1.00  0.00    -0.550 OA
ATOM      4  O   UNL     1     -27.615  -0.419  21.365  1.00  0.00    -0.550 OA
ENDBRANCH   1   2
BRANCH   1   5
ATOM      5  C   UNL     1     -26.638  -1.340  24.089  1.00  0.00     0.059 C 
BRANCH   5   6
ATOM      6  C   UNL     1     -27.957  -1.846  24.589  1.00  0.00     0.042 C 
ATOM      7  O   UNL     1     -28.530  -2.805  24.010  1.00  0.00    -0.550 OA
ATOM      8  O   UNL     1     -28.571  -1.230  25.672  1.00  0.00    -0.550 OA
ENDBRANCH   5   6
ENDBRANCH   1   5
TORSDOF 3
ENDMDL
MODEL 8
REMARK VINA RESULT:    -3.949      9.783     10.728
REMARK INTER + INTRA:          -4.731
REMARK INTER:                  -4.544
REMARK INTRA:                  -0.187
REMARK UNBOUND:                -0.089
REMARK SMILES O=C([O-])CCC(=O)[O-]
REMARK SMILES IDX 4 1 2 2 1 3 3 4 5 5 6 6 7 7 8 8
REMARK H PARENT
REMARK Flexibility Score: inf
ROOT
ATOM      1  C   UNL     1     -30.618  -2.303  23.660  1.00  0.00     0.059 C 
ENDROOT
BRANCH   1   2
ATOM      2  C   UNL     1     -29.132  -2.361  23.480  1.00  0.00     0.042 C 
ATOM      3  O   UNL     1     -28.630  -2.319  22.326  1.00  0.00    -0.550 OA
ATOM      4  O   UNL     1     -28.303  -2.504  24.585  1.00  0.00    -0.550 OA
ENDBRANCH   1   2
BRANCH   1   5
ATOM      5  C   UNL     1     -31.181  -0.935  23.259  1.00  0.00     0.059 C 
BRANCH   5   6
ATOM      6  C   UNL     1     -30.547   0.173  24.043  1.00  0.00     0.042 C 
ATOM      7  O   UNL     1     -30.704   0.239  25.291  1.00  0.00    -0.550 OA
ATOM      8  O   UNL     1     -29.816   1.156  23.389  1.00  0.00    -0.550 OA
ENDBRANCH   5   6
ENDBRANCH   1   5
TORSDOF 3
ENDMDL
MODEL 9
REMARK VINA RESULT:    -3.921      1.509      3.843
REMARK INTER + INTRA:          -4.698
REMARK INTER:                  -4.615
REMARK INTRA:                  -0.083
REMARK UNBOUND:                -0.089
REMARK SMILES O=C([O-])CCC(=O)[O-]
REMARK SMILES IDX 4 1 2 2 1 3 3 4 5 5 6 6 7 7 8 8
REMARK H PARENT
REMARK Flexibility Score: inf
ROOT
ATOM      1  C   UNL     1     -28.746   1.570  33.294  1.00  0.00     0.059 C 
ENDROOT
BRANCH   1   2
ATOM      2  C   UNL     1     -27.962   2.842  33.410  1.00  0.00     0.042 C 
ATOM      3  O   UNL     1     -26.709   2.827  33.291  1.00  0.00    -0.550 OA
ATOM      4  O   UNL     1     -28.613   4.036  33.690  1.00  0.00    -0.550 OA
ENDBRANCH   1   2
BRANCH   1   5
ATOM      5  C   UNL     1     -30.055   1.640  34.088  1.00  0.00     0.059 C 
BRANCH   5   6
ATOM      6  C   UNL     1     -31.247   1.698  33.182  1.00  0.00     0.042 C 
ATOM      7  O   UNL     1     -31.307   0.961  32.163  1.00  0.00    -0.550 OA
ATOM      8  O   UNL     1     -32.274   2.596  33.443  1.00  0.00    -0.550 OA
ENDBRANCH   5   6
ENDBRANCH   1   5
TORSDOF 3
ENDMDL
