MODEL 1
REMARK VINA RESULT:     6.472      0.000      0.000
REMARK INTER + INTRA:           7.228
REMARK INTER:                   7.228
REMARK INTRA:                   0.000
REMARK UNBOUND:                 0.000
REMARK SMILES Oc1cc(O)c2c(ccc3ccc(O)c(O)c32)c1
REMARK SMILES IDX 9 1 8 2 7 3 18 4 2 5 3 6 4 7 6 8 17 9 10 10 11 11 12 12
REMARK SMILES IDX 13 13 15 14 16 15 1 17 5 19 14 21
REMARK H PARENT 16 16 1 18 5 20 14 22
REMARK Flexibility Score: inf
ROOT
ATOM      1  C   UNL     1     122.651 131.557 125.396  1.00  0.00     0.009 A 
ATOM      2  C   UNL     1     121.939 132.307 126.323  1.00  0.00     0.009 A 
ATOM      3  C   UNL     1     122.546 133.379 126.983  1.00  0.00    -0.010 A 
ATOM      4  C   UNL     1     121.827 134.072 127.968  1.00  0.00     0.055 A 
ATOM      5  C   UNL     1     122.447 135.057 128.734  1.00  0.00     0.119 A 
ATOM      6  C   UNL     1     123.808 135.313 128.560  1.00  0.00     0.093 A 
ATOM      7  C   UNL     1     124.550 134.616 127.596  1.00  0.00     0.127 A 
ATOM      8  C   UNL     1     123.895 133.731 126.694  1.00  0.00     0.035 A 
ATOM      9  C   UNL     1     124.542 133.101 125.580  1.00  0.00     0.039 A 
ATOM     10  C   UNL     1     123.940 131.943 125.012  1.00  0.00    -0.014 A 
ATOM     11  C   UNL     1     124.611 131.206 124.029  1.00  0.00     0.013 A 
ATOM     12  C   UNL     1     125.848 131.628 123.558  1.00  0.00     0.051 A 
ATOM     13  C   UNL     1     126.394 132.837 123.987  1.00  0.00     0.158 A 
ATOM     14  C   UNL     1     125.698 133.626 124.933  1.00  0.00     0.166 A 
ENDROOT
BRANCH  14  15
ATOM     15  O   UNL     1     126.066 134.958 125.140  1.00  0.00    -0.504 OA
ATOM     16  H   UNL     1     125.441 135.741 125.009  1.00  0.00     0.293 HD
ENDBRANCH  14  15
BRANCH   5  17
ATOM     17  O   UNL     1     121.710 135.749 129.692  1.00  0.00    -0.508 OA
ATOM     18  H   UNL     1     121.353 135.288 130.521  1.00  0.00     0.293 HD
ENDBRANCH   5  17
BRANCH   7  19
ATOM     19  O   UNL     1     125.940 134.739 127.614  1.00  0.00    -0.507 OA
ATOM     20  H   UNL     1     126.402 135.625 127.448  1.00  0.00     0.293 HD
ENDBRANCH   7  19
BRANCH  13  21
ATOM     21  O   UNL     1     127.622 133.227 123.449  1.00  0.00    -0.504 OA
ATOM     22  H   UNL     1     128.456 133.362 124.004  1.00  0.00     0.293 HD
ENDBRANCH  13  21
TORSDOF 4
ENDMDL
MODEL 2
REMARK VINA RESULT:     6.989      1.980      5.669
REMARK INTER + INTRA:           7.807
REMARK INTER:                   7.807
REMARK INTRA:                   0.000
REMARK UNBOUND:                 0.000
REMARK SMILES Oc1cc(O)c2c(ccc3ccc(O)c(O)c32)c1
REMARK SMILES IDX 9 1 8 2 7 3 18 4 2 5 3 6 4 7 6 8 17 9 10 10 11 11 12 12
REMARK SMILES IDX 13 13 15 14 16 15 1 17 5 19 14 21
REMARK H PARENT 16 16 1 18 5 20 14 22
REMARK Flexibility Score: inf
ROOT
ATOM      1  C   UNL     1     126.053 134.897 127.174  1.00  0.00     0.009 A 
ATOM      2  C   UNL     1     126.332 134.141 126.043  1.00  0.00     0.009 A 
ATOM      3  C   UNL     1     125.380 133.255 125.529  1.00  0.00    -0.010 A 
ATOM      4  C   UNL     1     125.716 132.449 124.432  1.00  0.00     0.055 A 
ATOM      5  C   UNL     1     124.837 131.466 123.982  1.00  0.00     0.119 A 
ATOM      6  C   UNL     1     123.641 131.243 124.666  1.00  0.00     0.093 A 
ATOM      7  C   UNL     1     123.297 132.024 125.778  1.00  0.00     0.127 A 
ATOM      8  C   UNL     1     124.102 133.138 126.146  1.00  0.00     0.035 A 
ATOM      9  C   UNL     1     123.744 134.082 127.164  1.00  0.00     0.039 A 
ATOM     10  C   UNL     1     124.771 134.885 127.735  1.00  0.00    -0.014 A 
ATOM     11  C   UNL     1     124.498 135.706 128.836  1.00  0.00     0.013 A 
ATOM     12  C   UNL     1     123.209 135.787 129.348  1.00  0.00     0.051 A 
ATOM     13  C   UNL     1     122.155 135.129 128.717  1.00  0.00     0.158 A 
ATOM     14  C   UNL     1     122.403 134.347 127.565  1.00  0.00     0.166 A 
ENDROOT
BRANCH  14  15
ATOM     15  O   UNL     1     121.341 133.940 126.753  1.00  0.00    -0.504 OA
ATOM     16  H   UNL     1     121.166 134.308 125.828  1.00  0.00     0.293 HD
ENDBRANCH  14  15
BRANCH   5  17
ATOM     17  O   UNL     1     125.180 130.691 122.876  1.00  0.00    -0.508 OA
ATOM     18  H   UNL     1     124.698 129.824 122.667  1.00  0.00     0.293 HD
ENDBRANCH   5  17
BRANCH   7  19
ATOM     19  O   UNL     1     122.214 131.618 126.560  1.00  0.00    -0.507 OA
ATOM     20  H   UNL     1     122.214 131.719 127.568  1.00  0.00     0.293 HD
ENDBRANCH   7  19
BRANCH  13  21
ATOM     21  O   UNL     1     120.875 135.280 129.255  1.00  0.00    -0.504 OA
ATOM     22  H   UNL     1     120.029 135.033 128.761  1.00  0.00     0.293 HD
ENDBRANCH  13  21
TORSDOF 4
ENDMDL
MODEL 3
REMARK VINA RESULT:     7.108      2.238      2.737
REMARK INTER + INTRA:           7.939
REMARK INTER:                   7.939
REMARK INTRA:                   0.000
REMARK UNBOUND:                 0.000
REMARK SMILES Oc1cc(O)c2c(ccc3ccc(O)c(O)c32)c1
REMARK SMILES IDX 9 1 8 2 7 3 18 4 2 5 3 6 4 7 6 8 17 9 10 10 11 11 12 12
REMARK SMILES IDX 13 13 15 14 16 15 1 17 5 19 14 21
REMARK H PARENT 16 16 1 18 5 20 14 22
REMARK Flexibility Score: inf
ROOT
ATOM      1  C   UNL     1     123.853 131.536 123.603  1.00  0.00     0.009 A 
ATOM      2  C   UNL     1     123.085 130.944 124.596  1.00  0.00     0.009 A 
ATOM      3  C   UNL     1     123.246 131.316 125.934  1.00  0.00    -0.010 A 
ATOM      4  C   UNL     1     122.511 130.649 126.925  1.00  0.00     0.055 A 
ATOM      5  C   UNL     1     122.746 130.906 128.274  1.00  0.00     0.119 A 
ATOM      6  C   UNL     1     123.762 131.790 128.641  1.00  0.00     0.093 A 
ATOM      7  C   UNL     1     124.523 132.451 127.667  1.00  0.00     0.127 A 
ATOM      8  C   UNL     1     124.184 132.328 126.290  1.00  0.00     0.035 A 
ATOM      9  C   UNL     1     124.801 133.087 125.243  1.00  0.00     0.039 A 
ATOM     10  C   UNL     1     124.702 132.606 123.907  1.00  0.00    -0.014 A 
ATOM     11  C   UNL     1     125.417 133.227 122.876  1.00  0.00     0.013 A 
ATOM     12  C   UNL     1     126.188 134.354 123.136  1.00  0.00     0.051 A 
ATOM     13  C   UNL     1     126.185 134.936 124.403  1.00  0.00     0.158 A 
ATOM     14  C   UNL     1     125.416 134.357 125.440  1.00  0.00     0.166 A 
ENDROOT
BRANCH  14  15
ATOM     15  O   UNL     1     125.157 135.082 126.606  1.00  0.00    -0.504 OA
ATOM     16  H   UNL     1     125.093 136.090 126.640  1.00  0.00     0.293 HD
ENDBRANCH  14  15
BRANCH   5  17
ATOM     17  O   UNL     1     121.990 130.250 129.241  1.00  0.00    -0.508 OA
ATOM     18  H   UNL     1     122.057 129.247 129.375  1.00  0.00     0.293 HD
ENDBRANCH   5  17
BRANCH   7  19
ATOM     19  O   UNL     1     125.666 133.140 128.075  1.00  0.00    -0.507 OA
ATOM     20  H   UNL     1     126.559 132.676 128.190  1.00  0.00     0.293 HD
ENDBRANCH   7  19
BRANCH  13  21
ATOM     21  O   UNL     1     126.948 136.089 124.593  1.00  0.00    -0.504 OA
ATOM     22  H   UNL     1     127.146 136.754 123.859  1.00  0.00     0.293 HD
ENDBRANCH  13  21
TORSDOF 4
ENDMDL
MODEL 4
REMARK VINA RESULT:     7.393      2.625      3.754
REMARK INTER + INTRA:           8.257
REMARK INTER:                   8.257
REMARK INTRA:                   0.000
REMARK UNBOUND:                 0.000
REMARK SMILES Oc1cc(O)c2c(ccc3ccc(O)c(O)c32)c1
REMARK SMILES IDX 9 1 8 2 7 3 18 4 2 5 3 6 4 7 6 8 17 9 10 10 11 11 12 12
REMARK SMILES IDX 13 13 15 14 16 15 1 17 5 19 14 21
REMARK H PARENT 16 16 1 18 5 20 14 22
REMARK Flexibility Score: inf
ROOT
ATOM      1  C   UNL     1     124.493 134.590 128.101  1.00  0.00     0.009 A 
ATOM      2  C   UNL     1     123.920 133.608 128.898  1.00  0.00     0.009 A 
ATOM      3  C   UNL     1     123.522 132.387 128.344  1.00  0.00    -0.010 A 
ATOM      4  C   UNL     1     122.878 131.443 129.156  1.00  0.00     0.055 A 
ATOM      5  C   UNL     1     122.354 130.276 128.604  1.00  0.00     0.119 A 
ATOM      6  C   UNL     1     122.418 130.075 127.225  1.00  0.00     0.093 A 
ATOM      7  C   UNL     1     123.038 131.017 126.392  1.00  0.00     0.127 A 
ATOM      8  C   UNL     1     123.725 132.128 126.958  1.00  0.00     0.035 A 
ATOM      9  C   UNL     1     124.518 133.049 126.198  1.00  0.00     0.039 A 
ATOM     10  C   UNL     1     124.803 134.324 126.762  1.00  0.00    -0.014 A 
ATOM     11  C   UNL     1     125.439 135.311 125.999  1.00  0.00     0.013 A 
ATOM     12  C   UNL     1     125.848 135.036 124.699  1.00  0.00     0.051 A 
ATOM     13  C   UNL     1     125.717 133.752 124.172  1.00  0.00     0.158 A 
ATOM     14  C   UNL     1     125.135 132.728 124.955  1.00  0.00     0.166 A 
ENDROOT
BRANCH  14  15
ATOM     15  O   UNL     1     125.273 131.391 124.572  1.00  0.00    -0.504 OA
ATOM     16  H   UNL     1     125.826 131.086 123.783  1.00  0.00     0.293 HD
ENDBRANCH  14  15
BRANCH   5  17
ATOM     17  O   UNL     1     121.738 129.340 129.432  1.00  0.00    -0.508 OA
ATOM     18  H   UNL     1     120.728 129.275 129.498  1.00  0.00     0.293 HD
ENDBRANCH   5  17
BRANCH   7  19
ATOM     19  O   UNL     1     122.877 130.887 125.012  1.00  0.00    -0.507 OA
ATOM     20  H   UNL     1     123.334 131.511 124.358  1.00  0.00     0.293 HD
ENDBRANCH   7  19
BRANCH  13  21
ATOM     21  O   UNL     1     126.182 133.528 122.875  1.00  0.00    -0.504 OA
ATOM     22  H   UNL     1     126.524 132.634 122.552  1.00  0.00     0.293 HD
ENDBRANCH  13  21
TORSDOF 4
ENDMDL
MODEL 5
REMARK VINA RESULT:     7.640      2.733      5.140
REMARK INTER + INTRA:           8.533
REMARK INTER:                   8.533
REMARK INTRA:                   0.000
REMARK UNBOUND:                 0.000
REMARK SMILES Oc1cc(O)c2c(ccc3ccc(O)c(O)c32)c1
REMARK SMILES IDX 9 1 8 2 7 3 18 4 2 5 3 6 4 7 6 8 17 9 10 10 11 11 12 12
REMARK SMILES IDX 13 13 15 14 16 15 1 17 5 19 14 21
REMARK H PARENT 16 16 1 18 5 20 14 22
REMARK Flexibility Score: inf
ROOT
ATOM      1  C   UNL     1     124.375 134.258 128.541  1.00  0.00     0.009 A 
ATOM      2  C   UNL     1     124.855 134.998 127.468  1.00  0.00     0.009 A 
ATOM      3  C   UNL     1     124.957 134.421 126.198  1.00  0.00    -0.010 A 
ATOM      4  C   UNL     1     125.515 135.167 125.150  1.00  0.00     0.055 A 
ATOM      5  C   UNL     1     125.750 134.576 123.910  1.00  0.00     0.119 A 
ATOM      6  C   UNL     1     125.483 133.218 123.730  1.00  0.00     0.093 A 
ATOM      7  C   UNL     1     124.945 132.450 124.772  1.00  0.00     0.127 A 
ATOM      8  C   UNL     1     124.543 133.074 125.986  1.00  0.00     0.035 A 
ATOM      9  C   UNL     1     123.841 132.400 127.038  1.00  0.00     0.039 A 
ATOM     10  C   UNL     1     123.861 132.972 128.341  1.00  0.00    -0.014 A 
ATOM     11  C   UNL     1     123.324 132.273 129.429  1.00  0.00     0.013 A 
ATOM     12  C   UNL     1     122.717 131.038 129.239  1.00  0.00     0.051 A 
ATOM     13  C   UNL     1     122.550 130.522 127.955  1.00  0.00     0.158 A 
ATOM     14  C   UNL     1     123.030 131.246 126.838  1.00  0.00     0.166 A 
ENDROOT
BRANCH  14  15
ATOM     15  O   UNL     1     122.608 130.907 125.550  1.00  0.00    -0.504 OA
ATOM     16  H   UNL     1     121.639 130.796 125.286  1.00  0.00     0.293 HD
ENDBRANCH  14  15
BRANCH   5  17
ATOM     17  O   UNL     1     126.284 135.340 122.875  1.00  0.00    -0.508 OA
ATOM     18  H   UNL     1     126.418 134.955 121.947  1.00  0.00     0.293 HD
ENDBRANCH   5  17
BRANCH   7  19
ATOM     19  O   UNL     1     124.910 131.063 124.621  1.00  0.00    -0.507 OA
ATOM     20  H   UNL     1     125.330 130.439 125.300  1.00  0.00     0.293 HD
ENDBRANCH   7  19
BRANCH  13  21
ATOM     21  O   UNL     1     121.898 129.294 127.824  1.00  0.00    -0.504 OA
ATOM     22  H   UNL     1     122.345 128.459 127.472  1.00  0.00     0.293 HD
ENDBRANCH  13  21
TORSDOF 4
ENDMDL
MODEL 6
REMARK VINA RESULT:     7.747      2.353      4.419
REMARK INTER + INTRA:           8.653
REMARK INTER:                   8.653
REMARK INTRA:                   0.000
REMARK UNBOUND:                 0.000
REMARK SMILES Oc1cc(O)c2c(ccc3ccc(O)c(O)c32)c1
REMARK SMILES IDX 9 1 8 2 7 3 18 4 2 5 3 6 4 7 6 8 17 9 10 10 11 11 12 12
REMARK SMILES IDX 13 13 15 14 16 15 1 17 5 19 14 21
REMARK H PARENT 16 16 1 18 5 20 14 22
REMARK Flexibility Score: inf
ROOT
ATOM      1  C   UNL     1     123.511 131.978 123.564  1.00  0.00     0.009 A 
ATOM      2  C   UNL     1     124.321 132.888 122.897  1.00  0.00     0.009 A 
ATOM      3  C   UNL     1     125.071 133.826 123.612  1.00  0.00    -0.010 A 
ATOM      4  C   UNL     1     125.822 134.781 122.910  1.00  0.00     0.055 A 
ATOM      5  C   UNL     1     126.473 135.808 123.592  1.00  0.00     0.119 A 
ATOM      6  C   UNL     1     126.326 135.920 124.975  1.00  0.00     0.093 A 
ATOM      7  C   UNL     1     125.562 134.989 125.692  1.00  0.00     0.127 A 
ATOM      8  C   UNL     1     125.033 133.842 125.036  1.00  0.00     0.035 A 
ATOM      9  C   UNL     1     124.379 132.762 125.714  1.00  0.00     0.039 A 
ATOM     10  C   UNL     1     123.535 131.899 124.960  1.00  0.00    -0.014 A 
ATOM     11  C   UNL     1     122.757 130.929 125.605  1.00  0.00     0.013 A 
ATOM     12  C   UNL     1     122.841 130.764 126.982  1.00  0.00     0.051 A 
ATOM     13  C   UNL     1     123.767 131.492 127.727  1.00  0.00     0.158 A 
ATOM     14  C   UNL     1     124.607 132.430 127.081  1.00  0.00     0.166 A 
ENDROOT
BRANCH  14  15
ATOM     15  O   UNL     1     125.730 132.935 127.741  1.00  0.00    -0.504 OA
ATOM     16  H   UNL     1     126.644 133.013 127.318  1.00  0.00     0.293 HD
ENDBRANCH  14  15
BRANCH   5  17
ATOM     17  O   UNL     1     127.232 136.733 122.879  1.00  0.00    -0.508 OA
ATOM     18  H   UNL     1     128.219 136.585 122.705  1.00  0.00     0.293 HD
ENDBRANCH   5  17
BRANCH   7  19
ATOM     19  O   UNL     1     125.257 135.270 127.025  1.00  0.00    -0.507 OA
ATOM     20  H   UNL     1     124.584 135.981 127.282  1.00  0.00     0.293 HD
ENDBRANCH   7  19
BRANCH  13  21
ATOM     21  O   UNL     1     123.832 131.254 129.101  1.00  0.00    -0.504 OA
ATOM     22  H   UNL     1     123.942 131.986 129.789  1.00  0.00     0.293 HD
ENDBRANCH  13  21
TORSDOF 4
ENDMDL
MODEL 7
REMARK VINA RESULT:     8.438      2.058      3.030
REMARK INTER + INTRA:           9.425
REMARK INTER:                   9.425
REMARK INTRA:                   0.000
REMARK UNBOUND:                 0.000
REMARK SMILES Oc1cc(O)c2c(ccc3ccc(O)c(O)c32)c1
REMARK SMILES IDX 9 1 8 2 7 3 18 4 2 5 3 6 4 7 6 8 17 9 10 10 11 11 12 12
REMARK SMILES IDX 13 13 15 14 16 15 1 17 5 19 14 21
REMARK H PARENT 16 16 1 18 5 20 14 22
REMARK Flexibility Score: inf
ROOT
ATOM      1  C   UNL     1     126.231 135.032 125.412  1.00  0.00     0.009 A 
ATOM      2  C   UNL     1     125.795 135.353 126.691  1.00  0.00     0.009 A 
ATOM      3  C   UNL     1     124.762 134.628 127.292  1.00  0.00    -0.010 A 
ATOM      4  C   UNL     1     124.292 135.022 128.553  1.00  0.00     0.055 A 
ATOM      5  C   UNL     1     123.179 134.402 129.118  1.00  0.00     0.119 A 
ATOM      6  C   UNL     1     122.493 133.424 128.396  1.00  0.00     0.093 A 
ATOM      7  C   UNL     1     122.934 133.031 127.125  1.00  0.00     0.127 A 
ATOM      8  C   UNL     1     124.162 133.532 126.608  1.00  0.00     0.035 A 
ATOM      9  C   UNL     1     124.768 133.068 125.395  1.00  0.00     0.039 A 
ATOM     10  C   UNL     1     125.736 133.896 124.761  1.00  0.00    -0.014 A 
ATOM     11  C   UNL     1     126.239 133.558 123.498  1.00  0.00     0.013 A 
ATOM     12  C   UNL     1     125.839 132.382 122.876  1.00  0.00     0.051 A 
ATOM     13  C   UNL     1     125.008 131.479 123.537  1.00  0.00     0.158 A 
ATOM     14  C   UNL     1     124.542 131.776 124.839  1.00  0.00     0.166 A 
ENDROOT
BRANCH  14  15
ATOM     15  O   UNL     1     123.975 130.770 125.626  1.00  0.00    -0.504 OA
ATOM     16  H   UNL     1     124.137 130.673 126.619  1.00  0.00     0.293 HD
ENDBRANCH  14  15
BRANCH   5  17
ATOM     17  O   UNL     1     122.742 134.793 130.381  1.00  0.00    -0.508 OA
ATOM     18  H   UNL     1     121.995 135.468 130.497  1.00  0.00     0.293 HD
ENDBRANCH   5  17
BRANCH   7  19
ATOM     19  O   UNL     1     122.094 132.226 126.354  1.00  0.00    -0.507 OA
ATOM     20  H   UNL     1     121.194 132.552 126.024  1.00  0.00     0.293 HD
ENDBRANCH   7  19
BRANCH  13  21
ATOM     21  O   UNL     1     124.671 130.297 122.875  1.00  0.00    -0.504 OA
ATOM     22  H   UNL     1     123.767 130.130 122.455  1.00  0.00     0.293 HD
ENDBRANCH  13  21
TORSDOF 4
ENDMDL
