MODEL 1
REMARK VINA RESULT:    -4.238      0.000      0.000
REMARK INTER + INTRA:          -7.287
REMARK INTER:                  -5.849
REMARK INTRA:                  -1.438
REMARK UNBOUND:                -1.438
REMARK SMILES O=C([O-])[C@@H]1O[C@@H](Oc2cc3oc(-c4ccccc4)cc(=O)c3c(O)c2O)[C@@H](O)[C@H](O)[C@@H]1O
REMARK SMILES IDX 7 1 6 2 4 3 31 4 5 5 29 6 27 7 2 8 1 9 3 10 32 11 30 13
REMARK SMILES IDX 28 15 8 17 25 18 9 19 23 20 10 21 22 22 11 23 20 24 12 25
REMARK SMILES IDX 19 26 21 27 26 28 24 30 13 32 14 33 18 34 15 35 17 36 16 37
REMARK H PARENT 32 12 30 14 28 16 26 29 24 31
REMARK Flexibility Score: inf
ROOT
ATOM      1  O   UNL     1      19.900  33.708  41.589  1.00  0.00    -0.458 OA
ENDROOT
BRANCH   1   2
ATOM      2  C   UNL     1      21.082  34.352  42.078  1.00  0.00     0.339 C 
ATOM      3  C   UNL     1      22.477  33.223  40.561  1.00  0.00     0.199 C 
ATOM      4  C   UNL     1      23.196  32.415  41.661  1.00  0.00     0.180 C 
ATOM      5  O   UNL     1      22.056  34.488  41.051  1.00  0.00    -0.328 OA
ATOM      6  C   UNL     1      22.234  32.227  42.850  1.00  0.00     0.181 C 
ATOM      7  C   UNL     1      21.659  33.591  43.292  1.00  0.00     0.214 C 
BRANCH   3   8
ATOM      8  C   UNL     1      23.392  33.434  39.389  1.00  0.00     0.073 C 
ATOM      9  O   UNL     1      23.005  34.109  38.399  1.00  0.00    -0.547 OA
ATOM     10  O   UNL     1      24.650  32.843  39.367  1.00  0.00    -0.547 OA
ENDBRANCH   3   8
BRANCH   4  11
ATOM     11  O   UNL     1      24.357  33.099  42.069  1.00  0.00    -0.387 OA
ATOM     12  H   UNL     1      24.571  32.788  42.987  1.00  0.00     0.211 HD
ENDBRANCH   4  11
BRANCH   6  13
ATOM     13  O   UNL     1      22.862  31.559  43.918  1.00  0.00    -0.387 OA
ATOM     14  H   UNL     1      22.542  31.963  44.765  1.00  0.00     0.211 HD
ENDBRANCH   6  13
BRANCH   7  15
ATOM     15  O   UNL     1      20.694  33.440  44.303  1.00  0.00    -0.384 OA
ATOM     16  H   UNL     1      20.189  32.606  44.122  1.00  0.00     0.211 HD
ENDBRANCH   7  15
ENDBRANCH   1   2
BRANCH   1  17
ATOM     17  C   UNL     1      18.776  34.364  41.063  1.00  0.00     0.172 A 
ATOM     18  C   UNL     1      18.780  34.722  39.703  1.00  0.00     0.201 A 
ATOM     19  C   UNL     1      17.656  34.672  41.855  1.00  0.00     0.098 A 
ATOM     20  C   UNL     1      17.675  35.387  39.137  1.00  0.00     0.176 A 
ATOM     21  C   UNL     1      16.555  35.331  41.304  1.00  0.00     0.146 A 
ATOM     22  C   UNL     1      16.553  35.698  39.940  1.00  0.00     0.111 A 
ATOM     23  O   UNL     1      15.513  35.609  42.082  1.00  0.00    -0.456 OA
ATOM     24  C   UNL     1      15.413  36.367  39.447  1.00  0.00     0.197 A 
ATOM     25  C   UNL     1      14.420  36.229  41.647  1.00  0.00     0.138 A 
ATOM     26  C   UNL     1      14.346  36.635  40.304  1.00  0.00     0.100 A 
ATOM     27  O   UNL     1      15.335  36.737  38.244  1.00  0.00    -0.289 OA
BRANCH  18  28
ATOM     28  O   UNL     1      19.882  34.425  38.900  1.00  0.00    -0.502 OA
ATOM     29  H   UNL     1      19.789  34.139  37.933  1.00  0.00     0.293 HD
ENDBRANCH  18  28
BRANCH  20  30
ATOM     30  O   UNL     1      17.693  35.738  37.785  1.00  0.00    -0.504 OA
ATOM     31  H   UNL     1      17.668  35.049  37.043  1.00  0.00     0.293 HD
ENDBRANCH  20  30
BRANCH  25  32
ATOM     32  C   UNL     1      13.317  36.489  42.607  1.00  0.00     0.017 A 
ATOM     33  C   UNL     1      12.352  37.469  42.305  1.00  0.00     0.012 A 
ATOM     34  C   UNL     1      13.225  35.802  43.834  1.00  0.00     0.012 A 
ATOM     35  C   UNL     1      11.310  37.737  43.196  1.00  0.00     0.001 A 
ATOM     36  C   UNL     1      12.181  36.077  44.723  1.00  0.00     0.001 A 
ATOM     37  C   UNL     1      11.223  37.041  44.403  1.00  0.00     0.000 A 
ENDBRANCH  25  32
ENDBRANCH   1  17
TORSDOF 9
ENDMDL
MODEL 2
REMARK VINA RESULT:    -4.202      2.387      4.684
REMARK INTER + INTRA:          -7.236
REMARK INTER:                  -6.128
REMARK INTRA:                  -1.108
REMARK UNBOUND:                -1.438
REMARK SMILES O=C([O-])[C@@H]1O[C@@H](Oc2cc3oc(-c4ccccc4)cc(=O)c3c(O)c2O)[C@@H](O)[C@H](O)[C@@H]1O
REMARK SMILES IDX 7 1 6 2 4 3 31 4 5 5 29 6 27 7 2 8 1 9 3 10 32 11 30 13
REMARK SMILES IDX 28 15 8 17 25 18 9 19 23 20 10 21 22 22 11 23 20 24 12 25
REMARK SMILES IDX 19 26 21 27 26 28 24 30 13 32 14 33 18 34 15 35 17 36 16 37
REMARK H PARENT 32 12 30 14 28 16 26 29 24 31
REMARK Flexibility Score: inf
ROOT
ATOM      1  O   UNL     1      23.150  33.591  41.547  1.00  0.00    -0.458 OA
ENDROOT
BRANCH   1   2
ATOM      2  C   UNL     1      22.915  32.670  42.618  1.00  0.00     0.339 C 
ATOM      3  C   UNL     1      22.484  34.384  44.167  1.00  0.00     0.199 C 
ATOM      4  C   UNL     1      23.748  34.092  45.002  1.00  0.00     0.180 C 
ATOM      5  O   UNL     1      21.989  33.199  43.559  1.00  0.00    -0.328 OA
ATOM      6  C   UNL     1      24.823  33.483  44.081  1.00  0.00     0.181 C 
ATOM      7  C   UNL     1      24.242  32.279  43.306  1.00  0.00     0.214 C 
BRANCH   3   8
ATOM      8  C   UNL     1      21.410  34.970  45.037  1.00  0.00     0.073 C 
ATOM      9  O   UNL     1      20.684  34.216  45.738  1.00  0.00    -0.547 OA
ATOM     10  O   UNL     1      21.176  36.339  45.037  1.00  0.00    -0.547 OA
ENDBRANCH   3   8
BRANCH   4  11
ATOM     11  O   UNL     1      23.431  33.202  46.046  1.00  0.00    -0.387 OA
ATOM     12  H   UNL     1      23.023  33.741  46.773  1.00  0.00     0.211 HD
ENDBRANCH   4  11
BRANCH   6  13
ATOM     13  O   UNL     1      25.976  33.125  44.804  1.00  0.00    -0.387 OA
ATOM     14  H   UNL     1      26.346  33.946  45.221  1.00  0.00     0.211 HD
ENDBRANCH   6  13
BRANCH   7  15
ATOM     15  O   UNL     1      25.166  31.770  42.377  1.00  0.00    -0.384 OA
ATOM     16  H   UNL     1      25.501  32.528  41.832  1.00  0.00     0.211 HD
ENDBRANCH   7  15
ENDBRANCH   1   2
BRANCH   1  17
ATOM     17  C   UNL     1      22.263  33.849  40.489  1.00  0.00     0.172 A 
ATOM     18  C   UNL     1      22.672  33.543  39.179  1.00  0.00     0.201 A 
ATOM     19  C   UNL     1      20.990  34.403  40.704  1.00  0.00     0.098 A 
ATOM     20  C   UNL     1      21.816  33.791  38.088  1.00  0.00     0.176 A 
ATOM     21  C   UNL     1      20.133  34.653  39.630  1.00  0.00     0.146 A 
ATOM     22  C   UNL     1      20.537  34.352  38.310  1.00  0.00     0.111 A 
ATOM     23  O   UNL     1      18.936  35.179  39.869  1.00  0.00    -0.456 OA
ATOM     24  C   UNL     1      19.627  34.635  37.270  1.00  0.00     0.197 A 
ATOM     25  C   UNL     1      18.051  35.449  38.912  1.00  0.00     0.138 A 
ATOM     26  C   UNL     1      18.383  35.188  37.573  1.00  0.00     0.100 A 
ATOM     27  O   UNL     1      19.914  34.405  36.064  1.00  0.00    -0.289 OA
BRANCH  18  28
ATOM     28  O   UNL     1      23.933  32.992  38.945  1.00  0.00    -0.502 OA
ATOM     29  H   UNL     1      24.583  32.783  39.694  1.00  0.00     0.293 HD
ENDBRANCH  18  28
BRANCH  20  30
ATOM     30  O   UNL     1      22.235  33.483  36.792  1.00  0.00    -0.504 OA
ATOM     31  H   UNL     1      21.958  34.028  35.985  1.00  0.00     0.293 HD
ENDBRANCH  20  30
BRANCH  25  32
ATOM     32  C   UNL     1      16.743  36.039  39.296  1.00  0.00     0.017 A 
ATOM     33  C   UNL     1      16.258  37.161  38.598  1.00  0.00     0.012 A 
ATOM     34  C   UNL     1      15.983  35.524  40.366  1.00  0.00     0.012 A 
ATOM     35  C   UNL     1      15.034  37.739  38.947  1.00  0.00     0.001 A 
ATOM     36  C   UNL     1      14.760  36.108  40.711  1.00  0.00     0.001 A 
ATOM     37  C   UNL     1      14.285  37.212  40.000  1.00  0.00     0.000 A 
ENDBRANCH  25  32
ENDBRANCH   1  17
TORSDOF 9
ENDMDL
MODEL 3
REMARK VINA RESULT:    -4.140      1.845      3.169
REMARK INTER + INTRA:          -7.150
REMARK INTER:                  -6.099
REMARK INTRA:                  -1.051
REMARK UNBOUND:                -1.438
REMARK SMILES O=C([O-])[C@@H]1O[C@@H](Oc2cc3oc(-c4ccccc4)cc(=O)c3c(O)c2O)[C@@H](O)[C@H](O)[C@@H]1O
REMARK SMILES IDX 7 1 6 2 4 3 31 4 5 5 29 6 27 7 2 8 1 9 3 10 32 11 30 13
REMARK SMILES IDX 28 15 8 17 25 18 9 19 23 20 10 21 22 22 11 23 20 24 12 25
REMARK SMILES IDX 19 26 21 27 26 28 24 30 13 32 14 33 18 34 15 35 17 36 16 37
REMARK H PARENT 32 12 30 14 28 16 26 29 24 31
REMARK Flexibility Score: inf
ROOT
ATOM      1  O   UNL     1      19.634  33.916  42.176  1.00  0.00    -0.458 OA
ENDROOT
BRANCH   1   2
ATOM      2  C   UNL     1      19.530  33.556  43.559  1.00  0.00     0.339 C 
ATOM      3  C   UNL     1      20.799  35.403  44.266  1.00  0.00     0.199 C 
ATOM      4  C   UNL     1      21.979  34.537  44.757  1.00  0.00     0.180 C 
ATOM      5  O   UNL     1      19.568  34.706  44.395  1.00  0.00    -0.328 OA
ATOM      6  C   UNL     1      22.020  33.237  43.932  1.00  0.00     0.181 C 
ATOM      7  C   UNL     1      20.636  32.550  43.949  1.00  0.00     0.214 C 
BRANCH   3   8
ATOM      8  C   UNL     1      20.724  36.675  45.059  1.00  0.00     0.073 C 
ATOM      9  O   UNL     1      21.683  37.014  45.802  1.00  0.00    -0.547 OA
ATOM     10  O   UNL     1      19.578  37.460  45.019  1.00  0.00    -0.547 OA
ENDBRANCH   3   8
BRANCH   4  11
ATOM     11  O   UNL     1      21.817  34.248  46.125  1.00  0.00    -0.387 OA
ATOM     12  H   UNL     1      20.970  33.739  46.217  1.00  0.00     0.211 HD
ENDBRANCH   4  11
BRANCH   6  13
ATOM     13  O   UNL     1      23.033  32.372  44.385  1.00  0.00    -0.387 OA
ATOM     14  H   UNL     1      22.716  31.935  45.217  1.00  0.00     0.211 HD
ENDBRANCH   6  13
BRANCH   7  15
ATOM     15  O   UNL     1      20.612  31.419  43.114  1.00  0.00    -0.384 OA
ATOM     16  H   UNL     1      21.118  30.695  43.566  1.00  0.00     0.211 HD
ENDBRANCH   7  15
ENDBRANCH   1   2
BRANCH   1  17
ATOM     17  C   UNL     1      18.617  34.512  41.414  1.00  0.00     0.172 A 
ATOM     18  C   UNL     1      18.834  34.707  40.038  1.00  0.00     0.201 A 
ATOM     19  C   UNL     1      17.399  34.918  41.986  1.00  0.00     0.098 A 
ATOM     20  C   UNL     1      17.841  35.307  39.238  1.00  0.00     0.176 A 
ATOM     21  C   UNL     1      16.409  35.514  41.202  1.00  0.00     0.146 A 
ATOM     22  C   UNL     1      16.620  35.717  39.820  1.00  0.00     0.111 A 
ATOM     23  O   UNL     1      15.270  35.888  41.775  1.00  0.00    -0.456 OA
ATOM     24  C   UNL     1      15.583  36.330  39.086  1.00  0.00     0.197 A 
ATOM     25  C   UNL     1      14.269  36.459  41.111  1.00  0.00     0.138 A 
ATOM     26  C   UNL     1      14.406  36.704  39.735  1.00  0.00     0.100 A 
ATOM     27  O   UNL     1      15.695  36.555  37.851  1.00  0.00    -0.289 OA
BRANCH  18  28
ATOM     28  O   UNL     1      20.036  34.311  39.452  1.00  0.00    -0.502 OA
ATOM     29  H   UNL     1      20.454  34.811  38.676  1.00  0.00     0.293 HD
ENDBRANCH  18  28
BRANCH  20  30
ATOM     30  O   UNL     1      18.071  35.495  37.873  1.00  0.00    -0.504 OA
ATOM     31  H   UNL     1      17.557  36.173  37.323  1.00  0.00     0.293 HD
ENDBRANCH  20  30
BRANCH  25  32
ATOM     32  C   UNL     1      13.041  36.837  41.856  1.00  0.00     0.017 A 
ATOM     33  C   UNL     1      12.955  36.561  43.234  1.00  0.00     0.012 A 
ATOM     34  C   UNL     1      11.939  37.437  41.214  1.00  0.00     0.012 A 
ATOM     35  C   UNL     1      11.806  36.899  43.955  1.00  0.00     0.001 A 
ATOM     36  C   UNL     1      10.792  37.771  41.941  1.00  0.00     0.001 A 
ATOM     37  C   UNL     1      10.726  37.505  43.310  1.00  0.00     0.000 A 
ENDBRANCH  25  32
ENDBRANCH   1  17
TORSDOF 9
ENDMDL
MODEL 4
REMARK VINA RESULT:    -4.097      1.768      3.419
REMARK INTER + INTRA:          -7.092
REMARK INTER:                  -5.945
REMARK INTRA:                  -1.147
REMARK UNBOUND:                -1.438
REMARK SMILES O=C([O-])[C@@H]1O[C@@H](Oc2cc3oc(-c4ccccc4)cc(=O)c3c(O)c2O)[C@@H](O)[C@H](O)[C@@H]1O
REMARK SMILES IDX 7 1 6 2 4 3 31 4 5 5 29 6 27 7 2 8 1 9 3 10 32 11 30 13
REMARK SMILES IDX 28 15 8 17 25 18 9 19 23 20 10 21 22 22 11 23 20 24 12 25
REMARK SMILES IDX 19 26 21 27 26 28 24 30 13 32 14 33 18 34 15 35 17 36 16 37
REMARK H PARENT 32 12 30 14 28 16 26 29 24 31
REMARK Flexibility Score: inf
ROOT
ATOM      1  O   UNL     1      21.812  33.864  40.236  1.00  0.00    -0.458 OA
ENDROOT
BRANCH   1   2
ATOM      2  C   UNL     1      21.800  32.802  41.197  1.00  0.00     0.339 C 
ATOM      3  C   UNL     1      22.148  34.263  43.005  1.00  0.00     0.199 C 
ATOM      4  C   UNL     1      23.555  33.712  43.316  1.00  0.00     0.180 C 
ATOM      5  O   UNL     1      21.314  33.251  42.456  1.00  0.00    -0.328 OA
ATOM      6  C   UNL     1      24.175  33.165  42.015  1.00  0.00     0.181 C 
ATOM      7  C   UNL     1      23.204  32.173  41.337  1.00  0.00     0.214 C 
BRANCH   3   8
ATOM      8  C   UNL     1      21.510  34.794  44.256  1.00  0.00     0.073 C 
ATOM      9  O   UNL     1      20.266  34.983  44.299  1.00  0.00    -0.547 OA
ATOM     10  O   UNL     1      22.293  35.130  45.354  1.00  0.00    -0.547 OA
ENDBRANCH   3   8
BRANCH   4  11
ATOM     11  O   UNL     1      23.462  32.693  44.283  1.00  0.00    -0.387 OA
ATOM     12  H   UNL     1      23.374  33.138  45.166  1.00  0.00     0.211 HD
ENDBRANCH   4  11
BRANCH   6  13
ATOM     13  O   UNL     1      25.433  32.580  42.251  1.00  0.00    -0.387 OA
ATOM     14  H   UNL     1      25.653  31.999  41.478  1.00  0.00     0.211 HD
ENDBRANCH   6  13
BRANCH   7  15
ATOM     15  O   UNL     1      23.695  31.741  40.092  1.00  0.00    -0.384 OA
ATOM     16  H   UNL     1      24.660  31.542  40.197  1.00  0.00     0.211 HD
ENDBRANCH   7  15
ENDBRANCH   1   2
BRANCH   1  17
ATOM     17  C   UNL     1      20.706  34.291  39.484  1.00  0.00     0.172 A 
ATOM     18  C   UNL     1      20.786  34.239  38.081  1.00  0.00     0.201 A 
ATOM     19  C   UNL     1      19.532  34.767  40.092  1.00  0.00     0.098 A 
ATOM     20  C   UNL     1      19.701  34.664  37.289  1.00  0.00     0.176 A 
ATOM     21  C   UNL     1      18.451  35.191  39.317  1.00  0.00     0.146 A 
ATOM     22  C   UNL     1      18.523  35.145  37.907  1.00  0.00     0.111 A 
ATOM     23  O   UNL     1      17.356  35.637  39.925  1.00  0.00    -0.456 OA
ATOM     24  C   UNL     1      17.400  35.593  37.182  1.00  0.00     0.197 A 
ATOM     25  C   UNL     1      16.276  36.057  39.271  1.00  0.00     0.138 A 
ATOM     26  C   UNL     1      16.275  36.053  37.867  1.00  0.00     0.100 A 
ATOM     27  O   UNL     1      17.387  35.595  35.921  1.00  0.00    -0.289 OA
BRANCH  18  28
ATOM     28  O   UNL     1      21.943  33.769  37.459  1.00  0.00    -0.502 OA
ATOM     29  H   UNL     1      22.075  32.792  37.223  1.00  0.00     0.293 HD
ENDBRANCH  18  28
BRANCH  20  30
ATOM     30  O   UNL     1      19.794  34.607  35.896  1.00  0.00    -0.504 OA
ATOM     31  H   UNL     1      20.527  35.078  35.380  1.00  0.00     0.293 HD
ENDBRANCH  20  30
BRANCH  25  32
ATOM     32  C   UNL     1      15.109  36.537  40.055  1.00  0.00     0.017 A 
ATOM     33  C   UNL     1      14.377  37.648  39.597  1.00  0.00     0.012 A 
ATOM     34  C   UNL     1      14.731  35.928  41.269  1.00  0.00     0.012 A 
ATOM     35  C   UNL     1      13.281  38.123  40.322  1.00  0.00     0.001 A 
ATOM     36  C   UNL     1      13.634  36.410  41.991  1.00  0.00     0.001 A 
ATOM     37  C   UNL     1      12.908  37.504  41.516  1.00  0.00     0.000 A 
ENDBRANCH  25  32
ENDBRANCH   1  17
TORSDOF 9
ENDMDL
MODEL 5
REMARK VINA RESULT:    -3.955      2.369      3.991
REMARK INTER + INTRA:          -6.896
REMARK INTER:                  -5.530
REMARK INTRA:                  -1.365
REMARK UNBOUND:                -1.438
REMARK SMILES O=C([O-])[C@@H]1O[C@@H](Oc2cc3oc(-c4ccccc4)cc(=O)c3c(O)c2O)[C@@H](O)[C@H](O)[C@@H]1O
REMARK SMILES IDX 7 1 6 2 4 3 31 4 5 5 29 6 27 7 2 8 1 9 3 10 32 11 30 13
REMARK SMILES IDX 28 15 8 17 25 18 9 19 23 20 10 21 22 22 11 23 20 24 12 25
REMARK SMILES IDX 19 26 21 27 26 28 24 30 13 32 14 33 18 34 15 35 17 36 16 37
REMARK H PARENT 32 12 30 14 28 16 26 29 24 31
REMARK Flexibility Score: inf
ROOT
ATOM      1  O   UNL     1      22.332  32.996  42.077  1.00  0.00    -0.458 OA
ENDROOT
BRANCH   1   2
ATOM      2  C   UNL     1      23.307  33.776  42.779  1.00  0.00     0.339 C 
ATOM      3  C   UNL     1      24.944  32.096  42.630  1.00  0.00     0.199 C 
ATOM      4  C   UNL     1      24.955  31.825  44.149  1.00  0.00     0.180 C 
ATOM      5  O   UNL     1      24.626  33.454  42.356  1.00  0.00    -0.328 OA
ATOM      6  C   UNL     1      23.569  32.170  44.727  1.00  0.00     0.181 C 
ATOM      7  C   UNL     1      23.156  33.598  44.306  1.00  0.00     0.214 C 
BRANCH   3   8
ATOM      8  C   UNL     1      26.286  31.780  42.036  1.00  0.00     0.073 C 
ATOM      9  O   UNL     1      27.036  30.932  42.586  1.00  0.00    -0.547 OA
ATOM     10  O   UNL     1      26.730  32.458  40.907  1.00  0.00    -0.547 OA
ENDBRANCH   3   8
BRANCH   4  11
ATOM     11  O   UNL     1      25.953  32.607  44.761  1.00  0.00    -0.387 OA
ATOM     12  H   UNL     1      26.286  32.093  45.543  1.00  0.00     0.211 HD
ENDBRANCH   4  11
BRANCH   6  13
ATOM     13  O   UNL     1      23.542  32.013  46.125  1.00  0.00    -0.387 OA
ATOM     14  H   UNL     1      22.836  32.607  46.488  1.00  0.00     0.211 HD
ENDBRANCH   6  13
BRANCH   7  15
ATOM     15  O   UNL     1      21.848  33.900  44.727  1.00  0.00    -0.384 OA
ATOM     16  H   UNL     1      21.219  33.550  44.044  1.00  0.00     0.211 HD
ENDBRANCH   7  15
ENDBRANCH   1   2
BRANCH   1  17
ATOM     17  C   UNL     1      21.606  33.424  40.955  1.00  0.00     0.172 A 
ATOM     18  C   UNL     1      22.148  33.201  39.676  1.00  0.00     0.201 A 
ATOM     19  C   UNL     1      20.361  34.067  41.075  1.00  0.00     0.098 A 
ATOM     20  C   UNL     1      21.454  33.620  38.524  1.00  0.00     0.176 A 
ATOM     21  C   UNL     1      19.665  34.486  39.940  1.00  0.00     0.146 A 
ATOM     22  C   UNL     1      20.204  34.269  38.652  1.00  0.00     0.111 A 
ATOM     23  O   UNL     1      18.492  35.093  40.089  1.00  0.00    -0.456 OA
ATOM     24  C   UNL     1      19.454  34.722  37.547  1.00  0.00     0.197 A 
ATOM     25  C   UNL     1      17.756  35.524  39.069  1.00  0.00     0.138 A 
ATOM     26  C   UNL     1      18.228  35.354  37.757  1.00  0.00     0.100 A 
ATOM     27  O   UNL     1      19.869  34.577  36.365  1.00  0.00    -0.289 OA
BRANCH  18  28
ATOM     28  O   UNL     1      23.381  32.564  39.536  1.00  0.00    -0.502 OA
ATOM     29  H   UNL     1      23.611  31.709  40.030  1.00  0.00     0.293 HD
ENDBRANCH  18  28
BRANCH  20  30
ATOM     30  O   UNL     1      22.005  33.392  37.261  1.00  0.00    -0.504 OA
ATOM     31  H   UNL     1      21.493  32.931  36.519  1.00  0.00     0.293 HD
ENDBRANCH  20  30
BRANCH  25  32
ATOM     32  C   UNL     1      16.459  36.190  39.355  1.00  0.00     0.017 A 
ATOM     33  C   UNL     1      16.082  37.322  38.608  1.00  0.00     0.012 A 
ATOM     34  C   UNL     1      15.605  35.739  40.381  1.00  0.00     0.012 A 
ATOM     35  C   UNL     1      14.872  37.971  38.865  1.00  0.00     0.001 A 
ATOM     36  C   UNL     1      14.395  36.394  40.635  1.00  0.00     0.001 A 
ATOM     37  C   UNL     1      14.028  37.507  39.876  1.00  0.00     0.000 A 
ENDBRANCH  25  32
ENDBRANCH   1  17
TORSDOF 9
ENDMDL
MODEL 6
REMARK VINA RESULT:    -3.949      1.421      2.025
REMARK INTER + INTRA:          -6.888
REMARK INTER:                  -5.461
REMARK INTRA:                  -1.426
REMARK UNBOUND:                -1.438
REMARK SMILES O=C([O-])[C@@H]1O[C@@H](Oc2cc3oc(-c4ccccc4)cc(=O)c3c(O)c2O)[C@@H](O)[C@H](O)[C@@H]1O
REMARK SMILES IDX 7 1 6 2 4 3 31 4 5 5 29 6 27 7 2 8 1 9 3 10 32 11 30 13
REMARK SMILES IDX 28 15 8 17 25 18 9 19 23 20 10 21 22 22 11 23 20 24 12 25
REMARK SMILES IDX 19 26 21 27 26 28 24 30 13 32 14 33 18 34 15 35 17 36 16 37
REMARK H PARENT 32 12 30 14 28 16 26 29 24 31
REMARK Flexibility Score: inf
ROOT
ATOM      1  O   UNL     1      20.711  33.436  42.442  1.00  0.00    -0.458 OA
ENDROOT
BRANCH   1   2
ATOM      2  C   UNL     1      21.759  34.136  43.123  1.00  0.00     0.339 C 
ATOM      3  C   UNL     1      23.412  32.637  42.388  1.00  0.00     0.199 C 
ATOM      4  C   UNL     1      23.689  32.084  43.802  1.00  0.00     0.180 C 
ATOM      5  O   UNL     1      22.999  33.995  42.443  1.00  0.00    -0.328 OA
ATOM      6  C   UNL     1      22.407  32.213  44.647  1.00  0.00     0.181 C 
ATOM      7  C   UNL     1      21.873  33.662  44.588  1.00  0.00     0.214 C 
BRANCH   3   8
ATOM      8  C   UNL     1      24.647  32.536  41.540  1.00  0.00     0.073 C 
ATOM      9  O   UNL     1      24.624  32.925  40.342  1.00  0.00    -0.547 OA
ATOM     10  O   UNL     1      25.806  31.967  42.054  1.00  0.00    -0.547 OA
ENDBRANCH   3   8
BRANCH   4  11
ATOM     11  O   UNL     1      24.744  32.805  44.393  1.00  0.00    -0.387 OA
ATOM     12  H   UNL     1      25.590  32.380  44.095  1.00  0.00     0.211 HD
ENDBRANCH   4  11
BRANCH   6  13
ATOM     13  O   UNL     1      22.621  31.793  45.973  1.00  0.00    -0.387 OA
ATOM     14  H   UNL     1      21.875  31.192  46.230  1.00  0.00     0.211 HD
ENDBRANCH   6  13
BRANCH   7  15
ATOM     15  O   UNL     1      20.643  33.784  45.260  1.00  0.00    -0.384 OA
ATOM     16  H   UNL     1      20.230  34.643  44.986  1.00  0.00     0.211 HD
ENDBRANCH   7  15
ENDBRANCH   1   2
BRANCH   1  17
ATOM     17  C   UNL     1      19.839  33.999  41.497  1.00  0.00     0.172 A 
ATOM     18  C   UNL     1      20.271  34.108  40.163  1.00  0.00     0.201 A 
ATOM     19  C   UNL     1      18.557  34.457  41.847  1.00  0.00     0.098 A 
ATOM     20  C   UNL     1      19.429  34.672  39.184  1.00  0.00     0.176 A 
ATOM     21  C   UNL     1      17.715  35.018  40.886  1.00  0.00     0.146 A 
ATOM     22  C   UNL     1      18.141  35.134  39.544  1.00  0.00     0.111 A 
ATOM     23  O   UNL     1      16.509  35.442  41.252  1.00  0.00    -0.456 OA
ATOM     24  C   UNL     1      17.245  35.715  38.623  1.00  0.00     0.197 A 
ATOM     25  C   UNL     1      15.637  35.986  40.407  1.00  0.00     0.138 A 
ATOM     26  C   UNL     1      15.991  36.145  39.058  1.00  0.00     0.100 A 
ATOM     27  O   UNL     1      17.553  35.864  37.409  1.00  0.00    -0.289 OA
BRANCH  18  28
ATOM     28  O   UNL     1      21.540  33.659  39.795  1.00  0.00    -0.502 OA
ATOM     29  H   UNL     1      21.807  33.517  38.827  1.00  0.00     0.293 HD
ENDBRANCH  18  28
BRANCH  20  30
ATOM     30  O   UNL     1      19.871  34.774  37.863  1.00  0.00    -0.504 OA
ATOM     31  H   UNL     1      20.204  35.643  37.465  1.00  0.00     0.293 HD
ENDBRANCH  20  30
BRANCH  25  32
ATOM     32  C   UNL     1      14.318  36.426  40.929  1.00  0.00     0.017 A 
ATOM     33  C   UNL     1      13.447  37.147  40.091  1.00  0.00     0.012 A 
ATOM     34  C   UNL     1      13.923  36.168  42.257  1.00  0.00     0.012 A 
ATOM     35  C   UNL     1      12.205  37.580  40.561  1.00  0.00     0.001 A 
ATOM     36  C   UNL     1      12.678  36.606  42.723  1.00  0.00     0.001 A 
ATOM     37  C   UNL     1      11.819  37.308  41.875  1.00  0.00     0.000 A 
ENDBRANCH  25  32
ENDBRANCH   1  17
TORSDOF 9
ENDMDL
MODEL 7
REMARK VINA RESULT:    -3.946      1.396      3.049
REMARK INTER + INTRA:          -6.883
REMARK INTER:                  -5.495
REMARK INTRA:                  -1.388
REMARK UNBOUND:                -1.438
REMARK SMILES O=C([O-])[C@@H]1O[C@@H](Oc2cc3oc(-c4ccccc4)cc(=O)c3c(O)c2O)[C@@H](O)[C@H](O)[C@@H]1O
REMARK SMILES IDX 7 1 6 2 4 3 31 4 5 5 29 6 27 7 2 8 1 9 3 10 32 11 30 13
REMARK SMILES IDX 28 15 8 17 25 18 9 19 23 20 10 21 22 22 11 23 20 24 12 25
REMARK SMILES IDX 19 26 21 27 26 28 24 30 13 32 14 33 18 34 15 35 17 36 16 37
REMARK H PARENT 32 12 30 14 28 16 26 29 24 31
REMARK Flexibility Score: inf
ROOT
ATOM      1  O   UNL     1      20.527  34.344  39.193  1.00  0.00    -0.458 OA
ENDROOT
BRANCH   1   2
ATOM      2  C   UNL     1      20.829  33.012  39.627  1.00  0.00     0.339 C 
ATOM      3  C   UNL     1      22.082  33.761  41.469  1.00  0.00     0.199 C 
ATOM      4  C   UNL     1      23.419  33.230  40.909  1.00  0.00     0.180 C 
ATOM      5  O   UNL     1      20.993  32.956  41.038  1.00  0.00    -0.328 OA
ATOM      6  C   UNL     1      23.345  33.221  39.370  1.00  0.00     0.181 C 
ATOM      7  C   UNL     1      22.080  32.469  38.901  1.00  0.00     0.214 C 
BRANCH   3   8
ATOM      8  C   UNL     1      22.116  33.773  42.969  1.00  0.00     0.073 C 
ATOM      9  O   UNL     1      23.204  33.961  43.575  1.00  0.00    -0.547 OA
ATOM     10  O   UNL     1      20.959  33.525  43.699  1.00  0.00    -0.547 OA
ENDBRANCH   3   8
BRANCH   4  11
ATOM     11  O   UNL     1      23.655  31.933  41.400  1.00  0.00    -0.387 OA
ATOM     12  H   UNL     1      22.942  31.737  42.062  1.00  0.00     0.211 HD
ENDBRANCH   4  11
BRANCH   6  13
ATOM     13  O   UNL     1      24.512  32.675  38.804  1.00  0.00    -0.387 OA
ATOM     14  H   UNL     1      25.243  32.749  39.471  1.00  0.00     0.211 HD
ENDBRANCH   6  13
BRANCH   7  15
ATOM     15  O   UNL     1      21.928  32.539  37.504  1.00  0.00    -0.384 OA
ATOM     16  H   UNL     1      22.291  33.410  37.200  1.00  0.00     0.211 HD
ENDBRANCH   7  15
ENDBRANCH   1   2
BRANCH   1  17
ATOM     17  C   UNL     1      19.250  34.816  38.849  1.00  0.00     0.172 A 
ATOM     18  C   UNL     1      18.931  34.962  37.488  1.00  0.00     0.201 A 
ATOM     19  C   UNL     1      18.292  35.146  39.823  1.00  0.00     0.098 A 
ATOM     20  C   UNL     1      17.663  35.438  37.100  1.00  0.00     0.176 A 
ATOM     21  C   UNL     1      17.033  35.618  39.450  1.00  0.00     0.146 A 
ATOM     22  C   UNL     1      16.704  35.772  38.085  1.00  0.00     0.111 A 
ATOM     23  O   UNL     1      16.151  35.922  40.397  1.00  0.00    -0.456 OA
ATOM     24  C   UNL     1      15.418  36.260  37.775  1.00  0.00     0.197 A 
ATOM     25  C   UNL     1      14.927  36.376  40.139  1.00  0.00     0.138 A 
ATOM     26  C   UNL     1      14.529  36.565  38.806  1.00  0.00     0.100 A 
ATOM     27  O   UNL     1      15.050  36.435  36.582  1.00  0.00    -0.289 OA
BRANCH  18  28
ATOM     28  O   UNL     1      19.868  34.640  36.506  1.00  0.00    -0.502 OA
ATOM     29  H   UNL     1      20.227  35.325  35.851  1.00  0.00     0.293 HD
ENDBRANCH  18  28
BRANCH  20  30
ATOM     30  O   UNL     1      17.359  35.580  35.743  1.00  0.00    -0.504 OA
ATOM     31  H   UNL     1      17.656  34.908  35.047  1.00  0.00     0.293 HD
ENDBRANCH  20  30
BRANCH  25  32
ATOM     32  C   UNL     1      14.025  36.684  41.278  1.00  0.00     0.017 A 
ATOM     33  C   UNL     1      13.992  35.821  42.389  1.00  0.00     0.012 A 
ATOM     34  C   UNL     1      13.173  37.807  41.265  1.00  0.00     0.012 A 
ATOM     35  C   UNL     1      13.145  36.085  43.469  1.00  0.00     0.001 A 
ATOM     36  C   UNL     1      12.326  38.065  42.348  1.00  0.00     0.001 A 
ATOM     37  C   UNL     1      12.315  37.207  43.450  1.00  0.00     0.000 A 
ENDBRANCH  25  32
ENDBRANCH   1  17
TORSDOF 9
ENDMDL
MODEL 8
REMARK VINA RESULT:    -3.891      2.056      3.919
REMARK INTER + INTRA:          -6.807
REMARK INTER:                  -5.427
REMARK INTRA:                  -1.380
REMARK UNBOUND:                -1.438
REMARK SMILES O=C([O-])[C@@H]1O[C@@H](Oc2cc3oc(-c4ccccc4)cc(=O)c3c(O)c2O)[C@@H](O)[C@H](O)[C@@H]1O
REMARK SMILES IDX 7 1 6 2 4 3 31 4 5 5 29 6 27 7 2 8 1 9 3 10 32 11 30 13
REMARK SMILES IDX 28 15 8 17 25 18 9 19 23 20 10 21 22 22 11 23 20 24 12 25
REMARK SMILES IDX 19 26 21 27 26 28 24 30 13 32 14 33 18 34 15 35 17 36 16 37
REMARK H PARENT 32 12 30 14 28 16 26 29 24 31
REMARK Flexibility Score: inf
ROOT
ATOM      1  O   UNL     1      19.887  33.831  43.451  1.00  0.00    -0.458 OA
ENDROOT
BRANCH   1   2
ATOM      2  C   UNL     1      20.953  34.785  43.521  1.00  0.00     0.339 C 
ATOM      3  C   UNL     1      22.418  33.426  42.283  1.00  0.00     0.199 C 
ATOM      4  C   UNL     1      23.369  33.186  43.474  1.00  0.00     0.180 C 
ATOM      5  O   UNL     1      21.795  34.700  42.378  1.00  0.00    -0.328 OA
ATOM      6  C   UNL     1      22.563  33.282  44.783  1.00  0.00     0.181 C 
ATOM      7  C   UNL     1      21.766  34.605  44.822  1.00  0.00     0.214 C 
BRANCH   3   8
ATOM      8  C   UNL     1      23.176  33.350  40.989  1.00  0.00     0.073 C 
ATOM      9  O   UNL     1      24.294  32.771  40.945  1.00  0.00    -0.547 OA
ATOM     10  O   UNL     1      22.675  33.961  39.846  1.00  0.00    -0.547 OA
ENDBRANCH   3   8
BRANCH   4  11
ATOM     11  O   UNL     1      24.400  34.144  43.457  1.00  0.00    -0.387 OA
ATOM     12  H   UNL     1      24.511  34.468  44.389  1.00  0.00     0.211 HD
ENDBRANCH   4  11
BRANCH   6  13
ATOM     13  O   UNL     1      23.394  33.144  45.910  1.00  0.00    -0.387 OA
ATOM     14  H   UNL     1      22.828  32.883  46.681  1.00  0.00     0.211 HD
ENDBRANCH   6  13
BRANCH   7  15
ATOM     15  O   UNL     1      20.934  34.672  45.954  1.00  0.00    -0.384 OA
ATOM     16  H   UNL     1      20.299  35.422  45.824  1.00  0.00     0.211 HD
ENDBRANCH   7  15
ENDBRANCH   1   2
BRANCH   1  17
ATOM     17  C   UNL     1      18.518  34.142  43.442  1.00  0.00     0.172 A 
ATOM     18  C   UNL     1      17.732  33.756  44.543  1.00  0.00     0.201 A 
ATOM     19  C   UNL     1      17.917  34.822  42.369  1.00  0.00     0.098 A 
ATOM     20  C   UNL     1      16.354  34.045  44.571  1.00  0.00     0.176 A 
ATOM     21  C   UNL     1      16.551  35.112  42.386  1.00  0.00     0.146 A 
ATOM     22  C   UNL     1      15.754  34.725  43.486  1.00  0.00     0.111 A 
ATOM     23  O   UNL     1      16.015  35.755  41.354  1.00  0.00    -0.456 OA
ATOM     24  C   UNL     1      14.380  35.043  43.440  1.00  0.00     0.197 A 
ATOM     25  C   UNL     1      14.726  36.077  41.282  1.00  0.00     0.138 A 
ATOM     26  C   UNL     1      13.866  35.718  42.333  1.00  0.00     0.100 A 
ATOM     27  O   UNL     1      13.599  34.724  44.376  1.00  0.00    -0.289 OA
BRANCH  18  28
ATOM     28  O   UNL     1      18.311  33.081  45.618  1.00  0.00    -0.502 OA
ATOM     29  H   UNL     1      19.287  32.809  45.629  1.00  0.00     0.293 HD
ENDBRANCH  18  28
BRANCH  20  30
ATOM     30  O   UNL     1      15.585  33.655  45.671  1.00  0.00    -0.504 OA
ATOM     31  H   UNL     1      14.980  32.843  45.653  1.00  0.00     0.293 HD
ENDBRANCH  20  30
BRANCH  25  32
ATOM     32  C   UNL     1      14.236  36.795  40.078  1.00  0.00     0.017 A 
ATOM     33  C   UNL     1      12.857  37.040  39.931  1.00  0.00     0.012 A 
ATOM     34  C   UNL     1      15.112  37.213  39.056  1.00  0.00     0.012 A 
ATOM     35  C   UNL     1      12.371  37.705  38.802  1.00  0.00     0.001 A 
ATOM     36  C   UNL     1      14.619  37.876  37.928  1.00  0.00     0.001 A 
ATOM     37  C   UNL     1      13.250  38.125  37.802  1.00  0.00     0.000 A 
ENDBRANCH  25  32
ENDBRANCH   1  17
TORSDOF 9
ENDMDL
MODEL 9
REMARK VINA RESULT:    -3.828      2.782      5.158
REMARK INTER + INTRA:          -6.720
REMARK INTER:                  -5.668
REMARK INTRA:                  -1.052
REMARK UNBOUND:                -1.438
REMARK SMILES O=C([O-])[C@@H]1O[C@@H](Oc2cc3oc(-c4ccccc4)cc(=O)c3c(O)c2O)[C@@H](O)[C@H](O)[C@@H]1O
REMARK SMILES IDX 7 1 6 2 4 3 31 4 5 5 29 6 27 7 2 8 1 9 3 10 32 11 30 13
REMARK SMILES IDX 28 15 8 17 25 18 9 19 23 20 10 21 22 22 11 23 20 24 12 25
REMARK SMILES IDX 19 26 21 27 26 28 24 30 13 32 14 33 18 34 15 35 17 36 16 37
REMARK H PARENT 32 12 30 14 28 16 26 29 24 31
REMARK Flexibility Score: inf
ROOT
ATOM      1  O   UNL     1      19.788  33.635  43.833  1.00  0.00    -0.458 OA
ENDROOT
BRANCH   1   2
ATOM      2  C   UNL     1      21.049  33.513  43.165  1.00  0.00     0.339 C 
ATOM      3  C   UNL     1      21.851  31.923  44.698  1.00  0.00     0.199 C 
ATOM      4  C   UNL     1      22.932  32.864  45.270  1.00  0.00     0.180 C 
ATOM      5  O   UNL     1      21.596  32.211  43.330  1.00  0.00    -0.328 OA
ATOM      6  C   UNL     1      22.455  34.321  45.117  1.00  0.00     0.181 C 
ATOM      7  C   UNL     1      22.036  34.595  43.656  1.00  0.00     0.214 C 
BRANCH   3   8
ATOM      8  C   UNL     1      22.290  30.493  44.821  1.00  0.00     0.073 C 
ATOM      9  O   UNL     1      23.294  30.198  45.523  1.00  0.00    -0.547 OA
ATOM     10  O   UNL     1      21.626  29.493  44.122  1.00  0.00    -0.547 OA
ENDBRANCH   3   8
BRANCH   4  11
ATOM     11  O   UNL     1      24.144  32.667  44.581  1.00  0.00    -0.387 OA
ATOM     12  H   UNL     1      24.812  33.281  44.985  1.00  0.00     0.211 HD
ENDBRANCH   4  11
BRANCH   6  13
ATOM     13  O   UNL     1      23.435  35.231  45.555  1.00  0.00    -0.387 OA
ATOM     14  H   UNL     1      23.928  35.561  44.760  1.00  0.00     0.211 HD
ENDBRANCH   6  13
BRANCH   7  15
ATOM     15  O   UNL     1      21.493  35.884  43.509  1.00  0.00    -0.384 OA
ATOM     16  H   UNL     1      22.245  36.523  43.411  1.00  0.00     0.211 HD
ENDBRANCH   7  15
ENDBRANCH   1   2
BRANCH   1  17
ATOM     17  C   UNL     1      18.612  34.146  43.261  1.00  0.00     0.172 A 
ATOM     18  C   UNL     1      17.441  34.170  44.038  1.00  0.00     0.201 A 
ATOM     19  C   UNL     1      18.575  34.628  41.941  1.00  0.00     0.098 A 
ATOM     20  C   UNL     1      16.238  34.670  43.500  1.00  0.00     0.176 A 
ATOM     21  C   UNL     1      17.389  35.124  41.398  1.00  0.00     0.146 A 
ATOM     22  C   UNL     1      16.207  35.150  42.170  1.00  0.00     0.111 A 
ATOM     23  O   UNL     1      17.389  35.571  40.146  1.00  0.00    -0.456 OA
ATOM     24  C   UNL     1      15.041  35.658  41.562  1.00  0.00     0.197 A 
ATOM     25  C   UNL     1      16.310  36.065  39.545  1.00  0.00     0.138 A 
ATOM     26  C   UNL     1      15.093  36.114  40.244  1.00  0.00     0.100 A 
ATOM     27  O   UNL     1      13.943  35.706  42.179  1.00  0.00    -0.289 OA
BRANCH  18  28
ATOM     28  O   UNL     1      17.457  33.697  45.351  1.00  0.00    -0.502 OA
ATOM     29  H   UNL     1      17.300  34.301  46.149  1.00  0.00     0.293 HD
ENDBRANCH  18  28
BRANCH  20  30
ATOM     30  O   UNL     1      15.082  34.687  44.284  1.00  0.00    -0.504 OA
ATOM     31  H   UNL     1      14.472  33.884  44.374  1.00  0.00     0.293 HD
ENDBRANCH  20  30
BRANCH  25  32
ATOM     32  C   UNL     1      16.427  36.533  38.140  1.00  0.00     0.017 A 
ATOM     33  C   UNL     1      17.230  35.814  37.235  1.00  0.00     0.012 A 
ATOM     34  C   UNL     1      15.780  37.703  37.693  1.00  0.00     0.012 A 
ATOM     35  C   UNL     1      17.363  36.240  35.911  1.00  0.00     0.001 A 
ATOM     36  C   UNL     1      15.919  38.125  36.366  1.00  0.00     0.001 A 
ATOM     37  C   UNL     1      16.707  37.393  35.476  1.00  0.00     0.000 A 
ENDBRANCH  25  32
ENDBRANCH   1  17
TORSDOF 9
ENDMDL
