MODEL 1
REMARK VINA RESULT:    -4.265      0.000      0.000
REMARK INTER + INTRA:          -4.390
REMARK INTER:                  -4.390
REMARK INTRA:                   0.000
REMARK UNBOUND:                 0.000
REMARK SMILES Oc1ccc2[nH]ccc2c1
REMARK SMILES IDX 3 1 4 2 5 3 9 4 8 5 7 6 6 7 10 8 2 9 1 11
REMARK H PARENT 6 10 1 12
REMARK Flexibility Score: inf
ROOT
ATOM      1  C   UNL     1       5.204  20.128  75.863  1.00  0.00     0.048 A 
ATOM      2  C   UNL     1       4.213  19.193  76.215  1.00  0.00     0.030 A 
ATOM      3  C   UNL     1       4.117  18.029  75.454  1.00  0.00     0.046 A 
ATOM      4  C   UNL     1       4.952  17.792  74.394  1.00  0.00     0.003 A 
ATOM      5  C   UNL     1       4.601  16.571  73.859  1.00  0.00     0.028 A 
ATOM      6  C   UNL     1       3.543  16.122  74.643  1.00  0.00     0.083 A 
ATOM      7  N   UNL     1       3.251  17.016  75.615  1.00  0.00    -0.361 N 
ATOM      8  C   UNL     1       5.944  18.696  74.020  1.00  0.00     0.056 A 
ATOM      9  C   UNL     1       6.068  19.884  74.771  1.00  0.00     0.116 A 
ATOM     10  H   UNL     1       2.504  16.932  76.339  1.00  0.00     0.166 HD
ENDROOT
BRANCH   9  11
ATOM     11  O   UNL     1       7.041  20.826  74.444  1.00  0.00    -0.508 OA
ATOM     12  H   UNL     1       7.252  21.603  75.060  1.00  0.00     0.293 HD
ENDBRANCH   9  11
TORSDOF 1
ENDMDL
MODEL 2
REMARK VINA RESULT:    -4.258      2.103      3.414
REMARK INTER + INTRA:          -4.383
REMARK INTER:                  -4.383
REMARK INTRA:                   0.000
REMARK UNBOUND:                 0.000
REMARK SMILES Oc1ccc2[nH]ccc2c1
REMARK SMILES IDX 3 1 4 2 5 3 9 4 8 5 7 6 6 7 10 8 2 9 1 11
REMARK H PARENT 6 10 1 12
REMARK Flexibility Score: inf
ROOT
ATOM      1  C   UNL     1       3.712  16.056  74.256  1.00  0.00     0.048 A 
ATOM      2  C   UNL     1       3.356  16.837  75.371  1.00  0.00     0.030 A 
ATOM      3  C   UNL     1       4.009  18.056  75.547  1.00  0.00     0.046 A 
ATOM      4  C   UNL     1       4.969  18.491  74.671  1.00  0.00     0.003 A 
ATOM      5  C   UNL     1       5.414  19.714  75.122  1.00  0.00     0.028 A 
ATOM      6  C   UNL     1       4.681  19.964  76.279  1.00  0.00     0.083 A 
ATOM      7  N   UNL     1       3.824  18.947  76.533  1.00  0.00    -0.361 N 
ATOM      8  C   UNL     1       5.344  17.742  73.558  1.00  0.00     0.056 A 
ATOM      9  C   UNL     1       4.701  16.503  73.351  1.00  0.00     0.116 A 
ATOM     10  H   UNL     1       3.159  18.876  77.335  1.00  0.00     0.166 HD
ENDROOT
BRANCH   9  11
ATOM     11  O   UNL     1       5.035  15.710  72.255  1.00  0.00    -0.508 OA
ATOM     12  H   UNL     1       5.295  14.737  72.366  1.00  0.00     0.293 HD
ENDBRANCH   9  11
TORSDOF 1
ENDMDL
MODEL 3
REMARK VINA RESULT:    -4.223      6.343      7.160
REMARK INTER + INTRA:          -4.346
REMARK INTER:                  -4.346
REMARK INTRA:                   0.000
REMARK UNBOUND:                 0.000
REMARK SMILES Oc1ccc2[nH]ccc2c1
REMARK SMILES IDX 3 1 4 2 5 3 9 4 8 5 7 6 6 7 10 8 2 9 1 11
REMARK H PARENT 6 10 1 12
REMARK Flexibility Score: inf
ROOT
ATOM      1  C   UNL     1      10.683  18.346  74.497  1.00  0.00     0.048 A 
ATOM      2  C   UNL     1       9.961  18.015  75.659  1.00  0.00     0.030 A 
ATOM      3  C   UNL     1      10.680  17.814  76.836  1.00  0.00     0.046 A 
ATOM      4  C   UNL     1      12.045  17.930  76.874  1.00  0.00     0.003 A 
ATOM      5  C   UNL     1      12.443  17.673  78.168  1.00  0.00     0.028 A 
ATOM      6  C   UNL     1      11.269  17.406  78.864  1.00  0.00     0.083 A 
ATOM      7  N   UNL     1      10.195  17.493  78.045  1.00  0.00    -0.361 N 
ATOM      8  C   UNL     1      12.789  18.257  75.743  1.00  0.00     0.056 A 
ATOM      9  C   UNL     1      12.091  18.468  74.535  1.00  0.00     0.116 A 
ATOM     10  H   UNL     1       9.195  17.341  78.306  1.00  0.00     0.166 HD
ENDROOT
BRANCH   9  11
ATOM     11  O   UNL     1      12.781  18.797  73.370  1.00  0.00    -0.508 OA
ATOM     12  H   UNL     1      13.767  18.588  73.263  1.00  0.00     0.293 HD
ENDBRANCH   9  11
TORSDOF 1
ENDMDL
MODEL 4
REMARK VINA RESULT:    -4.215      2.066      2.706
REMARK INTER + INTRA:          -4.338
REMARK INTER:                  -4.338
REMARK INTRA:                   0.000
REMARK UNBOUND:                 0.000
REMARK SMILES Oc1ccc2[nH]ccc2c1
REMARK SMILES IDX 3 1 4 2 5 3 9 4 8 5 7 6 6 7 10 8 2 9 1 11
REMARK H PARENT 6 10 1 12
REMARK Flexibility Score: inf
ROOT
ATOM      1  C   UNL     1       5.154  19.386  74.888  1.00  0.00     0.048 A 
ATOM      2  C   UNL     1       5.591  18.813  73.679  1.00  0.00     0.030 A 
ATOM      3  C   UNL     1       5.144  17.529  73.368  1.00  0.00     0.046 A 
ATOM      4  C   UNL     1       4.307  16.838  74.204  1.00  0.00     0.003 A 
ATOM      5  C   UNL     1       4.056  15.617  73.615  1.00  0.00     0.028 A 
ATOM      6  C   UNL     1       4.774  15.633  72.423  1.00  0.00     0.083 A 
ATOM      7  N   UNL     1       5.436  16.804  72.277  1.00  0.00    -0.361 N 
ATOM      8  C   UNL     1       3.856  17.376  75.406  1.00  0.00     0.056 A 
ATOM      9  C   UNL     1       4.290  18.674  75.750  1.00  0.00     0.116 A 
ATOM     10  H   UNL     1       6.049  17.081  71.479  1.00  0.00     0.166 HD
ENDROOT
BRANCH   9  11
ATOM     11  O   UNL     1       3.872  19.265  76.941  1.00  0.00    -0.508 OA
ATOM     12  H   UNL     1       4.189  18.922  77.841  1.00  0.00     0.293 HD
ENDBRANCH   9  11
TORSDOF 1
ENDMDL
MODEL 5
REMARK VINA RESULT:    -4.157      6.508      7.405
REMARK INTER + INTRA:          -4.278
REMARK INTER:                  -4.278
REMARK INTRA:                   0.000
REMARK UNBOUND:                 0.000
REMARK SMILES Oc1ccc2[nH]ccc2c1
REMARK SMILES IDX 3 1 4 2 5 3 9 4 8 5 7 6 6 7 10 8 2 9 1 11
REMARK H PARENT 6 10 1 12
REMARK Flexibility Score: inf
ROOT
ATOM      1  C   UNL     1      12.340  17.796  77.794  1.00  0.00     0.048 A 
ATOM      2  C   UNL     1      12.991  18.136  76.594  1.00  0.00     0.030 A 
ATOM      3  C   UNL     1      12.204  18.335  75.461  1.00  0.00     0.046 A 
ATOM      4  C   UNL     1      10.841  18.206  75.500  1.00  0.00     0.003 A 
ATOM      5  C   UNL     1      10.366  18.463  74.233  1.00  0.00     0.028 A 
ATOM      6  C   UNL     1      11.497  18.742  73.471  1.00  0.00     0.083 A 
ATOM      7  N   UNL     1      12.617  18.662  74.226  1.00  0.00    -0.361 N 
ATOM      8  C   UNL     1      10.166  17.871  76.672  1.00  0.00     0.056 A 
ATOM      9  C   UNL     1      10.934  17.663  77.837  1.00  0.00     0.116 A 
ATOM     10  H   UNL     1      13.598  18.822  73.909  1.00  0.00     0.166 HD
ENDROOT
BRANCH   9  11
ATOM     11  O   UNL     1      10.315  17.325  79.039  1.00  0.00    -0.508 OA
ATOM     12  H   UNL     1      10.019  18.035  79.699  1.00  0.00     0.293 HD
ENDBRANCH   9  11
TORSDOF 1
ENDMDL
MODEL 6
REMARK VINA RESULT:    -4.132     17.891     18.625
REMARK INTER + INTRA:          -4.253
REMARK INTER:                  -4.253
REMARK INTRA:                   0.000
REMARK UNBOUND:                 0.000
REMARK SMILES Oc1ccc2[nH]ccc2c1
REMARK SMILES IDX 3 1 4 2 5 3 9 4 8 5 7 6 6 7 10 8 2 9 1 11
REMARK H PARENT 6 10 1 12
REMARK Flexibility Score: inf
ROOT
ATOM      1  C   UNL     1       0.854   4.303  65.102  1.00  0.00     0.048 A 
ATOM      2  C   UNL     1      -0.319   3.880  65.754  1.00  0.00     0.030 A 
ATOM      3  C   UNL     1      -1.525   3.996  65.063  1.00  0.00     0.046 A 
ATOM      4  C   UNL     1      -1.580   4.504  63.792  1.00  0.00     0.003 A 
ATOM      5  C   UNL     1      -2.900   4.484  63.398  1.00  0.00     0.028 A 
ATOM      6  C   UNL     1      -3.595   3.953  64.481  1.00  0.00     0.083 A 
ATOM      7  N   UNL     1      -2.750   3.656  65.495  1.00  0.00    -0.361 N 
ATOM      8  C   UNL     1      -0.438   4.930  63.119  1.00  0.00     0.056 A 
ATOM      9  C   UNL     1       0.799   4.826  63.790  1.00  0.00     0.116 A 
ATOM     10  H   UNL     1      -3.003   3.248  66.422  1.00  0.00     0.166 HD
ENDROOT
BRANCH   9  11
ATOM     11  O   UNL     1       1.976   5.237  63.167  1.00  0.00    -0.508 OA
ATOM     12  H   UNL     1       2.274   6.206  63.188  1.00  0.00     0.293 HD
ENDBRANCH   9  11
TORSDOF 1
ENDMDL
MODEL 7
REMARK VINA RESULT:    -4.087     18.125     18.668
REMARK INTER + INTRA:          -4.206
REMARK INTER:                  -4.206
REMARK INTRA:                   0.000
REMARK UNBOUND:                 0.000
REMARK SMILES Oc1ccc2[nH]ccc2c1
REMARK SMILES IDX 3 1 4 2 5 3 9 4 8 5 7 6 6 7 10 8 2 9 1 11
REMARK H PARENT 6 10 1 12
REMARK Flexibility Score: inf
ROOT
ATOM      1  C   UNL     1      -1.302   3.875  65.768  1.00  0.00     0.048 A 
ATOM      2  C   UNL     1       0.097   4.010  65.710  1.00  0.00     0.030 A 
ATOM      3  C   UNL     1       0.659   4.459  64.516  1.00  0.00     0.046 A 
ATOM      4  C   UNL     1      -0.115   4.760  63.426  1.00  0.00     0.003 A 
ATOM      5  C   UNL     1       0.733   5.169  62.420  1.00  0.00     0.028 A 
ATOM      6  C   UNL     1       2.010   5.091  62.967  1.00  0.00     0.083 A 
ATOM      7  N   UNL     1       1.959   4.656  64.247  1.00  0.00    -0.361 N 
ATOM      8  C   UNL     1      -1.502   4.638  63.451  1.00  0.00     0.056 A 
ATOM      9  C   UNL     1      -2.102   4.187  64.646  1.00  0.00     0.116 A 
ATOM     10  H   UNL     1       2.767   4.506  64.890  1.00  0.00     0.166 HD
ENDROOT
BRANCH   9  11
ATOM     11  O   UNL     1      -3.486   4.044  64.730  1.00  0.00    -0.508 OA
ATOM     12  H   UNL     1      -4.109   4.828  64.575  1.00  0.00     0.293 HD
ENDBRANCH   9  11
TORSDOF 1
ENDMDL
MODEL 8
REMARK VINA RESULT:    -4.005      2.176      3.114
REMARK INTER + INTRA:          -4.122
REMARK INTER:                  -4.122
REMARK INTRA:                   0.000
REMARK UNBOUND:                 0.000
REMARK SMILES Oc1ccc2[nH]ccc2c1
REMARK SMILES IDX 3 1 4 2 5 3 9 4 8 5 7 6 6 7 10 8 2 9 1 11
REMARK H PARENT 6 10 1 12
REMARK Flexibility Score: inf
ROOT
ATOM      1  C   UNL     1       3.502  17.026  75.486  1.00  0.00     0.048 A 
ATOM      2  C   UNL     1       3.831  16.229  74.374  1.00  0.00     0.030 A 
ATOM      3  C   UNL     1       4.772  16.726  73.473  1.00  0.00     0.046 A 
ATOM      4  C   UNL     1       5.363  17.948  73.652  1.00  0.00     0.003 A 
ATOM      5  C   UNL     1       6.233  18.142  72.601  1.00  0.00     0.028 A 
ATOM      6  C   UNL     1       6.120  16.997  71.820  1.00  0.00     0.083 A 
ATOM      7  N   UNL     1       5.226  16.135  72.357  1.00  0.00    -0.361 N 
ATOM      8  C   UNL     1       5.060  18.761  74.742  1.00  0.00     0.056 A 
ATOM      9  C   UNL     1       4.112  18.288  75.673  1.00  0.00     0.116 A 
ATOM     10  H   UNL     1       4.949  15.203  71.977  1.00  0.00     0.166 HD
ENDROOT
BRANCH   9  11
ATOM     11  O   UNL     1       3.767  19.057  76.782  1.00  0.00    -0.508 OA
ATOM     12  H   UNL     1       3.621  18.636  77.692  1.00  0.00     0.293 HD
ENDBRANCH   9  11
TORSDOF 1
ENDMDL
MODEL 9
REMARK VINA RESULT:    -3.884     18.080     18.794
REMARK INTER + INTRA:          -3.997
REMARK INTER:                  -3.997
REMARK INTRA:                   0.000
REMARK UNBOUND:                 0.000
REMARK SMILES Oc1ccc2[nH]ccc2c1
REMARK SMILES IDX 3 1 4 2 5 3 9 4 8 5 7 6 6 7 10 8 2 9 1 11
REMARK H PARENT 6 10 1 12
REMARK Flexibility Score: inf
ROOT
ATOM      1  C   UNL     1       5.599   5.250  62.297  1.00  0.00     0.048 A 
ATOM      2  C   UNL     1       4.995   6.451  61.882  1.00  0.00     0.030 A 
ATOM      3  C   UNL     1       3.646   6.414  61.531  1.00  0.00     0.046 A 
ATOM      4  C   UNL     1       2.922   5.252  61.582  1.00  0.00     0.003 A 
ATOM      5  C   UNL     1       1.639   5.549  61.177  1.00  0.00     0.028 A 
ATOM      6  C   UNL     1       1.653   6.912  60.893  1.00  0.00     0.083 A 
ATOM      7  N   UNL     1       2.882   7.435  61.111  1.00  0.00    -0.361 N 
ATOM      8  C   UNL     1       3.489   4.047  61.988  1.00  0.00     0.056 A 
ATOM      9  C   UNL     1       4.853   4.051  62.351  1.00  0.00     0.116 A 
ATOM     10  H   UNL     1       3.172   8.429  60.978  1.00  0.00     0.166 HD
ENDROOT
BRANCH   9  11
ATOM     11  O   UNL     1       5.476   2.875  62.765  1.00  0.00    -0.508 OA
ATOM     12  H   UNL     1       5.249   1.981  62.346  1.00  0.00     0.293 HD
ENDBRANCH   9  11
TORSDOF 1
ENDMDL
