MODEL 1
REMARK VINA RESULT:    -4.251      0.000      0.000
REMARK INTER + INTRA:          -8.601
REMARK INTER:                  -7.978
REMARK INTRA:                  -0.623
REMARK UNBOUND:                -0.623
REMARK SMILES O=C([O-])CCCCCCCCCCCCCCC(=O)[O-]
REMARK SMILES IDX 10 1 9 2 8 3 7 4 6 5 5 6 4 7 2 8 1 9 3 10 11 11 12 12 13 13
REMARK SMILES IDX 14 14 15 15 16 16 17 17 18 18 19 19 20 20
REMARK H PARENT
REMARK Flexibility Score: inf
ROOT
ATOM      1  C   UNL     1     -27.259   4.750  10.504  1.00  0.00     0.000 C 
ENDROOT
BRANCH   1   2
ATOM      2  C   UNL     1     -28.662   4.862   9.889  1.00  0.00     0.000 C 
BRANCH   2   3
ATOM      3  C   UNL     1     -28.632   4.913   8.351  1.00  0.00     0.000 C 
BRANCH   3   4
ATOM      4  C   UNL     1     -29.631   5.930   7.774  1.00  0.00     0.000 C 
BRANCH   4   5
ATOM      5  C   UNL     1     -29.349   6.261   6.298  1.00  0.00     0.000 C 
BRANCH   5   6
ATOM      6  C   UNL     1     -30.507   7.024   5.634  1.00  0.00     0.006 C 
BRANCH   6   7
ATOM      7  C   UNL     1     -31.021   6.335   4.363  1.00  0.00     0.053 C 
BRANCH   7   8
ATOM      8  C   UNL     1     -32.511   6.434   4.284  1.00  0.00     0.041 C 
ATOM      9  O   UNL     1     -33.122   7.333   4.920  1.00  0.00    -0.550 OA
ATOM     10  O   UNL     1     -33.222   5.563   3.470  1.00  0.00    -0.550 OA
ENDBRANCH   7   8
ENDBRANCH   6   7
ENDBRANCH   5   6
ENDBRANCH   4   5
ENDBRANCH   3   4
ENDBRANCH   2   3
ENDBRANCH   1   2
BRANCH   1  11
ATOM     11  C   UNL     1     -27.072   5.658  11.732  1.00  0.00     0.000 C 
BRANCH  11  12
ATOM     12  C   UNL     1     -25.680   5.483  12.377  1.00  0.00     0.000 C 
BRANCH  12  13
ATOM     13  C   UNL     1     -24.757   6.702  12.197  1.00  0.00     0.000 C 
BRANCH  13  14
ATOM     14  C   UNL     1     -23.269   6.348  12.347  1.00  0.00     0.000 C 
BRANCH  14  15
ATOM     15  C   UNL     1     -23.030   4.855  12.626  1.00  0.00     0.000 C 
BRANCH  15  16
ATOM     16  C   UNL     1     -22.182   4.112  11.574  1.00  0.00     0.006 C 
BRANCH  16  17
ATOM     17  C   UNL     1     -22.749   2.740  11.164  1.00  0.00     0.053 C 
BRANCH  17  18
ATOM     18  C   UNL     1     -21.806   1.964  10.293  1.00  0.00     0.041 C 
ATOM     19  O   UNL     1     -20.561   2.051  10.467  1.00  0.00    -0.550 OA
ATOM     20  O   UNL     1     -22.299   1.177   9.260  1.00  0.00    -0.550 OA
ENDBRANCH  17  18
ENDBRANCH  16  17
ENDBRANCH  15  16
ENDBRANCH  14  15
ENDBRANCH  13  14
ENDBRANCH  12  13
ENDBRANCH  11  12
ENDBRANCH   1  11
TORSDOF 15
ENDMDL
MODEL 2
REMARK VINA RESULT:    -4.205     12.719     14.745
REMARK INTER + INTRA:          -8.515
REMARK INTER:                  -7.899
REMARK INTRA:                  -0.615
REMARK UNBOUND:                -0.623
REMARK SMILES O=C([O-])CCCCCCCCCCCCCCC(=O)[O-]
REMARK SMILES IDX 10 1 9 2 8 3 7 4 6 5 5 6 4 7 2 8 1 9 3 10 11 11 12 12 13 13
REMARK SMILES IDX 14 14 15 15 16 16 17 17 18 18 19 19 20 20
REMARK H PARENT
REMARK Flexibility Score: inf
ROOT
ATOM      1  C   UNL     1     -18.011   0.549  -4.496  1.00  0.00     0.000 C 
ENDROOT
BRANCH   1   2
ATOM      2  C   UNL     1     -18.782   1.699  -3.831  1.00  0.00     0.000 C 
BRANCH   2   3
ATOM      3  C   UNL     1     -18.175   3.078  -4.144  1.00  0.00     0.000 C 
BRANCH   3   4
ATOM      4  C   UNL     1     -19.199   4.218  -4.011  1.00  0.00     0.000 C 
BRANCH   4   5
ATOM      5  C   UNL     1     -20.496   3.766  -3.318  1.00  0.00     0.000 C 
BRANCH   5   6
ATOM      6  C   UNL     1     -21.536   4.895  -3.221  1.00  0.00     0.006 C 
BRANCH   6   7
ATOM      7  C   UNL     1     -22.419   4.782  -1.971  1.00  0.00     0.053 C 
BRANCH   7   8
ATOM      8  C   UNL     1     -22.073   5.856  -0.990  1.00  0.00     0.041 C 
ATOM      9  O   UNL     1     -22.804   6.876  -0.882  1.00  0.00    -0.550 OA
ATOM     10  O   UNL     1     -20.970   5.709  -0.160  1.00  0.00    -0.550 OA
ENDBRANCH   7   8
ENDBRANCH   6   7
ENDBRANCH   5   6
ENDBRANCH   4   5
ENDBRANCH   3   4
ENDBRANCH   2   3
ENDBRANCH   1   2
BRANCH   1  11
ATOM     11  C   UNL     1     -18.763  -0.792  -4.428  1.00  0.00     0.000 C 
BRANCH  11  12
ATOM     12  C   UNL     1     -19.818  -0.810  -3.302  1.00  0.00     0.000 C 
BRANCH  12  13
ATOM     13  C   UNL     1     -20.150  -2.222  -2.787  1.00  0.00     0.000 C 
BRANCH  13  14
ATOM     14  C   UNL     1     -20.117  -2.319  -1.253  1.00  0.00     0.000 C 
BRANCH  14  15
ATOM     15  C   UNL     1     -19.408  -3.586  -0.746  1.00  0.00     0.000 C 
BRANCH  15  16
ATOM     16  C   UNL     1     -19.583  -3.887   0.756  1.00  0.00     0.006 C 
BRANCH  16  17
ATOM     17  C   UNL     1     -19.069  -5.274   1.184  1.00  0.00     0.053 C 
BRANCH  17  18
ATOM     18  C   UNL     1     -20.112  -6.080   1.900  1.00  0.00     0.041 C 
ATOM     19  O   UNL     1     -20.461  -7.206   1.458  1.00  0.00    -0.550 OA
ATOM     20  O   UNL     1     -20.731  -5.567   3.033  1.00  0.00    -0.550 OA
ENDBRANCH  17  18
ENDBRANCH  16  17
ENDBRANCH  15  16
ENDBRANCH  14  15
ENDBRANCH  13  14
ENDBRANCH  12  13
ENDBRANCH  11  12
ENDBRANCH   1  11
TORSDOF 15
ENDMDL
MODEL 3
REMARK VINA RESULT:    -4.142     13.369     15.104
REMARK INTER + INTRA:          -8.397
REMARK INTER:                  -7.725
REMARK INTRA:                  -0.672
REMARK UNBOUND:                -0.623
REMARK SMILES O=C([O-])CCCCCCCCCCCCCCC(=O)[O-]
REMARK SMILES IDX 10 1 9 2 8 3 7 4 6 5 5 6 4 7 2 8 1 9 3 10 11 11 12 12 13 13
REMARK SMILES IDX 14 14 15 15 16 16 17 17 18 18 19 19 20 20
REMARK H PARENT
REMARK Flexibility Score: inf
ROOT
ATOM      1  C   UNL     1     -19.714  -0.675  -3.243  1.00  0.00     0.000 C 
ENDROOT
BRANCH   1   2
ATOM      2  C   UNL     1     -18.714  -0.587  -4.406  1.00  0.00     0.000 C 
BRANCH   2   3
ATOM      3  C   UNL     1     -18.032   0.790  -4.499  1.00  0.00     0.000 C 
BRANCH   3   4
ATOM      4  C   UNL     1     -18.896   1.917  -3.909  1.00  0.00     0.000 C 
BRANCH   4   5
ATOM      5  C   UNL     1     -18.241   3.301  -4.061  1.00  0.00     0.000 C 
BRANCH   5   6
ATOM      6  C   UNL     1     -19.276   4.437  -4.143  1.00  0.00     0.006 C 
BRANCH   6   7
ATOM      7  C   UNL     1     -20.565   4.122  -3.374  1.00  0.00     0.053 C 
BRANCH   7   8
ATOM      8  C   UNL     1     -20.789   5.134  -2.296  1.00  0.00     0.041 C 
ATOM      9  O   UNL     1     -19.856   5.437  -1.507  1.00  0.00    -0.550 OA
ATOM     10  O   UNL     1     -22.015   5.779  -2.193  1.00  0.00    -0.550 OA
ENDBRANCH   7   8
ENDBRANCH   6   7
ENDBRANCH   5   6
ENDBRANCH   4   5
ENDBRANCH   3   4
ENDBRANCH   2   3
ENDBRANCH   1   2
BRANCH   1  11
ATOM     11  C   UNL     1     -20.385  -2.055  -3.136  1.00  0.00     0.000 C 
BRANCH  11  12
ATOM     12  C   UNL     1     -19.847  -2.872  -1.942  1.00  0.00     0.000 C 
BRANCH  12  13
ATOM     13  C   UNL     1     -20.394  -2.410  -0.579  1.00  0.00     0.000 C 
BRANCH  13  14
ATOM     14  C   UNL     1     -19.558  -2.925   0.603  1.00  0.00     0.000 C 
BRANCH  14  15
ATOM     15  C   UNL     1     -19.284  -4.436   0.533  1.00  0.00     0.000 C 
BRANCH  15  16
ATOM     16  C   UNL     1     -19.794  -5.259   1.732  1.00  0.00     0.006 C 
BRANCH  16  17
ATOM     17  C   UNL     1     -20.105  -6.731   1.400  1.00  0.00     0.053 C 
BRANCH  17  18
ATOM     18  C   UNL     1     -20.932  -7.399   2.459  1.00  0.00     0.041 C 
ATOM     19  O   UNL     1     -20.834  -7.041   3.662  1.00  0.00    -0.550 OA
ATOM     20  O   UNL     1     -21.778  -8.447   2.123  1.00  0.00    -0.550 OA
ENDBRANCH  17  18
ENDBRANCH  16  17
ENDBRANCH  15  16
ENDBRANCH  14  15
ENDBRANCH  13  14
ENDBRANCH  12  13
ENDBRANCH  11  12
ENDBRANCH   1  11
TORSDOF 15
ENDMDL
MODEL 4
REMARK VINA RESULT:    -4.090     12.897     16.339
REMARK INTER + INTRA:          -8.300
REMARK INTER:                  -7.677
REMARK INTRA:                  -0.622
REMARK UNBOUND:                -0.623
REMARK SMILES O=C([O-])CCCCCCCCCCCCCCC(=O)[O-]
REMARK SMILES IDX 10 1 9 2 8 3 7 4 6 5 5 6 4 7 2 8 1 9 3 10 11 11 12 12 13 13
REMARK SMILES IDX 14 14 15 15 16 16 17 17 18 18 19 19 20 20
REMARK H PARENT
REMARK Flexibility Score: inf
ROOT
ATOM      1  C   UNL     1     -18.978  -0.844  -4.276  1.00  0.00     0.000 C 
ENDROOT
BRANCH   1   2
ATOM      2  C   UNL     1     -19.935  -0.934  -3.077  1.00  0.00     0.000 C 
BRANCH   2   3
ATOM      3  C   UNL     1     -20.116  -2.376  -2.571  1.00  0.00     0.000 C 
BRANCH   3   4
ATOM      4  C   UNL     1     -20.092  -2.471  -1.036  1.00  0.00     0.000 C 
BRANCH   4   5
ATOM      5  C   UNL     1     -19.407  -3.755  -0.536  1.00  0.00     0.000 C 
BRANCH   5   6
ATOM      6  C   UNL     1     -19.691  -4.034   0.949  1.00  0.00     0.006 C 
BRANCH   6   7
ATOM      7  C   UNL     1     -19.212  -5.421   1.395  1.00  0.00     0.053 C 
BRANCH   7   8
ATOM      8  C   UNL     1     -20.316  -6.157   2.084  1.00  0.00     0.041 C 
ATOM      9  O   UNL     1     -20.808  -5.708   3.153  1.00  0.00    -0.550 OA
ATOM     10  O   UNL     1     -20.838  -7.314   1.520  1.00  0.00    -0.550 OA
ENDBRANCH   7   8
ENDBRANCH   6   7
ENDBRANCH   5   6
ENDBRANCH   4   5
ENDBRANCH   3   4
ENDBRANCH   2   3
ENDBRANCH   1   2
BRANCH   1  11
ATOM     11  C   UNL     1     -18.237   0.503  -4.347  1.00  0.00     0.000 C 
BRANCH  11  12
ATOM     12  C   UNL     1     -19.083   1.662  -3.781  1.00  0.00     0.000 C 
BRANCH  12  13
ATOM     13  C   UNL     1     -18.355   3.018  -3.783  1.00  0.00     0.000 C 
BRANCH  13  14
ATOM     14  C   UNL     1     -18.811   3.938  -4.928  1.00  0.00     0.000 C 
BRANCH  14  15
ATOM     15  C   UNL     1     -19.737   5.071  -4.456  1.00  0.00     0.000 C 
BRANCH  15  16
ATOM     16  C   UNL     1     -20.182   4.992  -2.983  1.00  0.00     0.006 C 
BRANCH  16  17
ATOM     17  C   UNL     1     -21.670   4.644  -2.792  1.00  0.00     0.053 C 
BRANCH  17  18
ATOM     18  C   UNL     1     -22.370   5.590  -1.863  1.00  0.00     0.041 C 
ATOM     19  O   UNL     1     -23.482   5.280  -1.358  1.00  0.00    -0.550 OA
ATOM     20  O   UNL     1     -21.817   6.834  -1.588  1.00  0.00    -0.550 OA
ENDBRANCH  17  18
ENDBRANCH  16  17
ENDBRANCH  15  16
ENDBRANCH  14  15
ENDBRANCH  13  14
ENDBRANCH  12  13
ENDBRANCH  11  12
ENDBRANCH   1  11
TORSDOF 15
ENDMDL
MODEL 5
REMARK VINA RESULT:    -4.033      1.314      2.137
REMARK INTER + INTRA:          -8.192
REMARK INTER:                  -7.495
REMARK INTRA:                  -0.697
REMARK UNBOUND:                -0.623
REMARK SMILES O=C([O-])CCCCCCCCCCCCCCC(=O)[O-]
REMARK SMILES IDX 10 1 9 2 8 3 7 4 6 5 5 6 4 7 2 8 1 9 3 10 11 11 12 12 13 13
REMARK SMILES IDX 14 14 15 15 16 16 17 17 18 18 19 19 20 20
REMARK H PARENT
REMARK Flexibility Score: inf
ROOT
ATOM      1  C   UNL     1     -28.918   4.447   9.451  1.00  0.00     0.000 C 
ENDROOT
BRANCH   1   2
ATOM      2  C   UNL     1     -29.349   5.508   8.427  1.00  0.00     0.000 C 
BRANCH   2   3
ATOM      3  C   UNL     1     -28.482   5.489   7.155  1.00  0.00     0.000 C 
BRANCH   3   4
ATOM      4  C   UNL     1     -29.114   6.282   5.998  1.00  0.00     0.000 C 
BRANCH   4   5
ATOM      5  C   UNL     1     -30.469   6.902   6.381  1.00  0.00     0.000 C 
BRANCH   5   6
ATOM      6  C   UNL     1     -31.170   7.569   5.185  1.00  0.00     0.006 C 
BRANCH   6   7
ATOM      7  C   UNL     1     -32.549   6.963   4.892  1.00  0.00     0.053 C 
BRANCH   7   8
ATOM      8  C   UNL     1     -32.469   6.024   3.731  1.00  0.00     0.041 C 
ATOM      9  O   UNL     1     -31.382   5.870   3.113  1.00  0.00    -0.550 OA
ATOM     10  O   UNL     1     -33.582   5.281   3.360  1.00  0.00    -0.550 OA
ENDBRANCH   7   8
ENDBRANCH   6   7
ENDBRANCH   5   6
ENDBRANCH   4   5
ENDBRANCH   3   4
ENDBRANCH   2   3
ENDBRANCH   1   2
BRANCH   1  11
ATOM     11  C   UNL     1     -27.644   4.840  10.219  1.00  0.00     0.000 C 
BRANCH  11  12
ATOM     12  C   UNL     1     -27.940   5.195  11.691  1.00  0.00     0.000 C 
BRANCH  12  13
ATOM     13  C   UNL     1     -26.863   6.081  12.342  1.00  0.00     0.000 C 
BRANCH  13  14
ATOM     14  C   UNL     1     -25.434   5.627  12.002  1.00  0.00     0.000 C 
BRANCH  14  15
ATOM     15  C   UNL     1     -24.371   6.688  12.332  1.00  0.00     0.000 C 
BRANCH  15  16
ATOM     16  C   UNL     1     -23.005   6.138  12.787  1.00  0.00     0.006 C 
BRANCH  16  17
ATOM     17  C   UNL     1     -22.924   4.601  12.821  1.00  0.00     0.053 C 
BRANCH  17  18
ATOM     18  C   UNL     1     -22.384   4.024  11.546  1.00  0.00     0.041 C 
ATOM     19  O   UNL     1     -22.650   2.836  11.223  1.00  0.00    -0.550 OA
ATOM     20  O   UNL     1     -21.549   4.783  10.737  1.00  0.00    -0.550 OA
ENDBRANCH  17  18
ENDBRANCH  16  17
ENDBRANCH  15  16
ENDBRANCH  14  15
ENDBRANCH  13  14
ENDBRANCH  12  13
ENDBRANCH  11  12
ENDBRANCH   1  11
TORSDOF 15
ENDMDL
MODEL 6
REMARK VINA RESULT:    -3.977      5.235      7.339
REMARK INTER + INTRA:          -8.087
REMARK INTER:                  -6.182
REMARK INTRA:                  -1.905
REMARK UNBOUND:                -0.623
REMARK SMILES O=C([O-])CCCCCCCCCCCCCCC(=O)[O-]
REMARK SMILES IDX 10 1 9 2 8 3 7 4 6 5 5 6 4 7 2 8 1 9 3 10 11 11 12 12 13 13
REMARK SMILES IDX 14 14 15 15 16 16 17 17 18 18 19 19 20 20
REMARK H PARENT
REMARK Flexibility Score: inf
ROOT
ATOM      1  C   UNL     1     -22.587   3.027  11.206  1.00  0.00     0.000 C 
ENDROOT
BRANCH   1   2
ATOM      2  C   UNL     1     -21.832   3.256  12.524  1.00  0.00     0.000 C 
BRANCH   2   3
ATOM      3  C   UNL     1     -21.732   4.745  12.899  1.00  0.00     0.000 C 
BRANCH   3   4
ATOM      4  C   UNL     1     -22.401   5.661  11.861  1.00  0.00     0.000 C 
BRANCH   4   5
ATOM      5  C   UNL     1     -22.999   6.930  12.495  1.00  0.00     0.000 C 
BRANCH   5   6
ATOM      6  C   UNL     1     -24.537   6.924  12.488  1.00  0.00     0.006 C 
BRANCH   6   7
ATOM      7  C   UNL     1     -25.122   5.578  12.042  1.00  0.00     0.053 C 
BRANCH   7   8
ATOM      8  C   UNL     1     -26.617   5.625  12.069  1.00  0.00     0.041 C 
ATOM      9  O   UNL     1     -27.218   6.096  13.071  1.00  0.00    -0.550 OA
ATOM     10  O   UNL     1     -27.346   5.196  10.968  1.00  0.00    -0.550 OA
ENDBRANCH   7   8
ENDBRANCH   6   7
ENDBRANCH   5   6
ENDBRANCH   4   5
ENDBRANCH   3   4
ENDBRANCH   2   3
ENDBRANCH   1   2
BRANCH   1  11
ATOM     11  C   UNL     1     -22.085   1.793  10.437  1.00  0.00     0.000 C 
BRANCH  11  12
ATOM     12  C   UNL     1     -21.436   2.172   9.089  1.00  0.00     0.000 C 
BRANCH  12  13
ATOM     13  C   UNL     1     -19.915   1.941   9.049  1.00  0.00     0.000 C 
BRANCH  13  14
ATOM     14  C   UNL     1     -19.304   1.755  10.447  1.00  0.00     0.000 C 
BRANCH  14  15
ATOM     15  C   UNL     1     -18.405   2.928  10.871  1.00  0.00     0.000 C 
BRANCH  15  16
ATOM     16  C   UNL     1     -18.241   4.049   9.826  1.00  0.00     0.006 C 
BRANCH  16  17
ATOM     17  C   UNL     1     -19.102   5.296  10.099  1.00  0.00     0.053 C 
BRANCH  17  18
ATOM     18  C   UNL     1     -19.919   5.705   8.909  1.00  0.00     0.041 C 
ATOM     19  O   UNL     1     -20.880   6.508   9.043  1.00  0.00    -0.550 OA
ATOM     20  O   UNL     1     -19.647   5.165   7.659  1.00  0.00    -0.550 OA
ENDBRANCH  17  18
ENDBRANCH  16  17
ENDBRANCH  15  16
ENDBRANCH  14  15
ENDBRANCH  13  14
ENDBRANCH  12  13
ENDBRANCH  11  12
ENDBRANCH   1  11
TORSDOF 15
ENDMDL
MODEL 7
REMARK VINA RESULT:    -3.848     16.111     20.226
REMARK INTER + INTRA:          -7.844
REMARK INTER:                  -7.374
REMARK INTRA:                  -0.470
REMARK UNBOUND:                -0.623
REMARK SMILES O=C([O-])CCCCCCCCCCCCCCC(=O)[O-]
REMARK SMILES IDX 10 1 9 2 8 3 7 4 6 5 5 6 4 7 2 8 1 9 3 10 11 11 12 12 13 13
REMARK SMILES IDX 14 14 15 15 16 16 17 17 18 18 19 19 20 20
REMARK H PARENT
REMARK Flexibility Score: inf
ROOT
ATOM      1  C   UNL     1     -36.026  -9.568  -0.704  1.00  0.00     0.000 C 
ENDROOT
BRANCH   1   2
ATOM      2  C   UNL     1     -36.290 -10.984  -1.238  1.00  0.00     0.000 C 
BRANCH   2   3
ATOM      3  C   UNL     1     -35.077 -11.573  -1.981  1.00  0.00     0.000 C 
BRANCH   3   4
ATOM      4  C   UNL     1     -34.005 -12.117  -1.022  1.00  0.00     0.000 C 
BRANCH   4   5
ATOM      5  C   UNL     1     -34.435 -12.028   0.453  1.00  0.00     0.000 C 
BRANCH   5   6
ATOM      6  C   UNL     1     -33.240 -12.098   1.419  1.00  0.00     0.006 C 
BRANCH   6   7
ATOM      7  C   UNL     1     -33.606 -11.674   2.847  1.00  0.00     0.053 C 
BRANCH   7   8
ATOM      8  C   UNL     1     -32.375 -11.306   3.613  1.00  0.00     0.041 C 
ATOM      9  O   UNL     1     -32.379 -11.340   4.872  1.00  0.00    -0.550 OA
ATOM     10  O   UNL     1     -31.209 -10.974   2.937  1.00  0.00    -0.550 OA
ENDBRANCH   7   8
ENDBRANCH   6   7
ENDBRANCH   5   6
ENDBRANCH   4   5
ENDBRANCH   3   4
ENDBRANCH   2   3
ENDBRANCH   1   2
BRANCH   1  11
ATOM     11  C   UNL     1     -36.604  -9.344   0.704  1.00  0.00     0.000 C 
BRANCH  11  12
ATOM     12  C   UNL     1     -37.631  -8.192   0.734  1.00  0.00     0.000 C 
BRANCH  12  13
ATOM     13  C   UNL     1     -37.849  -7.523  -0.635  1.00  0.00     0.000 C 
BRANCH  13  14
ATOM     14  C   UNL     1     -38.049  -6.002  -0.528  1.00  0.00     0.000 C 
BRANCH  14  15
ATOM     15  C   UNL     1     -37.100  -5.206  -1.438  1.00  0.00     0.000 C 
BRANCH  15  16
ATOM     16  C   UNL     1     -37.664  -3.879  -1.986  1.00  0.00     0.006 C 
BRANCH  16  17
ATOM     17  C   UNL     1     -36.684  -2.695  -1.899  1.00  0.00     0.053 C 
BRANCH  17  18
ATOM     18  C   UNL     1     -36.941  -1.819  -0.709  1.00  0.00     0.041 C 
ATOM     19  O   UNL     1     -37.417  -2.308   0.349  1.00  0.00    -0.550 OA
ATOM     20  O   UNL     1     -36.698  -0.454  -0.783  1.00  0.00    -0.550 OA
ENDBRANCH  17  18
ENDBRANCH  16  17
ENDBRANCH  15  16
ENDBRANCH  14  15
ENDBRANCH  13  14
ENDBRANCH  12  13
ENDBRANCH  11  12
ENDBRANCH   1  11
TORSDOF 15
ENDMDL
MODEL 8
REMARK VINA RESULT:    -3.820      6.480      8.050
REMARK INTER + INTRA:          -7.792
REMARK INTER:                  -6.076
REMARK INTRA:                  -1.716
REMARK UNBOUND:                -0.623
REMARK SMILES O=C([O-])CCCCCCCCCCCCCCC(=O)[O-]
REMARK SMILES IDX 10 1 9 2 8 3 7 4 6 5 5 6 4 7 2 8 1 9 3 10 11 11 12 12 13 13
REMARK SMILES IDX 14 14 15 15 16 16 17 17 18 18 19 19 20 20
REMARK H PARENT
REMARK Flexibility Score: inf
ROOT
ATOM      1  C   UNL     1     -23.083   7.921  11.542  1.00  0.00     0.000 C 
ENDROOT
BRANCH   1   2
ATOM      2  C   UNL     1     -21.603   8.017  11.943  1.00  0.00     0.000 C 
BRANCH   2   3
ATOM      3  C   UNL     1     -20.729   6.966  11.237  1.00  0.00     0.000 C 
BRANCH   3   4
ATOM      4  C   UNL     1     -20.962   6.927   9.718  1.00  0.00     0.000 C 
BRANCH   4   5
ATOM      5  C   UNL     1     -20.552   5.582   9.093  1.00  0.00     0.000 C 
BRANCH   5   6
ATOM      6  C   UNL     1     -19.204   5.662   8.356  1.00  0.00     0.006 C 
BRANCH   6   7
ATOM      7  C   UNL     1     -19.353   5.546   6.834  1.00  0.00     0.053 C 
BRANCH   7   8
ATOM      8  C   UNL     1     -19.095   4.141   6.391  1.00  0.00     0.041 C 
ATOM      9  O   UNL     1     -19.731   3.186   6.910  1.00  0.00    -0.550 OA
ATOM     10  O   UNL     1     -18.189   3.889   5.369  1.00  0.00    -0.550 OA
ENDBRANCH   7   8
ENDBRANCH   6   7
ENDBRANCH   5   6
ENDBRANCH   4   5
ENDBRANCH   3   4
ENDBRANCH   2   3
ENDBRANCH   1   2
BRANCH   1  11
ATOM     11  C   UNL     1     -23.953   7.255  12.623  1.00  0.00     0.000 C 
BRANCH  11  12
ATOM     12  C   UNL     1     -24.331   5.806  12.252  1.00  0.00     0.000 C 
BRANCH  12  13
ATOM     13  C   UNL     1     -23.277   4.765  12.671  1.00  0.00     0.000 C 
BRANCH  13  14
ATOM     14  C   UNL     1     -23.000   3.725  11.573  1.00  0.00     0.000 C 
BRANCH  14  15
ATOM     15  C   UNL     1     -21.606   3.086  11.690  1.00  0.00     0.000 C 
BRANCH  15  16
ATOM     16  C   UNL     1     -21.135   2.293  10.453  1.00  0.00     0.006 C 
BRANCH  16  17
ATOM     17  C   UNL     1     -22.226   2.085   9.387  1.00  0.00     0.053 C 
BRANCH  17  18
ATOM     18  C   UNL     1     -21.882   0.995   8.415  1.00  0.00     0.041 C 
ATOM     19  O   UNL     1     -21.128   0.048   8.763  1.00  0.00    -0.550 OA
ATOM     20  O   UNL     1     -22.358   1.048   7.112  1.00  0.00    -0.550 OA
ENDBRANCH  17  18
ENDBRANCH  16  17
ENDBRANCH  15  16
ENDBRANCH  14  15
ENDBRANCH  13  14
ENDBRANCH  12  13
ENDBRANCH  11  12
ENDBRANCH   1  11
TORSDOF 15
ENDMDL
MODEL 9
REMARK VINA RESULT:    -3.747      6.566      8.833
REMARK INTER + INTRA:          -7.655
REMARK INTER:                  -5.521
REMARK INTRA:                  -2.133
REMARK UNBOUND:                -0.623
REMARK SMILES O=C([O-])CCCCCCCCCCCCCCC(=O)[O-]
REMARK SMILES IDX 10 1 9 2 8 3 7 4 6 5 5 6 4 7 2 8 1 9 3 10 11 11 12 12 13 13
REMARK SMILES IDX 14 14 15 15 16 16 17 17 18 18 19 19 20 20
REMARK H PARENT
REMARK Flexibility Score: inf
ROOT
ATOM      1  C   UNL     1     -22.045   7.359  10.767  1.00  0.00     0.000 C 
ENDROOT
BRANCH   1   2
ATOM      2  C   UNL     1     -20.612   7.772  11.138  1.00  0.00     0.000 C 
BRANCH   2   3
ATOM      3  C   UNL     1     -20.058   6.979  12.334  1.00  0.00     0.000 C 
BRANCH   3   4
ATOM      4  C   UNL     1     -18.522   6.902  12.331  1.00  0.00     0.000 C 
BRANCH   4   5
ATOM      5  C   UNL     1     -17.987   5.847  11.346  1.00  0.00     0.000 C 
BRANCH   5   6
ATOM      6  C   UNL     1     -18.729   4.505  11.461  1.00  0.00     0.006 C 
BRANCH   6   7
ATOM      7  C   UNL     1     -18.585   3.638  10.204  1.00  0.00     0.053 C 
BRANCH   7   8
ATOM      8  C   UNL     1     -19.154   4.345   9.016  1.00  0.00     0.041 C 
ATOM      9  O   UNL     1     -18.440   4.550   7.998  1.00  0.00    -0.550 OA
ATOM     10  O   UNL     1     -20.487   4.736   9.011  1.00  0.00    -0.550 OA
ENDBRANCH   7   8
ENDBRANCH   6   7
ENDBRANCH   5   6
ENDBRANCH   4   5
ENDBRANCH   3   4
ENDBRANCH   2   3
ENDBRANCH   1   2
BRANCH   1  11
ATOM     11  C   UNL     1     -23.111   8.090  11.602  1.00  0.00     0.000 C 
BRANCH  11  12
ATOM     12  C   UNL     1     -23.688   7.196  12.720  1.00  0.00     0.000 C 
BRANCH  12  13
ATOM     13  C   UNL     1     -23.943   5.743  12.280  1.00  0.00     0.000 C 
BRANCH  13  14
ATOM     14  C   UNL     1     -23.108   4.726  13.075  1.00  0.00     0.000 C 
BRANCH  14  15
ATOM     15  C   UNL     1     -22.129   3.933  12.194  1.00  0.00     0.000 C 
BRANCH  15  16
ATOM     16  C   UNL     1     -22.757   3.225  10.977  1.00  0.00     0.006 C 
BRANCH  16  17
ATOM     17  C   UNL     1     -22.270   1.779  10.769  1.00  0.00     0.053 C 
BRANCH  17  18
ATOM     18  C   UNL     1     -21.926   1.486   9.339  1.00  0.00     0.041 C 
ATOM     19  O   UNL     1     -22.809   1.562   8.444  1.00  0.00    -0.550 OA
ATOM     20  O   UNL     1     -20.640   1.086   8.999  1.00  0.00    -0.550 OA
ENDBRANCH  17  18
ENDBRANCH  16  17
ENDBRANCH  15  16
ENDBRANCH  14  15
ENDBRANCH  13  14
ENDBRANCH  12  13
ENDBRANCH  11  12
ENDBRANCH   1  11
TORSDOF 15
ENDMDL
