MODEL 1
REMARK VINA RESULT:    -2.685      0.000      0.000
REMARK INTER + INTRA:          -7.420
REMARK INTER:                  -6.139
REMARK INTRA:                  -1.281
REMARK UNBOUND:                -1.281
REMARK SMILES CCCCCCCCCCCCCCCCCCCCCCCC(=O)[O-]
REMARK SMILES IDX 13 1 14 2 15 3 16 4 17 5 18 6 19 7 20 8 21 9 22 10 23 11
REMARK SMILES IDX 24 12 25 13 26 14 12 15 11 16 10 17 9 18 8 19 7 20 6 21 5 22
REMARK SMILES IDX 4 23 3 24 2 25 1 26
REMARK H PARENT
REMARK Flexibility Score: inf
ROOT
ATOM      1  C   UNL     1      -3.113  38.960  19.518  1.00  0.00     0.000 C 
ENDROOT
BRANCH   1   2
ATOM      2  C   UNL     1      -4.134  38.134  18.718  1.00  0.00     0.000 C 
BRANCH   2   3
ATOM      3  C   UNL     1      -5.379  37.775  19.546  1.00  0.00     0.000 C 
BRANCH   3   4
ATOM      4  C   UNL     1      -5.443  36.280  19.894  1.00  0.00     0.000 C 
BRANCH   4   5
ATOM      5  C   UNL     1      -6.040  36.070  21.294  1.00  0.00     0.000 C 
BRANCH   5   6
ATOM      6  C   UNL     1      -4.986  36.162  22.408  1.00  0.00     0.000 C 
BRANCH   6   7
ATOM      7  C   UNL     1      -5.419  35.438  23.696  1.00  0.00     0.000 C 
BRANCH   7   8
ATOM      8  C   UNL     1      -6.030  36.391  24.739  1.00  0.00     0.000 C 
BRANCH   8   9
ATOM      9  C   UNL     1      -5.005  37.135  25.615  1.00  0.00     0.000 C 
BRANCH   9  10
ATOM     10  C   UNL     1      -5.050  38.658  25.428  1.00  0.00     0.006 C 
BRANCH  10  11
ATOM     11  C   UNL     1      -5.898  39.036  24.209  1.00  0.00     0.053 C 
BRANCH  11  12
ATOM     12  C   UNL     1      -5.052  39.674  23.153  1.00  0.00     0.041 C 
ATOM     13  O   UNL     1      -3.836  39.919  23.379  1.00  0.00    -0.550 OA
ATOM     14  O   UNL     1      -5.610  40.026  21.930  1.00  0.00    -0.550 OA
ENDBRANCH  11  12
ENDBRANCH  10  11
ENDBRANCH   9  10
ENDBRANCH   8   9
ENDBRANCH   7   8
ENDBRANCH   6   7
ENDBRANCH   5   6
ENDBRANCH   4   5
ENDBRANCH   3   4
ENDBRANCH   2   3
ENDBRANCH   1   2
BRANCH   1  15
ATOM     15  C   UNL     1      -1.815  38.178  19.820  1.00  0.00     0.000 C 
BRANCH  15  16
ATOM     16  C   UNL     1      -0.604  38.639  18.986  1.00  0.00     0.000 C 
BRANCH  16  17
ATOM     17  C   UNL     1      -0.396  37.851  17.681  1.00  0.00     0.000 C 
BRANCH  17  18
ATOM     18  C   UNL     1      -1.718  37.383  17.032  1.00  0.00    -0.000 C 
BRANCH  18  19
ATOM     19  C   UNL     1      -1.892  37.924  15.603  1.00  0.00    -0.000 C 
BRANCH  19  20
ATOM     20  C   UNL     1      -3.078  37.285  14.867  1.00  0.00    -0.000 C 
BRANCH  20  21
ATOM     21  C   UNL     1      -4.242  38.268  14.647  1.00  0.00    -0.000 C 
BRANCH  21  22
ATOM     22  C   UNL     1      -3.764  39.658  14.198  1.00  0.00    -0.000 C 
BRANCH  22  23
ATOM     23  C   UNL     1      -4.930  40.606  13.875  1.00  0.00    -0.000 C 
BRANCH  23  24
ATOM     24  C   UNL     1      -4.547  42.064  14.158  1.00  0.00    -0.000 C 
BRANCH  24  25
ATOM     25  C   UNL     1      -5.778  42.892  14.542  1.00  0.00    -0.003 C 
ATOM     26  C   UNL     1      -5.837  43.125  16.049  1.00  0.00     0.004 C 
ENDBRANCH  24  25
ENDBRANCH  23  24
ENDBRANCH  22  23
ENDBRANCH  21  22
ENDBRANCH  20  21
ENDBRANCH  19  20
ENDBRANCH  18  19
ENDBRANCH  17  18
ENDBRANCH  16  17
ENDBRANCH  15  16
ENDBRANCH   1  15
TORSDOF 22
ENDMDL
MODEL 2
REMARK VINA RESULT:    -2.674      2.123      5.106
REMARK INTER + INTRA:          -7.393
REMARK INTER:                  -5.317
REMARK INTRA:                  -2.076
REMARK UNBOUND:                -1.281
REMARK SMILES CCCCCCCCCCCCCCCCCCCCCCCC(=O)[O-]
REMARK SMILES IDX 13 1 14 2 15 3 16 4 17 5 18 6 19 7 20 8 21 9 22 10 23 11
REMARK SMILES IDX 24 12 25 13 26 14 12 15 11 16 10 17 9 18 8 19 7 20 6 21 5 22
REMARK SMILES IDX 4 23 3 24 2 25 1 26
REMARK H PARENT
REMARK Flexibility Score: inf
ROOT
ATOM      1  C   UNL     1      -5.936  36.087  22.799  1.00  0.00     0.000 C 
ENDROOT
BRANCH   1   2
ATOM      2  C   UNL     1      -6.047  36.275  24.322  1.00  0.00     0.000 C 
BRANCH   2   3
ATOM      3  C   UNL     1      -5.972  37.752  24.739  1.00  0.00     0.000 C 
BRANCH   3   4
ATOM      4  C   UNL     1      -4.588  38.368  24.484  1.00  0.00     0.000 C 
BRANCH   4   5
ATOM      5  C   UNL     1      -4.718  39.776  23.883  1.00  0.00     0.000 C 
BRANCH   5   6
ATOM      6  C   UNL     1      -5.366  39.768  22.489  1.00  0.00     0.000 C 
BRANCH   6   7
ATOM      7  C   UNL     1      -4.626  38.854  21.496  1.00  0.00     0.000 C 
BRANCH   7   8
ATOM      8  C   UNL     1      -5.163  38.975  20.059  1.00  0.00     0.000 C 
BRANCH   8   9
ATOM      9  C   UNL     1      -4.109  38.771  18.955  1.00  0.00     0.000 C 
BRANCH   9  10
ATOM     10  C   UNL     1      -2.765  38.262  19.497  1.00  0.00     0.006 C 
BRANCH  10  11
ATOM     11  C   UNL     1      -1.621  39.194  19.087  1.00  0.00     0.053 C 
BRANCH  11  12
ATOM     12  C   UNL     1      -0.322  38.453  19.049  1.00  0.00     0.041 C 
ATOM     13  O   UNL     1       0.076  37.822  20.064  1.00  0.00    -0.550 OA
ATOM     14  O   UNL     1       0.464  38.482  17.903  1.00  0.00    -0.550 OA
ENDBRANCH  11  12
ENDBRANCH  10  11
ENDBRANCH   9  10
ENDBRANCH   8   9
ENDBRANCH   7   8
ENDBRANCH   6   7
ENDBRANCH   5   6
ENDBRANCH   4   5
ENDBRANCH   3   4
ENDBRANCH   2   3
ENDBRANCH   1   2
BRANCH   1  15
ATOM     15  C   UNL     1      -4.503  35.730  22.343  1.00  0.00     0.000 C 
BRANCH  15  16
ATOM     16  C   UNL     1      -4.345  35.632  20.813  1.00  0.00     0.000 C 
BRANCH  16  17
ATOM     17  C   UNL     1      -5.675  35.622  20.038  1.00  0.00     0.000 C 
BRANCH  17  18
ATOM     18  C   UNL     1      -5.491  35.495  18.508  1.00  0.00    -0.000 C 
BRANCH  18  19
ATOM     19  C   UNL     1      -4.036  35.185  18.117  1.00  0.00    -0.000 C 
BRANCH  19  20
ATOM     20  C   UNL     1      -3.536  36.054  16.955  1.00  0.00    -0.000 C 
BRANCH  20  21
ATOM     21  C   UNL     1      -2.002  36.063  16.835  1.00  0.00    -0.000 C 
BRANCH  21  22
ATOM     22  C   UNL     1      -1.498  37.045  15.765  1.00  0.00    -0.000 C 
BRANCH  22  23
ATOM     23  C   UNL     1      -2.571  37.375  14.716  1.00  0.00    -0.000 C 
BRANCH  23  24
ATOM     24  C   UNL     1      -3.214  38.738  14.998  1.00  0.00    -0.000 C 
BRANCH  24  25
ATOM     25  C   UNL     1      -4.184  39.131  13.878  1.00  0.00    -0.003 C 
ATOM     26  C   UNL     1      -4.657  40.572  14.039  1.00  0.00     0.004 C 
ENDBRANCH  24  25
ENDBRANCH  23  24
ENDBRANCH  22  23
ENDBRANCH  21  22
ENDBRANCH  20  21
ENDBRANCH  19  20
ENDBRANCH  18  19
ENDBRANCH  17  18
ENDBRANCH  16  17
ENDBRANCH  15  16
ENDBRANCH   1  15
TORSDOF 22
ENDMDL
MODEL 3
REMARK VINA RESULT:    -1.909      2.634      6.138
REMARK INTER + INTRA:          -5.645
REMARK INTER:                  -4.967
REMARK INTRA:                  -0.678
REMARK UNBOUND:                -1.281
REMARK SMILES CCCCCCCCCCCCCCCCCCCCCCCC(=O)[O-]
REMARK SMILES IDX 13 1 14 2 15 3 16 4 17 5 18 6 19 7 20 8 21 9 22 10 23 11
REMARK SMILES IDX 24 12 25 13 26 14 12 15 11 16 10 17 9 18 8 19 7 20 6 21 5 22
REMARK SMILES IDX 4 23 3 24 2 25 1 26
REMARK H PARENT
REMARK Flexibility Score: inf
ROOT
ATOM      1  C   UNL     1      -6.005  37.420  24.976  1.00  0.00     0.000 C 
ENDROOT
BRANCH   1   2
ATOM      2  C   UNL     1      -4.648  37.988  25.423  1.00  0.00     0.000 C 
BRANCH   2   3
ATOM      3  C   UNL     1      -4.244  39.241  24.629  1.00  0.00     0.000 C 
BRANCH   3   4
ATOM      4  C   UNL     1      -5.385  39.773  23.747  1.00  0.00     0.000 C 
BRANCH   4   5
ATOM      5  C   UNL     1      -4.870  40.845  22.775  1.00  0.00     0.000 C 
BRANCH   5   6
ATOM      6  C   UNL     1      -5.829  41.088  21.598  1.00  0.00     0.000 C 
BRANCH   6   7
ATOM      7  C   UNL     1      -6.125  39.805  20.800  1.00  0.00     0.000 C 
BRANCH   7   8
ATOM      8  C   UNL     1      -4.955  38.805  20.821  1.00  0.00     0.000 C 
BRANCH   8   9
ATOM      9  C   UNL     1      -4.112  38.768  19.533  1.00  0.00     0.000 C 
BRANCH   9  10
ATOM     10  C   UNL     1      -2.611  38.587  19.804  1.00  0.00     0.006 C 
BRANCH  10  11
ATOM     11  C   UNL     1      -1.802  38.712  18.510  1.00  0.00     0.053 C 
BRANCH  11  12
ATOM     12  C   UNL     1      -0.363  38.385  18.752  1.00  0.00     0.041 C 
ATOM     13  O   UNL     1       0.015  37.994  19.889  1.00  0.00    -0.550 OA
ATOM     14  O   UNL     1       0.569  38.540  17.732  1.00  0.00    -0.550 OA
ENDBRANCH  11  12
ENDBRANCH  10  11
ENDBRANCH   9  10
ENDBRANCH   8   9
ENDBRANCH   7   8
ENDBRANCH   6   7
ENDBRANCH   5   6
ENDBRANCH   4   5
ENDBRANCH   3   4
ENDBRANCH   2   3
ENDBRANCH   1   2
BRANCH   1  15
ATOM     15  C   UNL     1      -6.090  35.884  25.127  1.00  0.00     0.000 C 
BRANCH  15  16
ATOM     16  C   UNL     1      -6.125  35.129  23.783  1.00  0.00     0.000 C 
BRANCH  16  17
ATOM     17  C   UNL     1      -5.822  36.006  22.555  1.00  0.00     0.000 C 
BRANCH  17  18
ATOM     18  C   UNL     1      -4.333  35.985  22.141  1.00  0.00    -0.000 C 
BRANCH  18  19
ATOM     19  C   UNL     1      -4.149  35.825  20.623  1.00  0.00    -0.000 C 
BRANCH  19  20
ATOM     20  C   UNL     1      -5.484  35.766  19.867  1.00  0.00    -0.000 C 
BRANCH  20  21
ATOM     21  C   UNL     1      -5.301  35.582  18.350  1.00  0.00    -0.000 C 
BRANCH  21  22
ATOM     22  C   UNL     1      -3.824  35.605  17.926  1.00  0.00    -0.000 C 
BRANCH  22  23
ATOM     23  C   UNL     1      -3.523  36.705  16.896  1.00  0.00    -0.000 C 
BRANCH  23  24
ATOM     24  C   UNL     1      -2.223  36.408  16.139  1.00  0.00    -0.000 C 
BRANCH  24  25
ATOM     25  C   UNL     1      -2.180  37.159  14.804  1.00  0.00    -0.003 C 
ATOM     26  C   UNL     1      -3.384  38.082  14.651  1.00  0.00     0.004 C 
ENDBRANCH  24  25
ENDBRANCH  23  24
ENDBRANCH  22  23
ENDBRANCH  21  22
ENDBRANCH  20  21
ENDBRANCH  19  20
ENDBRANCH  18  19
ENDBRANCH  17  18
ENDBRANCH  16  17
ENDBRANCH  15  16
ENDBRANCH   1  15
TORSDOF 22
ENDMDL
MODEL 4
REMARK VINA RESULT:    -1.104      3.039      8.523
REMARK INTER + INTRA:          -3.804
REMARK INTER:                  -2.364
REMARK INTRA:                  -1.441
REMARK UNBOUND:                -1.281
REMARK SMILES CCCCCCCCCCCCCCCCCCCCCCCC(=O)[O-]
REMARK SMILES IDX 13 1 14 2 15 3 16 4 17 5 18 6 19 7 20 8 21 9 22 10 23 11
REMARK SMILES IDX 24 12 25 13 26 14 12 15 11 16 10 17 9 18 8 19 7 20 6 21 5 22
REMARK SMILES IDX 4 23 3 24 2 25 1 26
REMARK H PARENT
REMARK Flexibility Score: inf
ROOT
ATOM      1  C   UNL     1      -3.477  35.540  20.754  1.00  0.00     0.000 C 
ENDROOT
BRANCH   1   2
ATOM      2  C   UNL     1      -4.239  34.957  19.552  1.00  0.00     0.000 C 
BRANCH   2   3
ATOM      3  C   UNL     1      -4.458  35.991  18.436  1.00  0.00     0.000 C 
BRANCH   3   4
ATOM      4  C   UNL     1      -4.489  37.433  18.967  1.00  0.00     0.000 C 
BRANCH   4   5
ATOM      5  C   UNL     1      -3.328  38.254  18.386  1.00  0.00     0.000 C 
BRANCH   5   6
ATOM      6  C   UNL     1      -2.118  38.320  19.332  1.00  0.00     0.000 C 
BRANCH   6   7
ATOM      7  C   UNL     1      -0.792  37.992  18.622  1.00  0.00     0.000 C 
BRANCH   7   8
ATOM      8  C   UNL     1      -0.926  37.966  17.089  1.00  0.00     0.000 C 
BRANCH   8   9
ATOM      9  C   UNL     1      -1.586  36.696  16.519  1.00  0.00     0.000 C 
BRANCH   9  10
ATOM     10  C   UNL     1      -2.166  36.902  15.112  1.00  0.00     0.006 C 
BRANCH  10  11
ATOM     11  C   UNL     1      -2.378  38.391  14.819  1.00  0.00     0.053 C 
BRANCH  11  12
ATOM     12  C   UNL     1      -3.740  38.629  14.249  1.00  0.00     0.041 C 
ATOM     13  O   UNL     1      -4.178  39.804  14.126  1.00  0.00    -0.550 OA
ATOM     14  O   UNL     1      -4.540  37.553  13.881  1.00  0.00    -0.550 OA
ENDBRANCH  11  12
ENDBRANCH  10  11
ENDBRANCH   9  10
ENDBRANCH   8   9
ENDBRANCH   7   8
ENDBRANCH   6   7
ENDBRANCH   5   6
ENDBRANCH   4   5
ENDBRANCH   3   4
ENDBRANCH   2   3
ENDBRANCH   1   2
BRANCH   1  15
ATOM     15  C   UNL     1      -3.938  34.942  22.103  1.00  0.00     0.000 C 
BRANCH  15  16
ATOM     16  C   UNL     1      -4.713  35.936  22.990  1.00  0.00     0.000 C 
BRANCH  16  17
ATOM     17  C   UNL     1      -5.994  36.494  22.347  1.00  0.00     0.000 C 
BRANCH  17  18
ATOM     18  C   UNL     1      -5.811  37.905  21.741  1.00  0.00    -0.000 C 
BRANCH  18  19
ATOM     19  C   UNL     1      -4.435  38.508  22.068  1.00  0.00    -0.000 C 
BRANCH  19  20
ATOM     20  C   UNL     1      -4.521  39.974  22.516  1.00  0.00    -0.000 C 
BRANCH  20  21
ATOM     21  C   UNL     1      -4.729  40.122  24.034  1.00  0.00    -0.000 C 
BRANCH  21  22
ATOM     22  C   UNL     1      -5.852  39.217  24.567  1.00  0.00    -0.000 C 
BRANCH  22  23
ATOM     23  C   UNL     1      -5.483  38.543  25.899  1.00  0.00    -0.000 C 
BRANCH  23  24
ATOM     24  C   UNL     1      -4.114  37.860  25.807  1.00  0.00    -0.000 C 
BRANCH  24  25
ATOM     25  C   UNL     1      -3.045  38.668  26.552  1.00  0.00    -0.003 C 
ATOM     26  C   UNL     1      -2.207  37.770  27.457  1.00  0.00     0.004 C 
ENDBRANCH  24  25
ENDBRANCH  23  24
ENDBRANCH  22  23
ENDBRANCH  21  22
ENDBRANCH  20  21
ENDBRANCH  19  20
ENDBRANCH  18  19
ENDBRANCH  17  18
ENDBRANCH  16  17
ENDBRANCH  15  16
ENDBRANCH   1  15
TORSDOF 22
ENDMDL
MODEL 5
REMARK VINA RESULT:    -0.432      3.113      7.635
REMARK INTER + INTRA:          -2.268
REMARK INTER:                  -1.278
REMARK INTRA:                  -0.990
REMARK UNBOUND:                -1.281
REMARK SMILES CCCCCCCCCCCCCCCCCCCCCCCC(=O)[O-]
REMARK SMILES IDX 13 1 14 2 15 3 16 4 17 5 18 6 19 7 20 8 21 9 22 10 23 11
REMARK SMILES IDX 24 12 25 13 26 14 12 15 11 16 10 17 9 18 8 19 7 20 6 21 5 22
REMARK SMILES IDX 4 23 3 24 2 25 1 26
REMARK H PARENT
REMARK Flexibility Score: inf
ROOT
ATOM      1  C   UNL     1      -5.316  39.399  24.645  1.00  0.00     0.000 C 
ENDROOT
BRANCH   1   2
ATOM      2  C   UNL     1      -4.689  40.653  24.015  1.00  0.00     0.000 C 
BRANCH   2   3
ATOM      3  C   UNL     1      -4.507  40.521  22.494  1.00  0.00     0.000 C 
BRANCH   3   4
ATOM      4  C   UNL     1      -5.695  39.818  21.818  1.00  0.00     0.000 C 
BRANCH   4   5
ATOM      5  C   UNL     1      -5.710  40.101  20.308  1.00  0.00     0.000 C 
BRANCH   5   6
ATOM      6  C   UNL     1      -5.174  38.922  19.480  1.00  0.00     0.000 C 
BRANCH   6   7
ATOM      7  C   UNL     1      -3.711  38.579  19.814  1.00  0.00     0.000 C 
BRANCH   7   8
ATOM      8  C   UNL     1      -2.880  38.228  18.568  1.00  0.00     0.000 C 
BRANCH   8   9
ATOM      9  C   UNL     1      -1.366  38.475  18.709  1.00  0.00     0.000 C 
BRANCH   9  10
ATOM     10  C   UNL     1      -0.605  38.298  17.387  1.00  0.00     0.006 C 
BRANCH  10  11
ATOM     11  C   UNL     1      -1.224  37.181  16.542  1.00  0.00     0.053 C 
BRANCH  11  12
ATOM     12  C   UNL     1      -2.027  37.752  15.417  1.00  0.00     0.041 C 
ATOM     13  O   UNL     1      -1.818  37.371  14.234  1.00  0.00    -0.550 OA
ATOM     14  O   UNL     1      -2.986  38.726  15.668  1.00  0.00    -0.550 OA
ENDBRANCH  11  12
ENDBRANCH  10  11
ENDBRANCH   9  10
ENDBRANCH   8   9
ENDBRANCH   7   8
ENDBRANCH   6   7
ENDBRANCH   5   6
ENDBRANCH   4   5
ENDBRANCH   3   4
ENDBRANCH   2   3
ENDBRANCH   1   2
BRANCH   1  15
ATOM     15  C   UNL     1      -4.509  38.866  25.850  1.00  0.00     0.000 C 
BRANCH  15  16
ATOM     16  C   UNL     1      -4.588  37.336  26.024  1.00  0.00     0.000 C 
BRANCH  16  17
ATOM     17  C   UNL     1      -5.962  36.731  25.687  1.00  0.00     0.000 C 
BRANCH  17  18
ATOM     18  C   UNL     1      -5.889  35.245  25.267  1.00  0.00    -0.000 C 
BRANCH  18  19
ATOM     19  C   UNL     1      -6.123  35.049  23.760  1.00  0.00    -0.000 C 
BRANCH  19  20
ATOM     20  C   UNL     1      -6.076  36.368  22.976  1.00  0.00    -0.000 C 
BRANCH  20  21
ATOM     21  C   UNL     1      -4.775  36.537  22.171  1.00  0.00    -0.000 C 
BRANCH  21  22
ATOM     22  C   UNL     1      -4.724  35.627  20.933  1.00  0.00    -0.000 C 
BRANCH  22  23
ATOM     23  C   UNL     1      -5.873  35.903  19.951  1.00  0.00    -0.000 C 
BRANCH  23  24
ATOM     24  C   UNL     1      -5.570  35.309  18.570  1.00  0.00    -0.000 C 
BRANCH  24  25
ATOM     25  C   UNL     1      -4.059  35.176  18.349  1.00  0.00    -0.003 C 
ATOM     26  C   UNL     1      -3.704  35.306  16.871  1.00  0.00     0.004 C 
ENDBRANCH  24  25
ENDBRANCH  23  24
ENDBRANCH  22  23
ENDBRANCH  21  22
ENDBRANCH  20  21
ENDBRANCH  19  20
ENDBRANCH  18  19
ENDBRANCH  17  18
ENDBRANCH  16  17
ENDBRANCH  15  16
ENDBRANCH   1  15
TORSDOF 22
ENDMDL
MODEL 6
REMARK VINA RESULT:    -0.394      3.040      7.732
REMARK INTER + INTRA:          -2.181
REMARK INTER:                  -1.064
REMARK INTRA:                  -1.116
REMARK UNBOUND:                -1.281
REMARK SMILES CCCCCCCCCCCCCCCCCCCCCCCC(=O)[O-]
REMARK SMILES IDX 13 1 14 2 15 3 16 4 17 5 18 6 19 7 20 8 21 9 22 10 23 11
REMARK SMILES IDX 24 12 25 13 26 14 12 15 11 16 10 17 9 18 8 19 7 20 6 21 5 22
REMARK SMILES IDX 4 23 3 24 2 25 1 26
REMARK H PARENT
REMARK Flexibility Score: inf
ROOT
ATOM      1  C   UNL     1      -3.902  36.448  21.741  1.00  0.00     0.000 C 
ENDROOT
BRANCH   1   2
ATOM      2  C   UNL     1      -5.074  37.243  21.141  1.00  0.00     0.000 C 
BRANCH   2   3
ATOM      3  C   UNL     1      -5.130  37.141  19.608  1.00  0.00     0.000 C 
BRANCH   3   4
ATOM      4  C   UNL     1      -6.019  35.983  19.127  1.00  0.00     0.000 C 
BRANCH   4   5
ATOM      5  C   UNL     1      -5.173  34.882  18.468  1.00  0.00     0.000 C 
BRANCH   5   6
ATOM      6  C   UNL     1      -3.748  35.351  18.133  1.00  0.00     0.000 C 
BRANCH   6   7
ATOM      7  C   UNL     1      -3.663  36.068  16.774  1.00  0.00     0.000 C 
BRANCH   7   8
ATOM      8  C   UNL     1      -2.216  36.383  16.354  1.00  0.00     0.000 C 
BRANCH   8   9
ATOM      9  C   UNL     1      -1.781  37.842  16.580  1.00  0.00     0.000 C 
BRANCH   9  10
ATOM     10  C   UNL     1      -2.679  38.588  17.578  1.00  0.00     0.006 C 
BRANCH  10  11
ATOM     11  C   UNL     1      -2.123  38.481  19.002  1.00  0.00     0.053 C 
BRANCH  11  12
ATOM     12  C   UNL     1      -0.638  38.654  19.005  1.00  0.00     0.041 C 
ATOM     13  O   UNL     1      -0.100  39.523  18.267  1.00  0.00    -0.550 OA
ATOM     14  O   UNL     1       0.158  37.837  19.799  1.00  0.00    -0.550 OA
ENDBRANCH  11  12
ENDBRANCH  10  11
ENDBRANCH   9  10
ENDBRANCH   8   9
ENDBRANCH   7   8
ENDBRANCH   6   7
ENDBRANCH   5   6
ENDBRANCH   4   5
ENDBRANCH   3   4
ENDBRANCH   2   3
ENDBRANCH   1   2
BRANCH   1  15
ATOM     15  C   UNL     1      -4.338  35.081  22.316  1.00  0.00     0.000 C 
BRANCH  15  16
ATOM     16  C   UNL     1      -5.820  35.028  22.738  1.00  0.00     0.000 C 
BRANCH  16  17
ATOM     17  C   UNL     1      -6.102  34.124  23.950  1.00  0.00     0.000 C 
BRANCH  17  18
ATOM     18  C   UNL     1      -6.125  34.890  25.293  1.00  0.00    -0.000 C 
BRANCH  18  19
ATOM     19  C   UNL     1      -5.924  36.403  25.108  1.00  0.00    -0.000 C 
BRANCH  19  20
ATOM     20  C   UNL     1      -4.443  36.806  25.082  1.00  0.00    -0.000 C 
BRANCH  20  21
ATOM     21  C   UNL     1      -4.168  38.109  25.855  1.00  0.00    -0.000 C 
BRANCH  21  22
ATOM     22  C   UNL     1      -5.354  39.085  25.808  1.00  0.00    -0.000 C 
BRANCH  22  23
ATOM     23  C   UNL     1      -5.773  39.436  24.372  1.00  0.00    -0.000 C 
BRANCH  23  24
ATOM     24  C   UNL     1      -4.750  40.371  23.715  1.00  0.00    -0.000 C 
BRANCH  24  25
ATOM     25  C   UNL     1      -4.595  40.055  22.223  1.00  0.00    -0.003 C 
ATOM     26  C   UNL     1      -5.725  40.677  21.408  1.00  0.00     0.004 C 
ENDBRANCH  24  25
ENDBRANCH  23  24
ENDBRANCH  22  23
ENDBRANCH  21  22
ENDBRANCH  20  21
ENDBRANCH  19  20
ENDBRANCH  18  19
ENDBRANCH  17  18
ENDBRANCH  16  17
ENDBRANCH  15  16
ENDBRANCH   1  15
TORSDOF 22
ENDMDL
MODEL 7
REMARK VINA RESULT:    -0.135      2.619      7.685
REMARK INTER + INTRA:          -1.589
REMARK INTER:                  -1.037
REMARK INTRA:                  -0.552
REMARK UNBOUND:                -1.281
REMARK SMILES CCCCCCCCCCCCCCCCCCCCCCCC(=O)[O-]
REMARK SMILES IDX 13 1 14 2 15 3 16 4 17 5 18 6 19 7 20 8 21 9 22 10 23 11
REMARK SMILES IDX 24 12 25 13 26 14 12 15 11 16 10 17 9 18 8 19 7 20 6 21 5 22
REMARK SMILES IDX 4 23 3 24 2 25 1 26
REMARK H PARENT
REMARK Flexibility Score: inf
ROOT
ATOM      1  C   UNL     1      -4.257  35.682  22.188  1.00  0.00     0.000 C 
ENDROOT
BRANCH   1   2
ATOM      2  C   UNL     1      -4.134  35.383  20.684  1.00  0.00     0.000 C 
BRANCH   2   3
ATOM      3  C   UNL     1      -5.445  35.640  19.924  1.00  0.00     0.000 C 
BRANCH   3   4
ATOM      4  C   UNL     1      -5.255  35.627  18.399  1.00  0.00     0.000 C 
BRANCH   4   5
ATOM      5  C   UNL     1      -3.767  35.739  18.034  1.00  0.00     0.000 C 
BRANCH   5   6
ATOM      6  C   UNL     1      -3.538  35.893  16.521  1.00  0.00     0.000 C 
BRANCH   6   7
ATOM      7  C   UNL     1      -3.683  37.349  16.045  1.00  0.00     0.000 C 
BRANCH   7   8
ATOM      8  C   UNL     1      -2.847  37.653  14.789  1.00  0.00     0.000 C 
BRANCH   8   9
ATOM      9  C   UNL     1      -1.330  37.451  14.957  1.00  0.00     0.000 C 
BRANCH   9  10
ATOM     10  C   UNL     1      -0.921  37.160  16.409  1.00  0.00     0.006 C 
BRANCH  10  11
ATOM     11  C   UNL     1      -0.630  38.458  17.167  1.00  0.00     0.053 C 
BRANCH  11  12
ATOM     12  C   UNL     1      -0.796  38.259  18.640  1.00  0.00     0.041 C 
ATOM     13  O   UNL     1      -1.935  38.372  19.169  1.00  0.00    -0.550 OA
ATOM     14  O   UNL     1       0.308  37.978  19.435  1.00  0.00    -0.550 OA
ENDBRANCH  11  12
ENDBRANCH  10  11
ENDBRANCH   9  10
ENDBRANCH   8   9
ENDBRANCH   7   8
ENDBRANCH   6   7
ENDBRANCH   5   6
ENDBRANCH   4   5
ENDBRANCH   3   4
ENDBRANCH   2   3
ENDBRANCH   1   2
BRANCH   1  15
ATOM     15  C   UNL     1      -5.719  35.646  22.688  1.00  0.00     0.000 C 
BRANCH  15  16
ATOM     16  C   UNL     1      -6.125  36.884  23.511  1.00  0.00     0.000 C 
BRANCH  16  17
ATOM     17  C   UNL     1      -5.966  36.714  25.032  1.00  0.00     0.000 C 
BRANCH  17  18
ATOM     18  C   UNL     1      -4.750  37.474  25.609  1.00  0.00    -0.000 C 
BRANCH  18  19
ATOM     19  C   UNL     1      -5.139  38.840  26.197  1.00  0.00    -0.000 C 
BRANCH  19  20
ATOM     20  C   UNL     1      -4.898  39.998  25.218  1.00  0.00    -0.000 C 
BRANCH  20  21
ATOM     21  C   UNL     1      -4.200  39.547  23.923  1.00  0.00    -0.000 C 
BRANCH  21  22
ATOM     22  C   UNL     1      -4.528  40.457  22.728  1.00  0.00    -0.000 C 
BRANCH  22  23
ATOM     23  C   UNL     1      -5.954  40.242  22.198  1.00  0.00    -0.000 C 
BRANCH  23  24
ATOM     24  C   UNL     1      -6.029  40.526  20.693  1.00  0.00    -0.000 C 
BRANCH  24  25
ATOM     25  C   UNL     1      -5.683  39.273  19.879  1.00  0.00    -0.003 C 
ATOM     26  C   UNL     1      -4.267  38.794  20.180  1.00  0.00     0.004 C 
ENDBRANCH  24  25
ENDBRANCH  23  24
ENDBRANCH  22  23
ENDBRANCH  21  22
ENDBRANCH  20  21
ENDBRANCH  19  20
ENDBRANCH  18  19
ENDBRANCH  17  18
ENDBRANCH  16  17
ENDBRANCH  15  16
ENDBRANCH   1  15
TORSDOF 22
ENDMDL
MODEL 8
REMARK VINA RESULT:     0.059      2.299      4.115
REMARK INTER + INTRA:          -1.146
REMARK INTER:                  -0.307
REMARK INTRA:                  -0.839
REMARK UNBOUND:                -1.281
REMARK SMILES CCCCCCCCCCCCCCCCCCCCCCCC(=O)[O-]
REMARK SMILES IDX 13 1 14 2 15 3 16 4 17 5 18 6 19 7 20 8 21 9 22 10 23 11
REMARK SMILES IDX 24 12 25 13 26 14 12 15 11 16 10 17 9 18 8 19 7 20 6 21 5 22
REMARK SMILES IDX 4 23 3 24 2 25 1 26
REMARK H PARENT
REMARK Flexibility Score: inf
ROOT
ATOM      1  C   UNL     1      -4.078  35.010  22.027  1.00  0.00     0.000 C 
ENDROOT
BRANCH   1   2
ATOM      2  C   UNL     1      -5.113  36.026  22.540  1.00  0.00     0.000 C 
BRANCH   2   3
ATOM      3  C   UNL     1      -5.811  36.781  21.398  1.00  0.00     0.000 C 
BRANCH   3   4
ATOM      4  C   UNL     1      -5.622  38.303  21.496  1.00  0.00     0.000 C 
BRANCH   4   5
ATOM      5  C   UNL     1      -4.232  38.646  22.054  1.00  0.00     0.000 C 
BRANCH   5   6
ATOM      6  C   UNL     1      -4.183  40.037  22.708  1.00  0.00     0.000 C 
BRANCH   6   7
ATOM      7  C   UNL     1      -5.018  40.115  23.998  1.00  0.00     0.000 C 
BRANCH   7   8
ATOM      8  C   UNL     1      -5.935  38.895  24.191  1.00  0.00     0.000 C 
BRANCH   8   9
ATOM      9  C   UNL     1      -5.720  38.126  25.507  1.00  0.00     0.000 C 
BRANCH   9  10
ATOM     10  C   UNL     1      -4.253  37.736  25.741  1.00  0.00     0.006 C 
BRANCH  10  11
ATOM     11  C   UNL     1      -3.578  38.703  26.718  1.00  0.00     0.053 C 
BRANCH  11  12
ATOM     12  C   UNL     1      -2.301  38.124  27.238  1.00  0.00     0.041 C 
ATOM     13  O   UNL     1      -1.253  38.824  27.263  1.00  0.00    -0.550 OA
ATOM     14  O   UNL     1      -2.258  36.803  27.669  1.00  0.00    -0.550 OA
ENDBRANCH  11  12
ENDBRANCH  10  11
ENDBRANCH   9  10
ENDBRANCH   8   9
ENDBRANCH   7   8
ENDBRANCH   6   7
ENDBRANCH   5   6
ENDBRANCH   4   5
ENDBRANCH   3   4
ENDBRANCH   2   3
ENDBRANCH   1   2
BRANCH   1  15
ATOM     15  C   UNL     1      -3.418  35.446  20.699  1.00  0.00     0.000 C 
BRANCH  15  16
ATOM     16  C   UNL     1      -4.399  35.513  19.511  1.00  0.00     0.000 C 
BRANCH  16  17
ATOM     17  C   UNL     1      -3.833  36.209  18.261  1.00  0.00     0.000 C 
BRANCH  17  18
ATOM     18  C   UNL     1      -3.849  37.752  18.360  1.00  0.00    -0.000 C 
BRANCH  18  19
ATOM     19  C   UNL     1      -2.584  38.308  19.033  1.00  0.00    -0.000 C 
BRANCH  19  20
ATOM     20  C   UNL     1      -1.308  37.574  18.596  1.00  0.00    -0.000 C 
BRANCH  20  21
ATOM     21  C   UNL     1      -0.816  38.011  17.205  1.00  0.00    -0.000 C 
BRANCH  21  22
ATOM     22  C   UNL     1      -1.219  37.022  16.099  1.00  0.00    -0.000 C 
BRANCH  22  23
ATOM     23  C   UNL     1      -1.937  37.709  14.927  1.00  0.00    -0.000 C 
BRANCH  23  24
ATOM     24  C   UNL     1      -3.347  37.137  14.736  1.00  0.00    -0.000 C 
BRANCH  24  25
ATOM     25  C   UNL     1      -4.207  38.068  13.875  1.00  0.00    -0.003 C 
ATOM     26  C   UNL     1      -3.913  39.533  14.184  1.00  0.00     0.004 C 
ENDBRANCH  24  25
ENDBRANCH  23  24
ENDBRANCH  22  23
ENDBRANCH  21  22
ENDBRANCH  20  21
ENDBRANCH  19  20
ENDBRANCH  18  19
ENDBRANCH  17  18
ENDBRANCH  16  17
ENDBRANCH  15  16
ENDBRANCH   1  15
TORSDOF 22
ENDMDL
