MODEL 1
REMARK VINA RESULT:    -3.279      0.000      0.000
REMARK INTER + INTRA:          -5.010
REMARK INTER:                  -4.429
REMARK INTRA:                  -0.581
REMARK UNBOUND:                -0.581
REMARK SMILES CCCCCCCC(=O)[O-]
REMARK SMILES IDX 5 1 6 2 7 3 8 4 9 5 10 6 4 7 3 8 2 9 1 10
REMARK H PARENT
REMARK Flexibility Score: inf
ROOT
ATOM      1  C   UNL     1     147.992 153.863 147.998  1.00  0.00     0.000 C 
ENDROOT
BRANCH   1   2
ATOM      2  C   UNL     1     148.933 155.068 148.142  1.00  0.00     0.006 C 
BRANCH   2   3
ATOM      3  C   UNL     1     149.782 155.296 146.883  1.00  0.00     0.053 C 
BRANCH   3   4
ATOM      4  C   UNL     1     151.244 155.349 147.203  1.00  0.00     0.041 C 
ATOM      5  O   UNL     1     151.632 155.730 148.338  1.00  0.00    -0.550 OA
ATOM      6  O   UNL     1     152.178 154.947 146.256  1.00  0.00    -0.550 OA
ENDBRANCH   3   4
ENDBRANCH   2   3
ENDBRANCH   1   2
BRANCH   1   7
ATOM      7  C   UNL     1     148.151 153.205 146.622  1.00  0.00     0.000 C 
BRANCH   7   8
ATOM      8  C   UNL     1     148.541 151.727 146.760  1.00  0.00    -0.000 C 
BRANCH   8   9
ATOM      9  C   UNL     1     150.009 151.509 146.375  1.00  0.00    -0.003 C 
ATOM     10  C   UNL     1     150.925 151.682 147.582  1.00  0.00     0.004 C 
ENDBRANCH   8   9
ENDBRANCH   7   8
ENDBRANCH   1   7
TORSDOF 6
ENDMDL
MODEL 2
REMARK VINA RESULT:    -3.266      0.900      1.424
REMARK INTER + INTRA:          -4.993
REMARK INTER:                  -4.449
REMARK INTRA:                  -0.544
REMARK UNBOUND:                -0.581
REMARK SMILES CCCCCCCC(=O)[O-]
REMARK SMILES IDX 5 1 6 2 7 3 8 4 9 5 10 6 4 7 3 8 2 9 1 10
REMARK H PARENT
REMARK Flexibility Score: inf
ROOT
ATOM      1  C   UNL     1     147.968 153.570 147.873  1.00  0.00     0.000 C 
ENDROOT
BRANCH   1   2
ATOM      2  C   UNL     1     148.613 154.936 147.599  1.00  0.00     0.006 C 
BRANCH   2   3
ATOM      3  C   UNL     1     149.698 155.282 148.628  1.00  0.00     0.053 C 
BRANCH   3   4
ATOM      4  C   UNL     1     150.982 155.679 147.968  1.00  0.00     0.041 C 
ATOM      5  O   UNL     1     151.098 155.618 146.716  1.00  0.00    -0.550 OA
ATOM      6  O   UNL     1     152.043 156.146 148.734  1.00  0.00    -0.550 OA
ENDBRANCH   3   4
ENDBRANCH   2   3
ENDBRANCH   1   2
BRANCH   1   7
ATOM      7  C   UNL     1     148.300 152.572 146.757  1.00  0.00     0.000 C 
BRANCH   7   8
ATOM      8  C   UNL     1     149.079 151.371 147.307  1.00  0.00    -0.000 C 
BRANCH   8   9
ATOM      9  C   UNL     1     150.591 151.619 147.241  1.00  0.00    -0.003 C 
ATOM     10  C   UNL     1     150.999 152.166 145.877  1.00  0.00     0.004 C 
ENDBRANCH   8   9
ENDBRANCH   7   8
ENDBRANCH   1   7
TORSDOF 6
ENDMDL
MODEL 3
REMARK VINA RESULT:    -3.190     11.556     12.811
REMARK INTER + INTRA:          -4.890
REMARK INTER:                  -4.458
REMARK INTRA:                  -0.431
REMARK UNBOUND:                -0.581
REMARK SMILES CCCCCCCC(=O)[O-]
REMARK SMILES IDX 5 1 6 2 7 3 8 4 9 5 10 6 4 7 3 8 2 9 1 10
REMARK H PARENT
REMARK Flexibility Score: inf
ROOT
ATOM      1  C   UNL     1     154.910 152.158 157.500  1.00  0.00     0.000 C 
ENDROOT
BRANCH   1   2
ATOM      2  C   UNL     1     153.609 151.344 157.560  1.00  0.00     0.006 C 
BRANCH   2   3
ATOM      3  C   UNL     1     153.283 150.875 158.985  1.00  0.00     0.053 C 
BRANCH   3   4
ATOM      4  C   UNL     1     152.670 151.970 159.802  1.00  0.00     0.041 C 
ATOM      5  O   UNL     1     153.069 152.186 160.977  1.00  0.00    -0.550 OA
ATOM      6  O   UNL     1     151.678 152.774 159.255  1.00  0.00    -0.550 OA
ENDBRANCH   3   4
ENDBRANCH   2   3
ENDBRANCH   1   2
BRANCH   1   7
ATOM      7  C   UNL     1     154.636 153.595 157.038  1.00  0.00     0.000 C 
BRANCH   7   8
ATOM      8  C   UNL     1     155.028 154.606 158.124  1.00  0.00    -0.000 C 
BRANCH   8   9
ATOM      9  C   UNL     1     153.829 155.473 158.524  1.00  0.00    -0.003 C 
ATOM     10  C   UNL     1     154.282 156.841 159.026  1.00  0.00     0.004 C 
ENDBRANCH   8   9
ENDBRANCH   7   8
ENDBRANCH   1   7
TORSDOF 6
ENDMDL
MODEL 4
REMARK VINA RESULT:    -3.154     10.900     11.855
REMARK INTER + INTRA:          -4.842
REMARK INTER:                  -4.231
REMARK INTRA:                  -0.611
REMARK UNBOUND:                -0.581
REMARK SMILES CCCCCCCC(=O)[O-]
REMARK SMILES IDX 5 1 6 2 7 3 8 4 9 5 10 6 4 7 3 8 2 9 1 10
REMARK H PARENT
REMARK Flexibility Score: inf
ROOT
ATOM      1  C   UNL     1     153.058 152.092 160.036  1.00  0.00     0.000 C 
ENDROOT
BRANCH   1   2
ATOM      2  C   UNL     1     151.685 152.770 159.926  1.00  0.00     0.006 C 
BRANCH   2   3
ATOM      3  C   UNL     1     151.739 154.057 159.090  1.00  0.00     0.053 C 
BRANCH   3   4
ATOM      4  C   UNL     1     150.857 153.972 157.883  1.00  0.00     0.041 C 
ATOM      5  O   UNL     1     150.513 152.850 157.426  1.00  0.00    -0.550 OA
ATOM      6  O   UNL     1     150.388 155.132 157.281  1.00  0.00    -0.550 OA
ENDBRANCH   3   4
ENDBRANCH   2   3
ENDBRANCH   1   2
BRANCH   1   7
ATOM      7  C   UNL     1     153.145 150.875 159.106  1.00  0.00     0.000 C 
BRANCH   7   8
ATOM      8  C   UNL     1     153.668 151.277 157.721  1.00  0.00    -0.000 C 
BRANCH   8   9
ATOM      9  C   UNL     1     154.851 152.245 157.841  1.00  0.00    -0.003 C 
ATOM     10  C   UNL     1     154.678 153.443 156.912  1.00  0.00     0.004 C 
ENDBRANCH   8   9
ENDBRANCH   7   8
ENDBRANCH   1   7
TORSDOF 6
ENDMDL
MODEL 5
REMARK VINA RESULT:    -3.125     11.546     12.106
REMARK INTER + INTRA:          -4.803
REMARK INTER:                  -4.285
REMARK INTRA:                  -0.518
REMARK UNBOUND:                -0.581
REMARK SMILES CCCCCCCC(=O)[O-]
REMARK SMILES IDX 5 1 6 2 7 3 8 4 9 5 10 6 4 7 3 8 2 9 1 10
REMARK H PARENT
REMARK Flexibility Score: inf
ROOT
ATOM      1  C   UNL     1     151.588 152.840 159.150  1.00  0.00     0.000 C 
ENDROOT
BRANCH   1   2
ATOM      2  C   UNL     1     151.841 154.337 158.919  1.00  0.00     0.006 C 
BRANCH   2   3
ATOM      3  C   UNL     1     152.971 154.586 157.912  1.00  0.00     0.053 C 
BRANCH   3   4
ATOM      4  C   UNL     1     154.176 155.187 158.568  1.00  0.00     0.041 C 
ATOM      5  O   UNL     1     154.139 156.367 159.004  1.00  0.00    -0.550 OA
ATOM      6  O   UNL     1     155.332 154.432 158.726  1.00  0.00    -0.550 OA
ENDBRANCH   3   4
ENDBRANCH   2   3
ENDBRANCH   1   2
BRANCH   1   7
ATOM      7  C   UNL     1     152.683 152.228 160.034  1.00  0.00     0.000 C 
BRANCH   7   8
ATOM      8  C   UNL     1     153.157 150.883 159.470  1.00  0.00    -0.000 C 
BRANCH   8   9
ATOM      9  C   UNL     1     153.341 150.959 157.950  1.00  0.00    -0.003 C 
ATOM     10  C   UNL     1     154.812 151.121 157.581  1.00  0.00     0.004 C 
ENDBRANCH   8   9
ENDBRANCH   7   8
ENDBRANCH   1   7
TORSDOF 6
ENDMDL
MODEL 6
REMARK VINA RESULT:    -3.051     10.907     12.021
REMARK INTER + INTRA:          -4.702
REMARK INTER:                  -4.314
REMARK INTRA:                  -0.388
REMARK UNBOUND:                -0.581
REMARK SMILES CCCCCCCC(=O)[O-]
REMARK SMILES IDX 5 1 6 2 7 3 8 4 9 5 10 6 4 7 3 8 2 9 1 10
REMARK H PARENT
REMARK Flexibility Score: inf
ROOT
ATOM      1  C   UNL     1     152.638 152.230 160.050  1.00  0.00     0.000 C 
ENDROOT
BRANCH   1   2
ATOM      2  C   UNL     1     153.222 150.983 159.371  1.00  0.00     0.006 C 
BRANCH   2   3
ATOM      3  C   UNL     1     153.322 151.144 157.848  1.00  0.00     0.053 C 
BRANCH   3   4
ATOM      4  C   UNL     1     154.630 151.746 157.438  1.00  0.00     0.041 C 
ATOM      5  O   UNL     1     154.694 152.957 157.101  1.00  0.00    -0.550 OA
ATOM      6  O   UNL     1     155.786 150.975 157.458  1.00  0.00    -0.550 OA
ENDBRANCH   3   4
ENDBRANCH   2   3
ENDBRANCH   1   2
BRANCH   1   7
ATOM      7  C   UNL     1     151.546 152.867 159.181  1.00  0.00     0.000 C 
BRANCH   7   8
ATOM      8  C   UNL     1     151.833 154.354 158.939  1.00  0.00    -0.000 C 
BRANCH   8   9
ATOM      9  C   UNL     1     150.653 155.034 158.235  1.00  0.00    -0.003 C 
ATOM     10  C   UNL     1     150.080 154.143 157.137  1.00  0.00     0.004 C 
ENDBRANCH   8   9
ENDBRANCH   7   8
ENDBRANCH   1   7
TORSDOF 6
ENDMDL
MODEL 7
REMARK VINA RESULT:    -3.050     11.585     12.319
REMARK INTER + INTRA:          -4.701
REMARK INTER:                  -4.172
REMARK INTRA:                  -0.529
REMARK UNBOUND:                -0.581
REMARK SMILES CCCCCCCC(=O)[O-]
REMARK SMILES IDX 5 1 6 2 7 3 8 4 9 5 10 6 4 7 3 8 2 9 1 10
REMARK H PARENT
REMARK Flexibility Score: inf
ROOT
ATOM      1  C   UNL     1     154.825 151.715 157.558  1.00  0.00     0.000 C 
ENDROOT
BRANCH   1   2
ATOM      2  C   UNL     1     154.848 153.236 157.341  1.00  0.00     0.006 C 
BRANCH   2   3
ATOM      3  C   UNL     1     155.333 153.992 158.586  1.00  0.00     0.053 C 
BRANCH   3   4
ATOM      4  C   UNL     1     154.745 155.367 158.664  1.00  0.00     0.041 C 
ATOM      5  O   UNL     1     153.496 155.523 158.671  1.00  0.00    -0.550 OA
ATOM      6  O   UNL     1     155.578 156.475 158.760  1.00  0.00    -0.550 OA
ENDBRANCH   3   4
ENDBRANCH   2   3
ENDBRANCH   1   2
BRANCH   1   7
ATOM      7  C   UNL     1     153.408 151.229 157.886  1.00  0.00     0.000 C 
BRANCH   7   8
ATOM      8  C   UNL     1     153.204 151.111 159.402  1.00  0.00    -0.000 C 
BRANCH   8   9
ATOM      9  C   UNL     1     152.335 152.259 159.929  1.00  0.00    -0.003 C 
ATOM     10  C   UNL     1     151.407 152.791 158.841  1.00  0.00     0.004 C 
ENDBRANCH   8   9
ENDBRANCH   7   8
ENDBRANCH   1   7
TORSDOF 6
ENDMDL
MODEL 8
REMARK VINA RESULT:    -2.969     11.311     12.130
REMARK INTER + INTRA:          -4.591
REMARK INTER:                  -4.025
REMARK INTRA:                  -0.566
REMARK UNBOUND:                -0.581
REMARK SMILES CCCCCCCC(=O)[O-]
REMARK SMILES IDX 5 1 6 2 7 3 8 4 9 5 10 6 4 7 3 8 2 9 1 10
REMARK H PARENT
REMARK Flexibility Score: inf
ROOT
ATOM      1  C   UNL     1     153.842 155.698 158.674  1.00  0.00     0.000 C 
ENDROOT
BRANCH   1   2
ATOM      2  C   UNL     1     152.586 155.316 157.877  1.00  0.00     0.006 C 
BRANCH   2   3
ATOM      3  C   UNL     1     151.431 154.879 158.790  1.00  0.00     0.053 C 
BRANCH   3   4
ATOM      4  C   UNL     1     151.357 153.388 158.915  1.00  0.00     0.041 C 
ATOM      5  O   UNL     1     150.866 152.697 157.984  1.00  0.00    -0.550 OA
ATOM      6  O   UNL     1     151.860 152.760 160.047  1.00  0.00    -0.550 OA
ENDBRANCH   3   4
ENDBRANCH   2   3
ENDBRANCH   1   2
BRANCH   1   7
ATOM      7  C   UNL     1     155.071 154.938 158.158  1.00  0.00     0.000 C 
BRANCH   7   8
ATOM      8  C   UNL     1     155.029 153.467 158.590  1.00  0.00    -0.000 C 
BRANCH   8   9
ATOM      9  C   UNL     1     154.965 152.539 157.371  1.00  0.00    -0.003 C 
ATOM     10  C   UNL     1     154.143 151.290 157.674  1.00  0.00     0.004 C 
ENDBRANCH   8   9
ENDBRANCH   7   8
ENDBRANCH   1   7
TORSDOF 6
ENDMDL
MODEL 9
REMARK VINA RESULT:    -2.957     10.821     11.560
REMARK INTER + INTRA:          -4.576
REMARK INTER:                  -3.989
REMARK INTRA:                  -0.586
REMARK UNBOUND:                -0.581
REMARK SMILES CCCCCCCC(=O)[O-]
REMARK SMILES IDX 5 1 6 2 7 3 8 4 9 5 10 6 4 7 3 8 2 9 1 10
REMARK H PARENT
REMARK Flexibility Score: inf
ROOT
ATOM      1  C   UNL     1     151.811 155.212 158.752  1.00  0.00     0.000 C 
ENDROOT
BRANCH   1   2
ATOM      2  C   UNL     1     153.039 155.755 158.007  1.00  0.00     0.006 C 
BRANCH   2   3
ATOM      3  C   UNL     1     154.283 154.882 158.224  1.00  0.00     0.053 C 
BRANCH   3   4
ATOM      4  C   UNL     1     154.594 154.051 157.018  1.00  0.00     0.041 C 
ATOM      5  O   UNL     1     154.651 154.582 155.878  1.00  0.00    -0.550 OA
ATOM      6  O   UNL     1     154.854 152.693 157.158  1.00  0.00    -0.550 OA
ENDBRANCH   3   4
ENDBRANCH   2   3
ENDBRANCH   1   2
BRANCH   1   7
ATOM      7  C   UNL     1     151.071 154.171 157.903  1.00  0.00     0.000 C 
BRANCH   7   8
ATOM      8  C   UNL     1     151.296 152.755 158.449  1.00  0.00    -0.000 C 
BRANCH   8   9
ATOM      9  C   UNL     1     151.709 152.795 159.925  1.00  0.00    -0.003 C 
ATOM     10  C   UNL     1     152.911 151.893 160.185  1.00  0.00     0.004 C 
ENDBRANCH   8   9
ENDBRANCH   7   8
ENDBRANCH   1   7
TORSDOF 6
ENDMDL
