MODEL 1
REMARK VINA RESULT:    -3.698      0.000      0.000
REMARK INTER + INTRA:          -4.457
REMARK INTER:                  -4.455
REMARK INTRA:                  -0.002
REMARK UNBOUND:                -0.002
REMARK SMILES OCC(O)CO
REMARK SMILES IDX 3 1 5 2 6 3 2 5 1 6 4 8
REMARK H PARENT 6 4 1 7 4 9
REMARK Flexibility Score: inf
ROOT
ATOM      1  C   UNL     1      31.853   1.319  44.786  1.00  0.00     0.165 C 
ENDROOT
BRANCH   1   2
ATOM      2  C   UNL     1      30.466   1.854  45.186  1.00  0.00     0.190 C 
BRANCH   2   3
ATOM      3  O   UNL     1      30.524   2.534  46.410  1.00  0.00    -0.394 OA
ATOM      4  H   UNL     1      30.429   1.847  47.121  1.00  0.00     0.210 HD
ENDBRANCH   2   3
ENDBRANCH   1   2
BRANCH   1   5
ATOM      5  C   UNL     1      32.219   1.707  43.342  1.00  0.00     0.190 C 
BRANCH   5   6
ATOM      6  O   UNL     1      31.871   0.677  42.456  1.00  0.00    -0.394 OA
ATOM      7  H   UNL     1      31.086   0.214  42.849  1.00  0.00     0.210 HD
ENDBRANCH   5   6
ENDBRANCH   1   5
BRANCH   1   8
ATOM      8  O   UNL     1      31.903  -0.075  44.954  1.00  0.00    -0.388 OA
ATOM      9  H   UNL     1      31.268  -0.478  44.305  1.00  0.00     0.211 HD
ENDBRANCH   1   8
TORSDOF 5
ENDMDL
MODEL 2
REMARK VINA RESULT:    -3.646      1.020      2.253
REMARK INTER + INTRA:          -4.394
REMARK INTER:                  -4.175
REMARK INTRA:                  -0.219
REMARK UNBOUND:                -0.002
REMARK SMILES OCC(O)CO
REMARK SMILES IDX 3 1 5 2 6 3 2 5 1 6 4 8
REMARK H PARENT 6 4 1 7 4 9
REMARK Flexibility Score: inf
ROOT
ATOM      1  C   UNL     1      30.687   1.397  45.299  1.00  0.00     0.165 C 
ENDROOT
BRANCH   1   2
ATOM      2  C   UNL     1      30.495  -0.013  45.885  1.00  0.00     0.190 C 
BRANCH   2   3
ATOM      3  O   UNL     1      31.592  -0.834  45.586  1.00  0.00    -0.394 OA
ATOM      4  H   UNL     1      32.246  -0.715  46.323  1.00  0.00     0.210 HD
ENDBRANCH   2   3
ENDBRANCH   1   2
BRANCH   1   5
ATOM      5  C   UNL     1      32.014   1.519  44.529  1.00  0.00     0.190 C 
BRANCH   5   6
ATOM      6  O   UNL     1      31.930   0.848  43.300  1.00  0.00    -0.394 OA
ATOM      7  H   UNL     1      32.751   0.296  43.218  1.00  0.00     0.210 HD
ENDBRANCH   5   6
ENDBRANCH   1   5
BRANCH   1   8
ATOM      8  O   UNL     1      30.615   2.361  46.319  1.00  0.00    -0.388 OA
ATOM      9  H   UNL     1      29.656   2.479  46.552  1.00  0.00     0.211 HD
ENDBRANCH   1   8
TORSDOF 5
ENDMDL
MODEL 3
REMARK VINA RESULT:    -3.623      1.118      2.962
REMARK INTER + INTRA:          -4.367
REMARK INTER:                  -4.357
REMARK INTRA:                  -0.010
REMARK UNBOUND:                -0.002
REMARK SMILES OCC(O)CO
REMARK SMILES IDX 3 1 5 2 6 3 2 5 1 6 4 8
REMARK H PARENT 6 4 1 7 4 9
REMARK Flexibility Score: inf
ROOT
ATOM      1  C   UNL     1      31.770   1.037  44.875  1.00  0.00     0.165 C 
ENDROOT
BRANCH   1   2
ATOM      2  C   UNL     1      31.769  -0.314  45.611  1.00  0.00     0.190 C 
BRANCH   2   3
ATOM      3  O   UNL     1      33.044  -0.615  46.111  1.00  0.00    -0.394 OA
ATOM      4  H   UNL     1      33.257  -1.536  45.810  1.00  0.00     0.210 HD
ENDBRANCH   2   3
ENDBRANCH   1   2
BRANCH   1   5
ATOM      5  C   UNL     1      30.482   1.835  45.145  1.00  0.00     0.190 C 
BRANCH   5   6
ATOM      6  O   UNL     1      30.573   2.512  46.369  1.00  0.00    -0.394 OA
ATOM      7  H   UNL     1      29.694   2.409  46.819  1.00  0.00     0.210 HD
ENDBRANCH   5   6
ENDBRANCH   1   5
BRANCH   1   8
ATOM      8  O   UNL     1      31.952   0.839  43.495  1.00  0.00    -0.388 OA
ATOM      9  H   UNL     1      31.101   1.083  43.043  1.00  0.00     0.211 HD
ENDBRANCH   1   8
TORSDOF 5
ENDMDL
MODEL 4
REMARK VINA RESULT:    -3.524      9.600     10.299
REMARK INTER + INTRA:          -4.248
REMARK INTER:                  -4.029
REMARK INTRA:                  -0.219
REMARK UNBOUND:                -0.002
REMARK SMILES OCC(O)CO
REMARK SMILES IDX 3 1 5 2 6 3 2 5 1 6 4 8
REMARK H PARENT 6 4 1 7 4 9
REMARK Flexibility Score: inf
ROOT
ATOM      1  C   UNL     1      21.716   4.037  41.061  1.00  0.00     0.165 C 
ENDROOT
BRANCH   1   2
ATOM      2  C   UNL     1      20.580   3.893  42.090  1.00  0.00     0.190 C 
BRANCH   2   3
ATOM      3  O   UNL     1      21.091   3.612  43.365  1.00  0.00    -0.394 OA
ATOM      4  H   UNL     1      21.912   4.161  43.470  1.00  0.00     0.210 HD
ENDBRANCH   2   3
ENDBRANCH   1   2
BRANCH   1   5
ATOM      5  C   UNL     1      22.678   2.837  41.103  1.00  0.00     0.190 C 
BRANCH   5   6
ATOM      6  O   UNL     1      23.724   3.080  42.005  1.00  0.00    -0.394 OA
ATOM      7  H   UNL     1      24.570   2.917  41.513  1.00  0.00     0.210 HD
ENDBRANCH   5   6
ENDBRANCH   1   5
BRANCH   1   8
ATOM      8  O   UNL     1      22.412   5.240  41.271  1.00  0.00    -0.388 OA
ATOM      9  H   UNL     1      21.881   5.970  40.855  1.00  0.00     0.211 HD
ENDBRANCH   1   8
TORSDOF 5
ENDMDL
MODEL 5
REMARK VINA RESULT:    -3.522      9.717     10.349
REMARK INTER + INTRA:          -4.245
REMARK INTER:                  -4.021
REMARK INTRA:                  -0.224
REMARK UNBOUND:                -0.002
REMARK SMILES OCC(O)CO
REMARK SMILES IDX 3 1 5 2 6 3 2 5 1 6 4 8
REMARK H PARENT 6 4 1 7 4 9
REMARK Flexibility Score: inf
ROOT
ATOM      1  C   UNL     1      22.601   3.325  41.268  1.00  0.00     0.165 C 
ENDROOT
BRANCH   1   2
ATOM      2  C   UNL     1      23.696   4.272  40.744  1.00  0.00     0.190 C 
BRANCH   2   3
ATOM      3  O   UNL     1      23.476   5.585  41.184  1.00  0.00    -0.394 OA
ATOM      4  H   UNL     1      24.079   6.168  40.652  1.00  0.00     0.210 HD
ENDBRANCH   2   3
ENDBRANCH   1   2
BRANCH   1   5
ATOM      5  C   UNL     1      21.376   3.300  40.338  1.00  0.00     0.190 C 
BRANCH   5   6
ATOM      6  O   UNL     1      20.962   4.605  40.038  1.00  0.00    -0.394 OA
ATOM      7  H   UNL     1      20.009   4.549  39.768  1.00  0.00     0.210 HD
ENDBRANCH   5   6
ENDBRANCH   1   5
BRANCH   1   8
ATOM      8  O   UNL     1      22.227   3.689  42.573  1.00  0.00    -0.388 OA
ATOM      9  H   UNL     1      21.271   3.959  42.546  1.00  0.00     0.211 HD
ENDBRANCH   1   8
TORSDOF 5
ENDMDL
MODEL 6
REMARK VINA RESULT:    -3.459     10.754     10.895
REMARK INTER + INTRA:          -4.170
REMARK INTER:                  -4.167
REMARK INTRA:                  -0.002
REMARK UNBOUND:                -0.002
REMARK SMILES OCC(O)CO
REMARK SMILES IDX 3 1 5 2 6 3 2 5 1 6 4 8
REMARK H PARENT 6 4 1 7 4 9
REMARK Flexibility Score: inf
ROOT
ATOM      1  C   UNL     1      20.736   3.281  42.134  1.00  0.00     0.165 C 
ENDROOT
BRANCH   1   2
ATOM      2  C   UNL     1      20.865   1.752  42.009  1.00  0.00     0.190 C 
BRANCH   2   3
ATOM      3  O   UNL     1      20.781   1.137  43.267  1.00  0.00    -0.394 OA
ATOM      4  H   UNL     1      21.646   0.673  43.414  1.00  0.00     0.210 HD
ENDBRANCH   2   3
ENDBRANCH   1   2
BRANCH   1   5
ATOM      5  C   UNL     1      21.466   4.011  40.993  1.00  0.00     0.190 C 
BRANCH   5   6
ATOM      6  O   UNL     1      22.300   5.013  41.507  1.00  0.00    -0.394 OA
ATOM      7  H   UNL     1      22.064   5.119  42.465  1.00  0.00     0.210 HD
ENDBRANCH   5   6
ENDBRANCH   1   5
BRANCH   1   8
ATOM      8  O   UNL     1      21.215   3.709  43.384  1.00  0.00    -0.388 OA
ATOM      9  H   UNL     1      20.969   4.666  43.488  1.00  0.00     0.211 HD
ENDBRANCH   1   8
TORSDOF 5
ENDMDL
MODEL 7
REMARK VINA RESULT:    -3.447      6.959      7.475
REMARK INTER + INTRA:          -4.155
REMARK INTER:                  -3.932
REMARK INTRA:                  -0.223
REMARK UNBOUND:                -0.002
REMARK SMILES OCC(O)CO
REMARK SMILES IDX 3 1 5 2 6 3 2 5 1 6 4 8
REMARK H PARENT 6 4 1 7 4 9
REMARK Flexibility Score: inf
ROOT
ATOM      1  C   UNL     1      39.341   1.127  46.103  1.00  0.00     0.165 C 
ENDROOT
BRANCH   1   2
ATOM      2  C   UNL     1      39.087   2.440  45.340  1.00  0.00     0.190 C 
BRANCH   2   3
ATOM      3  O   UNL     1      37.877   3.026  45.739  1.00  0.00    -0.394 OA
ATOM      4  H   UNL     1      37.309   3.084  44.927  1.00  0.00     0.210 HD
ENDBRANCH   2   3
ENDBRANCH   1   2
BRANCH   1   5
ATOM      5  C   UNL     1      38.417  -0.003  45.615  1.00  0.00     0.190 C 
BRANCH   5   6
ATOM      6  O   UNL     1      37.092   0.249  45.996  1.00  0.00    -0.394 OA
ATOM      7  H   UNL     1      36.614  -0.621  45.965  1.00  0.00     0.210 HD
ENDBRANCH   5   6
ENDBRANCH   1   5
BRANCH   1   8
ATOM      8  O   UNL     1      39.189   1.331  47.485  1.00  0.00    -0.388 OA
ATOM      9  H   UNL     1      39.596   2.210  47.705  1.00  0.00     0.211 HD
ENDBRANCH   1   8
TORSDOF 5
ENDMDL
MODEL 8
REMARK VINA RESULT:    -3.342      1.298      2.902
REMARK INTER + INTRA:          -4.028
REMARK INTER:                  -3.807
REMARK INTRA:                  -0.221
REMARK UNBOUND:                -0.002
REMARK SMILES OCC(O)CO
REMARK SMILES IDX 3 1 5 2 6 3 2 5 1 6 4 8
REMARK H PARENT 6 4 1 7 4 9
REMARK Flexibility Score: inf
ROOT
ATOM      1  C   UNL     1      31.068   1.936  43.958  1.00  0.00     0.165 C 
ENDROOT
BRANCH   1   2
ATOM      2  C   UNL     1      31.330   1.828  42.445  1.00  0.00     0.190 C 
BRANCH   2   3
ATOM      3  O   UNL     1      31.884   0.581  42.120  1.00  0.00    -0.394 OA
ATOM      4  H   UNL     1      32.352   0.696  41.252  1.00  0.00     0.210 HD
ENDBRANCH   2   3
ENDBRANCH   1   2
BRANCH   1   5
ATOM      5  C   UNL     1      32.178   1.255  44.779  1.00  0.00     0.190 C 
BRANCH   5   6
ATOM      6  O   UNL     1      31.844  -0.082  45.038  1.00  0.00    -0.394 OA
ATOM      7  H   UNL     1      31.638  -0.501  44.162  1.00  0.00     0.210 HD
ENDBRANCH   5   6
ENDBRANCH   1   5
BRANCH   1   8
ATOM      8  O   UNL     1      29.812   1.391  44.274  1.00  0.00    -0.388 OA
ATOM      9  H   UNL     1      29.781   1.258  45.258  1.00  0.00     0.211 HD
ENDBRANCH   1   8
TORSDOF 5
ENDMDL
MODEL 9
REMARK VINA RESULT:    -3.310     10.756     11.268
REMARK INTER + INTRA:          -3.989
REMARK INTER:                  -3.780
REMARK INTRA:                  -0.209
REMARK UNBOUND:                -0.002
REMARK SMILES OCC(O)CO
REMARK SMILES IDX 3 1 5 2 6 3 2 5 1 6 4 8
REMARK H PARENT 6 4 1 7 4 9
REMARK Flexibility Score: inf
ROOT
ATOM      1  C   UNL     1      21.297   3.835  39.777  1.00  0.00     0.165 C 
ENDROOT
BRANCH   1   2
ATOM      2  C   UNL     1      21.862   4.059  41.191  1.00  0.00     0.190 C 
BRANCH   2   3
ATOM      3  O   UNL     1      22.688   5.191  41.227  1.00  0.00    -0.394 OA
ATOM      4  H   UNL     1      22.894   5.363  42.183  1.00  0.00     0.210 HD
ENDBRANCH   2   3
ENDBRANCH   1   2
BRANCH   1   5
ATOM      5  C   UNL     1      22.417   3.702  38.730  1.00  0.00     0.190 C 
BRANCH   5   6
ATOM      6  O   UNL     1      22.712   4.952  38.168  1.00  0.00    -0.394 OA
ATOM      7  H   UNL     1      22.339   4.947  37.248  1.00  0.00     0.210 HD
ENDBRANCH   5   6
ENDBRANCH   1   5
BRANCH   1   8
ATOM      8  O   UNL     1      20.417   4.875  39.434  1.00  0.00    -0.388 OA
ATOM      9  H   UNL     1      20.449   5.548  40.165  1.00  0.00     0.211 HD
ENDBRANCH   1   8
TORSDOF 5
ENDMDL
