MODEL 1
REMARK VINA RESULT:    -4.450      0.000      0.000
REMARK INTER + INTRA:          -9.358
REMARK INTER:                  -8.092
REMARK INTRA:                  -1.266
REMARK UNBOUND:                -1.266
REMARK SMILES CCCCCCCCCCCCCC[C@H](C)C(=O)[O-]
REMARK SMILES IDX 9 1 10 2 11 3 12 4 13 5 14 6 15 7 16 8 17 9 18 10 19 11 8 12
REMARK SMILES IDX 7 13 6 14 5 15 4 16 3 17 2 18 1 19
REMARK H PARENT
REMARK Flexibility Score: inf
ROOT
ATOM      1  C   UNL     1      12.989  49.274  97.058  1.00  0.00     0.000 C 
ENDROOT
BRANCH   1   2
ATOM      2  C   UNL     1      13.916  50.499  96.956  1.00  0.00     0.000 C 
BRANCH   2   3
ATOM      3  C   UNL     1      14.187  51.001  95.525  1.00  0.00     0.000 C 
BRANCH   3   4
ATOM      4  C   UNL     1      15.580  50.603  95.007  1.00  0.00     0.000 C 
BRANCH   4   5
ATOM      5  C   UNL     1      15.743  49.084  94.828  1.00  0.00     0.001 C 
BRANCH   5   6
ATOM      6  C   UNL     1      15.927  48.595  93.377  1.00  0.00     0.009 C 
BRANCH   6   7
ATOM      7  C   UNL     1      16.670  47.242  93.254  1.00  0.00     0.032 C 
ATOM      8  C   UNL     1      17.449  46.931  94.538  1.00  0.00     0.014 C 
BRANCH   7   9
ATOM      9  C   UNL     1      17.627  47.234  92.090  1.00  0.00     0.044 C 
ATOM     10  O   UNL     1      17.443  48.012  91.117  1.00  0.00    -0.550 OA
ATOM     11  O   UNL     1      18.686  46.334  92.055  1.00  0.00    -0.550 OA
ENDBRANCH   7   9
ENDBRANCH   6   7
ENDBRANCH   5   6
ENDBRANCH   4   5
ENDBRANCH   3   4
ENDBRANCH   2   3
ENDBRANCH   1   2
BRANCH   1  12
ATOM     12  C   UNL     1      11.697  49.565  97.841  1.00  0.00     0.000 C 
BRANCH  12  13
ATOM     13  C   UNL     1      10.587  48.541  97.546  1.00  0.00    -0.000 C 
BRANCH  13  14
ATOM     14  C   UNL     1      10.093  48.611  96.090  1.00  0.00    -0.000 C 
BRANCH  14  15
ATOM     15  C   UNL     1      10.442  47.348  95.286  1.00  0.00    -0.000 C 
BRANCH  15  16
ATOM     16  C   UNL     1      10.974  47.667  93.880  1.00  0.00    -0.000 C 
BRANCH  16  17
ATOM     17  C   UNL     1      11.176  49.179  93.701  1.00  0.00    -0.000 C 
BRANCH  17  18
ATOM     18  C   UNL     1      10.388  49.743  92.508  1.00  0.00    -0.003 C 
ATOM     19  C   UNL     1      10.178  51.254  92.598  1.00  0.00     0.004 C 
ENDBRANCH  17  18
ENDBRANCH  16  17
ENDBRANCH  15  16
ENDBRANCH  14  15
ENDBRANCH  13  14
ENDBRANCH  12  13
ENDBRANCH   1  12
TORSDOF 14
ENDMDL
MODEL 2
REMARK VINA RESULT:    -4.442      2.194      3.268
REMARK INTER + INTRA:          -9.344
REMARK INTER:                  -8.153
REMARK INTRA:                  -1.191
REMARK UNBOUND:                -1.266
REMARK SMILES CCCCCCCCCCCCCC[C@H](C)C(=O)[O-]
REMARK SMILES IDX 9 1 10 2 11 3 12 4 13 5 14 6 15 7 16 8 17 9 18 10 19 11 8 12
REMARK SMILES IDX 7 13 6 14 5 15 4 16 3 17 2 18 1 19
REMARK H PARENT
REMARK Flexibility Score: inf
ROOT
ATOM      1  C   UNL     1      13.488  49.550  97.376  1.00  0.00     0.000 C 
ENDROOT
BRANCH   1   2
ATOM      2  C   UNL     1      14.395  50.730  96.983  1.00  0.00     0.000 C 
BRANCH   2   3
ATOM      3  C   UNL     1      14.390  51.093  95.486  1.00  0.00     0.000 C 
BRANCH   3   4
ATOM      4  C   UNL     1      15.655  50.616  94.751  1.00  0.00     0.000 C 
BRANCH   4   5
ATOM      5  C   UNL     1      15.458  49.273  94.028  1.00  0.00     0.001 C 
BRANCH   5   6
ATOM      6  C   UNL     1      16.378  48.123  94.486  1.00  0.00     0.009 C 
BRANCH   6   7
ATOM      7  C   UNL     1      17.063  47.359  93.326  1.00  0.00     0.032 C 
ATOM      8  C   UNL     1      16.026  46.890  92.298  1.00  0.00     0.014 C 
BRANCH   7   9
ATOM      9  C   UNL     1      17.833  46.163  93.822  1.00  0.00     0.044 C 
ATOM     10  O   UNL     1      18.368  46.186  94.962  1.00  0.00    -0.550 OA
ATOM     11  O   UNL     1      18.005  45.049  93.008  1.00  0.00    -0.550 OA
ENDBRANCH   7   9
ENDBRANCH   6   7
ENDBRANCH   5   6
ENDBRANCH   4   5
ENDBRANCH   3   4
ENDBRANCH   2   3
ENDBRANCH   1   2
BRANCH   1  12
ATOM     12  C   UNL     1      12.337  49.322  96.380  1.00  0.00     0.000 C 
BRANCH  12  13
ATOM     13  C   UNL     1      11.163  48.550  97.004  1.00  0.00    -0.000 C 
BRANCH  13  14
ATOM     14  C   UNL     1      10.586  49.256  98.243  1.00  0.00    -0.000 C 
BRANCH  14  15
ATOM     15  C   UNL     1       9.244  49.949  97.957  1.00  0.00    -0.000 C 
BRANCH  15  16
ATOM     16  C   UNL     1       8.367  49.161  96.971  1.00  0.00    -0.000 C 
BRANCH  16  17
ATOM     17  C   UNL     1       7.643  48.009  97.682  1.00  0.00    -0.000 C 
BRANCH  17  18
ATOM     18  C   UNL     1       7.946  46.641  97.049  1.00  0.00    -0.003 C 
ATOM     19  C   UNL     1       9.001  45.852  97.824  1.00  0.00     0.004 C 
ENDBRANCH  17  18
ENDBRANCH  16  17
ENDBRANCH  15  16
ENDBRANCH  14  15
ENDBRANCH  13  14
ENDBRANCH  12  13
ENDBRANCH   1  12
TORSDOF 14
ENDMDL
MODEL 3
REMARK VINA RESULT:    -4.430      3.134      6.207
REMARK INTER + INTRA:          -9.321
REMARK INTER:                  -7.324
REMARK INTRA:                  -1.997
REMARK UNBOUND:                -1.266
REMARK SMILES CCCCCCCCCCCCCC[C@H](C)C(=O)[O-]
REMARK SMILES IDX 9 1 10 2 11 3 12 4 13 5 14 6 15 7 16 8 17 9 18 10 19 11 8 12
REMARK SMILES IDX 7 13 6 14 5 15 4 16 3 17 2 18 1 19
REMARK H PARENT
REMARK Flexibility Score: inf
ROOT
ATOM      1  C   UNL     1       9.115  48.604  97.655  1.00  0.00     0.000 C 
ENDROOT
BRANCH   1   2
ATOM      2  C   UNL     1       8.856  50.095  97.937  1.00  0.00     0.000 C 
BRANCH   2   3
ATOM      3  C   UNL     1       7.714  50.730  97.122  1.00  0.00     0.000 C 
BRANCH   3   4
ATOM      4  C   UNL     1       7.431  49.982  95.807  1.00  0.00     0.000 C 
BRANCH   4   5
ATOM      5  C   UNL     1       8.035  50.682  94.577  1.00  0.00     0.001 C 
BRANCH   5   6
ATOM      6  C   UNL     1       8.814  49.774  93.604  1.00  0.00     0.009 C 
BRANCH   6   7
ATOM      7  C   UNL     1      10.001  49.020  94.254  1.00  0.00     0.032 C 
ATOM      8  C   UNL     1      11.319  49.376  93.555  1.00  0.00     0.014 C 
BRANCH   7   9
ATOM      9  C   UNL     1       9.811  47.527  94.202  1.00  0.00     0.044 C 
ATOM     10  O   UNL     1       8.654  47.042  94.091  1.00  0.00    -0.550 OA
ATOM     11  O   UNL     1      10.900  46.673  94.329  1.00  0.00    -0.550 OA
ENDBRANCH   7   9
ENDBRANCH   6   7
ENDBRANCH   5   6
ENDBRANCH   4   5
ENDBRANCH   3   4
ENDBRANCH   2   3
ENDBRANCH   1   2
BRANCH   1  12
ATOM     12  C   UNL     1      10.596  48.215  97.807  1.00  0.00     0.000 C 
BRANCH  12  13
ATOM     13  C   UNL     1      11.529  49.437  97.804  1.00  0.00    -0.000 C 
BRANCH  13  14
ATOM     14  C   UNL     1      12.818  49.190  97.001  1.00  0.00    -0.000 C 
BRANCH  14  15
ATOM     15  C   UNL     1      13.753  50.411  96.994  1.00  0.00    -0.000 C 
BRANCH  15  16
ATOM     16  C   UNL     1      14.075  50.905  95.575  1.00  0.00    -0.000 C 
BRANCH  16  17
ATOM     17  C   UNL     1      15.546  50.637  95.222  1.00  0.00    -0.000 C 
BRANCH  17  18
ATOM     18  C   UNL     1      15.812  49.162  94.879  1.00  0.00    -0.003 C 
ATOM     19  C   UNL     1      15.302  48.776  93.491  1.00  0.00     0.004 C 
ENDBRANCH  17  18
ENDBRANCH  16  17
ENDBRANCH  15  16
ENDBRANCH  14  15
ENDBRANCH  13  14
ENDBRANCH  12  13
ENDBRANCH   1  12
TORSDOF 14
ENDMDL
MODEL 4
REMARK VINA RESULT:    -4.407      2.787      5.114
REMARK INTER + INTRA:          -9.280
REMARK INTER:                  -7.881
REMARK INTRA:                  -1.399
REMARK UNBOUND:                -1.266
REMARK SMILES CCCCCCCCCCCCCC[C@H](C)C(=O)[O-]
REMARK SMILES IDX 9 1 10 2 11 3 12 4 13 5 14 6 15 7 16 8 17 9 18 10 19 11 8 12
REMARK SMILES IDX 7 13 6 14 5 15 4 16 3 17 2 18 1 19
REMARK H PARENT
REMARK Flexibility Score: inf
ROOT
ATOM      1  C   UNL     1       9.063  49.464  95.957  1.00  0.00     0.000 C 
ENDROOT
BRANCH   1   2
ATOM      2  C   UNL     1       9.038  48.889  97.385  1.00  0.00     0.000 C 
BRANCH   2   3
ATOM      3  C   UNL     1      10.394  48.390  97.918  1.00  0.00     0.000 C 
BRANCH   3   4
ATOM      4  C   UNL     1      11.472  49.487  97.928  1.00  0.00     0.000 C 
BRANCH   4   5
ATOM      5  C   UNL     1      12.765  49.065  97.208  1.00  0.00     0.001 C 
BRANCH   5   6
ATOM      6  C   UNL     1      13.638  50.215  96.666  1.00  0.00     0.009 C 
BRANCH   6   7
ATOM      7  C   UNL     1      13.755  50.249  95.122  1.00  0.00     0.032 C 
ATOM      8  C   UNL     1      12.816  49.218  94.484  1.00  0.00     0.014 C 
BRANCH   7   9
ATOM      9  C   UNL     1      15.163  49.978  94.662  1.00  0.00     0.044 C 
ATOM     10  O   UNL     1      16.055  50.853  94.812  1.00  0.00    -0.550 OA
ATOM     11  O   UNL     1      15.477  48.784  94.023  1.00  0.00    -0.550 OA
ENDBRANCH   7   9
ENDBRANCH   6   7
ENDBRANCH   5   6
ENDBRANCH   4   5
ENDBRANCH   3   4
ENDBRANCH   2   3
ENDBRANCH   1   2
BRANCH   1  12
ATOM     12  C   UNL     1       8.774  48.403  94.881  1.00  0.00     0.000 C 
BRANCH  12  13
ATOM     13  C   UNL     1       7.829  47.298  95.382  1.00  0.00    -0.000 C 
BRANCH  13  14
ATOM     14  C   UNL     1       8.273  45.895  94.930  1.00  0.00    -0.000 C 
BRANCH  14  15
ATOM     15  C   UNL     1       9.779  45.658  95.131  1.00  0.00    -0.000 C 
BRANCH  15  16
ATOM     16  C   UNL     1      10.121  44.177  95.354  1.00  0.00    -0.000 C 
BRANCH  16  17
ATOM     17  C   UNL     1      11.341  43.765  94.516  1.00  0.00    -0.000 C 
BRANCH  17  18
ATOM     18  C   UNL     1      11.978  42.454  95.005  1.00  0.00    -0.003 C 
ATOM     19  C   UNL     1      11.623  42.128  96.456  1.00  0.00     0.004 C 
ENDBRANCH  17  18
ENDBRANCH  16  17
ENDBRANCH  15  16
ENDBRANCH  14  15
ENDBRANCH  13  14
ENDBRANCH  12  13
ENDBRANCH   1  12
TORSDOF 14
ENDMDL
MODEL 5
REMARK VINA RESULT:    -4.400      2.017      3.254
REMARK INTER + INTRA:          -9.266
REMARK INTER:                  -8.491
REMARK INTRA:                  -0.775
REMARK UNBOUND:                -1.266
REMARK SMILES CCCCCCCCCCCCCC[C@H](C)C(=O)[O-]
REMARK SMILES IDX 9 1 10 2 11 3 12 4 13 5 14 6 15 7 16 8 17 9 18 10 19 11 8 12
REMARK SMILES IDX 7 13 6 14 5 15 4 16 3 17 2 18 1 19
REMARK H PARENT
REMARK Flexibility Score: inf
ROOT
ATOM      1  C   UNL     1      12.241  49.082  96.306  1.00  0.00     0.000 C 
ENDROOT
BRANCH   1   2
ATOM      2  C   UNL     1      13.668  49.623  96.512  1.00  0.00     0.000 C 
BRANCH   2   3
ATOM      3  C   UNL     1      14.134  50.659  95.472  1.00  0.00     0.000 C 
BRANCH   3   4
ATOM      4  C   UNL     1      15.613  50.490  95.083  1.00  0.00     0.000 C 
BRANCH   4   5
ATOM      5  C   UNL     1      15.963  49.053  94.660  1.00  0.00     0.001 C 
BRANCH   5   6
ATOM      6  C   UNL     1      15.698  48.705  93.182  1.00  0.00     0.009 C 
BRANCH   6   7
ATOM      7  C   UNL     1      16.351  47.380  92.715  1.00  0.00     0.032 C 
ATOM      8  C   UNL     1      17.344  46.865  93.764  1.00  0.00     0.014 C 
BRANCH   7   9
ATOM      9  C   UNL     1      17.071  47.544  91.402  1.00  0.00     0.044 C 
ATOM     10  O   UNL     1      16.416  47.701  90.338  1.00  0.00    -0.550 OA
ATOM     11  O   UNL     1      18.458  47.471  91.346  1.00  0.00    -0.550 OA
ENDBRANCH   7   9
ENDBRANCH   6   7
ENDBRANCH   5   6
ENDBRANCH   4   5
ENDBRANCH   3   4
ENDBRANCH   2   3
ENDBRANCH   1   2
BRANCH   1  12
ATOM     12  C   UNL     1      11.397  49.116  97.592  1.00  0.00     0.000 C 
BRANCH  12  13
ATOM     13  C   UNL     1      10.287  48.052  97.596  1.00  0.00    -0.000 C 
BRANCH  13  14
ATOM     14  C   UNL     1       9.881  47.621  96.176  1.00  0.00    -0.000 C 
BRANCH  14  15
ATOM     15  C   UNL     1       9.268  46.211  96.139  1.00  0.00    -0.000 C 
BRANCH  15  16
ATOM     16  C   UNL     1       9.924  45.306  95.086  1.00  0.00    -0.000 C 
BRANCH  16  17
ATOM     17  C   UNL     1      10.181  43.901  95.653  1.00  0.00    -0.000 C 
BRANCH  17  18
ATOM     18  C   UNL     1      11.368  43.198  94.975  1.00  0.00    -0.003 C 
ATOM     19  C   UNL     1      12.001  42.123  95.858  1.00  0.00     0.004 C 
ENDBRANCH  17  18
ENDBRANCH  16  17
ENDBRANCH  15  16
ENDBRANCH  14  15
ENDBRANCH  13  14
ENDBRANCH  12  13
ENDBRANCH   1  12
TORSDOF 14
ENDMDL
MODEL 6
REMARK VINA RESULT:    -4.373      3.386      6.501
REMARK INTER + INTRA:          -9.218
REMARK INTER:                  -7.851
REMARK INTRA:                  -1.367
REMARK UNBOUND:                -1.266
REMARK SMILES CCCCCCCCCCCCCC[C@H](C)C(=O)[O-]
REMARK SMILES IDX 9 1 10 2 11 3 12 4 13 5 14 6 15 7 16 8 17 9 18 10 19 11 8 12
REMARK SMILES IDX 7 13 6 14 5 15 4 16 3 17 2 18 1 19
REMARK H PARENT
REMARK Flexibility Score: inf
ROOT
ATOM      1  C   UNL     1      13.495  49.474  97.358  1.00  0.00     0.000 C 
ENDROOT
BRANCH   1   2
ATOM      2  C   UNL     1      11.981  49.525  97.633  1.00  0.00     0.000 C 
BRANCH   2   3
ATOM      3  C   UNL     1      11.099  48.812  96.592  1.00  0.00     0.000 C 
BRANCH   3   4
ATOM      4  C   UNL     1      11.864  48.455  95.305  1.00  0.00     0.000 C 
BRANCH   4   5
ATOM      5  C   UNL     1      11.101  48.843  94.027  1.00  0.00     0.001 C 
BRANCH   5   6
ATOM      6  C   UNL     1      10.217  47.738  93.412  1.00  0.00     0.009 C 
BRANCH   6   7
ATOM      7  C   UNL     1      10.507  46.318  93.957  1.00  0.00     0.032 C 
ATOM      8  C   UNL     1      10.750  45.334  92.806  1.00  0.00     0.014 C 
BRANCH   7   9
ATOM      9  C   UNL     1       9.375  45.803  94.806  1.00  0.00     0.044 C 
ATOM     10  O   UNL     1       9.607  45.354  95.960  1.00  0.00    -0.550 OA
ATOM     11  O   UNL     1       8.078  45.770  94.308  1.00  0.00    -0.550 OA
ENDBRANCH   7   9
ENDBRANCH   6   7
ENDBRANCH   5   6
ENDBRANCH   4   5
ENDBRANCH   3   4
ENDBRANCH   2   3
ENDBRANCH   1   2
BRANCH   1  12
ATOM     12  C   UNL     1      14.093  50.856  97.040  1.00  0.00     0.000 C 
BRANCH  12  13
ATOM     13  C   UNL     1      14.217  51.109  95.528  1.00  0.00    -0.000 C 
BRANCH  13  14
ATOM     14  C   UNL     1      15.608  50.740  94.982  1.00  0.00    -0.000 C 
BRANCH  14  15
ATOM     15  C   UNL     1      15.573  49.511  94.058  1.00  0.00    -0.000 C 
BRANCH  15  16
ATOM     16  C   UNL     1      16.348  48.315  94.631  1.00  0.00    -0.000 C 
BRANCH  16  17
ATOM     17  C   UNL     1      16.824  47.381  93.509  1.00  0.00    -0.000 C 
BRANCH  17  18
ATOM     18  C   UNL     1      17.937  46.426  93.967  1.00  0.00    -0.003 C 
ATOM     19  C   UNL     1      18.196  46.497  95.471  1.00  0.00     0.004 C 
ENDBRANCH  17  18
ENDBRANCH  16  17
ENDBRANCH  15  16
ENDBRANCH  14  15
ENDBRANCH  13  14
ENDBRANCH  12  13
ENDBRANCH   1  12
TORSDOF 14
ENDMDL
MODEL 7
REMARK VINA RESULT:    -4.176      4.291      7.960
REMARK INTER + INTRA:          -8.859
REMARK INTER:                  -8.016
REMARK INTRA:                  -0.843
REMARK UNBOUND:                -1.266
REMARK SMILES CCCCCCCCCCCCCC[C@H](C)C(=O)[O-]
REMARK SMILES IDX 9 1 10 2 11 3 12 4 13 5 14 6 15 7 16 8 17 9 18 10 19 11 8 12
REMARK SMILES IDX 7 13 6 14 5 15 4 16 3 17 2 18 1 19
REMARK H PARENT
REMARK Flexibility Score: inf
ROOT
ATOM      1  C   UNL     1      14.249  50.904  95.174  1.00  0.00     0.000 C 
ENDROOT
BRANCH   1   2
ATOM      2  C   UNL     1      14.163  50.765  96.705  1.00  0.00     0.000 C 
BRANCH   2   3
ATOM      3  C   UNL     1      13.580  49.434  97.214  1.00  0.00     0.000 C 
BRANCH   3   4
ATOM      4  C   UNL     1      12.093  49.539  97.593  1.00  0.00     0.000 C 
BRANCH   4   5
ATOM      5  C   UNL     1      11.200  48.573  96.795  1.00  0.00     0.001 C 
BRANCH   5   6
ATOM      6  C   UNL     1      10.029  47.943  97.575  1.00  0.00     0.009 C 
BRANCH   6   7
ATOM      7  C   UNL     1       8.632  48.255  96.984  1.00  0.00     0.032 C 
ATOM      8  C   UNL     1       8.736  48.580  95.489  1.00  0.00     0.014 C 
BRANCH   7   9
ATOM      9  C   UNL     1       7.972  49.410  97.689  1.00  0.00     0.044 C 
ATOM     10  O   UNL     1       8.670  50.245  98.322  1.00  0.00    -0.550 OA
ATOM     11  O   UNL     1       6.587  49.536  97.692  1.00  0.00    -0.550 OA
ENDBRANCH   7   9
ENDBRANCH   6   7
ENDBRANCH   5   6
ENDBRANCH   4   5
ENDBRANCH   3   4
ENDBRANCH   2   3
ENDBRANCH   1   2
BRANCH   1  12
ATOM     12  C   UNL     1      15.625  50.506  94.614  1.00  0.00     0.000 C 
BRANCH  12  13
ATOM     13  C   UNL     1      15.624  49.099  93.993  1.00  0.00    -0.000 C 
BRANCH  13  14
ATOM     14  C   UNL     1      16.528  48.117  94.760  1.00  0.00    -0.000 C 
BRANCH  14  15
ATOM     15  C   UNL     1      17.077  46.995  93.863  1.00  0.00    -0.000 C 
BRANCH  15  16
ATOM     16  C   UNL     1      18.424  46.446  94.357  1.00  0.00    -0.000 C 
BRANCH  16  17
ATOM     17  C   UNL     1      19.225  45.835  93.198  1.00  0.00    -0.000 C 
BRANCH  17  18
ATOM     18  C   UNL     1      18.830  46.421  91.833  1.00  0.00    -0.003 C 
ATOM     19  C   UNL     1      19.887  47.370  91.267  1.00  0.00     0.004 C 
ENDBRANCH  17  18
ENDBRANCH  16  17
ENDBRANCH  15  16
ENDBRANCH  14  15
ENDBRANCH  13  14
ENDBRANCH  12  13
ENDBRANCH   1  12
TORSDOF 14
ENDMDL
MODEL 8
REMARK VINA RESULT:    -4.133      2.965      5.592
REMARK INTER + INTRA:          -8.781
REMARK INTER:                  -7.674
REMARK INTRA:                  -1.107
REMARK UNBOUND:                -1.266
REMARK SMILES CCCCCCCCCCCCCC[C@H](C)C(=O)[O-]
REMARK SMILES IDX 9 1 10 2 11 3 12 4 13 5 14 6 15 7 16 8 17 9 18 10 19 11 8 12
REMARK SMILES IDX 7 13 6 14 5 15 4 16 3 17 2 18 1 19
REMARK H PARENT
REMARK Flexibility Score: inf
ROOT
ATOM      1  C   UNL     1       8.937  48.826  95.130  1.00  0.00     0.000 C 
ENDROOT
BRANCH   1   2
ATOM      2  C   UNL     1       8.302  48.888  96.531  1.00  0.00     0.000 C 
BRANCH   2   3
ATOM      3  C   UNL     1       9.152  49.588  97.608  1.00  0.00     0.000 C 
BRANCH   3   4
ATOM      4  C   UNL     1      10.393  48.773  98.013  1.00  0.00     0.000 C 
BRANCH   4   5
ATOM      5  C   UNL     1      11.714  49.506  97.720  1.00  0.00     0.001 C 
BRANCH   5   6
ATOM      6  C   UNL     1      12.485  49.026  96.474  1.00  0.00     0.009 C 
BRANCH   6   7
ATOM      7  C   UNL     1      13.937  49.556  96.384  1.00  0.00     0.032 C 
ATOM      8  C   UNL     1      14.133  50.762  97.310  1.00  0.00     0.014 C 
BRANCH   7   9
ATOM      9  C   UNL     1      14.300  49.957  94.978  1.00  0.00     0.044 C 
ATOM     10  O   UNL     1      13.543  50.723  94.325  1.00  0.00    -0.550 OA
ATOM     11  O   UNL     1      15.442  49.445  94.372  1.00  0.00    -0.550 OA
ENDBRANCH   7   9
ENDBRANCH   6   7
ENDBRANCH   5   6
ENDBRANCH   4   5
ENDBRANCH   3   4
ENDBRANCH   2   3
ENDBRANCH   1   2
BRANCH   1  12
ATOM     12  C   UNL     1       9.488  47.432  94.784  1.00  0.00     0.000 C 
BRANCH  12  13
ATOM     13  C   UNL     1      10.449  47.460  93.583  1.00  0.00    -0.000 C 
BRANCH  13  14
ATOM     14  C   UNL     1      10.306  46.218  92.686  1.00  0.00    -0.000 C 
BRANCH  14  15
ATOM     15  C   UNL     1      11.418  45.183  92.928  1.00  0.00    -0.000 C 
BRANCH  15  16
ATOM     16  C   UNL     1      11.171  44.330  94.182  1.00  0.00    -0.000 C 
BRANCH  16  17
ATOM     17  C   UNL     1      11.833  42.951  94.046  1.00  0.00    -0.000 C 
BRANCH  17  18
ATOM     18  C   UNL     1      12.522  42.495  95.342  1.00  0.00    -0.003 C 
ATOM     19  C   UNL     1      11.528  42.064  96.420  1.00  0.00     0.004 C 
ENDBRANCH  17  18
ENDBRANCH  16  17
ENDBRANCH  15  16
ENDBRANCH  14  15
ENDBRANCH  13  14
ENDBRANCH  12  13
ENDBRANCH   1  12
TORSDOF 14
ENDMDL
MODEL 9
REMARK VINA RESULT:    -4.105      2.160      3.489
REMARK INTER + INTRA:          -8.731
REMARK INTER:                  -7.707
REMARK INTRA:                  -1.024
REMARK UNBOUND:                -1.266
REMARK SMILES CCCCCCCCCCCCCC[C@H](C)C(=O)[O-]
REMARK SMILES IDX 9 1 10 2 11 3 12 4 13 5 14 6 15 7 16 8 17 9 18 10 19 11 8 12
REMARK SMILES IDX 7 13 6 14 5 15 4 16 3 17 2 18 1 19
REMARK H PARENT
REMARK Flexibility Score: inf
ROOT
ATOM      1  C   UNL     1      14.217  50.750  95.295  1.00  0.00     0.000 C 
ENDROOT
BRANCH   1   2
ATOM      2  C   UNL     1      15.602  50.339  94.764  1.00  0.00     0.000 C 
BRANCH   2   3
ATOM      3  C   UNL     1      15.989  48.867  95.004  1.00  0.00     0.000 C 
BRANCH   3   4
ATOM      4  C   UNL     1      16.327  48.119  93.703  1.00  0.00     0.000 C 
BRANCH   4   5
ATOM      5  C   UNL     1      17.497  47.134  93.864  1.00  0.00     0.001 C 
BRANCH   5   6
ATOM      6  C   UNL     1      17.118  45.639  93.888  1.00  0.00     0.009 C 
BRANCH   6   7
ATOM      7  C   UNL     1      17.525  44.861  92.613  1.00  0.00     0.032 C 
ATOM      8  C   UNL     1      18.988  45.143  92.248  1.00  0.00     0.014 C 
BRANCH   7   9
ATOM      9  C   UNL     1      16.653  45.217  91.438  1.00  0.00     0.044 C 
ATOM     10  O   UNL     1      17.164  45.711  90.399  1.00  0.00    -0.550 OA
ATOM     11  O   UNL     1      15.274  45.054  91.509  1.00  0.00    -0.550 OA
ENDBRANCH   7   9
ENDBRANCH   6   7
ENDBRANCH   5   6
ENDBRANCH   4   5
ENDBRANCH   3   4
ENDBRANCH   2   3
ENDBRANCH   1   2
BRANCH   1  12
ATOM     12  C   UNL     1      14.165  50.833  96.831  1.00  0.00     0.000 C 
BRANCH  12  13
ATOM     13  C   UNL     1      13.289  49.732  97.450  1.00  0.00    -0.000 C 
BRANCH  13  14
ATOM     14  C   UNL     1      12.375  49.054  96.414  1.00  0.00    -0.000 C 
BRANCH  14  15
ATOM     15  C   UNL     1      11.009  48.658  96.999  1.00  0.00    -0.000 C 
BRANCH  15  16
ATOM     16  C   UNL     1      10.687  49.397  98.307  1.00  0.00    -0.000 C 
BRANCH  16  17
ATOM     17  C   UNL     1       9.294  50.040  98.244  1.00  0.00    -0.000 C 
BRANCH  17  18
ATOM     18  C   UNL     1       8.452  49.514  97.071  1.00  0.00    -0.003 C 
ATOM     19  C   UNL     1       7.384  48.513  97.510  1.00  0.00     0.004 C 
ENDBRANCH  17  18
ENDBRANCH  16  17
ENDBRANCH  15  16
ENDBRANCH  14  15
ENDBRANCH  13  14
ENDBRANCH  12  13
ENDBRANCH   1  12
TORSDOF 14
ENDMDL
