MODEL 1
REMARK VINA RESULT:    -5.784      0.000      0.000
REMARK INTER + INTRA:         -12.361
REMARK INTER:                 -10.179
REMARK INTRA:                  -2.182
REMARK UNBOUND:                -2.182
REMARK SMILES CCCCCCC=CCCCCCCCC(=O)[O-]
REMARK SMILES IDX 10 1 11 2 12 3 13 4 14 5 15 6 16 7 17 8 18 9 9 10 8 11 7 12
REMARK SMILES IDX 6 13 5 14 4 15 3 16 2 17 1 18
REMARK H PARENT
REMARK Flexibility Score: inf
ROOT
ATOM      1  C   UNL     1     -11.749   0.896 -36.010  1.00  0.00     0.004 C 
ENDROOT
BRANCH   1   2
ATOM      2  C   UNL     1     -11.753   1.739 -34.729  1.00  0.00     0.000 C 
BRANCH   2   3
ATOM      3  C   UNL     1     -12.939   1.363 -33.827  1.00  0.00     0.000 C 
BRANCH   3   4
ATOM      4  C   UNL     1     -13.574   2.586 -33.146  1.00  0.00     0.000 C 
BRANCH   4   5
ATOM      5  C   UNL     1     -13.438   3.868 -33.985  1.00  0.00     0.006 C 
BRANCH   5   6
ATOM      6  C   UNL     1     -13.960   5.104 -33.241  1.00  0.00     0.053 C 
BRANCH   6   7
ATOM      7  C   UNL     1     -12.852   6.052 -32.897  1.00  0.00     0.041 C 
ATOM      8  O   UNL     1     -11.736   5.612 -32.516  1.00  0.00    -0.550 OA
ATOM      9  O   UNL     1     -13.064   7.424 -32.966  1.00  0.00    -0.550 OA
ENDBRANCH   6   7
ENDBRANCH   5   6
ENDBRANCH   4   5
ENDBRANCH   3   4
ENDBRANCH   2   3
ENDBRANCH   1   2
BRANCH   1  10
ATOM     10  C   UNL     1     -11.717   1.789 -37.256  1.00  0.00     0.027 C 
BRANCH  10  11
ATOM     11  C   UNL     1     -13.024   2.509 -37.443  1.00  0.00    -0.031 C 
ATOM     12  C   UNL     1     -14.183   1.843 -37.555  1.00  0.00    -0.031 C 
BRANCH  12  13
ATOM     13  C   UNL     1     -15.477   2.584 -37.755  1.00  0.00     0.027 C 
BRANCH  13  14
ATOM     14  C   UNL     1     -15.909   3.305 -36.471  1.00  0.00     0.004 C 
BRANCH  14  15
ATOM     15  C   UNL     1     -17.073   2.586 -35.758  1.00  0.00     0.000 C 
BRANCH  15  16
ATOM     16  C   UNL     1     -16.631   1.369 -34.921  1.00  0.00    -0.000 C 
BRANCH  16  17
ATOM     17  C   UNL     1     -16.958   1.467 -33.422  1.00  0.00    -0.003 C 
ATOM     18  C   UNL     1     -17.633   2.785 -33.046  1.00  0.00     0.004 C 
ENDBRANCH  16  17
ENDBRANCH  15  16
ENDBRANCH  14  15
ENDBRANCH  13  14
ENDBRANCH  12  13
ENDBRANCH  10  11
ENDBRANCH   1  10
TORSDOF 13
ENDMDL
MODEL 2
REMARK VINA RESULT:    -5.777      3.158      5.955
REMARK INTER + INTRA:         -12.350
REMARK INTER:                  -9.979
REMARK INTRA:                  -2.371
REMARK UNBOUND:                -2.182
REMARK SMILES CCCCCCC=CCCCCCCCC(=O)[O-]
REMARK SMILES IDX 10 1 11 2 12 3 13 4 14 5 15 6 16 7 17 8 18 9 9 10 8 11 7 12
REMARK SMILES IDX 6 13 5 14 4 15 3 16 2 17 1 18
REMARK H PARENT
REMARK Flexibility Score: inf
ROOT
ATOM      1  C   UNL     1     -17.322   2.159 -34.612  1.00  0.00     0.004 C 
ENDROOT
BRANCH   1   2
ATOM      2  C   UNL     1     -16.481   1.080 -35.306  1.00  0.00     0.000 C 
BRANCH   2   3
ATOM      3  C   UNL     1     -15.731   1.661 -36.515  1.00  0.00     0.000 C 
BRANCH   3   4
ATOM      4  C   UNL     1     -15.767   3.197 -36.550  1.00  0.00     0.000 C 
BRANCH   4   5
ATOM      5  C   UNL     1     -14.609   3.797 -37.365  1.00  0.00     0.006 C 
BRANCH   5   6
ATOM      6  C   UNL     1     -14.374   3.041 -38.680  1.00  0.00     0.053 C 
BRANCH   6   7
ATOM      7  C   UNL     1     -15.424   3.363 -39.699  1.00  0.00     0.041 C 
ATOM      8  O   UNL     1     -15.663   4.560 -40.007  1.00  0.00    -0.550 OA
ATOM      9  O   UNL     1     -16.163   2.341 -40.282  1.00  0.00    -0.550 OA
ENDBRANCH   6   7
ENDBRANCH   5   6
ENDBRANCH   4   5
ENDBRANCH   3   4
ENDBRANCH   2   3
ENDBRANCH   1   2
BRANCH   1  10
ATOM     10  C   UNL     1     -17.056   2.176 -33.101  1.00  0.00     0.027 C 
BRANCH  10  11
ATOM     11  C   UNL     1     -15.593   2.374 -32.809  1.00  0.00    -0.031 C 
ATOM     12  C   UNL     1     -14.973   3.531 -33.081  1.00  0.00    -0.031 C 
BRANCH  12  13
ATOM     13  C   UNL     1     -13.507   3.702 -32.793  1.00  0.00     0.027 C 
BRANCH  13  14
ATOM     14  C   UNL     1     -12.690   3.772 -34.091  1.00  0.00     0.004 C 
BRANCH  14  15
ATOM     15  C   UNL     1     -12.410   2.375 -34.684  1.00  0.00     0.000 C 
BRANCH  15  16
ATOM     16  C   UNL     1     -11.497   2.401 -35.926  1.00  0.00    -0.000 C 
BRANCH  16  17
ATOM     17  C   UNL     1     -11.641   1.186 -36.855  1.00  0.00    -0.003 C 
ATOM     18  C   UNL     1     -12.378   0.019 -36.197  1.00  0.00     0.004 C 
ENDBRANCH  16  17
ENDBRANCH  15  16
ENDBRANCH  14  15
ENDBRANCH  13  14
ENDBRANCH  12  13
ENDBRANCH  10  11
ENDBRANCH   1  10
TORSDOF 13
ENDMDL
MODEL 3
REMARK VINA RESULT:    -5.633      1.106      3.722
REMARK INTER + INTRA:         -12.096
REMARK INTER:                  -9.846
REMARK INTRA:                  -2.250
REMARK UNBOUND:                -2.182
REMARK SMILES CCCCCCC=CCCCCCCCC(=O)[O-]
REMARK SMILES IDX 10 1 11 2 12 3 13 4 14 5 15 6 16 7 17 8 18 9 9 10 8 11 7 12
REMARK SMILES IDX 6 13 5 14 4 15 3 16 2 17 1 18
REMARK H PARENT
REMARK Flexibility Score: inf
ROOT
ATOM      1  C   UNL     1     -17.041   2.437 -34.643  1.00  0.00     0.004 C 
ENDROOT
BRANCH   1   2
ATOM      2  C   UNL     1     -16.753   2.361 -33.139  1.00  0.00     0.000 C 
BRANCH   2   3
ATOM      3  C   UNL     1     -15.330   2.848 -32.827  1.00  0.00     0.000 C 
BRANCH   3   4
ATOM      4  C   UNL     1     -14.970   4.140 -33.576  1.00  0.00     0.000 C 
BRANCH   4   5
ATOM      5  C   UNL     1     -13.455   4.402 -33.609  1.00  0.00     0.006 C 
BRANCH   5   6
ATOM      6  C   UNL     1     -12.926   4.907 -32.260  1.00  0.00     0.053 C 
BRANCH   6   7
ATOM      7  C   UNL     1     -13.222   6.362 -32.058  1.00  0.00     0.041 C 
ATOM      8  O   UNL     1     -13.587   6.784 -30.930  1.00  0.00    -0.550 OA
ATOM      9  O   UNL     1     -13.127   7.245 -33.126  1.00  0.00    -0.550 OA
ENDBRANCH   6   7
ENDBRANCH   5   6
ENDBRANCH   4   5
ENDBRANCH   3   4
ENDBRANCH   2   3
ENDBRANCH   1   2
BRANCH   1  10
ATOM     10  C   UNL     1     -16.660   1.126 -35.343  1.00  0.00     0.027 C 
BRANCH  10  11
ATOM     11  C   UNL     1     -15.476   1.319 -36.250  1.00  0.00    -0.031 C 
ATOM     12  C   UNL     1     -15.313   2.444 -36.962  1.00  0.00    -0.031 C 
BRANCH  12  13
ATOM     13  C   UNL     1     -14.128   2.609 -37.874  1.00  0.00     0.027 C 
BRANCH  13  14
ATOM     14  C   UNL     1     -12.959   3.290 -37.149  1.00  0.00     0.004 C 
BRANCH  14  15
ATOM     15  C   UNL     1     -11.671   2.440 -37.186  1.00  0.00     0.000 C 
BRANCH  15  16
ATOM     16  C   UNL     1     -11.710   1.215 -36.252  1.00  0.00    -0.000 C 
BRANCH  16  17
ATOM     17  C   UNL     1     -11.772   1.550 -34.753  1.00  0.00    -0.003 C 
ATOM     18  C   UNL     1     -12.795   0.704 -33.997  1.00  0.00     0.004 C 
ENDBRANCH  16  17
ENDBRANCH  15  16
ENDBRANCH  14  15
ENDBRANCH  13  14
ENDBRANCH  12  13
ENDBRANCH  10  11
ENDBRANCH   1  10
TORSDOF 13
ENDMDL
MODEL 4
REMARK VINA RESULT:    -5.617      1.251      4.216
REMARK INTER + INTRA:         -12.069
REMARK INTER:                 -10.037
REMARK INTRA:                  -2.032
REMARK UNBOUND:                -2.182
REMARK SMILES CCCCCCC=CCCCCCCCC(=O)[O-]
REMARK SMILES IDX 10 1 11 2 12 3 13 4 14 5 15 6 16 7 17 8 18 9 9 10 8 11 7 12
REMARK SMILES IDX 6 13 5 14 4 15 3 16 2 17 1 18
REMARK H PARENT
REMARK Flexibility Score: inf
ROOT
ATOM      1  C   UNL     1     -16.940   2.176 -35.120  1.00  0.00     0.004 C 
ENDROOT
BRANCH   1   2
ATOM      2  C   UNL     1     -17.379   2.320 -33.658  1.00  0.00     0.000 C 
BRANCH   2   3
ATOM      3  C   UNL     1     -16.166   2.521 -32.737  1.00  0.00     0.000 C 
BRANCH   3   4
ATOM      4  C   UNL     1     -15.221   3.624 -33.237  1.00  0.00     0.000 C 
BRANCH   4   5
ATOM      5  C   UNL     1     -13.751   3.355 -32.870  1.00  0.00     0.006 C 
BRANCH   5   6
ATOM      6  C   UNL     1     -12.822   4.482 -33.341  1.00  0.00     0.053 C 
BRANCH   6   7
ATOM      7  C   UNL     1     -12.793   5.619 -32.367  1.00  0.00     0.041 C 
ATOM      8  O   UNL     1     -12.532   5.409 -31.153  1.00  0.00    -0.550 OA
ATOM      9  O   UNL     1     -13.087   6.908 -32.795  1.00  0.00    -0.550 OA
ENDBRANCH   6   7
ENDBRANCH   5   6
ENDBRANCH   4   5
ENDBRANCH   3   4
ENDBRANCH   2   3
ENDBRANCH   1   2
BRANCH   1  10
ATOM     10  C   UNL     1     -16.370   0.777 -35.388  1.00  0.00     0.027 C 
BRANCH  10  11
ATOM     11  C   UNL     1     -14.896   0.838 -35.684  1.00  0.00    -0.031 C 
ATOM     12  C   UNL     1     -13.989   0.324 -34.840  1.00  0.00    -0.031 C 
BRANCH  12  13
ATOM     13  C   UNL     1     -12.519   0.409 -35.150  1.00  0.00     0.027 C 
BRANCH  13  14
ATOM     14  C   UNL     1     -12.265   0.329 -36.661  1.00  0.00     0.004 C 
BRANCH  14  15
ATOM     15  C   UNL     1     -11.427   1.518 -37.179  1.00  0.00     0.000 C 
BRANCH  15  16
ATOM     16  C   UNL     1     -11.758   2.856 -36.489  1.00  0.00    -0.000 C 
BRANCH  16  17
ATOM     17  C   UNL     1     -12.517   3.862 -37.368  1.00  0.00    -0.003 C 
ATOM     18  C   UNL     1     -13.670   3.223 -38.142  1.00  0.00     0.004 C 
ENDBRANCH  16  17
ENDBRANCH  15  16
ENDBRANCH  14  15
ENDBRANCH  13  14
ENDBRANCH  12  13
ENDBRANCH  10  11
ENDBRANCH   1  10
TORSDOF 13
ENDMDL
MODEL 5
REMARK VINA RESULT:    -5.614      3.071      4.733
REMARK INTER + INTRA:         -12.062
REMARK INTER:                  -9.617
REMARK INTRA:                  -2.445
REMARK UNBOUND:                -2.182
REMARK SMILES CCCCCCC=CCCCCCCCC(=O)[O-]
REMARK SMILES IDX 10 1 11 2 12 3 13 4 14 5 15 6 16 7 17 8 18 9 9 10 8 11 7 12
REMARK SMILES IDX 6 13 5 14 4 15 3 16 2 17 1 18
REMARK H PARENT
REMARK Flexibility Score: inf
ROOT
ATOM      1  C   UNL     1     -11.850   1.877 -35.388  1.00  0.00     0.004 C 
ENDROOT
BRANCH   1   2
ATOM      2  C   UNL     1     -11.987   0.959 -36.609  1.00  0.00     0.000 C 
BRANCH   2   3
ATOM      3  C   UNL     1     -13.266   1.280 -37.397  1.00  0.00     0.000 C 
BRANCH   3   4
ATOM      4  C   UNL     1     -13.339   2.752 -37.831  1.00  0.00     0.000 C 
BRANCH   4   5
ATOM      5  C   UNL     1     -14.666   3.421 -37.431  1.00  0.00     0.006 C 
BRANCH   5   6
ATOM      6  C   UNL     1     -15.830   2.979 -38.328  1.00  0.00     0.053 C 
BRANCH   6   7
ATOM      7  C   UNL     1     -15.781   3.645 -39.668  1.00  0.00     0.041 C 
ATOM      8  O   UNL     1     -15.769   4.902 -39.752  1.00  0.00    -0.550 OA
ATOM      9  O   UNL     1     -15.784   2.878 -40.827  1.00  0.00    -0.550 OA
ENDBRANCH   6   7
ENDBRANCH   5   6
ENDBRANCH   4   5
ENDBRANCH   3   4
ENDBRANCH   2   3
ENDBRANCH   1   2
BRANCH   1  10
ATOM     10  C   UNL     1     -12.494   1.243 -34.148  1.00  0.00     0.027 C 
BRANCH  10  11
ATOM     11  C   UNL     1     -13.607   2.102 -33.615  1.00  0.00    -0.031 C 
ATOM     12  C   UNL     1     -13.667   3.416 -33.877  1.00  0.00    -0.031 C 
BRANCH  12  13
ATOM     13  C   UNL     1     -14.783   4.259 -33.322  1.00  0.00     0.027 C 
BRANCH  13  14
ATOM     14  C   UNL     1     -16.059   4.117 -34.163  1.00  0.00     0.004 C 
BRANCH  14  15
ATOM     15  C   UNL     1     -17.196   3.417 -33.390  1.00  0.00     0.000 C 
BRANCH  15  16
ATOM     16  C   UNL     1     -17.349   1.922 -33.732  1.00  0.00    -0.000 C 
BRANCH  16  17
ATOM     17  C   UNL     1     -17.110   1.572 -35.209  1.00  0.00    -0.003 C 
ATOM     18  C   UNL     1     -16.175   0.377 -35.393  1.00  0.00     0.004 C 
ENDBRANCH  16  17
ENDBRANCH  15  16
ENDBRANCH  14  15
ENDBRANCH  13  14
ENDBRANCH  12  13
ENDBRANCH  10  11
ENDBRANCH   1  10
TORSDOF 13
ENDMDL
MODEL 6
REMARK VINA RESULT:    -5.479      2.568      4.788
REMARK INTER + INTRA:         -11.826
REMARK INTER:                  -9.902
REMARK INTRA:                  -1.924
REMARK UNBOUND:                -2.182
REMARK SMILES CCCCCCC=CCCCCCCCC(=O)[O-]
REMARK SMILES IDX 10 1 11 2 12 3 13 4 14 5 15 6 16 7 17 8 18 9 9 10 8 11 7 12
REMARK SMILES IDX 6 13 5 14 4 15 3 16 2 17 1 18
REMARK H PARENT
REMARK Flexibility Score: inf
ROOT
ATOM      1  C   UNL     1     -15.139   2.217 -37.634  1.00  0.00     0.004 C 
ENDROOT
BRANCH   1   2
ATOM      2  C   UNL     1     -14.089   3.007 -38.424  1.00  0.00     0.000 C 
BRANCH   2   3
ATOM      3  C   UNL     1     -13.501   4.143 -37.573  1.00  0.00     0.000 C 
BRANCH   3   4
ATOM      4  C   UNL     1     -13.058   3.669 -36.180  1.00  0.00     0.000 C 
BRANCH   4   5
ATOM      5  C   UNL     1     -11.807   2.774 -36.230  1.00  0.00     0.006 C 
BRANCH   5   6
ATOM      6  C   UNL     1     -11.795   1.734 -35.102  1.00  0.00     0.053 C 
BRANCH   6   7
ATOM      7  C   UNL     1     -12.548   0.496 -35.481  1.00  0.00     0.041 C 
ATOM      8  O   UNL     1     -12.474   0.043 -36.654  1.00  0.00    -0.550 OA
ATOM      9  O   UNL     1     -13.359  -0.138 -34.548  1.00  0.00    -0.550 OA
ENDBRANCH   6   7
ENDBRANCH   5   6
ENDBRANCH   4   5
ENDBRANCH   3   4
ENDBRANCH   2   3
ENDBRANCH   1   2
BRANCH   1  10
ATOM     10  C   UNL     1     -16.330   3.108 -37.257  1.00  0.00     0.027 C 
BRANCH  10  11
ATOM     11  C   UNL     1     -16.833   2.788 -35.876  1.00  0.00    -0.031 C 
ATOM     12  C   UNL     1     -16.398   1.712 -35.203  1.00  0.00    -0.031 C 
BRANCH  12  13
ATOM     13  C   UNL     1     -16.926   1.404 -33.828  1.00  0.00     0.027 C 
BRANCH  13  14
ATOM     14  C   UNL     1     -16.424   2.426 -32.798  1.00  0.00     0.004 C 
BRANCH  14  15
ATOM     15  C   UNL     1     -14.897   2.634 -32.876  1.00  0.00     0.000 C 
BRANCH  15  16
ATOM     16  C   UNL     1     -14.482   4.104 -33.084  1.00  0.00    -0.000 C 
BRANCH  16  17
ATOM     17  C   UNL     1     -13.129   4.485 -32.461  1.00  0.00    -0.003 C 
ATOM     18  C   UNL     1     -13.098   5.922 -31.941  1.00  0.00     0.004 C 
ENDBRANCH  16  17
ENDBRANCH  15  16
ENDBRANCH  14  15
ENDBRANCH  13  14
ENDBRANCH  12  13
ENDBRANCH  10  11
ENDBRANCH   1  10
TORSDOF 13
ENDMDL
MODEL 7
REMARK VINA RESULT:    -5.443      3.232      4.673
REMARK INTER + INTRA:         -11.761
REMARK INTER:                  -9.418
REMARK INTRA:                  -2.343
REMARK UNBOUND:                -2.182
REMARK SMILES CCCCCCC=CCCCCCCCC(=O)[O-]
REMARK SMILES IDX 10 1 11 2 12 3 13 4 14 5 15 6 16 7 17 8 18 9 9 10 8 11 7 12
REMARK SMILES IDX 6 13 5 14 4 15 3 16 2 17 1 18
REMARK H PARENT
REMARK Flexibility Score: inf
ROOT
ATOM      1  C   UNL     1     -12.185   0.821 -36.817  1.00  0.00     0.004 C 
ENDROOT
BRANCH   1   2
ATOM      2  C   UNL     1     -11.723   2.266 -36.592  1.00  0.00     0.000 C 
BRANCH   2   3
ATOM      3  C   UNL     1     -12.286   3.198 -37.676  1.00  0.00     0.000 C 
BRANCH   3   4
ATOM      4  C   UNL     1     -13.275   4.229 -37.111  1.00  0.00     0.000 C 
BRANCH   4   5
ATOM      5  C   UNL     1     -14.733   3.926 -37.499  1.00  0.00     0.006 C 
BRANCH   5   6
ATOM      6  C   UNL     1     -14.829   2.841 -38.581  1.00  0.00     0.053 C 
BRANCH   6   7
ATOM      7  C   UNL     1     -15.829   3.199 -39.637  1.00  0.00     0.041 C 
ATOM      8  O   UNL     1     -15.544   3.056 -40.855  1.00  0.00    -0.550 OA
ATOM      9  O   UNL     1     -17.064   3.724 -39.276  1.00  0.00    -0.550 OA
ENDBRANCH   6   7
ENDBRANCH   5   6
ENDBRANCH   4   5
ENDBRANCH   3   4
ENDBRANCH   2   3
ENDBRANCH   1   2
BRANCH   1  10
ATOM     10  C   UNL     1     -12.913   0.277 -35.581  1.00  0.00     0.027 C 
BRANCH  10  11
ATOM     11  C   UNL     1     -14.182   1.040 -35.319  1.00  0.00    -0.031 C 
ATOM     12  C   UNL     1     -15.388   0.488 -35.521  1.00  0.00    -0.031 C 
BRANCH  12  13
ATOM     13  C   UNL     1     -16.644   1.275 -35.266  1.00  0.00     0.027 C 
BRANCH  13  14
ATOM     14  C   UNL     1     -16.946   1.368 -33.764  1.00  0.00     0.004 C 
BRANCH  14  15
ATOM     15  C   UNL     1     -17.188   2.820 -33.302  1.00  0.00     0.000 C 
BRANCH  15  16
ATOM     16  C   UNL     1     -16.880   3.874 -34.384  1.00  0.00    -0.000 C 
BRANCH  16  17
ATOM     17  C   UNL     1     -15.720   4.824 -34.045  1.00  0.00    -0.003 C 
ATOM     18  C   UNL     1     -14.575   4.125 -33.312  1.00  0.00     0.004 C 
ENDBRANCH  16  17
ENDBRANCH  15  16
ENDBRANCH  14  15
ENDBRANCH  13  14
ENDBRANCH  12  13
ENDBRANCH  10  11
ENDBRANCH   1  10
TORSDOF 13
ENDMDL
MODEL 8
REMARK VINA RESULT:    -5.393      1.695      2.185
REMARK INTER + INTRA:         -11.675
REMARK INTER:                  -9.370
REMARK INTRA:                  -2.305
REMARK UNBOUND:                -2.182
REMARK SMILES CCCCCCC=CCCCCCCCC(=O)[O-]
REMARK SMILES IDX 10 1 11 2 12 3 13 4 14 5 15 6 16 7 17 8 18 9 9 10 8 11 7 12
REMARK SMILES IDX 6 13 5 14 4 15 3 16 2 17 1 18
REMARK H PARENT
REMARK Flexibility Score: inf
ROOT
ATOM      1  C   UNL     1     -12.405   1.145 -35.021  1.00  0.00     0.004 C 
ENDROOT
BRANCH   1   2
ATOM      2  C   UNL     1     -11.425   2.295 -34.760  1.00  0.00     0.000 C 
BRANCH   2   3
ATOM      3  C   UNL     1     -12.169   3.557 -34.297  1.00  0.00     0.000 C 
BRANCH   3   4
ATOM      4  C   UNL     1     -13.464   3.233 -33.534  1.00  0.00     0.000 C 
BRANCH   4   5
ATOM      5  C   UNL     1     -14.329   4.479 -33.281  1.00  0.00     0.006 C 
BRANCH   5   6
ATOM      6  C   UNL     1     -14.040   5.598 -34.291  1.00  0.00     0.053 C 
BRANCH   6   7
ATOM      7  C   UNL     1     -15.291   6.315 -34.696  1.00  0.00     0.041 C 
ATOM      8  O   UNL     1     -15.225   7.365 -35.388  1.00  0.00    -0.550 OA
ATOM      9  O   UNL     1     -16.529   5.842 -34.281  1.00  0.00    -0.550 OA
ENDBRANCH   6   7
ENDBRANCH   5   6
ENDBRANCH   4   5
ENDBRANCH   3   4
ENDBRANCH   2   3
ENDBRANCH   1   2
BRANCH   1  10
ATOM     10  C   UNL     1     -12.107   0.462 -36.362  1.00  0.00     0.027 C 
BRANCH  10  11
ATOM     11  C   UNL     1     -13.162   0.787 -37.384  1.00  0.00    -0.031 C 
ATOM     12  C   UNL     1     -13.714   2.007 -37.460  1.00  0.00    -0.031 C 
BRANCH  12  13
ATOM     13  C   UNL     1     -14.778   2.305 -38.481  1.00  0.00     0.027 C 
BRANCH  13  14
ATOM     14  C   UNL     1     -16.022   2.917 -37.824  1.00  0.00     0.004 C 
BRANCH  14  15
ATOM     15  C   UNL     1     -15.884   3.025 -36.291  1.00  0.00     0.000 C 
BRANCH  15  16
ATOM     16  C   UNL     1     -17.169   2.656 -35.525  1.00  0.00    -0.000 C 
BRANCH  16  17
ATOM     17  C   UNL     1     -16.996   1.547 -34.475  1.00  0.00    -0.003 C 
ATOM     18  C   UNL     1     -16.000   0.470 -34.906  1.00  0.00     0.004 C 
ENDBRANCH  16  17
ENDBRANCH  15  16
ENDBRANCH  14  15
ENDBRANCH  13  14
ENDBRANCH  12  13
ENDBRANCH  10  11
ENDBRANCH   1  10
TORSDOF 13
ENDMDL
MODEL 9
REMARK VINA RESULT:    -5.299      1.184      3.849
REMARK INTER + INTRA:         -11.508
REMARK INTER:                  -9.454
REMARK INTRA:                  -2.053
REMARK UNBOUND:                -2.182
REMARK SMILES CCCCCCC=CCCCCCCCC(=O)[O-]
REMARK SMILES IDX 10 1 11 2 12 3 13 4 14 5 15 6 16 7 17 8 18 9 9 10 8 11 7 12
REMARK SMILES IDX 6 13 5 14 4 15 3 16 2 17 1 18
REMARK H PARENT
REMARK Flexibility Score: inf
ROOT
ATOM      1  C   UNL     1     -16.593   2.316 -32.876  1.00  0.00     0.004 C 
ENDROOT
BRANCH   1   2
ATOM      2  C   UNL     1     -15.250   1.845 -33.447  1.00  0.00     0.000 C 
BRANCH   2   3
ATOM      3  C   UNL     1     -14.079   2.560 -32.757  1.00  0.00     0.000 C 
BRANCH   3   4
ATOM      4  C   UNL     1     -13.065   3.136 -33.758  1.00  0.00     0.000 C 
BRANCH   4   5
ATOM      5  C   UNL     1     -13.323   4.620 -34.073  1.00  0.00     0.006 C 
BRANCH   5   6
ATOM      6  C   UNL     1     -13.988   5.353 -32.901  1.00  0.00     0.053 C 
BRANCH   6   7
ATOM      7  C   UNL     1     -12.973   5.939 -31.968  1.00  0.00     0.041 C 
ATOM      8  O   UNL     1     -11.750   5.675 -32.112  1.00  0.00    -0.550 OA
ATOM      9  O   UNL     1     -13.382   6.751 -30.917  1.00  0.00    -0.550 OA
ENDBRANCH   6   7
ENDBRANCH   5   6
ENDBRANCH   4   5
ENDBRANCH   3   4
ENDBRANCH   2   3
ENDBRANCH   1   2
BRANCH   1  10
ATOM     10  C   UNL     1     -17.372   3.141 -33.909  1.00  0.00     0.027 C 
BRANCH  10  11
ATOM     11  C   UNL     1     -16.555   3.366 -35.152  1.00  0.00    -0.031 C 
ATOM     12  C   UNL     1     -17.003   3.000 -36.362  1.00  0.00    -0.031 C 
BRANCH  12  13
ATOM     13  C   UNL     1     -16.162   3.222 -37.590  1.00  0.00     0.027 C 
BRANCH  13  14
ATOM     14  C   UNL     1     -14.706   3.532 -37.218  1.00  0.00     0.004 C 
BRANCH  14  15
ATOM     15  C   UNL     1     -13.779   2.314 -37.410  1.00  0.00     0.000 C 
BRANCH  15  16
ATOM     16  C   UNL     1     -12.279   2.665 -37.374  1.00  0.00    -0.000 C 
BRANCH  16  17
ATOM     17  C   UNL     1     -11.373   1.561 -36.804  1.00  0.00    -0.003 C 
ATOM     18  C   UNL     1     -12.161   0.374 -36.251  1.00  0.00     0.004 C 
ENDBRANCH  16  17
ENDBRANCH  15  16
ENDBRANCH  14  15
ENDBRANCH  13  14
ENDBRANCH  12  13
ENDBRANCH  10  11
ENDBRANCH   1  10
TORSDOF 13
ENDMDL
