MODEL 1
REMARK VINA RESULT:    -1.894      0.000      0.000
REMARK INTER + INTRA:          -1.949
REMARK INTER:                  -1.949
REMARK INTRA:                   0.000
REMARK UNBOUND:                 0.000
REMARK SMILES O=c1ccc2ccc(O)cc2o1
REMARK SMILES IDX 6 1 7 2 8 3 10 4 11 5 5 6 4 7 3 8 2 9 1 10 12 11 9 12
REMARK H PARENT 9 13
REMARK Flexibility Score: inf
ROOT
ATOM      1  C   UNL     1      -5.436  -2.445   2.515  1.00  0.00     0.016 A 
ATOM      2  C   UNL     1      -5.858  -2.967   1.289  1.00  0.00     0.047 A 
ATOM      3  C   UNL     1      -5.211  -2.597   0.101  1.00  0.00     0.119 A 
ATOM      4  C   UNL     1      -4.136  -1.700   0.141  1.00  0.00     0.094 A 
ATOM      5  C   UNL     1      -3.705  -1.173   1.363  1.00  0.00     0.142 A 
ATOM      6  C   UNL     1      -4.359  -1.548   2.558  1.00  0.00     0.018 A 
ATOM      7  C   UNL     1      -3.907  -1.004   3.764  1.00  0.00     0.019 A 
ATOM      8  C   UNL     1      -2.832  -0.115   3.754  1.00  0.00     0.094 A 
ATOM      9  C   UNL     1      -2.233   0.210   2.532  1.00  0.00     0.336 A 
ATOM     10  O   UNL     1      -1.262   1.010   2.502  1.00  0.00    -0.246 OA
ATOM     11  O   UNL     1      -2.683  -0.322   1.398  1.00  0.00    -0.423 OA
ENDROOT
BRANCH   3  12
ATOM     12  O   UNL     1      -5.627  -3.113  -1.125  1.00  0.00    -0.508 OA
ATOM     13  H   UNL     1      -5.241  -3.975  -1.494  1.00  0.00     0.293 HD
ENDBRANCH   3  12
TORSDOF 1
ENDMDL
