MODEL 1
REMARK VINA RESULT:    -4.931      0.000      0.000
REMARK INTER + INTRA:          -6.105
REMARK INTER:                  -5.796
REMARK INTRA:                  -0.310
REMARK UNBOUND:                -0.310
REMARK SMILES O=c1cc(-c2ccc(O)c(O)c2)oc2cc(O)cc(O)c12
REMARK SMILES IDX 4 1 3 2 2 3 1 4 21 5 19 6 18 7 16 8 15 9 14 10 13 11 5 12
REMARK SMILES IDX 6 13 7 14 8 15 12 16 10 17 9 18 11 20 20 22 17 24
REMARK H PARENT 9 19 11 21 20 23 17 25
REMARK Flexibility Score: inf
ROOT
ATOM      1  C   UNL     1       4.112  14.723  73.183  1.00  0.00     0.138 A 
ATOM      2  C   UNL     1       4.751  15.929  72.862  1.00  0.00     0.100 A 
ATOM      3  C   UNL     1       6.097  15.919  72.490  1.00  0.00     0.197 A 
ATOM      4  O   UNL     1       6.625  17.008  72.150  1.00  0.00    -0.289 OA
ATOM      5  C   UNL     1       6.812  14.699  72.472  1.00  0.00     0.107 A 
ATOM      6  C   UNL     1       8.197  14.574  72.148  1.00  0.00     0.134 A 
ATOM      7  C   UNL     1       8.770  13.299  72.049  1.00  0.00     0.093 A 
ATOM      8  C   UNL     1       8.023  12.150  72.319  1.00  0.00     0.123 A 
ATOM      9  C   UNL     1       6.685  12.265  72.687  1.00  0.00     0.094 A 
ATOM     10  C   UNL     1       6.075  13.519  72.763  1.00  0.00     0.146 A 
ATOM     11  O   UNL     1       4.792  13.584  73.104  1.00  0.00    -0.456 OA
ENDROOT
BRANCH   1  12
ATOM     12  C   UNL     1       2.683  14.675  73.586  1.00  0.00     0.021 A 
ATOM     13  C   UNL     1       1.781  15.697  73.232  1.00  0.00     0.016 A 
ATOM     14  C   UNL     1       0.444  15.630  73.633  1.00  0.00     0.051 A 
ATOM     15  C   UNL     1      -0.012  14.551  74.398  1.00  0.00     0.157 A 
ATOM     16  C   UNL     1       2.219  13.601  74.366  1.00  0.00     0.062 A 
ATOM     17  C   UNL     1       0.877  13.535  74.767  1.00  0.00     0.158 A 
BRANCH  15  18
ATOM     18  O   UNL     1      -1.345  14.481  74.799  1.00  0.00    -0.504 OA
ATOM     19  H   UNL     1      -1.753  15.184  75.406  1.00  0.00     0.293 HD
ENDBRANCH  15  18
BRANCH  17  20
ATOM     20  O   UNL     1       0.422  12.463  75.532  1.00  0.00    -0.504 OA
ATOM     21  H   UNL     1      -0.465  12.498  76.022  1.00  0.00     0.293 HD
ENDBRANCH  17  20
ENDBRANCH   1  12
BRANCH   6  22
ATOM     22  O   UNL     1       9.052  15.660  71.943  1.00  0.00    -0.507 OA
ATOM     23  H   UNL     1       9.241  16.382  72.622  1.00  0.00     0.293 HD
ENDBRANCH   6  22
BRANCH   8  24
ATOM     24  O   UNL     1       8.606  10.888  72.233  1.00  0.00    -0.508 OA
ATOM     25  H   UNL     1       9.550  10.762  71.888  1.00  0.00     0.293 HD
ENDBRANCH   8  24
TORSDOF 5
ENDMDL
MODEL 2
REMARK VINA RESULT:    -4.839     12.273     14.744
REMARK INTER + INTRA:          -5.997
REMARK INTER:                  -5.734
REMARK INTRA:                  -0.264
REMARK UNBOUND:                -0.310
REMARK SMILES O=c1cc(-c2ccc(O)c(O)c2)oc2cc(O)cc(O)c12
REMARK SMILES IDX 4 1 3 2 2 3 1 4 21 5 19 6 18 7 16 8 15 9 14 10 13 11 5 12
REMARK SMILES IDX 6 13 7 14 8 15 12 16 10 17 9 18 11 20 20 22 17 24
REMARK H PARENT 9 19 11 21 20 23 17 25
REMARK Flexibility Score: inf
ROOT
ATOM      1  C   UNL     1      10.070  12.120  60.941  1.00  0.00     0.138 A 
ATOM      2  C   UNL     1      10.270  11.106  61.888  1.00  0.00     0.100 A 
ATOM      3  C   UNL     1      10.551   9.807  61.459  1.00  0.00     0.197 A 
ATOM      4  O   UNL     1      10.786   8.932  62.331  1.00  0.00    -0.289 OA
ATOM      5  C   UNL     1      10.599   9.519  60.074  1.00  0.00     0.107 A 
ATOM      6  C   UNL     1      10.836   8.225  59.522  1.00  0.00     0.134 A 
ATOM      7  C   UNL     1      10.977   8.082  58.135  1.00  0.00     0.093 A 
ATOM      8  C   UNL     1      10.830   9.176  57.279  1.00  0.00     0.123 A 
ATOM      9  C   UNL     1      10.546  10.433  57.806  1.00  0.00     0.094 A 
ATOM     10  C   UNL     1      10.433  10.616  59.186  1.00  0.00     0.146 A 
ATOM     11  O   UNL     1      10.174  11.834  59.648  1.00  0.00    -0.456 OA
ENDROOT
BRANCH   1  12
ATOM     12  C   UNL     1       9.767  13.518  61.342  1.00  0.00     0.021 A 
ATOM     13  C   UNL     1      10.789  14.440  61.637  1.00  0.00     0.016 A 
ATOM     14  C   UNL     1      10.475  15.746  62.021  1.00  0.00     0.051 A 
ATOM     15  C   UNL     1       9.139  16.151  62.123  1.00  0.00     0.157 A 
ATOM     16  C   UNL     1       8.427  13.930  61.461  1.00  0.00     0.062 A 
ATOM     17  C   UNL     1       8.113  15.241  61.845  1.00  0.00     0.158 A 
BRANCH  15  18
ATOM     18  O   UNL     1       8.822  17.454  62.505  1.00  0.00    -0.504 OA
ATOM     19  H   UNL     1       9.408  17.975  63.148  1.00  0.00     0.293 HD
ENDBRANCH  15  18
BRANCH  17  20
ATOM     20  O   UNL     1       6.783  15.645  61.951  1.00  0.00    -0.504 OA
ATOM     21  H   UNL     1       6.033  15.124  61.511  1.00  0.00     0.293 HD
ENDBRANCH  17  20
ENDBRANCH   1  12
BRANCH   6  22
ATOM     22  O   UNL     1      10.914   7.054  60.281  1.00  0.00    -0.507 OA
ATOM     23  H   UNL     1      11.737   6.739  60.772  1.00  0.00     0.293 HD
ENDBRANCH   6  22
BRANCH   8  24
ATOM     24  O   UNL     1      10.957   9.021  55.900  1.00  0.00    -0.508 OA
ATOM     25  H   UNL     1      10.146   8.947  55.298  1.00  0.00     0.293 HD
ENDBRANCH   8  24
TORSDOF 5
ENDMDL
MODEL 3
REMARK VINA RESULT:    -4.820      1.749      3.432
REMARK INTER + INTRA:          -5.976
REMARK INTER:                  -5.681
REMARK INTRA:                  -0.294
REMARK UNBOUND:                -0.310
REMARK SMILES O=c1cc(-c2ccc(O)c(O)c2)oc2cc(O)cc(O)c12
REMARK SMILES IDX 4 1 3 2 2 3 1 4 21 5 19 6 18 7 16 8 15 9 14 10 13 11 5 12
REMARK SMILES IDX 6 13 7 14 8 15 12 16 10 17 9 18 11 20 20 22 17 24
REMARK H PARENT 9 19 11 21 20 23 17 25
REMARK Flexibility Score: inf
ROOT
ATOM      1  C   UNL     1       2.557  13.870  73.837  1.00  0.00     0.138 A 
ATOM      2  C   UNL     1       2.403  12.491  74.033  1.00  0.00     0.100 A 
ATOM      3  C   UNL     1       3.507  11.647  73.894  1.00  0.00     0.197 A 
ATOM      4  O   UNL     1       3.351  10.423  74.136  1.00  0.00    -0.289 OA
ATOM      5  C   UNL     1       4.762  12.186  73.526  1.00  0.00     0.107 A 
ATOM      6  C   UNL     1       5.946  11.418  73.316  1.00  0.00     0.134 A 
ATOM      7  C   UNL     1       7.159  12.073  73.068  1.00  0.00     0.093 A 
ATOM      8  C   UNL     1       7.218  13.466  72.964  1.00  0.00     0.123 A 
ATOM      9  C   UNL     1       6.058  14.220  73.114  1.00  0.00     0.094 A 
ATOM     10  C   UNL     1       4.839  13.600  73.395  1.00  0.00     0.146 A 
ATOM     11  O   UNL     1       3.758  14.358  73.546  1.00  0.00    -0.456 OA
ENDROOT
BRANCH   1  12
ATOM     12  C   UNL     1       1.416  14.813  73.970  1.00  0.00     0.021 A 
ATOM     13  C   UNL     1       1.593  16.206  73.866  1.00  0.00     0.016 A 
ATOM     14  C   UNL     1       0.504  17.070  74.005  1.00  0.00     0.051 A 
ATOM     15  C   UNL     1      -0.775  16.561  74.257  1.00  0.00     0.157 A 
ATOM     16  C   UNL     1       0.130  14.311  74.237  1.00  0.00     0.062 A 
ATOM     17  C   UNL     1      -0.963  15.179  74.375  1.00  0.00     0.158 A 
BRANCH  15  18
ATOM     18  O   UNL     1      -1.864  17.421  74.395  1.00  0.00    -0.504 OA
ATOM     19  H   UNL     1      -2.630  17.209  75.025  1.00  0.00     0.293 HD
ENDBRANCH  15  18
BRANCH  17  20
ATOM     20  O   UNL     1      -2.236  14.674  74.630  1.00  0.00    -0.504 OA
ATOM     21  H   UNL     1      -2.439  14.144  75.470  1.00  0.00     0.293 HD
ENDBRANCH  17  20
ENDBRANCH   1  12
BRANCH   6  22
ATOM     22  O   UNL     1       5.980  10.021  73.315  1.00  0.00    -0.507 OA
ATOM     23  H   UNL     1       6.575   9.458  72.725  1.00  0.00     0.293 HD
ENDBRANCH   6  22
BRANCH   8  24
ATOM     24  O   UNL     1       8.427  14.107  72.702  1.00  0.00    -0.508 OA
ATOM     25  H   UNL     1       9.025  13.819  71.936  1.00  0.00     0.293 HD
ENDBRANCH   8  24
TORSDOF 5
ENDMDL
MODEL 4
REMARK VINA RESULT:    -4.810     12.092     15.148
REMARK INTER + INTRA:          -5.964
REMARK INTER:                  -5.701
REMARK INTRA:                  -0.263
REMARK UNBOUND:                -0.310
REMARK SMILES O=c1cc(-c2ccc(O)c(O)c2)oc2cc(O)cc(O)c12
REMARK SMILES IDX 4 1 3 2 2 3 1 4 21 5 19 6 18 7 16 8 15 9 14 10 13 11 5 12
REMARK SMILES IDX 6 13 7 14 8 15 12 16 10 17 9 18 11 20 20 22 17 24
REMARK H PARENT 9 19 11 21 20 23 17 25
REMARK Flexibility Score: inf
ROOT
ATOM      1  C   UNL     1      10.643  12.010  60.248  1.00  0.00     0.138 A 
ATOM      2  C   UNL     1      11.798  12.672  60.687  1.00  0.00     0.100 A 
ATOM      3  C   UNL     1      11.679  13.876  61.385  1.00  0.00     0.197 A 
ATOM      4  O   UNL     1      12.729  14.415  61.819  1.00  0.00    -0.289 OA
ATOM      5  C   UNL     1      10.399  14.433  61.614  1.00  0.00     0.107 A 
ATOM      6  C   UNL     1      10.160  15.674  62.277  1.00  0.00     0.134 A 
ATOM      7  C   UNL     1       8.844  16.068  62.550  1.00  0.00     0.093 A 
ATOM      8  C   UNL     1       7.758  15.294  62.131  1.00  0.00     0.123 A 
ATOM      9  C   UNL     1       7.981  14.108  61.436  1.00  0.00     0.094 A 
ATOM     10  C   UNL     1       9.282  13.671  61.178  1.00  0.00     0.146 A 
ATOM     11  O   UNL     1       9.451  12.526  60.524  1.00  0.00    -0.456 OA
ENDROOT
BRANCH   1  12
ATOM     12  C   UNL     1      10.711  10.728  59.501  1.00  0.00     0.021 A 
ATOM     13  C   UNL     1      10.720  10.692  58.093  1.00  0.00     0.016 A 
ATOM     14  C   UNL     1      10.774   9.471  57.416  1.00  0.00     0.051 A 
ATOM     15  C   UNL     1      10.814   8.268  58.130  1.00  0.00     0.157 A 
ATOM     16  C   UNL     1      10.737   9.513  60.210  1.00  0.00     0.062 A 
ATOM     17  C   UNL     1      10.793   8.288  59.529  1.00  0.00     0.158 A 
BRANCH  15  18
ATOM     18  O   UNL     1      10.869   7.048  57.458  1.00  0.00    -0.504 OA
ATOM     19  H   UNL     1      10.111   6.737  56.861  1.00  0.00     0.293 HD
ENDBRANCH  15  18
BRANCH  17  20
ATOM     20  O   UNL     1      10.828   7.089  60.238  1.00  0.00    -0.504 OA
ATOM     21  H   UNL     1      10.554   7.040  61.213  1.00  0.00     0.293 HD
ENDBRANCH  17  20
ENDBRANCH   1  12
BRANCH   6  22
ATOM     22  O   UNL     1      11.170  16.560  62.662  1.00  0.00    -0.507 OA
ATOM     23  H   UNL     1      12.146  16.457  62.433  1.00  0.00     0.293 HD
ENDBRANCH   6  22
BRANCH   8  24
ATOM     24  O   UNL     1       6.452  15.703  62.393  1.00  0.00    -0.508 OA
ATOM     25  H   UNL     1       6.087  15.736  63.338  1.00  0.00     0.293 HD
ENDBRANCH   8  24
TORSDOF 5
ENDMDL
MODEL 5
REMARK VINA RESULT:    -4.765      1.888      6.643
REMARK INTER + INTRA:          -5.911
REMARK INTER:                  -5.647
REMARK INTRA:                  -0.264
REMARK UNBOUND:                -0.310
REMARK SMILES O=c1cc(-c2ccc(O)c(O)c2)oc2cc(O)cc(O)c12
REMARK SMILES IDX 4 1 3 2 2 3 1 4 21 5 19 6 18 7 16 8 15 9 14 10 13 11 5 12
REMARK SMILES IDX 6 13 7 14 8 15 12 16 10 17 9 18 11 20 20 22 17 24
REMARK H PARENT 9 19 11 21 20 23 17 25
REMARK Flexibility Score: inf
ROOT
ATOM      1  C   UNL     1       4.383  14.369  73.281  1.00  0.00     0.138 A 
ATOM      2  C   UNL     1       4.596  15.752  73.214  1.00  0.00     0.100 A 
ATOM      3  C   UNL     1       3.528  16.626  73.424  1.00  0.00     0.197 A 
ATOM      4  O   UNL     1       3.762  17.862  73.418  1.00  0.00    -0.289 OA
ATOM      5  C   UNL     1       2.234  16.109  73.671  1.00  0.00     0.107 A 
ATOM      6  C   UNL     1       1.064  16.903  73.860  1.00  0.00     0.134 A 
ATOM      7  C   UNL     1      -0.142  16.283  74.214  1.00  0.00     0.093 A 
ATOM      8  C   UNL     1      -0.231  14.893  74.327  1.00  0.00     0.123 A 
ATOM      9  C   UNL     1       0.894  14.106  74.092  1.00  0.00     0.094 A 
ATOM     10  C   UNL     1       2.118  14.696  73.771  1.00  0.00     0.146 A 
ATOM     11  O   UNL     1       3.170  13.910  73.569  1.00  0.00    -0.456 OA
ENDROOT
BRANCH   1  12
ATOM     12  C   UNL     1       5.483  13.394  73.064  1.00  0.00     0.021 A 
ATOM     13  C   UNL     1       5.838  12.956  71.774  1.00  0.00     0.016 A 
ATOM     14  C   UNL     1       6.871  12.031  71.600  1.00  0.00     0.051 A 
ATOM     15  C   UNL     1       7.560  11.524  72.707  1.00  0.00     0.157 A 
ATOM     16  C   UNL     1       6.172  12.869  74.172  1.00  0.00     0.062 A 
ATOM     17  C   UNL     1       7.209  11.942  73.996  1.00  0.00     0.158 A 
BRANCH  15  18
ATOM     18  O   UNL     1       8.591  10.602  72.537  1.00  0.00    -0.504 OA
ATOM     19  H   UNL     1       9.375  10.790  71.921  1.00  0.00     0.293 HD
ENDBRANCH  15  18
BRANCH  17  20
ATOM     20  O   UNL     1       7.893  11.433  75.098  1.00  0.00    -0.504 OA
ATOM     21  H   UNL     1       8.890  11.249  75.066  1.00  0.00     0.293 HD
ENDBRANCH  17  20
ENDBRANCH   1  12
BRANCH   6  22
ATOM     22  O   UNL     1       1.025  18.290  73.688  1.00  0.00    -0.507 OA
ATOM     23  H   UNL     1       1.339  18.778  72.863  1.00  0.00     0.293 HD
ENDBRANCH   6  22
BRANCH   8  24
ATOM     24  O   UNL     1      -1.438  14.285  74.665  1.00  0.00    -0.508 OA
ATOM     25  H   UNL     1      -1.790  14.296  75.614  1.00  0.00     0.293 HD
ENDBRANCH   8  24
TORSDOF 5
ENDMDL
MODEL 6
REMARK VINA RESULT:    -4.757      3.133      5.556
REMARK INTER + INTRA:          -5.901
REMARK INTER:                  -5.595
REMARK INTRA:                  -0.306
REMARK UNBOUND:                -0.310
REMARK SMILES O=c1cc(-c2ccc(O)c(O)c2)oc2cc(O)cc(O)c12
REMARK SMILES IDX 4 1 3 2 2 3 1 4 21 5 19 6 18 7 16 8 15 9 14 10 13 11 5 12
REMARK SMILES IDX 6 13 7 14 8 15 12 16 10 17 9 18 11 20 20 22 17 24
REMARK H PARENT 9 19 11 21 20 23 17 25
REMARK Flexibility Score: inf
ROOT
ATOM      1  C   UNL     1       3.362  16.133  73.985  1.00  0.00     0.138 A 
ATOM      2  C   UNL     1       4.533  15.517  73.521  1.00  0.00     0.100 A 
ATOM      3  C   UNL     1       4.603  14.124  73.464  1.00  0.00     0.197 A 
ATOM      4  O   UNL     1       5.643  13.602  72.986  1.00  0.00    -0.289 OA
ATOM      5  C   UNL     1       3.507  13.346  73.904  1.00  0.00     0.107 A 
ATOM      6  C   UNL     1       3.482  11.919  73.930  1.00  0.00     0.134 A 
ATOM      7  C   UNL     1       2.297  11.256  74.277  1.00  0.00     0.093 A 
ATOM      8  C   UNL     1       1.156  11.968  74.655  1.00  0.00     0.123 A 
ATOM      9  C   UNL     1       1.188  13.361  74.685  1.00  0.00     0.094 A 
ATOM     10  C   UNL     1       2.343  14.052  74.312  1.00  0.00     0.146 A 
ATOM     11  O   UNL     1       2.327  15.380  74.341  1.00  0.00    -0.456 OA
ENDROOT
BRANCH   1  12
ATOM     12  C   UNL     1       3.233  17.611  74.068  1.00  0.00     0.021 A 
ATOM     13  C   UNL     1       3.947  18.464  73.206  1.00  0.00     0.016 A 
ATOM     14  C   UNL     1       3.814  19.851  73.313  1.00  0.00     0.051 A 
ATOM     15  C   UNL     1       2.974  20.408  74.284  1.00  0.00     0.157 A 
ATOM     16  C   UNL     1       2.402  18.179  75.050  1.00  0.00     0.062 A 
ATOM     17  C   UNL     1       2.268  19.571  75.156  1.00  0.00     0.158 A 
BRANCH  15  18
ATOM     18  O   UNL     1       2.838  21.791  74.393  1.00  0.00    -0.504 OA
ATOM     19  H   UNL     1       2.670  22.373  73.579  1.00  0.00     0.293 HD
ENDBRANCH  15  18
BRANCH  17  20
ATOM     20  O   UNL     1       1.436  20.127  76.125  1.00  0.00    -0.504 OA
ATOM     21  H   UNL     1       1.797  20.443  77.018  1.00  0.00     0.293 HD
ENDBRANCH  17  20
ENDBRANCH   1  12
BRANCH   6  22
ATOM     22  O   UNL     1       4.589  11.113  73.652  1.00  0.00    -0.507 OA
ATOM     23  H   UNL     1       4.687  10.150  73.933  1.00  0.00     0.293 HD
ENDBRANCH   6  22
BRANCH   8  24
ATOM     24  O   UNL     1      -0.012  11.300  75.013  1.00  0.00    -0.508 OA
ATOM     25  H   UNL     1      -0.162  10.328  74.770  1.00  0.00     0.293 HD
ENDBRANCH   8  24
TORSDOF 5
ENDMDL
MODEL 7
REMARK VINA RESULT:    -4.712      2.187      7.268
REMARK INTER + INTRA:          -5.848
REMARK INTER:                  -5.583
REMARK INTRA:                  -0.265
REMARK UNBOUND:                -0.310
REMARK SMILES O=c1cc(-c2ccc(O)c(O)c2)oc2cc(O)cc(O)c12
REMARK SMILES IDX 4 1 3 2 2 3 1 4 21 5 19 6 18 7 16 8 15 9 14 10 13 11 5 12
REMARK SMILES IDX 6 13 7 14 8 15 12 16 10 17 9 18 11 20 20 22 17 24
REMARK H PARENT 9 19 11 21 20 23 17 25
REMARK Flexibility Score: inf
ROOT
ATOM      1  C   UNL     1       3.332  13.385  73.459  1.00  0.00     0.138 A 
ATOM      2  C   UNL     1       2.226  12.540  73.630  1.00  0.00     0.100 A 
ATOM      3  C   UNL     1       0.970  13.092  73.890  1.00  0.00     0.197 A 
ATOM      4  O   UNL     1      -0.013  12.313  73.978  1.00  0.00    -0.289 OA
ATOM      5  C   UNL     1       0.829  14.495  74.010  1.00  0.00     0.107 A 
ATOM      6  C   UNL     1      -0.394  15.165  74.314  1.00  0.00     0.134 A 
ATOM      7  C   UNL     1      -0.437  16.565  74.292  1.00  0.00     0.093 A 
ATOM      8  C   UNL     1       0.713  17.318  74.037  1.00  0.00     0.123 A 
ATOM      9  C   UNL     1       1.922  16.672  73.793  1.00  0.00     0.094 A 
ATOM     10  C   UNL     1       1.991  15.278  73.774  1.00  0.00     0.146 A 
ATOM     11  O   UNL     1       3.162  14.701  73.523  1.00  0.00    -0.456 OA
ENDROOT
BRANCH   1  12
ATOM     12  C   UNL     1       4.690  12.853  73.182  1.00  0.00     0.021 A 
ATOM     13  C   UNL     1       5.096  12.504  71.880  1.00  0.00     0.016 A 
ATOM     14  C   UNL     1       6.378  11.996  71.650  1.00  0.00     0.051 A 
ATOM     15  C   UNL     1       7.271  11.822  72.714  1.00  0.00     0.157 A 
ATOM     16  C   UNL     1       5.589  12.661  74.247  1.00  0.00     0.062 A 
ATOM     17  C   UNL     1       6.876  12.153  74.015  1.00  0.00     0.158 A 
BRANCH  15  18
ATOM     18  O   UNL     1       8.550  11.316  72.487  1.00  0.00    -0.504 OA
ATOM     19  H   UNL     1       8.834  10.982  71.573  1.00  0.00     0.293 HD
ENDBRANCH  15  18
BRANCH  17  20
ATOM     20  O   UNL     1       7.764  11.974  75.073  1.00  0.00    -0.504 OA
ATOM     21  H   UNL     1       8.266  11.103  75.205  1.00  0.00     0.293 HD
ENDBRANCH  17  20
ENDBRANCH   1  12
BRANCH   6  22
ATOM     22  O   UNL     1      -1.577  14.510  74.665  1.00  0.00    -0.507 OA
ATOM     23  H   UNL     1      -2.254  14.856  75.328  1.00  0.00     0.293 HD
ENDBRANCH   6  22
BRANCH   8  24
ATOM     24  O   UNL     1       0.663  18.710  74.033  1.00  0.00    -0.508 OA
ATOM     25  H   UNL     1      -0.213  19.209  73.931  1.00  0.00     0.293 HD
ENDBRANCH   8  24
TORSDOF 5
ENDMDL
MODEL 8
REMARK VINA RESULT:    -4.665      1.276      2.955
REMARK INTER + INTRA:          -5.793
REMARK INTER:                  -5.498
REMARK INTRA:                  -0.295
REMARK UNBOUND:                -0.310
REMARK SMILES O=c1cc(-c2ccc(O)c(O)c2)oc2cc(O)cc(O)c12
REMARK SMILES IDX 4 1 3 2 2 3 1 4 21 5 19 6 18 7 16 8 15 9 14 10 13 11 5 12
REMARK SMILES IDX 6 13 7 14 8 15 12 16 10 17 9 18 11 20 20 22 17 24
REMARK H PARENT 9 19 11 21 20 23 17 25
REMARK Flexibility Score: inf
ROOT
ATOM      1  C   UNL     1       4.269  12.736  73.307  1.00  0.00     0.138 A 
ATOM      2  C   UNL     1       4.668  11.395  73.215  1.00  0.00     0.100 A 
ATOM      3  C   UNL     1       5.974  11.089  72.828  1.00  0.00     0.197 A 
ATOM      4  O   UNL     1       6.321   9.880  72.814  1.00  0.00    -0.289 OA
ATOM      5  C   UNL     1       6.873  12.132  72.500  1.00  0.00     0.107 A 
ATOM      6  C   UNL     1       8.215  11.937  72.054  1.00  0.00     0.134 A 
ATOM      7  C   UNL     1       9.049  13.047  71.871  1.00  0.00     0.093 A 
ATOM      8  C   UNL     1       8.572  14.347  72.061  1.00  0.00     0.123 A 
ATOM      9  C   UNL     1       7.248  14.548  72.445  1.00  0.00     0.094 A 
ATOM     10  C   UNL     1       6.401  13.461  72.668  1.00  0.00     0.146 A 
ATOM     11  O   UNL     1       5.149  13.697  73.047  1.00  0.00    -0.456 OA
ENDROOT
BRANCH   1  12
ATOM     12  C   UNL     1       2.892  13.118  73.712  1.00  0.00     0.021 A 
ATOM     13  C   UNL     1       2.480  14.464  73.751  1.00  0.00     0.016 A 
ATOM     14  C   UNL     1       1.182  14.795  74.146  1.00  0.00     0.051 A 
ATOM     15  C   UNL     1       0.277  13.793  74.514  1.00  0.00     0.157 A 
ATOM     16  C   UNL     1       1.981  12.119  74.096  1.00  0.00     0.062 A 
ATOM     17  C   UNL     1       0.677  12.452  74.491  1.00  0.00     0.158 A 
BRANCH  15  18
ATOM     18  O   UNL     1      -1.020  14.120  74.907  1.00  0.00    -0.504 OA
ATOM     19  H   UNL     1      -1.602  14.738  74.353  1.00  0.00     0.293 HD
ENDBRANCH  15  18
BRANCH  17  20
ATOM     20  O   UNL     1      -0.224  11.456  74.862  1.00  0.00    -0.504 OA
ATOM     21  H   UNL     1       0.091  10.563  75.225  1.00  0.00     0.293 HD
ENDBRANCH  17  20
ENDBRANCH   1  12
BRANCH   6  22
ATOM     22  O   UNL     1       8.764  10.687  71.754  1.00  0.00    -0.507 OA
ATOM     23  H   UNL     1       9.031  10.381  70.831  1.00  0.00     0.293 HD
ENDBRANCH   6  22
BRANCH   8  24
ATOM     24  O   UNL     1       9.405  15.445  71.862  1.00  0.00    -0.508 OA
ATOM     25  H   UNL     1       9.345  16.012  71.024  1.00  0.00     0.293 HD
ENDBRANCH   8  24
TORSDOF 5
ENDMDL
MODEL 9
REMARK VINA RESULT:    -4.529     14.039     14.839
REMARK INTER + INTRA:          -5.633
REMARK INTER:                  -5.357
REMARK INTRA:                  -0.276
REMARK UNBOUND:                -0.310
REMARK SMILES O=c1cc(-c2ccc(O)c(O)c2)oc2cc(O)cc(O)c12
REMARK SMILES IDX 4 1 3 2 2 3 1 4 21 5 19 6 18 7 16 8 15 9 14 10 13 11 5 12
REMARK SMILES IDX 6 13 7 14 8 15 12 16 10 17 9 18 11 20 20 22 17 24
REMARK H PARENT 9 19 11 21 20 23 17 25
REMARK Flexibility Score: inf
ROOT
ATOM      1  C   UNL     1      -1.881  13.107  60.054  1.00  0.00     0.138 A 
ATOM      2  C   UNL     1      -2.135  12.051  59.168  1.00  0.00     0.100 A 
ATOM      3  C   UNL     1      -1.554  10.802  59.398  1.00  0.00     0.197 A 
ATOM      4  O   UNL     1      -1.849   9.859  58.621  1.00  0.00    -0.289 OA
ATOM      5  C   UNL     1      -0.689  10.622  60.503  1.00  0.00     0.107 A 
ATOM      6  C   UNL     1      -0.009   9.406  60.813  1.00  0.00     0.134 A 
ATOM      7  C   UNL     1       0.730   9.312  61.999  1.00  0.00     0.093 A 
ATOM      8  C   UNL     1       0.861  10.408  62.856  1.00  0.00     0.123 A 
ATOM      9  C   UNL     1       0.244  11.615  62.535  1.00  0.00     0.094 A 
ATOM     10  C   UNL     1      -0.527  11.731  61.377  1.00  0.00     0.146 A 
ATOM     11  O   UNL     1      -1.109  12.896  61.114  1.00  0.00    -0.456 OA
ENDROOT
BRANCH   1  12
ATOM     12  C   UNL     1      -2.472  14.456  59.856  1.00  0.00     0.021 A 
ATOM     13  C   UNL     1      -3.865  14.658  59.846  1.00  0.00     0.016 A 
ATOM     14  C   UNL     1      -4.393  15.936  59.649  1.00  0.00     0.051 A 
ATOM     15  C   UNL     1      -3.543  17.030  59.451  1.00  0.00     0.157 A 
ATOM     16  C   UNL     1      -1.625  15.558  59.643  1.00  0.00     0.062 A 
ATOM     17  C   UNL     1      -2.156  16.841  59.446  1.00  0.00     0.158 A 
BRANCH  15  18
ATOM     18  O   UNL     1      -4.067  18.307  59.255  1.00  0.00    -0.504 OA
ATOM     19  H   UNL     1      -4.796  18.482  58.572  1.00  0.00     0.293 HD
ENDBRANCH  15  18
BRANCH  17  20
ATOM     20  O   UNL     1      -1.311  17.930  59.245  1.00  0.00    -0.504 OA
ATOM     21  H   UNL     1      -0.626  17.941  58.497  1.00  0.00     0.293 HD
ENDBRANCH  17  20
ENDBRANCH   1  12
BRANCH   6  22
ATOM     22  O   UNL     1      -0.006   8.281  59.984  1.00  0.00    -0.507 OA
ATOM     23  H   UNL     1       0.452   8.226  59.087  1.00  0.00     0.293 HD
ENDBRANCH   6  22
BRANCH   8  24
ATOM     24  O   UNL     1       1.610  10.308  64.026  1.00  0.00    -0.508 OA
ATOM     25  H   UNL     1       2.465   9.766  64.064  1.00  0.00     0.293 HD
ENDBRANCH   8  24
TORSDOF 5
ENDMDL
