MODEL 1
REMARK VINA RESULT:    -5.168      0.000      0.000
REMARK INTER + INTRA:         -17.913
REMARK INTER:                 -13.023
REMARK INTRA:                  -4.890
REMARK UNBOUND:                -4.890
REMARK SMILES CCCCCCCCCCCCCCCCCCCCCCCCCCCC(=O)[O-]
REMARK SMILES IDX 15 1 16 2 17 3 18 4 19 5 20 6 21 7 22 8 23 9 24 10 25 11
REMARK SMILES IDX 26 12 27 13 28 14 29 15 30 16 14 17 13 18 12 19 11 20 10 21
REMARK SMILES IDX 9 22 8 23 7 24 6 25 5 26 4 27 3 28 2 29 1 30
REMARK H PARENT
REMARK Flexibility Score: inf
ROOT
ATOM      1  C   UNL     1      15.104 -34.175  20.179  1.00  0.00     0.000 C 
ENDROOT
BRANCH   1   2
ATOM      2  C   UNL     1      14.619 -33.097  21.161  1.00  0.00     0.000 C 
BRANCH   2   3
ATOM      3  C   UNL     1      13.626 -32.114  20.515  1.00  0.00     0.000 C 
BRANCH   3   4
ATOM      4  C   UNL     1      13.025 -31.127  21.529  1.00  0.00     0.000 C 
BRANCH   4   5
ATOM      5  C   UNL     1      13.468 -31.417  22.971  1.00  0.00     0.000 C 
BRANCH   5   6
ATOM      6  C   UNL     1      13.893 -30.128  23.684  1.00  0.00     0.000 C 
BRANCH   6   7
ATOM      7  C   UNL     1      14.968 -29.383  22.876  1.00  0.00     0.000 C 
BRANCH   7   8
ATOM      8  C   UNL     1      16.299 -30.149  22.813  1.00  0.00     0.000 C 
BRANCH   8   9
ATOM      9  C   UNL     1      17.131 -29.790  21.573  1.00  0.00     0.000 C 
BRANCH   9  10
ATOM     10  C   UNL     1      17.748 -31.050  20.946  1.00  0.00     0.000 C 
BRANCH  10  11
ATOM     11  C   UNL     1      19.283 -31.061  21.017  1.00  0.00     0.000 C 
BRANCH  11  12
ATOM     12  C   UNL     1      19.851 -29.853  21.777  1.00  0.00     0.006 C 
BRANCH  12  13
ATOM     13  C   UNL     1      20.915 -29.129  20.944  1.00  0.00     0.053 C 
BRANCH  13  14
ATOM     14  C   UNL     1      20.628 -27.661  20.869  1.00  0.00     0.041 C 
ATOM     15  O   UNL     1      19.487 -27.255  20.520  1.00  0.00    -0.550 OA
ATOM     16  O   UNL     1      21.622 -26.741  21.179  1.00  0.00    -0.550 OA
ENDBRANCH  13  14
ENDBRANCH  12  13
ENDBRANCH  11  12
ENDBRANCH  10  11
ENDBRANCH   9  10
ENDBRANCH   8   9
ENDBRANCH   7   8
ENDBRANCH   6   7
ENDBRANCH   5   6
ENDBRANCH   4   5
ENDBRANCH   3   4
ENDBRANCH   2   3
ENDBRANCH   1   2
BRANCH   1  17
ATOM     17  C   UNL     1      16.374 -33.751  19.419  1.00  0.00     0.000 C 
BRANCH  17  18
ATOM     18  C   UNL     1      17.416 -34.877  19.336  1.00  0.00     0.000 C 
BRANCH  18  19
ATOM     19  C   UNL     1      16.796 -36.274  19.525  1.00  0.00     0.000 C 
BRANCH  19  20
ATOM     20  C   UNL     1      17.596 -37.147  20.503  1.00  0.00     0.000 C 
BRANCH  20  21
ATOM     21  C   UNL     1      17.885 -36.431  21.834  1.00  0.00     0.000 C 
BRANCH  21  22
ATOM     22  C   UNL     1      19.230 -36.847  22.453  1.00  0.00    -0.000 C 
BRANCH  22  23
ATOM     23  C   UNL     1      20.032 -35.644  22.978  1.00  0.00    -0.000 C 
BRANCH  23  24
ATOM     24  C   UNL     1      19.401 -34.296  22.594  1.00  0.00    -0.000 C 
BRANCH  24  25
ATOM     25  C   UNL     1      18.744 -33.585  23.791  1.00  0.00    -0.000 C 
BRANCH  25  26
ATOM     26  C   UNL     1      17.218 -33.462  23.643  1.00  0.00    -0.000 C 
BRANCH  26  27
ATOM     27  C   UNL     1      16.454 -34.305  24.677  1.00  0.00    -0.000 C 
BRANCH  27  28
ATOM     28  C   UNL     1      17.367 -34.844  25.790  1.00  0.00    -0.000 C 
BRANCH  28  29
ATOM     29  C   UNL     1      17.089 -36.316  26.127  1.00  0.00    -0.003 C 
ATOM     30  C   UNL     1      18.354 -37.159  25.992  1.00  0.00     0.004 C 
ENDBRANCH  28  29
ENDBRANCH  27  28
ENDBRANCH  26  27
ENDBRANCH  25  26
ENDBRANCH  24  25
ENDBRANCH  23  24
ENDBRANCH  22  23
ENDBRANCH  21  22
ENDBRANCH  20  21
ENDBRANCH  19  20
ENDBRANCH  18  19
ENDBRANCH  17  18
ENDBRANCH   1  17
TORSDOF 26
ENDMDL
MODEL 2
REMARK VINA RESULT:    -5.017      3.181      4.963
REMARK INTER + INTRA:         -17.532
REMARK INTER:                 -12.384
REMARK INTRA:                  -5.148
REMARK UNBOUND:                -4.890
REMARK SMILES CCCCCCCCCCCCCCCCCCCCCCCCCCCC(=O)[O-]
REMARK SMILES IDX 15 1 16 2 17 3 18 4 19 5 20 6 21 7 22 8 23 9 24 10 25 11
REMARK SMILES IDX 26 12 27 13 28 14 29 15 30 16 14 17 13 18 12 19 11 20 10 21
REMARK SMILES IDX 9 22 8 23 7 24 6 25 5 26 4 27 3 28 2 29 1 30
REMARK H PARENT
REMARK Flexibility Score: inf
ROOT
ATOM      1  C   UNL     1      16.491 -34.407  24.397  1.00  0.00     0.000 C 
ENDROOT
BRANCH   1   2
ATOM      2  C   UNL     1      15.517 -33.618  23.508  1.00  0.00     0.000 C 
BRANCH   2   3
ATOM      3  C   UNL     1      14.338 -33.027  24.303  1.00  0.00     0.000 C 
BRANCH   3   4
ATOM      4  C   UNL     1      13.931 -31.630  23.807  1.00  0.00     0.000 C 
BRANCH   4   5
ATOM      5  C   UNL     1      14.133 -31.457  22.294  1.00  0.00     0.000 C 
BRANCH   5   6
ATOM      6  C   UNL     1      14.875 -30.152  21.984  1.00  0.00     0.000 C 
BRANCH   6   7
ATOM      7  C   UNL     1      15.987 -29.895  23.014  1.00  0.00     0.000 C 
BRANCH   7   8
ATOM      8  C   UNL     1      17.317 -30.562  22.629  1.00  0.00     0.000 C 
BRANCH   8   9
ATOM      9  C   UNL     1      17.505 -30.674  21.108  1.00  0.00     0.000 C 
BRANCH   9  10
ATOM     10  C   UNL     1      18.438 -31.843  20.758  1.00  0.00     0.000 C 
BRANCH  10  11
ATOM     11  C   UNL     1      17.675 -33.130  20.408  1.00  0.00     0.000 C 
BRANCH  11  12
ATOM     12  C   UNL     1      18.519 -34.397  20.618  1.00  0.00     0.006 C 
BRANCH  12  13
ATOM     13  C   UNL     1      17.656 -35.554  21.136  1.00  0.00     0.053 C 
BRANCH  13  14
ATOM     14  C   UNL     1      16.952 -36.242  20.007  1.00  0.00     0.041 C 
ATOM     15  O   UNL     1      15.737 -36.002  19.776  1.00  0.00    -0.550 OA
ATOM     16  O   UNL     1      17.638 -37.152  19.212  1.00  0.00    -0.550 OA
ENDBRANCH  13  14
ENDBRANCH  12  13
ENDBRANCH  11  12
ENDBRANCH  10  11
ENDBRANCH   9  10
ENDBRANCH   8   9
ENDBRANCH   7   8
ENDBRANCH   6   7
ENDBRANCH   5   6
ENDBRANCH   4   5
ENDBRANCH   3   4
ENDBRANCH   2   3
ENDBRANCH   1   2
BRANCH   1  17
ATOM     17  C   UNL     1      16.991 -33.584  25.597  1.00  0.00     0.000 C 
BRANCH  17  18
ATOM     18  C   UNL     1      18.493 -33.273  25.516  1.00  0.00     0.000 C 
BRANCH  18  19
ATOM     19  C   UNL     1      19.030 -33.315  24.073  1.00  0.00     0.000 C 
BRANCH  19  20
ATOM     20  C   UNL     1      20.418 -32.670  23.941  1.00  0.00     0.000 C 
BRANCH  20  21
ATOM     21  C   UNL     1      21.450 -33.615  23.301  1.00  0.00     0.000 C 
BRANCH  21  22
ATOM     22  C   UNL     1      21.125 -35.099  23.539  1.00  0.00    -0.000 C 
BRANCH  22  23
ATOM     23  C   UNL     1      21.659 -35.608  24.889  1.00  0.00    -0.000 C 
BRANCH  23  24
ATOM     24  C   UNL     1      20.641 -36.486  25.636  1.00  0.00    -0.000 C 
BRANCH  24  25
ATOM     25  C   UNL     1      19.444 -36.886  24.755  1.00  0.00    -0.000 C 
BRANCH  25  26
ATOM     26  C   UNL     1      18.397 -37.714  25.519  1.00  0.00    -0.000 C 
BRANCH  26  27
ATOM     27  C   UNL     1      18.043 -37.103  26.885  1.00  0.00    -0.000 C 
BRANCH  27  28
ATOM     28  C   UNL     1      16.675 -37.573  27.405  1.00  0.00    -0.000 C 
BRANCH  28  29
ATOM     29  C   UNL     1      16.604 -37.614  28.938  1.00  0.00    -0.003 C 
ATOM     30  C   UNL     1      17.990 -37.455  29.557  1.00  0.00     0.004 C 
ENDBRANCH  28  29
ENDBRANCH  27  28
ENDBRANCH  26  27
ENDBRANCH  25  26
ENDBRANCH  24  25
ENDBRANCH  23  24
ENDBRANCH  22  23
ENDBRANCH  21  22
ENDBRANCH  20  21
ENDBRANCH  19  20
ENDBRANCH  18  19
ENDBRANCH  17  18
ENDBRANCH   1  17
TORSDOF 26
ENDMDL
MODEL 3
REMARK VINA RESULT:    -4.946      2.555      5.548
REMARK INTER + INTRA:         -17.355
REMARK INTER:                 -11.881
REMARK INTRA:                  -5.474
REMARK UNBOUND:                -4.890
REMARK SMILES CCCCCCCCCCCCCCCCCCCCCCCCCCCC(=O)[O-]
REMARK SMILES IDX 15 1 16 2 17 3 18 4 19 5 20 6 21 7 22 8 23 9 24 10 25 11
REMARK SMILES IDX 26 12 27 13 28 14 29 15 30 16 14 17 13 18 12 19 11 20 10 21
REMARK SMILES IDX 9 22 8 23 7 24 6 25 5 26 4 27 3 28 2 29 1 30
REMARK H PARENT
REMARK Flexibility Score: inf
ROOT
ATOM      1  C   UNL     1      16.166 -33.890  19.686  1.00  0.00     0.000 C 
ENDROOT
BRANCH   1   2
ATOM      2  C   UNL     1      15.851 -35.370  19.957  1.00  0.00     0.000 C 
BRANCH   2   3
ATOM      3  C   UNL     1      16.935 -36.315  19.406  1.00  0.00     0.000 C 
BRANCH   3   4
ATOM      4  C   UNL     1      17.607 -37.150  20.507  1.00  0.00     0.000 C 
BRANCH   4   5
ATOM      5  C   UNL     1      18.025 -36.304  21.720  1.00  0.00     0.000 C 
BRANCH   5   6
ATOM      6  C   UNL     1      19.121 -37.008  22.528  1.00  0.00     0.000 C 
BRANCH   6   7
ATOM      7  C   UNL     1      20.013 -35.984  23.249  1.00  0.00     0.000 C 
BRANCH   7   8
ATOM      8  C   UNL     1      19.860 -34.562  22.684  1.00  0.00     0.000 C 
BRANCH   8   9
ATOM      9  C   UNL     1      21.044 -33.652  23.042  1.00  0.00     0.000 C 
BRANCH   9  10
ATOM     10  C   UNL     1      20.572 -32.209  23.275  1.00  0.00     0.000 C 
BRANCH  10  11
ATOM     11  C   UNL     1      20.734 -31.757  24.735  1.00  0.00     0.000 C 
BRANCH  11  12
ATOM     12  C   UNL     1      19.859 -30.543  25.082  1.00  0.00     0.006 C 
BRANCH  12  13
ATOM     13  C   UNL     1      19.355 -30.623  26.527  1.00  0.00     0.053 C 
BRANCH  13  14
ATOM     14  C   UNL     1      19.633 -29.347  27.261  1.00  0.00     0.041 C 
ATOM     15  O   UNL     1      18.726 -28.794  27.938  1.00  0.00    -0.550 OA
ATOM     16  O   UNL     1      20.893 -28.765  27.193  1.00  0.00    -0.550 OA
ENDBRANCH  13  14
ENDBRANCH  12  13
ENDBRANCH  11  12
ENDBRANCH  10  11
ENDBRANCH   9  10
ENDBRANCH   8   9
ENDBRANCH   7   8
ENDBRANCH   6   7
ENDBRANCH   5   6
ENDBRANCH   4   5
ENDBRANCH   3   4
ENDBRANCH   2   3
ENDBRANCH   1   2
BRANCH   1  17
ATOM     17  C   UNL     1      17.633 -33.666  19.276  1.00  0.00     0.000 C 
BRANCH  17  18
ATOM     18  C   UNL     1      18.327 -32.593  20.130  1.00  0.00     0.000 C 
BRANCH  18  19
ATOM     19  C   UNL     1      17.328 -31.725  20.918  1.00  0.00     0.000 C 
BRANCH  19  20
ATOM     20  C   UNL     1      17.952 -30.413  21.415  1.00  0.00     0.000 C 
BRANCH  20  21
ATOM     21  C   UNL     1      16.902 -29.316  21.666  1.00  0.00     0.000 C 
BRANCH  21  22
ATOM     22  C   UNL     1      15.470 -29.872  21.742  1.00  0.00    -0.000 C 
BRANCH  22  23
ATOM     23  C   UNL     1      14.836 -29.673  23.130  1.00  0.00    -0.000 C 
BRANCH  23  24
ATOM     24  C   UNL     1      13.881 -30.815  23.515  1.00  0.00    -0.000 C 
BRANCH  24  25
ATOM     25  C   UNL     1      14.226 -32.140  22.809  1.00  0.00    -0.000 C 
BRANCH  25  26
ATOM     26  C   UNL     1      14.628 -33.248  23.796  1.00  0.00    -0.000 C 
BRANCH  26  27
ATOM     27  C   UNL     1      16.068 -33.740  23.577  1.00  0.00    -0.000 C 
BRANCH  27  28
ATOM     28  C   UNL     1      17.091 -32.970  24.429  1.00  0.00    -0.000 C 
BRANCH  28  29
ATOM     29  C   UNL     1      17.607 -33.788  25.621  1.00  0.00    -0.003 C 
ATOM     30  C   UNL     1      17.187 -35.250  25.508  1.00  0.00     0.004 C 
ENDBRANCH  28  29
ENDBRANCH  27  28
ENDBRANCH  26  27
ENDBRANCH  25  26
ENDBRANCH  24  25
ENDBRANCH  23  24
ENDBRANCH  22  23
ENDBRANCH  21  22
ENDBRANCH  20  21
ENDBRANCH  19  20
ENDBRANCH  18  19
ENDBRANCH  17  18
ENDBRANCH   1  17
TORSDOF 26
ENDMDL
MODEL 4
REMARK VINA RESULT:    -4.872      2.601      4.822
REMARK INTER + INTRA:         -17.167
REMARK INTER:                 -12.095
REMARK INTRA:                  -5.072
REMARK UNBOUND:                -4.890
REMARK SMILES CCCCCCCCCCCCCCCCCCCCCCCCCCCC(=O)[O-]
REMARK SMILES IDX 15 1 16 2 17 3 18 4 19 5 20 6 21 7 22 8 23 9 24 10 25 11
REMARK SMILES IDX 26 12 27 13 28 14 29 15 30 16 14 17 13 18 12 19 11 20 10 21
REMARK SMILES IDX 9 22 8 23 7 24 6 25 5 26 4 27 3 28 2 29 1 30
REMARK H PARENT
REMARK Flexibility Score: inf
ROOT
ATOM      1  C   UNL     1      16.456 -29.946  23.165  1.00  0.00     0.000 C 
ENDROOT
BRANCH   1   2
ATOM      2  C   UNL     1      14.988 -29.533  22.976  1.00  0.00     0.000 C 
BRANCH   2   3
ATOM      3  C   UNL     1      14.029 -30.737  22.994  1.00  0.00     0.000 C 
BRANCH   3   4
ATOM      4  C   UNL     1      14.034 -31.518  21.670  1.00  0.00     0.000 C 
BRANCH   4   5
ATOM      5  C   UNL     1      14.482 -32.977  21.846  1.00  0.00     0.000 C 
BRANCH   5   6
ATOM      6  C   UNL     1      14.924 -33.246  23.289  1.00  0.00     0.000 C 
BRANCH   6   7
ATOM      7  C   UNL     1      16.398 -33.681  23.340  1.00  0.00     0.000 C 
BRANCH   7   8
ATOM      8  C   UNL     1      16.711 -34.572  24.553  1.00  0.00     0.000 C 
BRANCH   8   9
ATOM      9  C   UNL     1      17.481 -33.826  25.653  1.00  0.00     0.000 C 
BRANCH   9  10
ATOM     10  C   UNL     1      18.041 -32.497  25.122  1.00  0.00     0.000 C 
BRANCH  10  11
ATOM     11  C   UNL     1      19.408 -32.143  25.727  1.00  0.00     0.000 C 
BRANCH  11  12
ATOM     12  C   UNL     1      19.660 -30.628  25.779  1.00  0.00     0.006 C 
BRANCH  12  13
ATOM     13  C   UNL     1      18.931 -29.989  26.967  1.00  0.00     0.053 C 
BRANCH  13  14
ATOM     14  C   UNL     1      19.729 -28.856  27.535  1.00  0.00     0.041 C 
ATOM     15  O   UNL     1      19.209 -28.071  28.373  1.00  0.00    -0.550 OA
ATOM     16  O   UNL     1      21.046 -28.663  27.136  1.00  0.00    -0.550 OA
ENDBRANCH  13  14
ENDBRANCH  12  13
ENDBRANCH  11  12
ENDBRANCH  10  11
ENDBRANCH   9  10
ENDBRANCH   8   9
ENDBRANCH   7   8
ENDBRANCH   6   7
ENDBRANCH   5   6
ENDBRANCH   4   5
ENDBRANCH   3   4
ENDBRANCH   2   3
ENDBRANCH   1   2
BRANCH   1  17
ATOM     17  C   UNL     1      17.236 -29.969  21.839  1.00  0.00     0.000 C 
BRANCH  17  18
ATOM     18  C   UNL     1      18.677 -30.476  22.009  1.00  0.00     0.000 C 
BRANCH  18  19
ATOM     19  C   UNL     1      18.935 -31.792  21.252  1.00  0.00     0.000 C 
BRANCH  19  20
ATOM     20  C   UNL     1      17.753 -32.201  20.361  1.00  0.00     0.000 C 
BRANCH  20  21
ATOM     21  C   UNL     1      17.953 -33.580  19.708  1.00  0.00     0.000 C 
BRANCH  21  22
ATOM     22  C   UNL     1      16.649 -34.164  19.140  1.00  0.00    -0.000 C 
BRANCH  22  23
ATOM     23  C   UNL     1      16.316 -35.544  19.731  1.00  0.00    -0.000 C 
BRANCH  23  24
ATOM     24  C   UNL     1      17.427 -36.577  19.488  1.00  0.00    -0.000 C 
BRANCH  24  25
ATOM     25  C   UNL     1      17.866 -37.293  20.779  1.00  0.00    -0.000 C 
BRANCH  25  26
ATOM     26  C   UNL     1      18.390 -36.319  21.847  1.00  0.00    -0.000 C 
BRANCH  26  27
ATOM     27  C   UNL     1      19.132 -37.036  22.987  1.00  0.00    -0.000 C 
BRANCH  27  28
ATOM     28  C   UNL     1      20.061 -36.094  23.771  1.00  0.00    -0.000 C 
BRANCH  28  29
ATOM     29  C   UNL     1      21.058 -35.355  22.867  1.00  0.00    -0.003 C 
ATOM     30  C   UNL     1      21.135 -33.875  23.230  1.00  0.00     0.004 C 
ENDBRANCH  28  29
ENDBRANCH  27  28
ENDBRANCH  26  27
ENDBRANCH  25  26
ENDBRANCH  24  25
ENDBRANCH  23  24
ENDBRANCH  22  23
ENDBRANCH  21  22
ENDBRANCH  20  21
ENDBRANCH  19  20
ENDBRANCH  18  19
ENDBRANCH  17  18
ENDBRANCH   1  17
TORSDOF 26
ENDMDL
MODEL 5
REMARK VINA RESULT:    -4.844      2.286      5.980
REMARK INTER + INTRA:         -17.098
REMARK INTER:                 -11.686
REMARK INTRA:                  -5.412
REMARK UNBOUND:                -4.890
REMARK SMILES CCCCCCCCCCCCCCCCCCCCCCCCCCCC(=O)[O-]
REMARK SMILES IDX 15 1 16 2 17 3 18 4 19 5 20 6 21 7 22 8 23 9 24 10 25 11
REMARK SMILES IDX 26 12 27 13 28 14 29 15 30 16 14 17 13 18 12 19 11 20 10 21
REMARK SMILES IDX 9 22 8 23 7 24 6 25 5 26 4 27 3 28 2 29 1 30
REMARK H PARENT
REMARK Flexibility Score: inf
ROOT
ATOM      1  C   UNL     1      17.097 -32.564  23.724  1.00  0.00     0.000 C 
ENDROOT
BRANCH   1   2
ATOM      2  C   UNL     1      17.371 -33.459  24.944  1.00  0.00     0.000 C 
BRANCH   2   3
ATOM      3  C   UNL     1      16.566 -34.770  24.908  1.00  0.00     0.000 C 
BRANCH   3   4
ATOM      4  C   UNL     1      17.019 -35.774  25.980  1.00  0.00     0.000 C 
BRANCH   4   5
ATOM      5  C   UNL     1      18.518 -36.101  25.887  1.00  0.00     0.000 C 
BRANCH   5   6
ATOM      6  C   UNL     1      18.739 -37.501  25.303  1.00  0.00     0.000 C 
BRANCH   6   7
ATOM      7  C   UNL     1      19.695 -37.449  24.100  1.00  0.00     0.000 C 
BRANCH   7   8
ATOM      8  C   UNL     1      19.081 -36.735  22.885  1.00  0.00     0.000 C 
BRANCH   8   9
ATOM      9  C   UNL     1      19.723 -35.365  22.616  1.00  0.00     0.000 C 
BRANCH   9  10
ATOM     10  C   UNL     1      21.167 -35.328  23.138  1.00  0.00     0.000 C 
BRANCH  10  11
ATOM     11  C   UNL     1      21.807 -33.935  23.023  1.00  0.00     0.000 C 
BRANCH  11  12
ATOM     12  C   UNL     1      20.772 -32.801  23.073  1.00  0.00     0.006 C 
BRANCH  12  13
ATOM     13  C   UNL     1      21.374 -31.533  23.689  1.00  0.00     0.053 C 
BRANCH  13  14
ATOM     14  C   UNL     1      21.467 -31.655  25.179  1.00  0.00     0.041 C 
ATOM     15  O   UNL     1      20.531 -32.191  25.832  1.00  0.00    -0.550 OA
ATOM     16  O   UNL     1      22.584 -31.172  25.849  1.00  0.00    -0.550 OA
ENDBRANCH  13  14
ENDBRANCH  12  13
ENDBRANCH  11  12
ENDBRANCH  10  11
ENDBRANCH   9  10
ENDBRANCH   8   9
ENDBRANCH   7   8
ENDBRANCH   6   7
ENDBRANCH   5   6
ENDBRANCH   4   5
ENDBRANCH   3   4
ENDBRANCH   2   3
ENDBRANCH   1   2
BRANCH   1  17
ATOM     17  C   UNL     1      17.471 -31.093  23.977  1.00  0.00     0.000 C 
BRANCH  17  18
ATOM     18  C   UNL     1      17.288 -30.215  22.730  1.00  0.00     0.000 C 
BRANCH  18  19
ATOM     19  C   UNL     1      18.299 -30.547  21.617  1.00  0.00     0.000 C 
BRANCH  19  20
ATOM     20  C   UNL     1      17.682 -31.396  20.494  1.00  0.00     0.000 C 
BRANCH  20  21
ATOM     21  C   UNL     1      18.367 -32.766  20.344  1.00  0.00     0.000 C 
BRANCH  21  22
ATOM     22  C   UNL     1      17.627 -33.695  19.367  1.00  0.00    -0.000 C 
BRANCH  22  23
ATOM     23  C   UNL     1      17.073 -34.953  20.059  1.00  0.00    -0.000 C 
BRANCH  23  24
ATOM     24  C   UNL     1      15.538 -34.961  20.133  1.00  0.00    -0.000 C 
BRANCH  24  25
ATOM     25  C   UNL     1      14.989 -33.975  21.180  1.00  0.00    -0.000 C 
BRANCH  25  26
ATOM     26  C   UNL     1      14.070 -32.907  20.563  1.00  0.00    -0.000 C 
BRANCH  26  27
ATOM     27  C   UNL     1      14.245 -31.527  21.219  1.00  0.00    -0.000 C 
BRANCH  27  28
ATOM     28  C   UNL     1      13.114 -31.194  22.205  1.00  0.00    -0.000 C 
BRANCH  28  29
ATOM     29  C   UNL     1      13.606 -31.063  23.653  1.00  0.00    -0.003 C 
ATOM     30  C   UNL     1      13.667 -32.425  24.338  1.00  0.00     0.004 C 
ENDBRANCH  28  29
ENDBRANCH  27  28
ENDBRANCH  26  27
ENDBRANCH  25  26
ENDBRANCH  24  25
ENDBRANCH  23  24
ENDBRANCH  22  23
ENDBRANCH  21  22
ENDBRANCH  20  21
ENDBRANCH  19  20
ENDBRANCH  18  19
ENDBRANCH  17  18
ENDBRANCH   1  17
TORSDOF 26
ENDMDL
MODEL 6
REMARK VINA RESULT:    -4.839      2.414      5.187
REMARK INTER + INTRA:         -17.085
REMARK INTER:                 -12.922
REMARK INTRA:                  -4.163
REMARK UNBOUND:                -4.890
REMARK SMILES CCCCCCCCCCCCCCCCCCCCCCCCCCCC(=O)[O-]
REMARK SMILES IDX 15 1 16 2 17 3 18 4 19 5 20 6 21 7 22 8 23 9 24 10 25 11
REMARK SMILES IDX 26 12 27 13 28 14 29 15 30 16 14 17 13 18 12 19 11 20 10 21
REMARK SMILES IDX 9 22 8 23 7 24 6 25 5 26 4 27 3 28 2 29 1 30
REMARK H PARENT
REMARK Flexibility Score: inf
ROOT
ATOM      1  C   UNL     1      15.755 -29.868  23.327  1.00  0.00     0.000 C 
ENDROOT
BRANCH   1   2
ATOM      2  C   UNL     1      16.380 -29.436  21.991  1.00  0.00     0.000 C 
BRANCH   2   3
ATOM      3  C   UNL     1      17.048 -30.605  21.246  1.00  0.00     0.000 C 
BRANCH   3   4
ATOM      4  C   UNL     1      18.102 -31.328  22.100  1.00  0.00     0.000 C 
BRANCH   4   5
ATOM      5  C   UNL     1      19.491 -31.338  21.442  1.00  0.00     0.000 C 
BRANCH   5   6
ATOM      6  C   UNL     1      20.357 -30.188  21.971  1.00  0.00     0.000 C 
BRANCH   6   7
ATOM      7  C   UNL     1      20.662 -29.174  20.857  1.00  0.00     0.000 C 
BRANCH   7   8
ATOM      8  C   UNL     1      19.686 -27.986  20.854  1.00  0.00     0.000 C 
BRANCH   8   9
ATOM      9  C   UNL     1      20.348 -26.677  20.400  1.00  0.00     0.000 C 
BRANCH   9  10
ATOM     10  C   UNL     1      21.878 -26.775  20.500  1.00  0.00     0.000 C 
BRANCH  10  11
ATOM     11  C   UNL     1      22.447 -26.005  21.701  1.00  0.00     0.000 C 
BRANCH  11  12
ATOM     12  C   UNL     1      22.836 -24.561  21.352  1.00  0.00     0.006 C 
BRANCH  12  13
ATOM     13  C   UNL     1      22.830 -23.671  22.600  1.00  0.00     0.053 C 
BRANCH  13  14
ATOM     14  C   UNL     1      23.440 -22.335  22.306  1.00  0.00     0.041 C 
ATOM     15  O   UNL     1      23.017 -21.302  22.891  1.00  0.00    -0.550 OA
ATOM     16  O   UNL     1      24.473 -22.230  21.383  1.00  0.00    -0.550 OA
ENDBRANCH  13  14
ENDBRANCH  12  13
ENDBRANCH  11  12
ENDBRANCH  10  11
ENDBRANCH   9  10
ENDBRANCH   8   9
ENDBRANCH   7   8
ENDBRANCH   6   7
ENDBRANCH   5   6
ENDBRANCH   4   5
ENDBRANCH   3   4
ENDBRANCH   2   3
ENDBRANCH   1   2
BRANCH   1  17
ATOM     17  C   UNL     1      14.218 -29.930  23.265  1.00  0.00     0.000 C 
BRANCH  17  18
ATOM     18  C   UNL     1      13.669 -31.324  23.609  1.00  0.00     0.000 C 
BRANCH  18  19
ATOM     19  C   UNL     1      14.773 -32.395  23.678  1.00  0.00     0.000 C 
BRANCH  19  20
ATOM     20  C   UNL     1      14.683 -33.408  22.526  1.00  0.00     0.000 C 
BRANCH  20  21
ATOM     21  C   UNL     1      14.350 -32.743  21.179  1.00  0.00     0.000 C 
BRANCH  21  22
ATOM     22  C   UNL     1      14.584 -33.679  19.981  1.00  0.00    -0.000 C 
BRANCH  22  23
ATOM     23  C   UNL     1      15.681 -34.722  20.256  1.00  0.00    -0.000 C 
BRANCH  23  24
ATOM     24  C   UNL     1      17.077 -34.242  19.827  1.00  0.00    -0.000 C 
BRANCH  24  25
ATOM     25  C   UNL     1      18.197 -34.791  20.729  1.00  0.00    -0.000 C 
BRANCH  25  26
ATOM     26  C   UNL     1      17.655 -35.486  21.989  1.00  0.00    -0.000 C 
BRANCH  26  27
ATOM     27  C   UNL     1      18.097 -34.788  23.286  1.00  0.00    -0.000 C 
BRANCH  27  28
ATOM     28  C   UNL     1      17.203 -35.145  24.484  1.00  0.00    -0.000 C 
BRANCH  28  29
ATOM     29  C   UNL     1      17.570 -34.365  25.754  1.00  0.00    -0.003 C 
ATOM     30  C   UNL     1      17.961 -32.928  25.422  1.00  0.00     0.004 C 
ENDBRANCH  28  29
ENDBRANCH  27  28
ENDBRANCH  26  27
ENDBRANCH  25  26
ENDBRANCH  24  25
ENDBRANCH  23  24
ENDBRANCH  22  23
ENDBRANCH  21  22
ENDBRANCH  20  21
ENDBRANCH  19  20
ENDBRANCH  18  19
ENDBRANCH  17  18
ENDBRANCH   1  17
TORSDOF 26
ENDMDL
MODEL 7
REMARK VINA RESULT:    -4.823      1.749      4.803
REMARK INTER + INTRA:         -17.045
REMARK INTER:                 -12.022
REMARK INTRA:                  -5.023
REMARK UNBOUND:                -4.890
REMARK SMILES CCCCCCCCCCCCCCCCCCCCCCCCCCCC(=O)[O-]
REMARK SMILES IDX 15 1 16 2 17 3 18 4 19 5 20 6 21 7 22 8 23 9 24 10 25 11
REMARK SMILES IDX 26 12 27 13 28 14 29 15 30 16 14 17 13 18 12 19 11 20 10 21
REMARK SMILES IDX 9 22 8 23 7 24 6 25 5 26 4 27 3 28 2 29 1 30
REMARK H PARENT
REMARK Flexibility Score: inf
ROOT
ATOM      1  C   UNL     1      14.149 -30.954  23.672  1.00  0.00     0.000 C 
ENDROOT
BRANCH   1   2
ATOM      2  C   UNL     1      13.826 -32.313  24.314  1.00  0.00     0.000 C 
BRANCH   2   3
ATOM      3  C   UNL     1      14.967 -33.332  24.145  1.00  0.00     0.000 C 
BRANCH   3   4
ATOM      4  C   UNL     1      16.358 -32.684  24.228  1.00  0.00     0.000 C 
BRANCH   4   5
ATOM      5  C   UNL     1      17.336 -33.491  25.097  1.00  0.00     0.000 C 
BRANCH   5   6
ATOM      6  C   UNL     1      18.486 -32.608  25.594  1.00  0.00     0.000 C 
BRANCH   6   7
ATOM      7  C   UNL     1      18.590 -31.321  24.759  1.00  0.00     0.000 C 
BRANCH   7   8
ATOM      8  C   UNL     1      19.975 -30.660  24.860  1.00  0.00     0.000 C 
BRANCH   8   9
ATOM      9  C   UNL     1      21.093 -31.532  24.269  1.00  0.00     0.000 C 
BRANCH   9  10
ATOM     10  C   UNL     1      21.611 -30.937  22.951  1.00  0.00     0.000 C 
BRANCH  10  11
ATOM     11  C   UNL     1      20.976 -29.578  22.620  1.00  0.00     0.000 C 
BRANCH  11  12
ATOM     12  C   UNL     1      21.233 -29.139  21.171  1.00  0.00     0.006 C 
BRANCH  12  13
ATOM     13  C   UNL     1      20.920 -27.650  20.983  1.00  0.00     0.053 C 
BRANCH  13  14
ATOM     14  C   UNL     1      22.180 -26.847  20.882  1.00  0.00     0.041 C 
ATOM     15  O   UNL     1      22.920 -26.952  19.868  1.00  0.00    -0.550 OA
ATOM     16  O   UNL     1      22.541 -25.986  21.912  1.00  0.00    -0.550 OA
ENDBRANCH  13  14
ENDBRANCH  12  13
ENDBRANCH  11  12
ENDBRANCH  10  11
ENDBRANCH   9  10
ENDBRANCH   8   9
ENDBRANCH   7   8
ENDBRANCH   6   7
ENDBRANCH   5   6
ENDBRANCH   4   5
ENDBRANCH   3   4
ENDBRANCH   2   3
ENDBRANCH   1   2
BRANCH   1  17
ATOM     17  C   UNL     1      12.936 -30.342  22.950  1.00  0.00     0.000 C 
BRANCH  17  18
ATOM     18  C   UNL     1      12.661 -31.004  21.591  1.00  0.00     0.000 C 
BRANCH  18  19
ATOM     19  C   UNL     1      13.953 -31.420  20.863  1.00  0.00     0.000 C 
BRANCH  19  20
ATOM     20  C   UNL     1      13.797 -32.740  20.093  1.00  0.00     0.000 C 
BRANCH  20  21
ATOM     21  C   UNL     1      14.704 -33.855  20.643  1.00  0.00     0.000 C 
BRANCH  21  22
ATOM     22  C   UNL     1      15.628 -34.452  19.568  1.00  0.00    -0.000 C 
BRANCH  22  23
ATOM     23  C   UNL     1      16.682 -35.402  20.162  1.00  0.00    -0.000 C 
BRANCH  23  24
ATOM     24  C   UNL     1      18.104 -34.821  20.102  1.00  0.00    -0.000 C 
BRANCH  24  25
ATOM     25  C   UNL     1      18.620 -34.371  21.481  1.00  0.00    -0.000 C 
BRANCH  25  26
ATOM     26  C   UNL     1      19.049 -32.894  21.500  1.00  0.00    -0.000 C 
BRANCH  26  27
ATOM     27  C   UNL     1      18.214 -32.024  20.545  1.00  0.00    -0.000 C 
BRANCH  27  28
ATOM     28  C   UNL     1      17.190 -31.150  21.286  1.00  0.00    -0.000 C 
BRANCH  28  29
ATOM     29  C   UNL     1      17.634 -29.685  21.406  1.00  0.00    -0.003 C 
ATOM     30  C   UNL     1      16.436 -28.764  21.621  1.00  0.00     0.004 C 
ENDBRANCH  28  29
ENDBRANCH  27  28
ENDBRANCH  26  27
ENDBRANCH  25  26
ENDBRANCH  24  25
ENDBRANCH  23  24
ENDBRANCH  22  23
ENDBRANCH  21  22
ENDBRANCH  20  21
ENDBRANCH  19  20
ENDBRANCH  18  19
ENDBRANCH  17  18
ENDBRANCH   1  17
TORSDOF 26
ENDMDL
MODEL 8
REMARK VINA RESULT:    -4.812      2.666      5.100
REMARK INTER + INTRA:         -17.017
REMARK INTER:                 -12.147
REMARK INTRA:                  -4.870
REMARK UNBOUND:                -4.890
REMARK SMILES CCCCCCCCCCCCCCCCCCCCCCCCCCCC(=O)[O-]
REMARK SMILES IDX 15 1 16 2 17 3 18 4 19 5 20 6 21 7 22 8 23 9 24 10 25 11
REMARK SMILES IDX 26 12 27 13 28 14 29 15 30 16 14 17 13 18 12 19 11 20 10 21
REMARK SMILES IDX 9 22 8 23 7 24 6 25 5 26 4 27 3 28 2 29 1 30
REMARK H PARENT
REMARK Flexibility Score: inf
ROOT
ATOM      1  C   UNL     1      15.651 -29.884  23.448  1.00  0.00     0.000 C 
ENDROOT
BRANCH   1   2
ATOM      2  C   UNL     1      16.194 -29.544  22.051  1.00  0.00     0.000 C 
BRANCH   2   3
ATOM      3  C   UNL     1      16.898 -30.739  21.383  1.00  0.00     0.000 C 
BRANCH   3   4
ATOM      4  C   UNL     1      18.287 -30.377  20.833  1.00  0.00     0.000 C 
BRANCH   4   5
ATOM      5  C   UNL     1      18.556 -28.864  20.854  1.00  0.00     0.000 C 
BRANCH   5   6
ATOM      6  C   UNL     1      19.975 -28.566  21.353  1.00  0.00     0.000 C 
BRANCH   6   7
ATOM      7  C   UNL     1      20.788 -29.862  21.500  1.00  0.00     0.000 C 
BRANCH   7   8
ATOM      8  C   UNL     1      21.066 -30.224  22.968  1.00  0.00     0.000 C 
BRANCH   8   9
ATOM      9  C   UNL     1      21.069 -31.740  23.214  1.00  0.00     0.000 C 
BRANCH   9  10
ATOM     10  C   UNL     1      19.851 -32.159  24.051  1.00  0.00     0.000 C 
BRANCH  10  11
ATOM     11  C   UNL     1      19.033 -30.960  24.555  1.00  0.00     0.000 C 
BRANCH  11  12
ATOM     12  C   UNL     1      18.716 -31.045  26.055  1.00  0.00     0.006 C 
BRANCH  12  13
ATOM     13  C   UNL     1      19.153 -29.770  26.784  1.00  0.00     0.053 C 
BRANCH  13  14
ATOM     14  C   UNL     1      20.518 -29.936  27.379  1.00  0.00     0.041 C 
ATOM     15  O   UNL     1      20.803 -30.974  28.034  1.00  0.00    -0.550 OA
ATOM     16  O   UNL     1      21.475 -28.941  27.214  1.00  0.00    -0.550 OA
ENDBRANCH  13  14
ENDBRANCH  12  13
ENDBRANCH  11  12
ENDBRANCH  10  11
ENDBRANCH   9  10
ENDBRANCH   8   9
ENDBRANCH   7   8
ENDBRANCH   6   7
ENDBRANCH   5   6
ENDBRANCH   4   5
ENDBRANCH   3   4
ENDBRANCH   2   3
ENDBRANCH   1   2
BRANCH   1  17
ATOM     17  C   UNL     1      14.113 -29.844  23.507  1.00  0.00     0.000 C 
BRANCH  17  18
ATOM     18  C   UNL     1      13.470 -31.161  23.044  1.00  0.00     0.000 C 
BRANCH  18  19
ATOM     19  C   UNL     1      12.715 -31.014  21.710  1.00  0.00     0.000 C 
BRANCH  19  20
ATOM     20  C   UNL     1      13.394 -31.776  20.562  1.00  0.00     0.000 C 
BRANCH  20  21
ATOM     21  C   UNL     1      14.258 -32.948  21.059  1.00  0.00     0.000 C 
BRANCH  21  22
ATOM     22  C   UNL     1      14.832 -33.792  19.908  1.00  0.00    -0.000 C 
BRANCH  22  23
ATOM     23  C   UNL     1      15.806 -34.875  20.404  1.00  0.00    -0.000 C 
BRANCH  23  24
ATOM     24  C   UNL     1      17.260 -34.378  20.470  1.00  0.00    -0.000 C 
BRANCH  24  25
ATOM     25  C   UNL     1      17.717 -34.073  21.908  1.00  0.00    -0.000 C 
BRANCH  25  26
ATOM     26  C   UNL     1      16.831 -34.749  22.968  1.00  0.00    -0.000 C 
BRANCH  26  27
ATOM     27  C   UNL     1      16.494 -33.812  24.140  1.00  0.00    -0.000 C 
BRANCH  27  28
ATOM     28  C   UNL     1      17.098 -34.291  25.470  1.00  0.00    -0.000 C 
BRANCH  28  29
ATOM     29  C   UNL     1      17.484 -35.776  25.448  1.00  0.00    -0.003 C 
ATOM     30  C   UNL     1      16.798 -36.539  26.578  1.00  0.00     0.004 C 
ENDBRANCH  28  29
ENDBRANCH  27  28
ENDBRANCH  26  27
ENDBRANCH  25  26
ENDBRANCH  24  25
ENDBRANCH  23  24
ENDBRANCH  22  23
ENDBRANCH  21  22
ENDBRANCH  20  21
ENDBRANCH  19  20
ENDBRANCH  18  19
ENDBRANCH  17  18
ENDBRANCH   1  17
TORSDOF 26
ENDMDL
MODEL 9
REMARK VINA RESULT:    -4.773      1.487      4.550
REMARK INTER + INTRA:         -16.919
REMARK INTER:                 -13.311
REMARK INTRA:                  -3.607
REMARK UNBOUND:                -4.890
REMARK SMILES CCCCCCCCCCCCCCCCCCCCCCCCCCCC(=O)[O-]
REMARK SMILES IDX 15 1 16 2 17 3 18 4 19 5 20 6 21 7 22 8 23 9 24 10 25 11
REMARK SMILES IDX 26 12 27 13 28 14 29 15 30 16 14 17 13 18 12 19 11 20 10 21
REMARK SMILES IDX 9 22 8 23 7 24 6 25 5 26 4 27 3 28 2 29 1 30
REMARK H PARENT
REMARK Flexibility Score: inf
ROOT
ATOM      1  C   UNL     1      14.269 -30.313  23.503  1.00  0.00     0.000 C 
ENDROOT
BRANCH   1   2
ATOM      2  C   UNL     1      15.266 -29.676  22.521  1.00  0.00     0.000 C 
BRANCH   2   3
ATOM      3  C   UNL     1      16.675 -30.287  22.629  1.00  0.00     0.000 C 
BRANCH   3   4
ATOM      4  C   UNL     1      17.269 -30.652  21.260  1.00  0.00     0.000 C 
BRANCH   4   5
ATOM      5  C   UNL     1      18.613 -31.388  21.375  1.00  0.00     0.000 C 
BRANCH   5   6
ATOM      6  C   UNL     1      19.541 -30.683  22.371  1.00  0.00     0.000 C 
BRANCH   6   7
ATOM      7  C   UNL     1      20.826 -30.202  21.678  1.00  0.00     0.000 C 
BRANCH   7   8
ATOM      8  C   UNL     1      20.562 -29.097  20.642  1.00  0.00     0.000 C 
BRANCH   8   9
ATOM      9  C   UNL     1      19.778 -27.912  21.225  1.00  0.00     0.000 C 
BRANCH   9  10
ATOM     10  C   UNL     1      20.028 -26.636  20.407  1.00  0.00     0.000 C 
BRANCH  10  11
ATOM     11  C   UNL     1      20.111 -25.375  21.281  1.00  0.00     0.000 C 
BRANCH  11  12
ATOM     12  C   UNL     1      21.540 -24.825  21.396  1.00  0.00     0.006 C 
BRANCH  12  13
ATOM     13  C   UNL     1      22.576 -25.935  21.187  1.00  0.00     0.053 C 
BRANCH  13  14
ATOM     14  C   UNL     1      23.178 -25.854  19.818  1.00  0.00     0.041 C 
ATOM     15  O   UNL     1      23.815 -26.833  19.346  1.00  0.00    -0.550 OA
ATOM     16  O   UNL     1      23.039 -24.694  19.065  1.00  0.00    -0.550 OA
ENDBRANCH  13  14
ENDBRANCH  12  13
ENDBRANCH  11  12
ENDBRANCH  10  11
ENDBRANCH   9  10
ENDBRANCH   8   9
ENDBRANCH   7   8
ENDBRANCH   6   7
ENDBRANCH   5   6
ENDBRANCH   4   5
ENDBRANCH   3   4
ENDBRANCH   2   3
ENDBRANCH   1   2
BRANCH   1  17
ATOM     17  C   UNL     1      13.322 -31.312  22.815  1.00  0.00     0.000 C 
BRANCH  17  18
ATOM     18  C   UNL     1      13.233 -31.091  21.297  1.00  0.00     0.000 C 
BRANCH  18  19
ATOM     19  C   UNL     1      13.743 -32.300  20.492  1.00  0.00     0.000 C 
BRANCH  19  20
ATOM     20  C   UNL     1      14.604 -33.251  21.337  1.00  0.00     0.000 C 
BRANCH  20  21
ATOM     21  C   UNL     1      15.124 -34.454  20.529  1.00  0.00     0.000 C 
BRANCH  21  22
ATOM     22  C   UNL     1      16.041 -34.037  19.367  1.00  0.00    -0.000 C 
BRANCH  22  23
ATOM     23  C   UNL     1      17.347 -34.849  19.328  1.00  0.00    -0.000 C 
BRANCH  23  24
ATOM     24  C   UNL     1      17.114 -36.355  19.529  1.00  0.00    -0.000 C 
BRANCH  24  25
ATOM     25  C   UNL     1      17.739 -36.884  20.833  1.00  0.00    -0.000 C 
BRANCH  25  26
ATOM     26  C   UNL     1      18.397 -35.772  21.668  1.00  0.00    -0.000 C 
BRANCH  26  27
ATOM     27  C   UNL     1      18.801 -36.248  23.073  1.00  0.00    -0.000 C 
BRANCH  27  28
ATOM     28  C   UNL     1      18.092 -35.464  24.189  1.00  0.00    -0.000 C 
BRANCH  28  29
ATOM     29  C   UNL     1      17.139 -34.389  23.647  1.00  0.00    -0.003 C 
ATOM     30  C   UNL     1      16.994 -33.236  24.635  1.00  0.00     0.004 C 
ENDBRANCH  28  29
ENDBRANCH  27  28
ENDBRANCH  26  27
ENDBRANCH  25  26
ENDBRANCH  24  25
ENDBRANCH  23  24
ENDBRANCH  22  23
ENDBRANCH  21  22
ENDBRANCH  20  21
ENDBRANCH  19  20
ENDBRANCH  18  19
ENDBRANCH  17  18
ENDBRANCH   1  17
TORSDOF 26
ENDMDL
