MODEL 1
REMARK VINA RESULT:    -4.056      0.000      0.000
REMARK INTER + INTRA:          -4.794
REMARK INTER:                  -4.768
REMARK INTRA:                  -0.026
REMARK UNBOUND:                -0.026
REMARK SMILES CCCCC(=O)[O-]
REMARK SMILES IDX 4 1 5 2 6 3 7 4 3 5 2 6 1 7
REMARK H PARENT
REMARK Flexibility Score: inf
ROOT
ATOM      1  C   UNL     1     -16.837  35.701  81.261  1.00  0.00     0.053 C 
ENDROOT
BRANCH   1   2
ATOM      2  C   UNL     1     -16.655  35.946  82.725  1.00  0.00     0.041 C 
ATOM      3  O   UNL     1     -16.671  34.983  83.536  1.00  0.00    -0.550 OA
ATOM      4  O   UNL     1     -16.415  37.233  83.190  1.00  0.00    -0.550 OA
ENDBRANCH   1   2
BRANCH   1   5
ATOM      5  C   UNL     1     -17.369  36.962  80.567  1.00  0.00     0.006 C 
BRANCH   5   6
ATOM      6  C   UNL     1     -18.659  36.700  79.775  1.00  0.00    -0.003 C 
ATOM      7  C   UNL     1     -18.645  37.351  78.392  1.00  0.00     0.004 C 
ENDBRANCH   5   6
ENDBRANCH   1   5
TORSDOF 3
ENDMDL
MODEL 2
REMARK VINA RESULT:    -3.885      3.284      4.337
REMARK INTER + INTRA:          -4.593
REMARK INTER:                  -4.573
REMARK INTRA:                  -0.020
REMARK UNBOUND:                -0.026
REMARK SMILES CCCCC(=O)[O-]
REMARK SMILES IDX 4 1 5 2 6 3 7 4 3 5 2 6 1 7
REMARK H PARENT
REMARK Flexibility Score: inf
ROOT
ATOM      1  C   UNL     1     -18.399  36.705  80.342  1.00  0.00     0.053 C 
ENDROOT
BRANCH   1   2
ATOM      2  C   UNL     1     -19.134  37.245  79.157  1.00  0.00     0.041 C 
ATOM      3  O   UNL     1     -18.572  37.295  78.032  1.00  0.00    -0.550 OA
ATOM      4  O   UNL     1     -20.458  37.645  79.283  1.00  0.00    -0.550 OA
ENDBRANCH   1   2
BRANCH   1   5
ATOM      5  C   UNL     1     -17.882  35.289  80.053  1.00  0.00     0.006 C 
BRANCH   5   6
ATOM      6  C   UNL     1     -17.763  34.434  81.324  1.00  0.00    -0.003 C 
ATOM      7  C   UNL     1     -16.947  35.116  82.422  1.00  0.00     0.004 C 
ENDBRANCH   5   6
ENDBRANCH   1   5
TORSDOF 3
ENDMDL
MODEL 3
REMARK VINA RESULT:    -3.793      1.086      1.458
REMARK INTER + INTRA:          -4.484
REMARK INTER:                  -4.411
REMARK INTRA:                  -0.073
REMARK UNBOUND:                -0.026
REMARK SMILES CCCCC(=O)[O-]
REMARK SMILES IDX 4 1 5 2 6 3 7 4 3 5 2 6 1 7
REMARK H PARENT
REMARK Flexibility Score: inf
ROOT
ATOM      1  C   UNL     1     -16.506  35.532  81.975  1.00  0.00     0.053 C 
ENDROOT
BRANCH   1   2
ATOM      2  C   UNL     1     -16.928  36.353  83.153  1.00  0.00     0.041 C 
ATOM      3  O   UNL     1     -17.243  35.793  84.235  1.00  0.00    -0.550 OA
ATOM      4  O   UNL     1     -16.922  37.740  83.071  1.00  0.00    -0.550 OA
ENDBRANCH   1   2
BRANCH   1   5
ATOM      5  C   UNL     1     -17.690  34.720  81.435  1.00  0.00     0.006 C 
BRANCH   5   6
ATOM      6  C   UNL     1     -17.981  35.014  79.956  1.00  0.00    -0.003 C 
ATOM      7  C   UNL     1     -18.393  36.466  79.711  1.00  0.00     0.004 C 
ENDBRANCH   5   6
ENDBRANCH   1   5
TORSDOF 3
ENDMDL
MODEL 4
REMARK VINA RESULT:    -3.777      1.588      2.009
REMARK INTER + INTRA:          -4.466
REMARK INTER:                  -4.359
REMARK INTRA:                  -0.106
REMARK UNBOUND:                -0.026
REMARK SMILES CCCCC(=O)[O-]
REMARK SMILES IDX 4 1 5 2 6 3 7 4 3 5 2 6 1 7
REMARK H PARENT
REMARK Flexibility Score: inf
ROOT
ATOM      1  C   UNL     1     -17.287  37.260  82.237  1.00  0.00     0.053 C 
ENDROOT
BRANCH   1   2
ATOM      2  C   UNL     1     -18.033  36.808  83.453  1.00  0.00     0.041 C 
ATOM      3  O   UNL     1     -19.189  37.249  83.687  1.00  0.00    -0.550 OA
ATOM      4  O   UNL     1     -17.473  35.860  84.300  1.00  0.00    -0.550 OA
ENDBRANCH   1   2
BRANCH   1   5
ATOM      5  C   UNL     1     -16.871  36.055  81.385  1.00  0.00     0.006 C 
BRANCH   5   6
ATOM      6  C   UNL     1     -17.963  35.627  80.393  1.00  0.00    -0.003 C 
ATOM      7  C   UNL     1     -18.638  36.816  79.708  1.00  0.00     0.004 C 
ENDBRANCH   5   6
ENDBRANCH   1   5
TORSDOF 3
ENDMDL
MODEL 5
REMARK VINA RESULT:    -3.629      2.504      3.908
REMARK INTER + INTRA:          -4.291
REMARK INTER:                  -4.226
REMARK INTRA:                  -0.065
REMARK UNBOUND:                -0.026
REMARK SMILES CCCCC(=O)[O-]
REMARK SMILES IDX 4 1 5 2 6 3 7 4 3 5 2 6 1 7
REMARK H PARENT
REMARK Flexibility Score: inf
ROOT
ATOM      1  C   UNL     1     -17.249  37.036  80.763  1.00  0.00     0.053 C 
ENDROOT
BRANCH   1   2
ATOM      2  C   UNL     1     -18.332  36.310  80.030  1.00  0.00     0.041 C 
ATOM      3  O   UNL     1     -19.183  36.951  79.359  1.00  0.00    -0.550 OA
ATOM      4  O   UNL     1     -18.370  34.921  80.043  1.00  0.00    -0.550 OA
ENDBRANCH   1   2
BRANCH   1   5
ATOM      5  C   UNL     1     -16.658  36.147  81.865  1.00  0.00     0.006 C 
BRANCH   5   6
ATOM      6  C   UNL     1     -16.727  36.803  83.253  1.00  0.00    -0.003 C 
ATOM      7  C   UNL     1     -18.160  36.975  83.755  1.00  0.00     0.004 C 
ENDBRANCH   5   6
ENDBRANCH   1   5
TORSDOF 3
ENDMDL
MODEL 6
REMARK VINA RESULT:    -3.604      2.067      2.412
REMARK INTER + INTRA:          -4.262
REMARK INTER:                  -4.327
REMARK INTRA:                   0.066
REMARK UNBOUND:                -0.026
REMARK SMILES CCCCC(=O)[O-]
REMARK SMILES IDX 4 1 5 2 6 3 7 4 3 5 2 6 1 7
REMARK H PARENT
REMARK Flexibility Score: inf
ROOT
ATOM      1  C   UNL     1     -17.027  35.893  81.230  1.00  0.00     0.053 C 
ENDROOT
BRANCH   1   2
ATOM      2  C   UNL     1     -17.678  34.667  80.672  1.00  0.00     0.041 C 
ATOM      3  O   UNL     1     -18.537  34.042  81.348  1.00  0.00    -0.550 OA
ATOM      4  O   UNL     1     -17.376  34.245  79.383  1.00  0.00    -0.550 OA
ENDBRANCH   1   2
BRANCH   1   5
ATOM      5  C   UNL     1     -17.363  37.118  80.371  1.00  0.00     0.006 C 
BRANCH   5   6
ATOM      6  C   UNL     1     -18.783  37.057  79.787  1.00  0.00    -0.003 C 
ATOM      7  C   UNL     1     -18.820  37.363  78.289  1.00  0.00     0.004 C 
ENDBRANCH   5   6
ENDBRANCH   1   5
TORSDOF 3
ENDMDL
MODEL 7
REMARK VINA RESULT:    -3.552     15.349     15.660
REMARK INTER + INTRA:          -4.201
REMARK INTER:                  -4.107
REMARK INTRA:                  -0.094
REMARK UNBOUND:                -0.026
REMARK SMILES CCCCC(=O)[O-]
REMARK SMILES IDX 4 1 5 2 6 3 7 4 3 5 2 6 1 7
REMARK H PARENT
REMARK Flexibility Score: inf
ROOT
ATOM      1  C   UNL     1     -27.008  43.914  91.068  1.00  0.00     0.053 C 
ENDROOT
BRANCH   1   2
ATOM      2  C   UNL     1     -28.102  43.013  90.590  1.00  0.00     0.041 C 
ATOM      3  O   UNL     1     -29.046  42.698  91.361  1.00  0.00    -0.550 OA
ATOM      4  O   UNL     1     -28.108  42.563  89.276  1.00  0.00    -0.550 OA
ENDBRANCH   1   2
BRANCH   1   5
ATOM      5  C   UNL     1     -27.253  45.353  90.596  1.00  0.00     0.006 C 
BRANCH   5   6
ATOM      6  C   UNL     1     -26.060  45.932  89.821  1.00  0.00    -0.003 C 
ATOM      7  C   UNL     1     -26.065  45.533  88.345  1.00  0.00     0.004 C 
ENDBRANCH   5   6
ENDBRANCH   1   5
TORSDOF 3
ENDMDL
MODEL 8
REMARK VINA RESULT:    -3.298      7.973      8.922
REMARK INTER + INTRA:          -3.903
REMARK INTER:                  -3.772
REMARK INTRA:                  -0.131
REMARK UNBOUND:                -0.026
REMARK SMILES CCCCC(=O)[O-]
REMARK SMILES IDX 4 1 5 2 6 3 7 4 3 5 2 6 1 7
REMARK H PARENT
REMARK Flexibility Score: inf
ROOT
ATOM      1  C   UNL     1     -20.381  39.326  89.599  1.00  0.00     0.053 C 
ENDROOT
BRANCH   1   2
ATOM      2  C   UNL     1     -20.328  39.133  88.117  1.00  0.00     0.041 C 
ATOM      3  O   UNL     1     -21.009  38.225  87.572  1.00  0.00    -0.550 OA
ATOM      4  O   UNL     1     -19.568  39.989  87.330  1.00  0.00    -0.550 OA
ENDBRANCH   1   2
BRANCH   1   5
ATOM      5  C   UNL     1     -19.882  38.069  90.322  1.00  0.00     0.006 C 
BRANCH   5   6
ATOM      6  C   UNL     1     -18.438  37.705  89.945  1.00  0.00    -0.003 C 
ATOM      7  C   UNL     1     -18.314  36.293  89.372  1.00  0.00     0.004 C 
ENDBRANCH   5   6
ENDBRANCH   1   5
TORSDOF 3
ENDMDL
MODEL 9
REMARK VINA RESULT:    -3.238      9.644     10.254
REMARK INTER + INTRA:          -3.832
REMARK INTER:                  -3.751
REMARK INTRA:                  -0.081
REMARK UNBOUND:                -0.026
REMARK SMILES CCCCC(=O)[O-]
REMARK SMILES IDX 4 1 5 2 6 3 7 4 3 5 2 6 1 7
REMARK H PARENT
REMARK Flexibility Score: inf
ROOT
ATOM      1  C   UNL     1     -19.192  43.982  85.362  1.00  0.00     0.053 C 
ENDROOT
BRANCH   1   2
ATOM      2  C   UNL     1     -20.373  44.757  85.854  1.00  0.00     0.041 C 
ATOM      3  O   UNL     1     -21.144  45.325  85.037  1.00  0.00    -0.550 OA
ATOM      4  O   UNL     1     -20.653  44.808  87.214  1.00  0.00    -0.550 OA
ENDBRANCH   1   2
BRANCH   1   5
ATOM      5  C   UNL     1     -17.910  44.813  85.502  1.00  0.00     0.006 C 
BRANCH   5   6
ATOM      6  C   UNL     1     -17.613  45.656  84.253  1.00  0.00    -0.003 C 
ATOM      7  C   UNL     1     -17.346  47.125  84.580  1.00  0.00     0.004 C 
ENDBRANCH   5   6
ENDBRANCH   1   5
TORSDOF 3
ENDMDL
