MODEL 1
REMARK VINA RESULT:    -7.457      0.000      0.000
REMARK INTER + INTRA:          -9.063
REMARK INTER:                  -8.765
REMARK INTRA:                  -0.298
REMARK UNBOUND:                -0.298
REMARK SMILES Oc1ccc(-c2[o+]c3cc(O)cc(O)c3cc2O)cc1
REMARK SMILES IDX 6 1 7 2 8 3 9 4 10 5 12 6 13 7 15 8 16 9 17 10 5 11 4 12
REMARK SMILES IDX 3 13 2 14 19 15 20 16 1 17 18 19 11 21 14 23
REMARK H PARENT 1 18 18 20 11 22 14 24
REMARK Flexibility Score: inf
ROOT
ATOM      1  C   UNL     1     -17.906  12.092 -35.203  1.00  0.00     0.401 A 
ATOM      2  O   UNL     1     -18.921  11.237 -35.109  1.00  0.00    -0.202 OA
ATOM      3  C   UNL     1     -19.646  10.850 -36.152  1.00  0.00     0.368 A 
ATOM      4  C   UNL     1     -20.697   9.949 -35.954  1.00  0.00     0.162 A 
ATOM      5  C   UNL     1     -21.477   9.526 -37.030  1.00  0.00     0.128 A 
ATOM      6  C   UNL     1     -21.208  10.006 -38.316  1.00  0.00     0.093 A 
ATOM      7  C   UNL     1     -20.161  10.910 -38.542  1.00  0.00     0.136 A 
ATOM      8  C   UNL     1     -19.364  11.340 -37.450  1.00  0.00     0.125 A 
ATOM      9  C   UNL     1     -18.287  12.232 -37.584  1.00  0.00     0.078 A 
ATOM     10  C   UNL     1     -17.544  12.607 -36.462  1.00  0.00     0.223 A 
ENDROOT
BRANCH   1  11
ATOM     11  C   UNL     1     -17.180  12.455 -33.964  1.00  0.00     0.084 A 
ATOM     12  C   UNL     1     -15.973  11.824 -33.610  1.00  0.00     0.022 A 
ATOM     13  C   UNL     1     -15.294  12.200 -32.448  1.00  0.00     0.047 A 
ATOM     14  C   UNL     1     -15.801  13.221 -31.634  1.00  0.00     0.115 A 
ATOM     15  C   UNL     1     -17.671  13.492 -33.153  1.00  0.00     0.022 A 
ATOM     16  C   UNL     1     -16.988  13.866 -31.991  1.00  0.00     0.047 A 
BRANCH  14  17
ATOM     17  O   UNL     1     -15.132  13.603 -30.473  1.00  0.00    -0.508 OA
ATOM     18  H   UNL     1     -14.867  12.926 -29.767  1.00  0.00     0.293 HD
ENDBRANCH  14  17
ENDBRANCH   1  11
BRANCH  10  19
ATOM     19  O   UNL     1     -16.443  13.453 -36.602  1.00  0.00    -0.500 OA
ATOM     20  H   UNL     1     -16.552  14.451 -36.736  1.00  0.00     0.294 HD
ENDBRANCH  10  19
BRANCH   5  21
ATOM     21  O   UNL     1     -22.519   8.628 -36.810  1.00  0.00    -0.507 OA
ATOM     22  H   UNL     1     -23.342   8.617 -37.402  1.00  0.00     0.293 HD
ENDBRANCH   5  21
BRANCH   7  23
ATOM     23  O   UNL     1     -19.960  11.345 -39.854  1.00  0.00    -0.507 OA
ATOM     24  H   UNL     1     -19.055  11.442 -40.291  1.00  0.00     0.293 HD
ENDBRANCH   7  23
TORSDOF 5
ENDMDL
MODEL 2
REMARK VINA RESULT:    -7.069      9.151     10.721
REMARK INTER + INTRA:          -8.607
REMARK INTER:                  -8.576
REMARK INTRA:                  -0.031
REMARK UNBOUND:                -0.298
REMARK SMILES Oc1ccc(-c2[o+]c3cc(O)cc(O)c3cc2O)cc1
REMARK SMILES IDX 6 1 7 2 8 3 9 4 10 5 12 6 13 7 15 8 16 9 17 10 5 11 4 12
REMARK SMILES IDX 3 13 2 14 19 15 20 16 1 17 18 19 11 21 14 23
REMARK H PARENT 1 18 18 20 11 22 14 24
REMARK Flexibility Score: inf
ROOT
ATOM      1  C   UNL     1     -24.982  18.101 -38.555  1.00  0.00     0.401 A 
ATOM      2  O   UNL     1     -25.623  16.969 -38.829  1.00  0.00    -0.202 OA
ATOM      3  C   UNL     1     -26.035  16.119 -37.895  1.00  0.00     0.368 A 
ATOM      4  C   UNL     1     -26.697  14.950 -38.282  1.00  0.00     0.162 A 
ATOM      5  C   UNL     1     -27.139  14.039 -37.323  1.00  0.00     0.128 A 
ATOM      6  C   UNL     1     -26.917  14.293 -35.965  1.00  0.00     0.093 A 
ATOM      7  C   UNL     1     -26.256  15.457 -35.551  1.00  0.00     0.136 A 
ATOM      8  C   UNL     1     -25.807  16.388 -36.524  1.00  0.00     0.125 A 
ATOM      9  C   UNL     1     -25.148  17.585 -36.201  1.00  0.00     0.078 A 
ATOM     10  C   UNL     1     -24.740  18.456 -37.214  1.00  0.00     0.223 A 
ENDROOT
BRANCH   1  11
ATOM     11  C   UNL     1     -24.565  18.962 -39.686  1.00  0.00     0.084 A 
ATOM     12  C   UNL     1     -23.794  18.454 -40.747  1.00  0.00     0.022 A 
ATOM     13  C   UNL     1     -23.432  19.280 -41.816  1.00  0.00     0.047 A 
ATOM     14  C   UNL     1     -23.848  20.618 -41.844  1.00  0.00     0.115 A 
ATOM     15  C   UNL     1     -24.995  20.298 -39.733  1.00  0.00     0.022 A 
ATOM     16  C   UNL     1     -24.631  21.122 -40.803  1.00  0.00     0.047 A 
BRANCH  14  17
ATOM     17  O   UNL     1     -23.492  21.450 -42.904  1.00  0.00    -0.508 OA
ATOM     18  H   UNL     1     -23.776  21.248 -43.855  1.00  0.00     0.293 HD
ENDBRANCH  14  17
ENDBRANCH   1  11
BRANCH  10  19
ATOM     19  O   UNL     1     -24.130  19.669 -36.891  1.00  0.00    -0.500 OA
ATOM     20  H   UNL     1     -23.523  20.150 -37.544  1.00  0.00     0.294 HD
ENDBRANCH  10  19
BRANCH   5  21
ATOM     21  O   UNL     1     -27.797  12.880 -37.730  1.00  0.00    -0.507 OA
ATOM     22  H   UNL     1     -28.550  12.909 -38.407  1.00  0.00     0.293 HD
ENDBRANCH   5  21
BRANCH   7  23
ATOM     23  O   UNL     1     -26.069  15.636 -34.178  1.00  0.00    -0.507 OA
ATOM     24  H   UNL     1     -25.856  14.893 -33.528  1.00  0.00     0.293 HD
ENDBRANCH   7  23
TORSDOF 5
ENDMDL
MODEL 3
REMARK VINA RESULT:    -6.743      1.526      2.915
REMARK INTER + INTRA:          -8.223
REMARK INTER:                  -8.055
REMARK INTRA:                  -0.168
REMARK UNBOUND:                -0.298
REMARK SMILES Oc1ccc(-c2[o+]c3cc(O)cc(O)c3cc2O)cc1
REMARK SMILES IDX 6 1 7 2 8 3 9 4 10 5 12 6 13 7 15 8 16 9 17 10 5 11 4 12
REMARK SMILES IDX 3 13 2 14 19 15 20 16 1 17 18 19 11 21 14 23
REMARK H PARENT 1 18 18 20 11 22 14 24
REMARK Flexibility Score: inf
ROOT
ATOM      1  C   UNL     1     -18.978  12.425 -34.252  1.00  0.00     0.401 A 
ATOM      2  O   UNL     1     -18.658  12.231 -35.529  1.00  0.00    -0.202 OA
ATOM      3  C   UNL     1     -19.540  11.872 -36.455  1.00  0.00     0.368 A 
ATOM      4  C   UNL     1     -19.106  11.688 -37.771  1.00  0.00     0.162 A 
ATOM      5  C   UNL     1     -20.009  11.309 -38.765  1.00  0.00     0.128 A 
ATOM      6  C   UNL     1     -21.356  11.110 -38.443  1.00  0.00     0.093 A 
ATOM      7  C   UNL     1     -21.816  11.288 -37.132  1.00  0.00     0.136 A 
ATOM      8  C   UNL     1     -20.900  11.676 -36.119  1.00  0.00     0.125 A 
ATOM      9  C   UNL     1     -21.274  11.890 -34.782  1.00  0.00     0.078 A 
ATOM     10  C   UNL     1     -20.316  12.276 -33.840  1.00  0.00     0.223 A 
ENDROOT
BRANCH   1  11
ATOM     11  C   UNL     1     -17.902  12.813 -33.311  1.00  0.00     0.084 A 
ATOM     12  C   UNL     1     -17.899  14.072 -32.681  1.00  0.00     0.022 A 
ATOM     13  C   UNL     1     -16.885  14.407 -31.779  1.00  0.00     0.047 A 
ATOM     14  C   UNL     1     -15.872  13.485 -31.483  1.00  0.00     0.115 A 
ATOM     15  C   UNL     1     -16.894  11.888 -32.993  1.00  0.00     0.022 A 
ATOM     16  C   UNL     1     -15.881  12.227 -32.090  1.00  0.00     0.047 A 
BRANCH  14  17
ATOM     17  O   UNL     1     -14.856  13.810 -30.586  1.00  0.00    -0.508 OA
ATOM     18  H   UNL     1     -14.460  13.118 -29.962  1.00  0.00     0.293 HD
ENDBRANCH  14  17
ENDBRANCH   1  11
BRANCH  10  19
ATOM     19  O   UNL     1     -20.695  12.538 -32.524  1.00  0.00    -0.500 OA
ATOM     20  H   UNL     1     -20.032  12.872 -31.835  1.00  0.00     0.294 HD
ENDBRANCH  10  19
BRANCH   5  21
ATOM     21  O   UNL     1     -19.557  11.131 -40.071  1.00  0.00    -0.507 OA
ATOM     22  H   UNL     1     -18.630  10.770 -40.265  1.00  0.00     0.293 HD
ENDBRANCH   5  21
BRANCH   7  23
ATOM     23  O   UNL     1     -23.174  11.067 -36.891  1.00  0.00    -0.507 OA
ATOM     24  H   UNL     1     -23.921  11.626 -37.277  1.00  0.00     0.293 HD
ENDBRANCH   7  23
TORSDOF 5
ENDMDL
MODEL 4
REMARK VINA RESULT:    -6.593      9.006     11.316
REMARK INTER + INTRA:          -8.047
REMARK INTER:                  -7.775
REMARK INTRA:                  -0.272
REMARK UNBOUND:                -0.298
REMARK SMILES Oc1ccc(-c2[o+]c3cc(O)cc(O)c3cc2O)cc1
REMARK SMILES IDX 6 1 7 2 8 3 9 4 10 5 12 6 13 7 15 8 16 9 17 10 5 11 4 12
REMARK SMILES IDX 3 13 2 14 19 15 20 16 1 17 18 19 11 21 14 23
REMARK H PARENT 1 18 18 20 11 22 14 24
REMARK Flexibility Score: inf
ROOT
ATOM      1  C   UNL     1     -24.811  17.812 -38.366  1.00  0.00     0.401 A 
ATOM      2  O   UNL     1     -24.771  18.349 -39.583  1.00  0.00    -0.202 OA
ATOM      3  C   UNL     1     -24.109  19.466 -39.865  1.00  0.00     0.368 A 
ATOM      4  C   UNL     1     -24.128  19.956 -41.174  1.00  0.00     0.162 A 
ATOM      5  C   UNL     1     -23.444  21.127 -41.500  1.00  0.00     0.128 A 
ATOM      6  C   UNL     1     -22.734  21.816 -40.511  1.00  0.00     0.093 A 
ATOM      7  C   UNL     1     -22.698  21.347 -39.192  1.00  0.00     0.136 A 
ATOM      8  C   UNL     1     -23.391  20.154 -38.858  1.00  0.00     0.125 A 
ATOM      9  C   UNL     1     -23.400  19.602 -37.566  1.00  0.00     0.078 A 
ATOM     10  C   UNL     1     -24.102  18.421 -37.313  1.00  0.00     0.223 A 
ENDROOT
BRANCH   1  11
ATOM     11  C   UNL     1     -25.593  16.569 -38.175  1.00  0.00     0.084 A 
ATOM     12  C   UNL     1     -26.834  16.578 -37.511  1.00  0.00     0.022 A 
ATOM     13  C   UNL     1     -27.565  15.396 -37.364  1.00  0.00     0.047 A 
ATOM     14  C   UNL     1     -27.074  14.194 -37.890  1.00  0.00     0.115 A 
ATOM     15  C   UNL     1     -25.118  15.364 -38.717  1.00  0.00     0.022 A 
ATOM     16  C   UNL     1     -25.852  14.182 -38.568  1.00  0.00     0.047 A 
BRANCH  14  17
ATOM     17  O   UNL     1     -27.794  13.010 -37.747  1.00  0.00    -0.508 OA
ATOM     18  H   UNL     1     -27.421  12.222 -37.231  1.00  0.00     0.293 HD
ENDBRANCH  14  17
ENDBRANCH   1  11
BRANCH  10  19
ATOM     19  O   UNL     1     -24.070  17.846 -36.043  1.00  0.00    -0.500 OA
ATOM     20  H   UNL     1     -23.264  17.329 -35.712  1.00  0.00     0.294 HD
ENDBRANCH  10  19
BRANCH   5  21
ATOM     21  O   UNL     1     -23.476  21.598 -42.811  1.00  0.00    -0.507 OA
ATOM     22  H   UNL     1     -24.095  22.352 -43.087  1.00  0.00     0.293 HD
ENDBRANCH   5  21
BRANCH   7  23
ATOM     23  O   UNL     1     -21.971  22.095 -38.262  1.00  0.00    -0.507 OA
ATOM     24  H   UNL     1     -21.764  23.079 -38.357  1.00  0.00     0.293 HD
ENDBRANCH   7  23
TORSDOF 5
ENDMDL
MODEL 5
REMARK VINA RESULT:    -6.574      2.028      3.121
REMARK INTER + INTRA:          -8.025
REMARK INTER:                  -7.723
REMARK INTRA:                  -0.301
REMARK UNBOUND:                -0.298
REMARK SMILES Oc1ccc(-c2[o+]c3cc(O)cc(O)c3cc2O)cc1
REMARK SMILES IDX 6 1 7 2 8 3 9 4 10 5 12 6 13 7 15 8 16 9 17 10 5 11 4 12
REMARK SMILES IDX 3 13 2 14 19 15 20 16 1 17 18 19 11 21 14 23
REMARK H PARENT 1 18 18 20 11 22 14 24
REMARK Flexibility Score: inf
ROOT
ATOM      1  C   UNL     1     -19.433  11.077 -36.044  1.00  0.00     0.401 A 
ATOM      2  O   UNL     1     -20.116  12.076 -36.597  1.00  0.00    -0.202 OA
ATOM      3  C   UNL     1     -21.017  11.899 -37.557  1.00  0.00     0.368 A 
ATOM      4  C   UNL     1     -21.683  13.012 -38.078  1.00  0.00     0.162 A 
ATOM      5  C   UNL     1     -22.633  12.857 -39.088  1.00  0.00     0.128 A 
ATOM      6  C   UNL     1     -22.921  11.580 -39.583  1.00  0.00     0.093 A 
ATOM      7  C   UNL     1     -22.269  10.449 -39.077  1.00  0.00     0.136 A 
ATOM      8  C   UNL     1     -21.304  10.603 -38.047  1.00  0.00     0.125 A 
ATOM      9  C   UNL     1     -20.611   9.525 -37.472  1.00  0.00     0.078 A 
ATOM     10  C   UNL     1     -19.677   9.754 -36.458  1.00  0.00     0.223 A 
ENDROOT
BRANCH   1  11
ATOM     11  C   UNL     1     -18.446  11.404 -34.988  1.00  0.00     0.084 A 
ATOM     12  C   UNL     1     -17.067  11.449 -35.262  1.00  0.00     0.022 A 
ATOM     13  C   UNL     1     -16.157  11.782 -34.255  1.00  0.00     0.047 A 
ATOM     14  C   UNL     1     -16.613  12.090 -32.967  1.00  0.00     0.115 A 
ATOM     15  C   UNL     1     -18.897  11.733 -33.700  1.00  0.00     0.022 A 
ATOM     16  C   UNL     1     -17.984  12.067 -32.694  1.00  0.00     0.047 A 
BRANCH  14  17
ATOM     17  O   UNL     1     -15.715  12.422 -31.955  1.00  0.00    -0.508 OA
ATOM     18  H   UNL     1     -15.997  12.445 -30.982  1.00  0.00     0.293 HD
ENDBRANCH  14  17
ENDBRANCH   1  11
BRANCH  10  19
ATOM     19  O   UNL     1     -19.025   8.680 -35.851  1.00  0.00    -0.500 OA
ATOM     20  H   UNL     1     -18.067   8.442 -36.077  1.00  0.00     0.294 HD
ENDBRANCH  10  19
BRANCH   5  21
ATOM     21  O   UNL     1     -23.284  13.979 -39.595  1.00  0.00    -0.507 OA
ATOM     22  H   UNL     1     -23.201  14.244 -40.570  1.00  0.00     0.293 HD
ENDBRANCH   5  21
BRANCH   7  23
ATOM     23  O   UNL     1     -22.610   9.210 -39.626  1.00  0.00    -0.507 OA
ATOM     24  H   UNL     1     -22.465   8.322 -39.167  1.00  0.00     0.293 HD
ENDBRANCH   7  23
TORSDOF 5
ENDMDL
MODEL 6
REMARK VINA RESULT:    -6.502      8.506     10.169
REMARK INTER + INTRA:          -7.940
REMARK INTER:                  -7.671
REMARK INTRA:                  -0.269
REMARK UNBOUND:                -0.298
REMARK SMILES Oc1ccc(-c2[o+]c3cc(O)cc(O)c3cc2O)cc1
REMARK SMILES IDX 6 1 7 2 8 3 9 4 10 5 12 6 13 7 15 8 16 9 17 10 5 11 4 12
REMARK SMILES IDX 3 13 2 14 19 15 20 16 1 17 18 19 11 21 14 23
REMARK H PARENT 1 18 18 20 11 22 14 24
REMARK Flexibility Score: inf
ROOT
ATOM      1  C   UNL     1     -25.187  17.242 -37.512  1.00  0.00     0.401 A 
ATOM      2  O   UNL     1     -23.918  17.594 -37.700  1.00  0.00    -0.202 OA
ATOM      3  C   UNL     1     -23.525  18.421 -38.663  1.00  0.00     0.368 A 
ATOM      4  C   UNL     1     -22.167  18.729 -38.784  1.00  0.00     0.162 A 
ATOM      5  C   UNL     1     -21.726  19.592 -39.787  1.00  0.00     0.128 A 
ATOM      6  C   UNL     1     -22.647  20.153 -40.678  1.00  0.00     0.093 A 
ATOM      7  C   UNL     1     -24.013  19.861 -40.579  1.00  0.00     0.136 A 
ATOM      8  C   UNL     1     -24.466  18.985 -39.558  1.00  0.00     0.125 A 
ATOM      9  C   UNL     1     -25.817  18.646 -39.375  1.00  0.00     0.078 A 
ATOM     10  C   UNL     1     -26.188  17.780 -38.343  1.00  0.00     0.223 A 
ENDROOT
BRANCH   1  11
ATOM     11  C   UNL     1     -25.497  16.304 -36.409  1.00  0.00     0.084 A 
ATOM     12  C   UNL     1     -25.851  14.966 -36.662  1.00  0.00     0.022 A 
ATOM     13  C   UNL     1     -26.117  14.093 -35.603  1.00  0.00     0.047 A 
ATOM     14  C   UNL     1     -26.018  14.541 -34.279  1.00  0.00     0.115 A 
ATOM     15  C   UNL     1     -25.381  16.739 -35.079  1.00  0.00     0.022 A 
ATOM     16  C   UNL     1     -25.647  15.863 -34.021  1.00  0.00     0.047 A 
BRANCH  14  17
ATOM     17  O   UNL     1     -26.282  13.679 -33.217  1.00  0.00    -0.508 OA
ATOM     18  H   UNL     1     -25.576  13.460 -32.525  1.00  0.00     0.293 HD
ENDBRANCH  14  17
ENDBRANCH   1  11
BRANCH  10  19
ATOM     19  O   UNL     1     -27.534  17.483 -38.130  1.00  0.00    -0.500 OA
ATOM     20  H   UNL     1     -28.127  17.134 -38.873  1.00  0.00     0.294 HD
ENDBRANCH  10  19
BRANCH   5  21
ATOM     21  O   UNL     1     -20.368  19.886 -39.890  1.00  0.00    -0.507 OA
ATOM     22  H   UNL     1     -19.952  20.166 -40.771  1.00  0.00     0.293 HD
ENDBRANCH   5  21
BRANCH   7  23
ATOM     23  O   UNL     1     -24.868  20.457 -41.509  1.00  0.00    -0.507 OA
ATOM     24  H   UNL     1     -25.789  20.811 -41.294  1.00  0.00     0.293 HD
ENDBRANCH   7  23
TORSDOF 5
ENDMDL
MODEL 7
REMARK VINA RESULT:    -6.487      1.908      6.710
REMARK INTER + INTRA:          -7.922
REMARK INTER:                  -7.619
REMARK INTRA:                  -0.303
REMARK UNBOUND:                -0.298
REMARK SMILES Oc1ccc(-c2[o+]c3cc(O)cc(O)c3cc2O)cc1
REMARK SMILES IDX 6 1 7 2 8 3 9 4 10 5 12 6 13 7 15 8 16 9 17 10 5 11 4 12
REMARK SMILES IDX 3 13 2 14 19 15 20 16 1 17 18 19 11 21 14 23
REMARK H PARENT 1 18 18 20 11 22 14 24
REMARK Flexibility Score: inf
ROOT
ATOM      1  C   UNL     1     -18.907  12.108 -35.528  1.00  0.00     0.401 A 
ATOM      2  O   UNL     1     -18.856  12.683 -34.330  1.00  0.00    -0.202 OA
ATOM      3  C   UNL     1     -17.745  12.758 -33.604  1.00  0.00     0.368 A 
ATOM      4  C   UNL     1     -17.791  13.379 -32.353  1.00  0.00     0.162 A 
ATOM      5  C   UNL     1     -16.641  13.471 -31.568  1.00  0.00     0.128 A 
ATOM      6  C   UNL     1     -15.435  12.937 -32.034  1.00  0.00     0.093 A 
ATOM      7  C   UNL     1     -15.363  12.310 -33.285  1.00  0.00     0.136 A 
ATOM      8  C   UNL     1     -16.530  12.217 -34.087  1.00  0.00     0.125 A 
ATOM      9  C   UNL     1     -16.548  11.618 -35.358  1.00  0.00     0.078 A 
ATOM     10  C   UNL     1     -17.735  11.569 -36.092  1.00  0.00     0.223 A 
ENDROOT
BRANCH   1  11
ATOM     11  C   UNL     1     -20.208  12.078 -36.235  1.00  0.00     0.084 A 
ATOM     12  C   UNL     1     -20.540  13.047 -37.201  1.00  0.00     0.022 A 
ATOM     13  C   UNL     1     -21.765  12.984 -37.872  1.00  0.00     0.047 A 
ATOM     14  C   UNL     1     -22.666  11.946 -37.599  1.00  0.00     0.115 A 
ATOM     15  C   UNL     1     -21.108  11.030 -35.983  1.00  0.00     0.022 A 
ATOM     16  C   UNL     1     -22.333  10.970 -36.656  1.00  0.00     0.047 A 
BRANCH  14  17
ATOM     17  O   UNL     1     -23.889  11.875 -38.261  1.00  0.00    -0.508 OA
ATOM     18  H   UNL     1     -24.744  12.211 -37.833  1.00  0.00     0.293 HD
ENDBRANCH  14  17
ENDBRANCH   1  11
BRANCH  10  19
ATOM     19  O   UNL     1     -17.743  11.019 -37.374  1.00  0.00    -0.500 OA
ATOM     20  H   UNL     1     -18.373  11.353 -38.093  1.00  0.00     0.294 HD
ENDBRANCH  10  19
BRANCH   5  21
ATOM     21  O   UNL     1     -16.708  14.094 -30.323  1.00  0.00    -0.507 OA
ATOM     22  H   UNL     1     -17.584  14.448 -29.955  1.00  0.00     0.293 HD
ENDBRANCH   5  21
BRANCH   7  23
ATOM     23  O   UNL     1     -14.122  11.799 -33.677  1.00  0.00    -0.507 OA
ATOM     24  H   UNL     1     -13.430  12.318 -34.197  1.00  0.00     0.293 HD
ENDBRANCH   7  23
TORSDOF 5
ENDMDL
MODEL 8
REMARK VINA RESULT:    -6.445      1.765      2.809
REMARK INTER + INTRA:          -7.873
REMARK INTER:                  -7.599
REMARK INTRA:                  -0.274
REMARK UNBOUND:                -0.298
REMARK SMILES Oc1ccc(-c2[o+]c3cc(O)cc(O)c3cc2O)cc1
REMARK SMILES IDX 6 1 7 2 8 3 9 4 10 5 12 6 13 7 15 8 16 9 17 10 5 11 4 12
REMARK SMILES IDX 3 13 2 14 19 15 20 16 1 17 18 19 11 21 14 23
REMARK H PARENT 1 18 18 20 11 22 14 24
REMARK Flexibility Score: inf
ROOT
ATOM      1  C   UNL     1     -17.574  12.632 -34.546  1.00  0.00     0.401 A 
ATOM      2  O   UNL     1     -18.058  12.997 -35.731  1.00  0.00    -0.202 OA
ATOM      3  C   UNL     1     -18.655  12.154 -36.566  1.00  0.00     0.368 A 
ATOM      4  C   UNL     1     -19.128  12.631 -37.791  1.00  0.00     0.162 A 
ATOM      5  C   UNL     1     -19.758  11.768 -38.689  1.00  0.00     0.128 A 
ATOM      6  C   UNL     1     -19.915  10.417 -38.362  1.00  0.00     0.093 A 
ATOM      7  C   UNL     1     -19.450   9.914 -37.140  1.00  0.00     0.136 A 
ATOM      8  C   UNL     1     -18.812  10.789 -36.224  1.00  0.00     0.125 A 
ATOM      9  C   UNL     1     -18.327  10.376 -34.972  1.00  0.00     0.078 A 
ATOM     10  C   UNL     1     -17.713  11.298 -34.119  1.00  0.00     0.223 A 
ENDROOT
BRANCH   1  11
ATOM     11  C   UNL     1     -16.920  13.664 -33.709  1.00  0.00     0.084 A 
ATOM     12  C   UNL     1     -15.616  14.114 -33.985  1.00  0.00     0.022 A 
ATOM     13  C   UNL     1     -15.028  15.106 -33.194  1.00  0.00     0.047 A 
ATOM     14  C   UNL     1     -15.741  15.671 -32.128  1.00  0.00     0.115 A 
ATOM     15  C   UNL     1     -17.634  14.250 -32.651  1.00  0.00     0.022 A 
ATOM     16  C   UNL     1     -17.044  15.243 -31.862  1.00  0.00     0.047 A 
BRANCH  14  17
ATOM     17  O   UNL     1     -15.164  16.659 -31.333  1.00  0.00    -0.508 OA
ATOM     18  H   UNL     1     -14.159  16.756 -31.255  1.00  0.00     0.293 HD
ENDBRANCH  14  17
ENDBRANCH   1  11
BRANCH  10  19
ATOM     19  O   UNL     1     -17.276  10.899 -32.856  1.00  0.00    -0.500 OA
ATOM     20  H   UNL     1     -16.301  10.950 -32.589  1.00  0.00     0.294 HD
ENDBRANCH  10  19
BRANCH   5  21
ATOM     21  O   UNL     1     -20.222  12.264 -39.906  1.00  0.00    -0.507 OA
ATOM     22  H   UNL     1     -20.885  13.029 -39.947  1.00  0.00     0.293 HD
ENDBRANCH   5  21
BRANCH   7  23
ATOM     23  O   UNL     1     -19.643   8.553 -36.890  1.00  0.00    -0.507 OA
ATOM     24  H   UNL     1     -19.683   7.841 -37.606  1.00  0.00     0.293 HD
ENDBRANCH   7  23
TORSDOF 5
ENDMDL
MODEL 9
REMARK VINA RESULT:    -6.382      1.586      6.670
REMARK INTER + INTRA:          -7.798
REMARK INTER:                  -7.481
REMARK INTRA:                  -0.318
REMARK UNBOUND:                -0.298
REMARK SMILES Oc1ccc(-c2[o+]c3cc(O)cc(O)c3cc2O)cc1
REMARK SMILES IDX 6 1 7 2 8 3 9 4 10 5 12 6 13 7 15 8 16 9 17 10 5 11 4 12
REMARK SMILES IDX 3 13 2 14 19 15 20 16 1 17 18 19 11 21 14 23
REMARK H PARENT 1 18 18 20 11 22 14 24
REMARK Flexibility Score: inf
ROOT
ATOM      1  C   UNL     1     -18.484  12.361 -35.528  1.00  0.00     0.401 A 
ATOM      2  O   UNL     1     -18.020  12.236 -34.288  1.00  0.00    -0.202 OA
ATOM      3  C   UNL     1     -17.134  13.070 -33.754  1.00  0.00     0.368 A 
ATOM      4  C   UNL     1     -16.703  12.855 -32.442  1.00  0.00     0.162 A 
ATOM      5  C   UNL     1     -15.771  13.712 -31.855  1.00  0.00     0.128 A 
ATOM      6  C   UNL     1     -15.264  14.792 -32.585  1.00  0.00     0.093 A 
ATOM      7  C   UNL     1     -15.680  15.030 -33.901  1.00  0.00     0.136 A 
ATOM      8  C   UNL     1     -16.629  14.162 -34.500  1.00  0.00     0.125 A 
ATOM      9  C   UNL     1     -17.113  14.330 -35.808  1.00  0.00     0.078 A 
ATOM     10  C   UNL     1     -18.052  13.436 -36.328  1.00  0.00     0.223 A 
ENDROOT
BRANCH   1  11
ATOM     11  C   UNL     1     -19.463  11.361 -36.014  1.00  0.00     0.084 A 
ATOM     12  C   UNL     1     -20.848  11.556 -35.860  1.00  0.00     0.022 A 
ATOM     13  C   UNL     1     -21.753  10.609 -36.347  1.00  0.00     0.047 A 
ATOM     14  C   UNL     1     -21.288   9.464 -37.007  1.00  0.00     0.115 A 
ATOM     15  C   UNL     1     -19.006  10.220 -36.694  1.00  0.00     0.022 A 
ATOM     16  C   UNL     1     -19.915   9.275 -37.181  1.00  0.00     0.047 A 
BRANCH  14  17
ATOM     17  O   UNL     1     -22.182   8.514 -37.496  1.00  0.00    -0.508 OA
ATOM     18  H   UNL     1     -22.539   7.770 -36.908  1.00  0.00     0.293 HD
ENDBRANCH  14  17
ENDBRANCH   1  11
BRANCH  10  19
ATOM     19  O   UNL     1     -18.570  13.632 -37.609  1.00  0.00    -0.500 OA
ATOM     20  H   UNL     1     -19.566  13.708 -37.775  1.00  0.00     0.294 HD
ENDBRANCH  10  19
BRANCH   5  21
ATOM     21  O   UNL     1     -15.354  13.480 -30.546  1.00  0.00    -0.507 OA
ATOM     22  H   UNL     1     -14.403  13.669 -30.252  1.00  0.00     0.293 HD
ENDBRANCH   5  21
BRANCH   7  23
ATOM     23  O   UNL     1     -15.123  16.128 -34.563  1.00  0.00    -0.507 OA
ATOM     24  H   UNL     1     -15.642  16.946 -34.848  1.00  0.00     0.293 HD
ENDBRANCH   7  23
TORSDOF 5
ENDMDL
