MODEL 1
REMARK VINA RESULT:    -5.504      0.000      0.000
REMARK INTER + INTRA:         -10.211
REMARK INTER:                  -8.400
REMARK INTRA:                  -1.811
REMARK UNBOUND:                -1.811
REMARK SMILES CC(=O)CCC=C(C)CCC=C(C)CCC=C(C)C
REMARK SMILES IDX 10 1 11 2 12 3 13 4 14 5 15 6 16 7 18 8 17 9 19 10 9 11 7 12
REMARK SMILES IDX 6 13 8 14 5 15 4 16 2 17 3 18 1 19
REMARK H PARENT
REMARK Flexibility Score: inf
ROOT
ATOM      1  C   UNL     1     101.376 112.864 122.533  1.00  0.00     0.032 C 
ENDROOT
BRANCH   1   2
ATOM      2  C   UNL     1     101.640 113.617 123.815  1.00  0.00    -0.028 C 
ATOM      3  C   UNL     1     102.564 113.264 124.737  1.00  0.00    -0.077 C 
ATOM      4  C   UNL     1     103.392 112.008 124.601  1.00  0.00     0.039 C 
BRANCH   3   5
ATOM      5  C   UNL     1     102.759 114.145 125.953  1.00  0.00     0.034 C 
BRANCH   5   6
ATOM      6  C   UNL     1     103.158 115.566 125.538  1.00  0.00     0.032 C 
BRANCH   6   7
ATOM      7  C   UNL     1     102.317 116.589 126.261  1.00  0.00    -0.028 C 
ATOM      8  C   UNL     1     100.563 118.287 126.539  1.00  0.00     0.039 C 
ATOM      9  C   UNL     1     101.350 117.331 125.679  1.00  0.00    -0.080 C 
ATOM     10  C   UNL     1     101.051 117.240 124.201  1.00  0.00     0.039 C 
ENDBRANCH   6   7
ENDBRANCH   5   6
ENDBRANCH   3   5
ENDBRANCH   1   2
BRANCH   1  11
ATOM     11  C   UNL     1     102.201 113.414 121.361  1.00  0.00     0.034 C 
BRANCH  11  12
ATOM     12  C   UNL     1     101.950 114.892 121.143  1.00  0.00    -0.077 C 
ATOM     13  C   UNL     1     100.728 115.300 120.730  1.00  0.00    -0.028 C 
ATOM     14  C   UNL     1     103.096 115.857 121.328  1.00  0.00     0.039 C 
BRANCH  13  15
ATOM     15  C   UNL     1     100.339 116.741 120.498  1.00  0.00     0.035 C 
BRANCH  15  16
ATOM     16  C   UNL     1      99.718 116.944 119.111  1.00  0.00     0.079 C 
BRANCH  16  17
ATOM     17  C   UNL     1     100.771 117.204 118.063  1.00  0.00     0.130 C 
ATOM     18  O   UNL     1     101.797 117.790 118.374  1.00  0.00    -0.300 OA
ATOM     19  C   UNL     1     100.584 116.757 116.643  1.00  0.00     0.087 C 
ENDBRANCH  16  17
ENDBRANCH  15  16
ENDBRANCH  13  15
ENDBRANCH  11  12
ENDBRANCH   1  11
TORSDOF 9
ENDMDL
MODEL 2
REMARK VINA RESULT:    -5.379      2.018      5.002
REMARK INTER + INTRA:         -10.021
REMARK INTER:                  -8.137
REMARK INTRA:                  -1.883
REMARK UNBOUND:                -1.811
REMARK SMILES CC(=O)CCC=C(C)CCC=C(C)CCC=C(C)C
REMARK SMILES IDX 10 1 11 2 12 3 13 4 14 5 15 6 16 7 18 8 17 9 19 10 9 11 7 12
REMARK SMILES IDX 6 13 8 14 5 15 4 16 2 17 3 18 1 19
REMARK H PARENT
REMARK Flexibility Score: inf
ROOT
ATOM      1  C   UNL     1     102.692 114.930 125.899  1.00  0.00     0.032 C 
ENDROOT
BRANCH   1   2
ATOM      2  C   UNL     1     103.149 114.556 124.509  1.00  0.00    -0.028 C 
ATOM      3  C   UNL     1     102.451 113.772 123.656  1.00  0.00    -0.077 C 
ATOM      4  C   UNL     1     101.148 113.120 124.052  1.00  0.00     0.039 C 
BRANCH   3   5
ATOM      5  C   UNL     1     103.005 113.525 122.268  1.00  0.00     0.034 C 
BRANCH   5   6
ATOM      6  C   UNL     1     102.939 114.800 121.420  1.00  0.00     0.032 C 
BRANCH   6   7
ATOM      7  C   UNL     1     101.519 115.095 121.008  1.00  0.00    -0.028 C 
ATOM      8  C   UNL     1      99.690 116.307 119.902  1.00  0.00     0.039 C 
ATOM      9  C   UNL     1     101.144 116.165 120.273  1.00  0.00    -0.080 C 
ATOM     10  C   UNL     1     102.132 117.219 119.831  1.00  0.00     0.039 C 
ENDBRANCH   6   7
ENDBRANCH   5   6
ENDBRANCH   3   5
ENDBRANCH   1   2
BRANCH   1  11
ATOM     11  C   UNL     1     102.722 116.447 126.128  1.00  0.00     0.034 C 
BRANCH  11  12
ATOM     12  C   UNL     1     101.470 117.119 125.601  1.00  0.00    -0.077 C 
ATOM     13  C   UNL     1     101.185 117.043 124.281  1.00  0.00    -0.028 C 
ATOM     14  C   UNL     1     100.616 117.912 126.559  1.00  0.00     0.039 C 
BRANCH  13  15
ATOM     15  C   UNL     1      99.962 117.647 123.632  1.00  0.00     0.035 C 
BRANCH  15  16
ATOM     16  C   UNL     1     100.324 118.844 122.744  1.00  0.00     0.079 C 
BRANCH  16  17
ATOM     17  C   UNL     1      99.546 120.076 123.130  1.00  0.00     0.130 C 
ATOM     18  O   UNL     1      98.588 120.419 122.455  1.00  0.00    -0.300 OA
ATOM     19  C   UNL     1      99.926 120.893 124.330  1.00  0.00     0.087 C 
ENDBRANCH  16  17
ENDBRANCH  15  16
ENDBRANCH  13  15
ENDBRANCH  11  12
ENDBRANCH   1  11
TORSDOF 9
ENDMDL
MODEL 3
REMARK VINA RESULT:    -5.364      2.072      5.824
REMARK INTER + INTRA:          -9.997
REMARK INTER:                  -8.274
REMARK INTRA:                  -1.723
REMARK UNBOUND:                -1.811
REMARK SMILES CC(=O)CCC=C(C)CCC=C(C)CCC=C(C)C
REMARK SMILES IDX 10 1 11 2 12 3 13 4 14 5 15 6 16 7 18 8 17 9 19 10 9 11 7 12
REMARK SMILES IDX 6 13 8 14 5 15 4 16 2 17 3 18 1 19
REMARK H PARENT
REMARK Flexibility Score: inf
ROOT
ATOM      1  C   UNL     1     101.262 117.200 126.174  1.00  0.00     0.032 C 
ENDROOT
BRANCH   1   2
ATOM      2  C   UNL     1     101.024 118.245 125.109  1.00  0.00    -0.028 C 
ATOM      3  C   UNL     1     100.442 118.004 123.913  1.00  0.00    -0.077 C 
ATOM      4  C   UNL     1     100.028 116.614 123.489  1.00  0.00     0.039 C 
BRANCH   3   5
ATOM      5  C   UNL     1     100.216 119.160 122.961  1.00  0.00     0.034 C 
BRANCH   5   6
ATOM      6  C   UNL     1      99.676 118.661 121.616  1.00  0.00     0.032 C 
BRANCH   6   7
ATOM      7  C   UNL     1     100.798 118.485 120.623  1.00  0.00    -0.028 C 
ATOM      8  C   UNL     1     101.959 117.568 118.660  1.00  0.00     0.039 C 
ATOM      9  C   UNL     1     100.779 117.604 119.598  1.00  0.00    -0.080 C 
ATOM     10  C   UNL     1      99.625 116.654 119.380  1.00  0.00     0.039 C 
ENDBRANCH   6   7
ENDBRANCH   5   6
ENDBRANCH   3   5
ENDBRANCH   1   2
BRANCH   1  11
ATOM     11  C   UNL     1     102.707 116.683 126.162  1.00  0.00     0.034 C 
BRANCH  11  12
ATOM     12  C   UNL     1     102.898 115.574 125.148  1.00  0.00    -0.077 C 
ATOM     13  C   UNL     1     102.462 114.327 125.443  1.00  0.00    -0.028 C 
ATOM     14  C   UNL     1     103.633 115.882 123.867  1.00  0.00     0.039 C 
BRANCH  13  15
ATOM     15  C   UNL     1     102.570 113.141 124.516  1.00  0.00     0.035 C 
BRANCH  15  16
ATOM     16  C   UNL     1     101.279 112.925 123.718  1.00  0.00     0.079 C 
BRANCH  16  17
ATOM     17  C   UNL     1     101.566 112.598 122.275  1.00  0.00     0.130 C 
ATOM     18  O   UNL     1     101.264 111.499 121.835  1.00  0.00    -0.300 OA
ATOM     19  C   UNL     1     102.218 113.597 121.364  1.00  0.00     0.087 C 
ENDBRANCH  16  17
ENDBRANCH  15  16
ENDBRANCH  13  15
ENDBRANCH  11  12
ENDBRANCH   1  11
TORSDOF 9
ENDMDL
MODEL 4
REMARK VINA RESULT:    -5.249      2.056      5.542
REMARK INTER + INTRA:          -9.822
REMARK INTER:                  -8.372
REMARK INTRA:                  -1.450
REMARK UNBOUND:                -1.811
REMARK SMILES CC(=O)CCC=C(C)CCC=C(C)CCC=C(C)C
REMARK SMILES IDX 10 1 11 2 12 3 13 4 14 5 15 6 16 7 18 8 17 9 19 10 9 11 7 12
REMARK SMILES IDX 6 13 8 14 5 15 4 16 2 17 3 18 1 19
REMARK H PARENT
REMARK Flexibility Score: inf
ROOT
ATOM      1  C   UNL     1     102.109 116.826 126.033  1.00  0.00     0.032 C 
ENDROOT
BRANCH   1   2
ATOM      2  C   UNL     1     101.075 117.454 125.128  1.00  0.00    -0.028 C 
ATOM      3  C   UNL     1     100.556 118.691 125.297  1.00  0.00    -0.077 C 
ATOM      4  C   UNL     1     100.919 119.557 126.481  1.00  0.00     0.039 C 
BRANCH   3   5
ATOM      5  C   UNL     1      99.567 119.217 124.279  1.00  0.00     0.034 C 
BRANCH   5   6
ATOM      6  C   UNL     1     100.245 119.438 122.922  1.00  0.00     0.032 C 
BRANCH   6   7
ATOM      7  C   UNL     1      99.869 118.346 121.953  1.00  0.00    -0.028 C 
ATOM      8  C   UNL     1     100.212 116.396 120.496  1.00  0.00     0.039 C 
ATOM      9  C   UNL     1     100.742 117.460 121.423  1.00  0.00    -0.080 C 
ATOM     10  C   UNL     1     102.222 117.519 121.721  1.00  0.00     0.039 C 
ENDBRANCH   6   7
ENDBRANCH   5   6
ENDBRANCH   3   5
ENDBRANCH   1   2
BRANCH   1  11
ATOM     11  C   UNL     1     103.079 115.922 125.260  1.00  0.00     0.034 C 
BRANCH  11  12
ATOM     12  C   UNL     1     102.514 114.530 125.062  1.00  0.00    -0.077 C 
ATOM     13  C   UNL     1     101.840 114.247 123.923  1.00  0.00    -0.028 C 
ATOM     14  C   UNL     1     102.661 113.524 126.176  1.00  0.00     0.039 C 
BRANCH  13  15
ATOM     15  C   UNL     1     101.248 112.898 123.592  1.00  0.00     0.035 C 
BRANCH  15  16
ATOM     16  C   UNL     1     102.186 112.069 122.707  1.00  0.00     0.079 C 
BRANCH  16  17
ATOM     17  C   UNL     1     101.605 111.853 121.333  1.00  0.00     0.130 C 
ATOM     18  O   UNL     1     101.614 112.769 120.525  1.00  0.00    -0.300 OA
ATOM     19  C   UNL     1     101.015 110.532 120.935  1.00  0.00     0.087 C 
ENDBRANCH  16  17
ENDBRANCH  15  16
ENDBRANCH  13  15
ENDBRANCH  11  12
ENDBRANCH   1  11
TORSDOF 9
ENDMDL
MODEL 5
REMARK VINA RESULT:    -5.242      1.494      4.011
REMARK INTER + INTRA:          -9.811
REMARK INTER:                  -8.288
REMARK INTRA:                  -1.524
REMARK UNBOUND:                -1.811
REMARK SMILES CC(=O)CCC=C(C)CCC=C(C)CCC=C(C)C
REMARK SMILES IDX 10 1 11 2 12 3 13 4 14 5 15 6 16 7 18 8 17 9 19 10 9 11 7 12
REMARK SMILES IDX 6 13 8 14 5 15 4 16 2 17 3 18 1 19
REMARK H PARENT
REMARK Flexibility Score: inf
ROOT
ATOM      1  C   UNL     1      99.774 118.867 123.975  1.00  0.00     0.032 C 
ENDROOT
BRANCH   1   2
ATOM      2  C   UNL     1     100.896 117.967 124.438  1.00  0.00    -0.028 C 
ATOM      3  C   UNL     1     101.140 117.646 125.728  1.00  0.00    -0.077 C 
ATOM      4  C   UNL     1     100.335 118.231 126.865  1.00  0.00     0.039 C 
BRANCH   3   5
ATOM      5  C   UNL     1     102.267 116.685 126.044  1.00  0.00     0.034 C 
BRANCH   5   6
ATOM      6  C   UNL     1     102.794 116.024 124.765  1.00  0.00     0.032 C 
BRANCH   6   7
ATOM      7  C   UNL     1     102.177 114.661 124.576  1.00  0.00    -0.028 C 
ATOM      8  C   UNL     1     101.319 112.718 123.340  1.00  0.00     0.039 C 
ATOM      9  C   UNL     1     101.898 114.109 123.375  1.00  0.00    -0.080 C 
ATOM     10  C   UNL     1     102.135 114.850 122.079  1.00  0.00     0.039 C 
ENDBRANCH   6   7
ENDBRANCH   5   6
ENDBRANCH   3   5
ENDBRANCH   1   2
BRANCH   1  11
ATOM     11  C   UNL     1     100.087 119.531 122.627  1.00  0.00     0.034 C 
BRANCH  11  12
ATOM     12  C   UNL     1     100.499 118.513 121.582  1.00  0.00    -0.077 C 
ATOM     13  C   UNL     1      99.569 117.668 121.081  1.00  0.00    -0.028 C 
ATOM     14  C   UNL     1     101.952 118.431 121.185  1.00  0.00     0.039 C 
BRANCH  13  15
ATOM     15  C   UNL     1      99.841 116.626 120.023  1.00  0.00     0.035 C 
BRANCH  15  16
ATOM     16  C   UNL     1      99.563 117.162 118.613  1.00  0.00     0.079 C 
BRANCH  16  17
ATOM     17  C   UNL     1     100.498 116.560 117.596  1.00  0.00     0.130 C 
ATOM     18  O   UNL     1     100.392 116.874 116.420  1.00  0.00    -0.300 OA
ATOM     19  C   UNL     1     101.559 115.578 117.998  1.00  0.00     0.087 C 
ENDBRANCH  16  17
ENDBRANCH  15  16
ENDBRANCH  13  15
ENDBRANCH  11  12
ENDBRANCH   1  11
TORSDOF 9
ENDMDL
MODEL 6
REMARK VINA RESULT:    -5.234      2.587      5.549
REMARK INTER + INTRA:          -9.798
REMARK INTER:                  -7.788
REMARK INTRA:                  -2.010
REMARK UNBOUND:                -1.811
REMARK SMILES CC(=O)CCC=C(C)CCC=C(C)CCC=C(C)C
REMARK SMILES IDX 10 1 11 2 12 3 13 4 14 5 15 6 16 7 18 8 17 9 19 10 9 11 7 12
REMARK SMILES IDX 6 13 8 14 5 15 4 16 2 17 3 18 1 19
REMARK H PARENT
REMARK Flexibility Score: inf
ROOT
ATOM      1  C   UNL     1     102.046 112.478 120.622  1.00  0.00     0.032 C 
ENDROOT
BRANCH   1   2
ATOM      2  C   UNL     1     101.675 113.922 120.380  1.00  0.00    -0.028 C 
ATOM      3  C   UNL     1     102.504 114.972 120.576  1.00  0.00    -0.077 C 
ATOM      4  C   UNL     1     103.894 114.799 121.142  1.00  0.00     0.039 C 
BRANCH   3   5
ATOM      5  C   UNL     1     102.017 116.364 120.238  1.00  0.00     0.034 C 
BRANCH   5   6
ATOM      6  C   UNL     1     100.497 116.467 120.412  1.00  0.00     0.032 C 
BRANCH   6   7
ATOM      7  C   UNL     1     100.128 117.733 121.144  1.00  0.00    -0.028 C 
ATOM      8  C   UNL     1      99.638 119.165 123.080  1.00  0.00     0.039 C 
ATOM      9  C   UNL     1      99.969 117.821 122.483  1.00  0.00    -0.080 C 
ATOM     10  C   UNL     1     100.097 116.617 123.386  1.00  0.00     0.039 C 
ENDBRANCH   6   7
ENDBRANCH   5   6
ENDBRANCH   3   5
ENDBRANCH   1   2
BRANCH   1  11
ATOM     11  C   UNL     1     101.359 111.908 121.871  1.00  0.00     0.034 C 
BRANCH  11  12
ATOM     12  C   UNL     1     102.124 112.245 123.135  1.00  0.00    -0.077 C 
ATOM     13  C   UNL     1     101.713 113.284 123.899  1.00  0.00    -0.028 C 
ATOM     14  C   UNL     1     103.364 111.451 123.465  1.00  0.00     0.039 C 
BRANCH  13  15
ATOM     15  C   UNL     1     102.371 113.710 125.190  1.00  0.00     0.035 C 
BRANCH  15  16
ATOM     16  C   UNL     1     103.137 115.029 125.027  1.00  0.00     0.079 C 
BRANCH  16  17
ATOM     17  C   UNL     1     103.035 115.886 126.263  1.00  0.00     0.130 C 
ATOM     18  O   UNL     1     103.751 115.646 127.223  1.00  0.00    -0.300 OA
ATOM     19  C   UNL     1     102.067 117.030 126.340  1.00  0.00     0.087 C 
ENDBRANCH  16  17
ENDBRANCH  15  16
ENDBRANCH  13  15
ENDBRANCH  11  12
ENDBRANCH   1  11
TORSDOF 9
ENDMDL
MODEL 7
REMARK VINA RESULT:    -5.219      1.844      4.725
REMARK INTER + INTRA:          -9.776
REMARK INTER:                  -8.222
REMARK INTRA:                  -1.554
REMARK UNBOUND:                -1.811
REMARK SMILES CC(=O)CCC=C(C)CCC=C(C)CCC=C(C)C
REMARK SMILES IDX 10 1 11 2 12 3 13 4 14 5 15 6 16 7 18 8 17 9 19 10 9 11 7 12
REMARK SMILES IDX 6 13 8 14 5 15 4 16 2 17 3 18 1 19
REMARK H PARENT
REMARK Flexibility Score: inf
ROOT
ATOM      1  C   UNL     1     101.416 117.853 126.102  1.00  0.00     0.032 C 
ENDROOT
BRANCH   1   2
ATOM      2  C   UNL     1     101.728 116.651 125.242  1.00  0.00    -0.028 C 
ATOM      3  C   UNL     1     102.641 115.702 125.549  1.00  0.00    -0.077 C 
ATOM      4  C   UNL     1     103.511 115.797 126.781  1.00  0.00     0.039 C 
BRANCH   3   5
ATOM      5  C   UNL     1     102.811 114.520 124.619  1.00  0.00     0.034 C 
BRANCH   5   6
ATOM      6  C   UNL     1     101.541 114.290 123.792  1.00  0.00     0.032 C 
BRANCH   6   7
ATOM      7  C   UNL     1     101.467 112.862 123.312  1.00  0.00    -0.028 C 
ATOM      8  C   UNL     1     101.542 111.011 121.697  1.00  0.00     0.039 C 
ATOM      9  C   UNL     1     101.599 112.482 122.022  1.00  0.00    -0.080 C 
ATOM     10  C   UNL     1     101.784 113.485 120.907  1.00  0.00     0.039 C 
ENDBRANCH   6   7
ENDBRANCH   5   6
ENDBRANCH   3   5
ENDBRANCH   1   2
BRANCH   1  11
ATOM     11  C   UNL     1     100.217 118.649 125.568  1.00  0.00     0.034 C 
BRANCH  11  12
ATOM     12  C   UNL     1     100.294 118.840 124.067  1.00  0.00    -0.077 C 
ATOM     13  C   UNL     1      99.857 117.852 123.252  1.00  0.00    -0.028 C 
ATOM     14  C   UNL     1     100.922 120.103 123.529  1.00  0.00     0.039 C 
BRANCH  13  15
ATOM     15  C   UNL     1      99.857 117.924 121.744  1.00  0.00     0.035 C 
BRANCH  15  16
ATOM     16  C   UNL     1     100.873 116.953 121.130  1.00  0.00     0.079 C 
BRANCH  16  17
ATOM     17  C   UNL     1     102.265 117.531 121.133  1.00  0.00     0.130 C 
ATOM     18  O   UNL     1     102.449 118.661 120.706  1.00  0.00    -0.300 OA
ATOM     19  C   UNL     1     103.434 116.746 121.651  1.00  0.00     0.087 C 
ENDBRANCH  16  17
ENDBRANCH  15  16
ENDBRANCH  13  15
ENDBRANCH  11  12
ENDBRANCH   1  11
TORSDOF 9
ENDMDL
MODEL 8
REMARK VINA RESULT:    -5.201      1.238      2.716
REMARK INTER + INTRA:          -9.748
REMARK INTER:                  -7.913
REMARK INTRA:                  -1.836
REMARK UNBOUND:                -1.811
REMARK SMILES CC(=O)CCC=C(C)CCC=C(C)CCC=C(C)C
REMARK SMILES IDX 10 1 11 2 12 3 13 4 14 5 15 6 16 7 18 8 17 9 19 10 9 11 7 12
REMARK SMILES IDX 6 13 8 14 5 15 4 16 2 17 3 18 1 19
REMARK H PARENT
REMARK Flexibility Score: inf
ROOT
ATOM      1  C   UNL     1     102.716 113.233 124.868  1.00  0.00     0.032 C 
ENDROOT
BRANCH   1   2
ATOM      2  C   UNL     1     102.545 114.443 125.757  1.00  0.00    -0.028 C 
ATOM      3  C   UNL     1     102.927 115.698 125.427  1.00  0.00    -0.077 C 
ATOM      4  C   UNL     1     103.646 116.002 124.134  1.00  0.00     0.039 C 
BRANCH   3   5
ATOM      5  C   UNL     1     102.644 116.828 126.394  1.00  0.00     0.034 C 
BRANCH   5   6
ATOM      6  C   UNL     1     101.186 117.286 126.285  1.00  0.00     0.032 C 
BRANCH   6   7
ATOM      7  C   UNL     1     101.054 118.417 125.295  1.00  0.00    -0.028 C 
ATOM      8  C   UNL     1     100.413 119.523 123.196  1.00  0.00     0.039 C 
ATOM      9  C   UNL     1     100.516 118.293 124.062  1.00  0.00    -0.080 C 
ATOM     10  C   UNL     1     100.033 116.965 123.528  1.00  0.00     0.039 C 
ENDBRANCH   6   7
ENDBRANCH   5   6
ENDBRANCH   3   5
ENDBRANCH   1   2
BRANCH   1  11
ATOM     11  C   UNL     1     101.419 112.874 124.129  1.00  0.00     0.034 C 
BRANCH  11  12
ATOM     12  C   UNL     1     101.563 113.043 122.630  1.00  0.00    -0.077 C 
ATOM     13  C   UNL     1     101.694 114.288 122.115  1.00  0.00    -0.028 C 
ATOM     14  C   UNL     1     101.486 111.818 121.752  1.00  0.00     0.039 C 
BRANCH  13  15
ATOM     15  C   UNL     1     101.868 114.593 120.646  1.00  0.00     0.035 C 
BRANCH  15  16
ATOM     16  C   UNL     1     100.808 115.581 120.144  1.00  0.00     0.079 C 
BRANCH  16  17
ATOM     17  C   UNL     1     101.421 116.674 119.306  1.00  0.00     0.130 C 
ATOM     18  O   UNL     1     101.771 116.430 118.161  1.00  0.00    -0.300 OA
ATOM     19  C   UNL     1     101.611 118.059 119.850  1.00  0.00     0.087 C 
ENDBRANCH  16  17
ENDBRANCH  15  16
ENDBRANCH  13  15
ENDBRANCH  11  12
ENDBRANCH   1  11
TORSDOF 9
ENDMDL
MODEL 9
REMARK VINA RESULT:    -5.147      1.363      4.572
REMARK INTER + INTRA:          -9.665
REMARK INTER:                  -7.936
REMARK INTRA:                  -1.729
REMARK UNBOUND:                -1.811
REMARK SMILES CC(=O)CCC=C(C)CCC=C(C)CCC=C(C)C
REMARK SMILES IDX 10 1 11 2 12 3 13 4 14 5 15 6 16 7 18 8 17 9 19 10 9 11 7 12
REMARK SMILES IDX 6 13 8 14 5 15 4 16 2 17 3 18 1 19
REMARK H PARENT
REMARK Flexibility Score: inf
ROOT
ATOM      1  C   UNL     1     102.192 117.167 126.105  1.00  0.00     0.032 C 
ENDROOT
BRANCH   1   2
ATOM      2  C   UNL     1     102.108 115.688 125.807  1.00  0.00    -0.028 C 
ATOM      3  C   UNL     1     102.766 115.068 124.801  1.00  0.00    -0.077 C 
ATOM      4  C   UNL     1     103.615 115.830 123.810  1.00  0.00     0.039 C 
BRANCH   3   5
ATOM      5  C   UNL     1     102.633 113.568 124.653  1.00  0.00     0.034 C 
BRANCH   5   6
ATOM      6  C   UNL     1     101.324 113.204 123.943  1.00  0.00     0.032 C 
BRANCH   6   7
ATOM      7  C   UNL     1     101.599 112.417 122.687  1.00  0.00    -0.028 C 
ATOM      8  C   UNL     1     102.019 112.050 120.293  1.00  0.00     0.039 C 
ATOM      9  C   UNL     1     101.699 112.958 121.452  1.00  0.00    -0.080 C 
ATOM     10  C   UNL     1     101.486 114.434 121.206  1.00  0.00     0.039 C 
ENDBRANCH   6   7
ENDBRANCH   5   6
ENDBRANCH   3   5
ENDBRANCH   1   2
BRANCH   1  11
ATOM     11  C   UNL     1     100.808 117.827 126.141  1.00  0.00     0.034 C 
BRANCH  11  12
ATOM     12  C   UNL     1     100.506 118.570 124.855  1.00  0.00    -0.077 C 
ATOM     13  C   UNL     1     100.431 117.878 123.695  1.00  0.00    -0.028 C 
ATOM     14  C   UNL     1     100.369 120.072 124.901  1.00  0.00     0.039 C 
BRANCH  13  15
ATOM     15  C   UNL     1     100.116 118.491 122.351  1.00  0.00     0.035 C 
BRANCH  15  16
ATOM     16  C   UNL     1     101.299 118.370 121.382  1.00  0.00     0.079 C 
BRANCH  16  17
ATOM     17  C   UNL     1     100.847 117.968 120.001  1.00  0.00     0.130 C 
ATOM     18  O   UNL     1     101.625 118.056 119.064  1.00  0.00    -0.300 OA
ATOM     19  C   UNL     1      99.457 117.460 119.754  1.00  0.00     0.087 C 
ENDBRANCH  16  17
ENDBRANCH  15  16
ENDBRANCH  13  15
ENDBRANCH  11  12
ENDBRANCH   1  11
TORSDOF 9
ENDMDL
