MODEL 1
REMARK VINA RESULT:    -4.563      0.000      0.000
REMARK INTER + INTRA:         -10.282
REMARK INTER:                  -8.298
REMARK INTRA:                  -1.984
REMARK UNBOUND:                -1.984
REMARK SMILES CCCCCCCCCCCCCC[C@@H](C)C(=O)[O-]
REMARK SMILES IDX 9 1 10 2 11 3 12 4 13 5 14 6 15 7 16 8 17 9 18 10 19 11 8 12
REMARK SMILES IDX 7 13 6 14 5 15 4 16 3 17 2 18 1 19
REMARK H PARENT
REMARK Flexibility Score: inf
ROOT
ATOM      1  C   UNL     1      18.358  69.387  38.865  1.00  0.00     0.000 C 
ENDROOT
BRANCH   1   2
ATOM      2  C   UNL     1      19.372  69.186  37.729  1.00  0.00     0.000 C 
BRANCH   2   3
ATOM      3  C   UNL     1      18.679  68.694  36.453  1.00  0.00     0.000 C 
BRANCH   3   4
ATOM      4  C   UNL     1      18.288  69.874  35.550  1.00  0.00     0.000 C 
BRANCH   4   5
ATOM      5  C   UNL     1      17.384  69.451  34.381  1.00  0.00     0.001 C 
BRANCH   5   6
ATOM      6  C   UNL     1      16.350  68.385  34.795  1.00  0.00     0.009 C 
BRANCH   6   7
ATOM      7  C   UNL     1      15.393  67.950  33.662  1.00  0.00     0.032 C 
ATOM      8  C   UNL     1      15.460  68.878  32.439  1.00  0.00     0.014 C 
BRANCH   7   9
ATOM      9  C   UNL     1      15.596  66.506  33.283  1.00  0.00     0.044 C 
ATOM     10  O   UNL     1      16.478  65.805  33.846  1.00  0.00    -0.550 OA
ATOM     11  O   UNL     1      14.767  65.923  32.332  1.00  0.00    -0.550 OA
ENDBRANCH   7   9
ENDBRANCH   6   7
ENDBRANCH   5   6
ENDBRANCH   4   5
ENDBRANCH   3   4
ENDBRANCH   2   3
ENDBRANCH   1   2
BRANCH   1  12
ATOM     12  C   UNL     1      18.738  68.631  40.152  1.00  0.00     0.000 C 
BRANCH  12  13
ATOM     13  C   UNL     1      20.082  67.884  40.098  1.00  0.00    -0.000 C 
BRANCH  13  14
ATOM     14  C   UNL     1      20.031  66.508  40.783  1.00  0.00    -0.000 C 
BRANCH  14  15
ATOM     15  C   UNL     1      19.985  65.349  39.772  1.00  0.00    -0.000 C 
BRANCH  15  16
ATOM     16  C   UNL     1      20.316  65.800  38.338  1.00  0.00    -0.000 C 
BRANCH  16  17
ATOM     17  C   UNL     1      19.303  65.258  37.308  1.00  0.00    -0.000 C 
BRANCH  17  18
ATOM     18  C   UNL     1      17.932  64.916  37.915  1.00  0.00    -0.003 C 
ATOM     19  C   UNL     1      16.858  65.955  37.592  1.00  0.00     0.004 C 
ENDBRANCH  17  18
ENDBRANCH  16  17
ENDBRANCH  15  16
ENDBRANCH  14  15
ENDBRANCH  13  14
ENDBRANCH  12  13
ENDBRANCH   1  12
TORSDOF 14
ENDMDL
MODEL 2
REMARK VINA RESULT:    -4.562      4.188      8.272
REMARK INTER + INTRA:         -10.279
REMARK INTER:                  -8.610
REMARK INTRA:                  -1.670
REMARK UNBOUND:                -1.984
REMARK SMILES CCCCCCCCCCCCCC[C@@H](C)C(=O)[O-]
REMARK SMILES IDX 9 1 10 2 11 3 12 4 13 5 14 6 15 7 16 8 17 9 18 10 19 11 8 12
REMARK SMILES IDX 7 13 6 14 5 15 4 16 3 17 2 18 1 19
REMARK H PARENT
REMARK Flexibility Score: inf
ROOT
ATOM      1  C   UNL     1      15.240  63.643  31.225  1.00  0.00     0.000 C 
ENDROOT
BRANCH   1   2
ATOM      2  C   UNL     1      15.080  64.226  32.637  1.00  0.00     0.000 C 
BRANCH   2   3
ATOM      3  C   UNL     1      14.953  65.754  32.590  1.00  0.00     0.000 C 
BRANCH   3   4
ATOM      4  C   UNL     1      15.156  66.364  33.985  1.00  0.00     0.000 C 
BRANCH   4   5
ATOM      5  C   UNL     1      16.525  67.047  34.139  1.00  0.00     0.001 C 
BRANCH   5   6
ATOM      6  C   UNL     1      16.480  68.238  35.117  1.00  0.00     0.009 C 
BRANCH   6   7
ATOM      7  C   UNL     1      17.825  68.980  35.281  1.00  0.00     0.032 C 
ATOM      8  C   UNL     1      17.733  70.469  34.912  1.00  0.00     0.014 C 
BRANCH   7   9
ATOM      9  C   UNL     1      18.411  68.779  36.655  1.00  0.00     0.044 C 
ATOM     10  O   UNL     1      18.424  69.715  37.497  1.00  0.00    -0.550 OA
ATOM     11  O   UNL     1      18.901  67.530  37.016  1.00  0.00    -0.550 OA
ENDBRANCH   7   9
ENDBRANCH   6   7
ENDBRANCH   5   6
ENDBRANCH   4   5
ENDBRANCH   3   4
ENDBRANCH   2   3
ENDBRANCH   1   2
BRANCH   1  12
ATOM     12  C   UNL     1      15.075  62.112  31.184  1.00  0.00     0.000 C 
BRANCH  12  13
ATOM     13  C   UNL     1      13.883  61.604  30.355  1.00  0.00    -0.000 C 
BRANCH  13  14
ATOM     14  C   UNL     1      12.735  62.625  30.268  1.00  0.00    -0.000 C 
BRANCH  14  15
ATOM     15  C   UNL     1      11.607  62.330  31.270  1.00  0.00    -0.000 C 
BRANCH  15  16
ATOM     16  C   UNL     1      11.499  63.399  32.372  1.00  0.00    -0.000 C 
BRANCH  16  17
ATOM     17  C   UNL     1      11.973  62.874  33.744  1.00  0.00    -0.000 C 
BRANCH  17  18
ATOM     18  C   UNL     1      12.214  61.355  33.771  1.00  0.00    -0.003 C 
ATOM     19  C   UNL     1      13.580  60.976  34.341  1.00  0.00     0.004 C 
ENDBRANCH  17  18
ENDBRANCH  16  17
ENDBRANCH  15  16
ENDBRANCH  14  15
ENDBRANCH  13  14
ENDBRANCH  12  13
ENDBRANCH   1  12
TORSDOF 14
ENDMDL
MODEL 3
REMARK VINA RESULT:    -4.520      4.482      8.498
REMARK INTER + INTRA:         -10.204
REMARK INTER:                  -7.989
REMARK INTRA:                  -2.215
REMARK UNBOUND:                -1.984
REMARK SMILES CCCCCCCCCCCCCC[C@@H](C)C(=O)[O-]
REMARK SMILES IDX 9 1 10 2 11 3 12 4 13 5 14 6 15 7 16 8 17 9 18 10 19 11 8 12
REMARK SMILES IDX 7 13 6 14 5 15 4 16 3 17 2 18 1 19
REMARK H PARENT
REMARK Flexibility Score: inf
ROOT
ATOM      1  C   UNL     1      14.933  60.952  31.049  1.00  0.00     0.000 C 
ENDROOT
BRANCH   1   2
ATOM      2  C   UNL     1      15.992  62.054  30.901  1.00  0.00     0.000 C 
BRANCH   2   3
ATOM      3  C   UNL     1      16.116  62.875  32.191  1.00  0.00     0.000 C 
BRANCH   3   4
ATOM      4  C   UNL     1      15.686  64.331  31.958  1.00  0.00     0.000 C 
BRANCH   4   5
ATOM      5  C   UNL     1      15.669  65.158  33.254  1.00  0.00     0.001 C 
BRANCH   5   6
ATOM      6  C   UNL     1      14.906  66.488  33.093  1.00  0.00     0.009 C 
BRANCH   6   7
ATOM      7  C   UNL     1      15.785  67.750  33.245  1.00  0.00     0.032 C 
ATOM      8  C   UNL     1      15.258  68.943  32.433  1.00  0.00     0.014 C 
BRANCH   7   9
ATOM      9  C   UNL     1      16.002  68.108  34.693  1.00  0.00     0.044 C 
ATOM     10  O   UNL     1      15.376  67.511  35.609  1.00  0.00    -0.550 OA
ATOM     11  O   UNL     1      16.939  69.077  35.028  1.00  0.00    -0.550 OA
ENDBRANCH   7   9
ENDBRANCH   6   7
ENDBRANCH   5   6
ENDBRANCH   4   5
ENDBRANCH   3   4
ENDBRANCH   2   3
ENDBRANCH   1   2
BRANCH   1  12
ATOM     12  C   UNL     1      13.734  61.139  30.101  1.00  0.00     0.000 C 
BRANCH  12  13
ATOM     13  C   UNL     1      13.161  62.566  30.045  1.00  0.00    -0.000 C 
BRANCH  13  14
ATOM     14  C   UNL     1      11.900  62.741  30.909  1.00  0.00    -0.000 C 
BRANCH  14  15
ATOM     15  C   UNL     1      12.107  63.741  32.058  1.00  0.00    -0.000 C 
BRANCH  15  16
ATOM     16  C   UNL     1      12.448  63.050  33.391  1.00  0.00    -0.000 C 
BRANCH  16  17
ATOM     17  C   UNL     1      11.769  61.670  33.523  1.00  0.00    -0.000 C 
BRANCH  17  18
ATOM     18  C   UNL     1      12.757  60.521  33.785  1.00  0.00    -0.003 C 
ATOM     19  C   UNL     1      14.008  60.968  34.540  1.00  0.00     0.004 C 
ENDBRANCH  17  18
ENDBRANCH  16  17
ENDBRANCH  15  16
ENDBRANCH  14  15
ENDBRANCH  13  14
ENDBRANCH  12  13
ENDBRANCH   1  12
TORSDOF 14
ENDMDL
MODEL 4
REMARK VINA RESULT:    -4.467      4.085      7.792
REMARK INTER + INTRA:         -10.107
REMARK INTER:                  -7.767
REMARK INTRA:                  -2.340
REMARK UNBOUND:                -1.984
REMARK SMILES CCCCCCCCCCCCCC[C@@H](C)C(=O)[O-]
REMARK SMILES IDX 9 1 10 2 11 3 12 4 13 5 14 6 15 7 16 8 17 9 18 10 19 11 8 12
REMARK SMILES IDX 7 13 6 14 5 15 4 16 3 17 2 18 1 19
REMARK H PARENT
REMARK Flexibility Score: inf
ROOT
ATOM      1  C   UNL     1      16.978  61.621  32.548  1.00  0.00     0.000 C 
ENDROOT
BRANCH   1   2
ATOM      2  C   UNL     1      17.195  63.135  32.406  1.00  0.00     0.000 C 
BRANCH   2   3
ATOM      3  C   UNL     1      16.365  63.704  31.249  1.00  0.00     0.000 C 
BRANCH   3   4
ATOM      4  C   UNL     1      15.481  64.865  31.728  1.00  0.00     0.000 C 
BRANCH   4   5
ATOM      5  C   UNL     1      15.739  65.240  33.196  1.00  0.00     0.001 C 
BRANCH   5   6
ATOM      6  C   UNL     1      14.813  66.371  33.686  1.00  0.00     0.009 C 
BRANCH   6   7
ATOM      7  C   UNL     1      15.554  67.608  34.241  1.00  0.00     0.032 C 
ATOM      8  C   UNL     1      16.830  67.239  35.014  1.00  0.00     0.014 C 
BRANCH   7   9
ATOM      9  C   UNL     1      15.824  68.628  33.165  1.00  0.00     0.044 C 
ATOM     10  O   UNL     1      15.071  68.724  32.160  1.00  0.00    -0.550 OA
ATOM     11  O   UNL     1      16.891  69.507  33.305  1.00  0.00    -0.550 OA
ENDBRANCH   7   9
ENDBRANCH   6   7
ENDBRANCH   5   6
ENDBRANCH   4   5
ENDBRANCH   3   4
ENDBRANCH   2   3
ENDBRANCH   1   2
BRANCH   1  12
ATOM     12  C   UNL     1      15.490  61.231  32.627  1.00  0.00     0.000 C 
BRANCH  12  13
ATOM     13  C   UNL     1      14.737  61.773  33.854  1.00  0.00    -0.000 C 
BRANCH  13  14
ATOM     14  C   UNL     1      13.425  61.020  34.133  1.00  0.00    -0.000 C 
BRANCH  14  15
ATOM     15  C   UNL     1      12.181  61.883  33.861  1.00  0.00    -0.000 C 
BRANCH  15  16
ATOM     16  C   UNL     1      12.538  63.310  33.406  1.00  0.00    -0.000 C 
BRANCH  16  17
ATOM     17  C   UNL     1      11.942  63.647  32.023  1.00  0.00    -0.000 C 
BRANCH  17  18
ATOM     18  C   UNL     1      11.918  62.452  31.055  1.00  0.00    -0.003 C 
ATOM     19  C   UNL     1      13.148  62.390  30.150  1.00  0.00     0.004 C 
ENDBRANCH  17  18
ENDBRANCH  16  17
ENDBRANCH  15  16
ENDBRANCH  14  15
ENDBRANCH  13  14
ENDBRANCH  12  13
ENDBRANCH   1  12
TORSDOF 14
ENDMDL
MODEL 5
REMARK VINA RESULT:    -4.424      9.119     12.394
REMARK INTER + INTRA:         -10.028
REMARK INTER:                  -8.237
REMARK INTRA:                  -1.792
REMARK UNBOUND:                -1.984
REMARK SMILES CCCCCCCCCCCCCC[C@@H](C)C(=O)[O-]
REMARK SMILES IDX 9 1 10 2 11 3 12 4 13 5 14 6 15 7 16 8 17 9 18 10 19 11 8 12
REMARK SMILES IDX 7 13 6 14 5 15 4 16 3 17 2 18 1 19
REMARK H PARENT
REMARK Flexibility Score: inf
ROOT
ATOM      1  C   UNL     1      11.743  60.331  32.953  1.00  0.00     0.000 C 
ENDROOT
BRANCH   1   2
ATOM      2  C   UNL     1      10.541  60.295  31.996  1.00  0.00     0.000 C 
BRANCH   2   3
ATOM      3  C   UNL     1       9.821  58.943  32.067  1.00  0.00     0.000 C 
BRANCH   3   4
ATOM      4  C   UNL     1      10.014  58.291  33.445  1.00  0.00     0.000 C 
BRANCH   4   5
ATOM      5  C   UNL     1       8.699  57.756  34.036  1.00  0.00     0.001 C 
BRANCH   5   6
ATOM      6  C   UNL     1       7.781  57.139  32.962  1.00  0.00     0.009 C 
BRANCH   6   7
ATOM      7  C   UNL     1       6.358  57.739  32.917  1.00  0.00     0.032 C 
ATOM      8  C   UNL     1       6.129  58.807  33.997  1.00  0.00     0.014 C 
BRANCH   7   9
ATOM      9  C   UNL     1       6.010  58.249  31.542  1.00  0.00     0.044 C 
ATOM     10  O   UNL     1       5.876  59.482  31.322  1.00  0.00    -0.550 OA
ATOM     11  O   UNL     1       5.881  57.351  30.489  1.00  0.00    -0.550 OA
ENDBRANCH   7   9
ENDBRANCH   6   7
ENDBRANCH   5   6
ENDBRANCH   4   5
ENDBRANCH   3   4
ENDBRANCH   2   3
ENDBRANCH   1   2
BRANCH   1  12
ATOM     12  C   UNL     1      11.956  61.713  33.598  1.00  0.00     0.000 C 
BRANCH  12  13
ATOM     13  C   UNL     1      11.254  62.883  32.887  1.00  0.00    -0.000 C 
BRANCH  13  14
ATOM     14  C   UNL     1      12.228  63.782  32.106  1.00  0.00    -0.000 C 
BRANCH  14  15
ATOM     15  C   UNL     1      13.697  63.518  32.475  1.00  0.00    -0.000 C 
BRANCH  15  16
ATOM     16  C   UNL     1      14.488  62.866  31.327  1.00  0.00    -0.000 C 
BRANCH  16  17
ATOM     17  C   UNL     1      13.565  62.331  30.212  1.00  0.00    -0.000 C 
BRANCH  17  18
ATOM     18  C   UNL     1      13.763  60.836  29.912  1.00  0.00    -0.003 C 
ATOM     19  C   UNL     1      14.929  60.220  30.685  1.00  0.00     0.004 C 
ENDBRANCH  17  18
ENDBRANCH  16  17
ENDBRANCH  15  16
ENDBRANCH  14  15
ENDBRANCH  13  14
ENDBRANCH  12  13
ENDBRANCH   1  12
TORSDOF 14
ENDMDL
MODEL 6
REMARK VINA RESULT:    -4.419      3.872      7.822
REMARK INTER + INTRA:         -10.020
REMARK INTER:                  -8.909
REMARK INTRA:                  -1.111
REMARK UNBOUND:                -1.984
REMARK SMILES CCCCCCCCCCCCCC[C@@H](C)C(=O)[O-]
REMARK SMILES IDX 9 1 10 2 11 3 12 4 13 5 14 6 15 7 16 8 17 9 18 10 19 11 8 12
REMARK SMILES IDX 7 13 6 14 5 15 4 16 3 17 2 18 1 19
REMARK H PARENT
REMARK Flexibility Score: inf
ROOT
ATOM      1  C   UNL     1      14.990  66.183  32.644  1.00  0.00     0.000 C 
ENDROOT
BRANCH   1   2
ATOM      2  C   UNL     1      15.957  66.516  33.790  1.00  0.00     0.000 C 
BRANCH   2   3
ATOM      3  C   UNL     1      15.964  68.021  34.085  1.00  0.00     0.000 C 
BRANCH   3   4
ATOM      4  C   UNL     1      16.517  68.303  35.490  1.00  0.00     0.000 C 
BRANCH   4   5
ATOM      5  C   UNL     1      17.831  69.101  35.459  1.00  0.00     0.001 C 
BRANCH   5   6
ATOM      6  C   UNL     1      18.632  68.964  36.769  1.00  0.00     0.009 C 
BRANCH   6   7
ATOM      7  C   UNL     1      18.419  67.625  37.510  1.00  0.00     0.032 C 
ATOM      8  C   UNL     1      19.687  66.758  37.549  1.00  0.00     0.014 C 
BRANCH   7   9
ATOM      9  C   UNL     1      17.841  67.834  38.886  1.00  0.00     0.044 C 
ATOM     10  O   UNL     1      17.611  68.992  39.324  1.00  0.00    -0.550 OA
ATOM     11  O   UNL     1      17.511  66.733  39.667  1.00  0.00    -0.550 OA
ENDBRANCH   7   9
ENDBRANCH   6   7
ENDBRANCH   5   6
ENDBRANCH   4   5
ENDBRANCH   3   4
ENDBRANCH   2   3
ENDBRANCH   1   2
BRANCH   1  12
ATOM     12  C   UNL     1      14.628  64.687  32.577  1.00  0.00     0.000 C 
BRANCH  12  13
ATOM     13  C   UNL     1      15.326  63.895  31.458  1.00  0.00    -0.000 C 
BRANCH  13  14
ATOM     14  C   UNL     1      14.694  62.514  31.217  1.00  0.00    -0.000 C 
BRANCH  14  15
ATOM     15  C   UNL     1      13.394  62.595  30.399  1.00  0.00    -0.000 C 
BRANCH  15  16
ATOM     16  C   UNL     1      12.192  61.972  31.133  1.00  0.00    -0.000 C 
BRANCH  16  17
ATOM     17  C   UNL     1      11.415  63.013  31.967  1.00  0.00    -0.000 C 
BRANCH  17  18
ATOM     18  C   UNL     1      11.618  62.861  33.484  1.00  0.00    -0.003 C 
ATOM     19  C   UNL     1      12.308  61.552  33.868  1.00  0.00     0.004 C 
ENDBRANCH  17  18
ENDBRANCH  16  17
ENDBRANCH  15  16
ENDBRANCH  14  15
ENDBRANCH  13  14
ENDBRANCH  12  13
ENDBRANCH   1  12
TORSDOF 14
ENDMDL
MODEL 7
REMARK VINA RESULT:    -4.415      2.579      6.378
REMARK INTER + INTRA:         -10.011
REMARK INTER:                  -8.103
REMARK INTRA:                  -1.908
REMARK UNBOUND:                -1.984
REMARK SMILES CCCCCCCCCCCCCC[C@@H](C)C(=O)[O-]
REMARK SMILES IDX 9 1 10 2 11 3 12 4 13 5 14 6 15 7 16 8 17 9 18 10 19 11 8 12
REMARK SMILES IDX 7 13 6 14 5 15 4 16 3 17 2 18 1 19
REMARK H PARENT
REMARK Flexibility Score: inf
ROOT
ATOM      1  C   UNL     1      18.272  70.503  35.305  1.00  0.00     0.000 C 
ENDROOT
BRANCH   1   2
ATOM      2  C   UNL     1      18.617  69.083  35.780  1.00  0.00     0.000 C 
BRANCH   2   3
ATOM      3  C   UNL     1      19.328  69.115  37.138  1.00  0.00     0.000 C 
BRANCH   3   4
ATOM      4  C   UNL     1      18.318  69.276  38.284  1.00  0.00     0.000 C 
BRANCH   4   5
ATOM      5  C   UNL     1      18.772  68.577  39.576  1.00  0.00     0.001 C 
BRANCH   5   6
ATOM      6  C   UNL     1      18.706  67.041  39.466  1.00  0.00     0.009 C 
BRANCH   6   7
ATOM      7  C   UNL     1      20.077  66.335  39.556  1.00  0.00     0.032 C 
ATOM      8  C   UNL     1      20.951  66.876  40.698  1.00  0.00     0.014 C 
BRANCH   7   9
ATOM      9  C   UNL     1      19.931  64.836  39.623  1.00  0.00     0.044 C 
ATOM     10  O   UNL     1      19.799  64.151  38.575  1.00  0.00    -0.550 OA
ATOM     11  O   UNL     1      19.991  64.195  40.854  1.00  0.00    -0.550 OA
ENDBRANCH   7   9
ENDBRANCH   6   7
ENDBRANCH   5   6
ENDBRANCH   4   5
ENDBRANCH   3   4
ENDBRANCH   2   3
ENDBRANCH   1   2
BRANCH   1  12
ATOM     12  C   UNL     1      17.115  70.533  34.289  1.00  0.00     0.000 C 
BRANCH  12  13
ATOM     13  C   UNL     1      17.104  69.375  33.276  1.00  0.00    -0.000 C 
BRANCH  13  14
ATOM     14  C   UNL     1      15.690  69.024  32.783  1.00  0.00    -0.000 C 
BRANCH  14  15
ATOM     15  C   UNL     1      15.326  67.551  33.038  1.00  0.00    -0.000 C 
BRANCH  15  16
ATOM     16  C   UNL     1      16.204  66.904  34.124  1.00  0.00    -0.000 C 
BRANCH  16  17
ATOM     17  C   UNL     1      15.598  67.063  35.535  1.00  0.00    -0.000 C 
BRANCH  17  18
ATOM     18  C   UNL     1      16.456  66.437  36.647  1.00  0.00    -0.003 C 
ATOM     19  C   UNL     1      17.554  65.520  36.112  1.00  0.00     0.004 C 
ENDBRANCH  17  18
ENDBRANCH  16  17
ENDBRANCH  15  16
ENDBRANCH  14  15
ENDBRANCH  13  14
ENDBRANCH  12  13
ENDBRANCH   1  12
TORSDOF 14
ENDMDL
MODEL 8
REMARK VINA RESULT:    -4.287      5.650      9.026
REMARK INTER + INTRA:          -9.779
REMARK INTER:                  -7.497
REMARK INTRA:                  -2.282
REMARK UNBOUND:                -1.984
REMARK SMILES CCCCCCCCCCCCCC[C@@H](C)C(=O)[O-]
REMARK SMILES IDX 9 1 10 2 11 3 12 4 13 5 14 6 15 7 16 8 17 9 18 10 19 11 8 12
REMARK SMILES IDX 7 13 6 14 5 15 4 16 3 17 2 18 1 19
REMARK H PARENT
REMARK Flexibility Score: inf
ROOT
ATOM      1  C   UNL     1      13.084  62.614  30.165  1.00  0.00     0.000 C 
ENDROOT
BRANCH   1   2
ATOM      2  C   UNL     1      11.827  62.597  31.048  1.00  0.00     0.000 C 
BRANCH   2   3
ATOM      3  C   UNL     1      11.877  63.713  32.098  1.00  0.00     0.000 C 
BRANCH   3   4
ATOM      4  C   UNL     1      11.563  63.164  33.498  1.00  0.00     0.000 C 
BRANCH   4   5
ATOM      5  C   UNL     1      12.104  61.740  33.711  1.00  0.00     0.001 C 
BRANCH   5   6
ATOM      6  C   UNL     1      13.577  61.733  34.165  1.00  0.00     0.009 C 
BRANCH   6   7
ATOM      7  C   UNL     1      14.145  60.329  34.471  1.00  0.00     0.032 C 
ATOM      8  C   UNL     1      13.793  59.297  33.388  1.00  0.00     0.014 C 
BRANCH   7   9
ATOM      9  C   UNL     1      15.626  60.373  34.744  1.00  0.00     0.044 C 
ATOM     10  O   UNL     1      16.210  61.464  34.977  1.00  0.00    -0.550 OA
ATOM     11  O   UNL     1      16.352  59.188  34.789  1.00  0.00    -0.550 OA
ENDBRANCH   7   9
ENDBRANCH   6   7
ENDBRANCH   5   6
ENDBRANCH   4   5
ENDBRANCH   3   4
ENDBRANCH   2   3
ENDBRANCH   1   2
BRANCH   1  12
ATOM     12  C   UNL     1      14.153  61.605  30.621  1.00  0.00     0.000 C 
BRANCH  12  13
ATOM     13  C   UNL     1      15.479  62.226  31.094  1.00  0.00    -0.000 C 
BRANCH  13  14
ATOM     14  C   UNL     1      15.385  63.746  31.313  1.00  0.00    -0.000 C 
BRANCH  14  15
ATOM     15  C   UNL     1      15.991  64.186  32.657  1.00  0.00    -0.000 C 
BRANCH  15  16
ATOM     16  C   UNL     1      15.153  65.271  33.357  1.00  0.00    -0.000 C 
BRANCH  16  17
ATOM     17  C   UNL     1      14.901  66.491  32.445  1.00  0.00    -0.000 C 
BRANCH  17  18
ATOM     18  C   UNL     1      15.256  67.835  33.103  1.00  0.00    -0.003 C 
ATOM     19  C   UNL     1      15.216  69.009  32.126  1.00  0.00     0.004 C 
ENDBRANCH  17  18
ENDBRANCH  16  17
ENDBRANCH  15  16
ENDBRANCH  14  15
ENDBRANCH  13  14
ENDBRANCH  12  13
ENDBRANCH   1  12
TORSDOF 14
ENDMDL
MODEL 9
REMARK VINA RESULT:    -4.258      3.988      7.699
REMARK INTER + INTRA:          -9.727
REMARK INTER:                  -7.826
REMARK INTRA:                  -1.900
REMARK UNBOUND:                -1.984
REMARK SMILES CCCCCCCCCCCCCC[C@@H](C)C(=O)[O-]
REMARK SMILES IDX 9 1 10 2 11 3 12 4 13 5 14 6 15 7 16 8 17 9 18 10 19 11 8 12
REMARK SMILES IDX 7 13 6 14 5 15 4 16 3 17 2 18 1 19
REMARK H PARENT
REMARK Flexibility Score: inf
ROOT
ATOM      1  C   UNL     1      16.335  62.401  31.852  1.00  0.00     0.000 C 
ENDROOT
BRANCH   1   2
ATOM      2  C   UNL     1      16.806  62.802  33.258  1.00  0.00     0.000 C 
BRANCH   2   3
ATOM      3  C   UNL     1      16.114  64.088  33.725  1.00  0.00     0.000 C 
BRANCH   3   4
ATOM      4  C   UNL     1      17.146  65.154  34.124  1.00  0.00     0.000 C 
BRANCH   4   5
ATOM      5  C   UNL     1      16.599  66.147  35.163  1.00  0.00     0.001 C 
BRANCH   5   6
ATOM      6  C   UNL     1      15.609  67.155  34.547  1.00  0.00     0.009 C 
BRANCH   6   7
ATOM      7  C   UNL     1      16.122  68.612  34.508  1.00  0.00     0.032 C 
ATOM      8  C   UNL     1      17.481  68.783  35.204  1.00  0.00     0.014 C 
BRANCH   7   9
ATOM      9  C   UNL     1      16.138  69.162  33.105  1.00  0.00     0.044 C 
ATOM     10  O   UNL     1      17.156  69.747  32.649  1.00  0.00    -0.550 OA
ATOM     11  O   UNL     1      15.032  68.980  32.283  1.00  0.00    -0.550 OA
ENDBRANCH   7   9
ENDBRANCH   6   7
ENDBRANCH   5   6
ENDBRANCH   4   5
ENDBRANCH   3   4
ENDBRANCH   2   3
ENDBRANCH   1   2
BRANCH   1  12
ATOM     12  C   UNL     1      15.233  63.325  31.301  1.00  0.00     0.000 C 
BRANCH  12  13
ATOM     13  C   UNL     1      14.021  62.602  30.687  1.00  0.00    -0.000 C 
BRANCH  13  14
ATOM     14  C   UNL     1      12.678  63.229  31.098  1.00  0.00    -0.000 C 
BRANCH  14  15
ATOM     15  C   UNL     1      12.675  63.711  32.559  1.00  0.00    -0.000 C 
BRANCH  15  16
ATOM     16  C   UNL     1      11.577  63.040  33.403  1.00  0.00    -0.000 C 
BRANCH  16  17
ATOM     17  C   UNL     1      11.917  61.573  33.744  1.00  0.00    -0.000 C 
BRANCH  17  18
ATOM     18  C   UNL     1      13.383  61.363  34.159  1.00  0.00    -0.003 C 
ATOM     19  C   UNL     1      14.017  60.132  33.513  1.00  0.00     0.004 C 
ENDBRANCH  17  18
ENDBRANCH  16  17
ENDBRANCH  15  16
ENDBRANCH  14  15
ENDBRANCH  13  14
ENDBRANCH  12  13
ENDBRANCH   1  12
TORSDOF 14
ENDMDL
