MODEL 1
REMARK VINA RESULT:    -7.898      0.000      0.000
REMARK INTER + INTRA:         -10.097
REMARK INTER:                  -9.745
REMARK INTRA:                  -0.353
REMARK UNBOUND:                -0.353
REMARK SMILES O=c1c(O)c(-c2cc(O)c(O)c(O)c2)oc2cc(O)cc(O)c12
REMARK SMILES IDX 5 1 3 2 2 3 1 4 23 5 21 6 20 7 18 8 17 9 16 10 15 11 6 12
REMARK SMILES IDX 7 13 8 14 14 15 10 16 12 17 9 18 11 20 13 22 4 24 22 26
REMARK SMILES IDX 19 28
REMARK H PARENT 9 19 11 21 13 23 4 25 22 27 19 29
REMARK Flexibility Score: inf
ROOT
ATOM      1  C   UNL     1       6.695   5.906   1.086  1.00  0.00     0.180 A 
ATOM      2  C   UNL     1       5.954   6.310   2.210  1.00  0.00     0.208 A 
ATOM      3  C   UNL     1       6.230   5.723   3.455  1.00  0.00     0.238 A 
ATOM      4  O   UNL     1       5.526   6.048   4.447  1.00  0.00    -0.285 OA
ATOM      5  C   UNL     1       7.253   4.751   3.564  1.00  0.00     0.111 A 
ATOM      6  C   UNL     1       7.644   4.118   4.783  1.00  0.00     0.134 A 
ATOM      7  C   UNL     1       8.580   3.077   4.751  1.00  0.00     0.093 A 
ATOM      8  C   UNL     1       9.185   2.689   3.557  1.00  0.00     0.123 A 
ATOM      9  C   UNL     1       8.855   3.341   2.369  1.00  0.00     0.094 A 
ATOM     10  C   UNL     1       7.898   4.358   2.362  1.00  0.00     0.146 A 
ATOM     11  O   UNL     1       7.604   4.946   1.208  1.00  0.00    -0.452 OA
ENDROOT
BRANCH   1  12
ATOM     12  C   UNL     1       6.480   6.498  -0.254  1.00  0.00     0.029 A 
ATOM     13  C   UNL     1       5.497   5.997  -1.125  1.00  0.00     0.062 A 
ATOM     14  C   UNL     1       5.291   6.585  -2.381  1.00  0.00     0.162 A 
ATOM     15  C   UNL     1       7.231   7.618  -0.643  1.00  0.00     0.062 A 
ATOM     16  C   UNL     1       6.064   7.692  -2.769  1.00  0.00     0.200 A 
ATOM     17  C   UNL     1       7.030   8.209  -1.898  1.00  0.00     0.162 A 
BRANCH  14  18
ATOM     18  O   UNL     1       4.318   6.077  -3.240  1.00  0.00    -0.504 OA
ATOM     19  H   UNL     1       4.335   6.271  -4.234  1.00  0.00     0.293 HD
ENDBRANCH  14  18
BRANCH  16  20
ATOM     20  O   UNL     1       5.880   8.292  -4.016  1.00  0.00    -0.502 OA
ATOM     21  H   UNL     1       6.659   8.558  -4.607  1.00  0.00     0.293 HD
ENDBRANCH  16  20
BRANCH  17  22
ATOM     22  O   UNL     1       7.789   9.313  -2.285  1.00  0.00    -0.504 OA
ATOM     23  H   UNL     1       7.731  10.195  -1.791  1.00  0.00     0.293 HD
ENDBRANCH  17  22
ENDBRANCH   1  12
BRANCH   2  24
ATOM     24  O   UNL     1       4.933   7.255   2.077  1.00  0.00    -0.502 OA
ATOM     25  H   UNL     1       4.134   7.113   1.472  1.00  0.00     0.293 HD
ENDBRANCH   2  24
BRANCH   6  26
ATOM     26  O   UNL     1       7.169   4.492   6.043  1.00  0.00    -0.507 OA
ATOM     27  H   UNL     1       7.752   4.688   6.843  1.00  0.00     0.293 HD
ENDBRANCH   6  26
BRANCH   8  28
ATOM     28  O   UNL     1      10.124   1.660   3.565  1.00  0.00    -0.508 OA
ATOM     29  H   UNL     1      10.374   1.177   4.420  1.00  0.00     0.293 HD
ENDBRANCH   8  28
TORSDOF 7
ENDMDL
MODEL 2
REMARK VINA RESULT:    -7.884      0.069      1.751
REMARK INTER + INTRA:         -10.080
REMARK INTER:                  -9.723
REMARK INTRA:                  -0.357
REMARK UNBOUND:                -0.353
REMARK SMILES O=c1c(O)c(-c2cc(O)c(O)c(O)c2)oc2cc(O)cc(O)c12
REMARK SMILES IDX 5 1 3 2 2 3 1 4 23 5 21 6 20 7 18 8 17 9 16 10 15 11 6 12
REMARK SMILES IDX 7 13 8 14 14 15 10 16 12 17 9 18 11 20 13 22 4 24 22 26
REMARK SMILES IDX 19 28
REMARK H PARENT 9 19 11 21 13 23 4 25 22 27 19 29
REMARK Flexibility Score: inf
ROOT
ATOM      1  C   UNL     1       6.687   5.937   1.091  1.00  0.00     0.180 A 
ATOM      2  C   UNL     1       5.926   6.298   2.217  1.00  0.00     0.208 A 
ATOM      3  C   UNL     1       6.190   5.674   3.447  1.00  0.00     0.238 A 
ATOM      4  O   UNL     1       5.469   5.960   4.438  1.00  0.00    -0.285 OA
ATOM      5  C   UNL     1       7.222   4.708   3.539  1.00  0.00     0.111 A 
ATOM      6  C   UNL     1       7.602   4.041   4.743  1.00  0.00     0.134 A 
ATOM      7  C   UNL     1       8.549   3.011   4.691  1.00  0.00     0.093 A 
ATOM      8  C   UNL     1       9.175   2.668   3.494  1.00  0.00     0.123 A 
ATOM      9  C   UNL     1       8.855   3.354   2.323  1.00  0.00     0.094 A 
ATOM     10  C   UNL     1       7.888   4.361   2.334  1.00  0.00     0.146 A 
ATOM     11  O   UNL     1       7.603   4.983   1.196  1.00  0.00    -0.452 OA
ENDROOT
BRANCH   1  12
ATOM     12  C   UNL     1       6.484   6.569  -0.232  1.00  0.00     0.029 A 
ATOM     13  C   UNL     1       7.254   7.672  -0.641  1.00  0.00     0.062 A 
ATOM     14  C   UNL     1       7.065   8.243  -1.907  1.00  0.00     0.162 A 
ATOM     15  C   UNL     1       5.545   6.024  -1.121  1.00  0.00     0.062 A 
ATOM     16  C   UNL     1       6.105   7.703  -2.781  1.00  0.00     0.200 A 
ATOM     17  C   UNL     1       5.350   6.592  -2.388  1.00  0.00     0.162 A 
BRANCH  14  18
ATOM     18  O   UNL     1       7.828   9.341  -2.302  1.00  0.00    -0.504 OA
ATOM     19  H   UNL     1       7.809   9.685  -3.254  1.00  0.00     0.293 HD
ENDBRANCH  14  18
BRANCH  16  20
ATOM     20  O   UNL     1       5.895   8.257  -4.045  1.00  0.00    -0.502 OA
ATOM     21  H   UNL     1       6.277   7.843  -4.886  1.00  0.00     0.293 HD
ENDBRANCH  16  20
BRANCH  17  22
ATOM     22  O   UNL     1       4.406   6.055  -3.262  1.00  0.00    -0.504 OA
ATOM     23  H   UNL     1       3.751   6.645  -3.762  1.00  0.00     0.293 HD
ENDBRANCH  17  22
ENDBRANCH   1  12
BRANCH   2  24
ATOM     24  O   UNL     1       4.897   7.237   2.099  1.00  0.00    -0.502 OA
ATOM     25  H   UNL     1       3.919   6.982   2.147  1.00  0.00     0.293 HD
ENDBRANCH   2  24
BRANCH   6  26
ATOM     26  O   UNL     1       7.106   4.370   6.007  1.00  0.00    -0.507 OA
ATOM     27  H   UNL     1       6.324   4.985   6.176  1.00  0.00     0.293 HD
ENDBRANCH   6  26
BRANCH   8  28
ATOM     28  O   UNL     1      10.125   1.648   3.483  1.00  0.00    -0.508 OA
ATOM     29  H   UNL     1      10.393   1.164   4.331  1.00  0.00     0.293 HD
ENDBRANCH   8  28
TORSDOF 7
ENDMDL
MODEL 3
REMARK VINA RESULT:    -7.817      1.836      3.365
REMARK INTER + INTRA:          -9.998
REMARK INTER:                  -9.694
REMARK INTRA:                  -0.304
REMARK UNBOUND:                -0.353
REMARK SMILES O=c1c(O)c(-c2cc(O)c(O)c(O)c2)oc2cc(O)cc(O)c12
REMARK SMILES IDX 5 1 3 2 2 3 1 4 23 5 21 6 20 7 18 8 17 9 16 10 15 11 6 12
REMARK SMILES IDX 7 13 8 14 14 15 10 16 12 17 9 18 11 20 13 22 4 24 22 26
REMARK SMILES IDX 19 28
REMARK H PARENT 9 19 11 21 13 23 4 25 22 27 19 29
REMARK Flexibility Score: inf
ROOT
ATOM      1  C   UNL     1       6.765   5.134   1.640  1.00  0.00     0.180 A 
ATOM      2  C   UNL     1       8.093   4.706   1.471  1.00  0.00     0.208 A 
ATOM      3  C   UNL     1       8.607   3.723   2.332  1.00  0.00     0.238 A 
ATOM      4  O   UNL     1       9.814   3.384   2.212  1.00  0.00    -0.285 OA
ATOM      5  C   UNL     1       7.782   3.169   3.341  1.00  0.00     0.111 A 
ATOM      6  C   UNL     1       8.186   2.139   4.244  1.00  0.00     0.134 A 
ATOM      7  C   UNL     1       7.329   1.759   5.284  1.00  0.00     0.093 A 
ATOM      8  C   UNL     1       6.062   2.323   5.417  1.00  0.00     0.123 A 
ATOM      9  C   UNL     1       5.634   3.287   4.504  1.00  0.00     0.094 A 
ATOM     10  C   UNL     1       6.478   3.714   3.477  1.00  0.00     0.146 A 
ATOM     11  O   UNL     1       6.037   4.642   2.635  1.00  0.00    -0.452 OA
ENDROOT
BRANCH   1  12
ATOM     12  C   UNL     1       6.145   6.147   0.755  1.00  0.00     0.029 A 
ATOM     13  C   UNL     1       5.987   7.480   1.170  1.00  0.00     0.062 A 
ATOM     14  C   UNL     1       5.420   8.432   0.311  1.00  0.00     0.162 A 
ATOM     15  C   UNL     1       5.759   5.785  -0.545  1.00  0.00     0.062 A 
ATOM     16  C   UNL     1       5.016   8.053  -0.982  1.00  0.00     0.200 A 
ATOM     17  C   UNL     1       5.190   6.731  -1.408  1.00  0.00     0.162 A 
BRANCH  14  18
ATOM     18  O   UNL     1       5.261   9.751   0.733  1.00  0.00    -0.504 OA
ATOM     19  H   UNL     1       4.923   9.973   1.662  1.00  0.00     0.293 HD
ENDBRANCH  14  18
BRANCH  16  20
ATOM     20  O   UNL     1       4.445   8.981  -1.854  1.00  0.00    -0.502 OA
ATOM     21  H   UNL     1       4.947   9.353  -2.651  1.00  0.00     0.293 HD
ENDBRANCH  16  20
BRANCH  17  22
ATOM     22  O   UNL     1       4.795   6.363  -2.694  1.00  0.00    -0.504 OA
ATOM     23  H   UNL     1       5.334   5.706  -3.245  1.00  0.00     0.293 HD
ENDBRANCH  17  22
ENDBRANCH   1  12
BRANCH   2  24
ATOM     24  O   UNL     1       8.898   5.281   0.484  1.00  0.00    -0.502 OA
ATOM     25  H   UNL     1       8.582   6.047  -0.098  1.00  0.00     0.293 HD
ENDBRANCH   2  24
BRANCH   6  26
ATOM     26  O   UNL     1       9.395   1.445   4.145  1.00  0.00    -0.507 OA
ATOM     27  H   UNL     1       9.588   0.561   4.589  1.00  0.00     0.293 HD
ENDBRANCH   6  26
BRANCH   8  28
ATOM     28  O   UNL     1       5.230   1.909   6.454  1.00  0.00    -0.508 OA
ATOM     29  H   UNL     1       5.365   1.020   6.920  1.00  0.00     0.293 HD
ENDBRANCH   8  28
TORSDOF 7
ENDMDL
MODEL 4
REMARK VINA RESULT:    -7.689      1.845      3.282
REMARK INTER + INTRA:          -9.839
REMARK INTER:                  -9.540
REMARK INTRA:                  -0.299
REMARK UNBOUND:                -0.353
REMARK SMILES O=c1c(O)c(-c2cc(O)c(O)c(O)c2)oc2cc(O)cc(O)c12
REMARK SMILES IDX 5 1 3 2 2 3 1 4 23 5 21 6 20 7 18 8 17 9 16 10 15 11 6 12
REMARK SMILES IDX 7 13 8 14 14 15 10 16 12 17 9 18 11 20 13 22 4 24 22 26
REMARK SMILES IDX 19 28
REMARK H PARENT 9 19 11 21 13 23 4 25 22 27 19 29
REMARK Flexibility Score: inf
ROOT
ATOM      1  C   UNL     1       6.845   4.908   2.081  1.00  0.00     0.180 A 
ATOM      2  C   UNL     1       8.151   4.427   1.883  1.00  0.00     0.208 A 
ATOM      3  C   UNL     1       8.649   3.433   2.740  1.00  0.00     0.238 A 
ATOM      4  O   UNL     1       9.838   3.047   2.593  1.00  0.00    -0.285 OA
ATOM      5  C   UNL     1       7.830   2.920   3.775  1.00  0.00     0.111 A 
ATOM      6  C   UNL     1       8.218   1.885   4.678  1.00  0.00     0.134 A 
ATOM      7  C   UNL     1       7.374   1.547   5.744  1.00  0.00     0.093 A 
ATOM      8  C   UNL     1       6.133   2.161   5.903  1.00  0.00     0.123 A 
ATOM      9  C   UNL     1       5.719   3.133   4.992  1.00  0.00     0.094 A 
ATOM     10  C   UNL     1       6.552   3.517   3.939  1.00  0.00     0.146 A 
ATOM     11  O   UNL     1       6.125   4.453   3.100  1.00  0.00    -0.452 OA
ENDROOT
BRANCH   1  12
ATOM     12  C   UNL     1       6.242   5.936   1.203  1.00  0.00     0.029 A 
ATOM     13  C   UNL     1       5.831   5.629  -0.106  1.00  0.00     0.062 A 
ATOM     14  C   UNL     1       5.240   6.609  -0.916  1.00  0.00     0.162 A 
ATOM     15  C   UNL     1       6.022   7.228   1.703  1.00  0.00     0.062 A 
ATOM     16  C   UNL     1       5.045   7.907  -0.412  1.00  0.00     0.200 A 
ATOM     17  C   UNL     1       5.434   8.213   0.898  1.00  0.00     0.162 A 
BRANCH  14  18
ATOM     18  O   UNL     1       4.842   6.298  -2.215  1.00  0.00    -0.504 OA
ATOM     19  H   UNL     1       4.456   5.390  -2.448  1.00  0.00     0.293 HD
ENDBRANCH  14  18
BRANCH  16  20
ATOM     20  O   UNL     1       4.464   8.901  -1.201  1.00  0.00    -0.502 OA
ATOM     21  H   UNL     1       3.461   8.979  -1.318  1.00  0.00     0.293 HD
ENDBRANCH  16  20
BRANCH  17  22
ATOM     22  O   UNL     1       5.231   9.500   1.395  1.00  0.00    -0.504 OA
ATOM     23  H   UNL     1       4.870   9.657   2.328  1.00  0.00     0.293 HD
ENDBRANCH  17  22
ENDBRANCH   1  12
BRANCH   2  24
ATOM     24  O   UNL     1       8.951   4.962   0.870  1.00  0.00    -0.502 OA
ATOM     25  H   UNL     1       9.245   4.422   0.065  1.00  0.00     0.293 HD
ENDBRANCH   2  24
BRANCH   6  26
ATOM     26  O   UNL     1       9.396   1.143   4.555  1.00  0.00    -0.507 OA
ATOM     27  H   UNL     1      10.296   1.530   4.315  1.00  0.00     0.293 HD
ENDBRANCH   6  26
BRANCH   8  28
ATOM     28  O   UNL     1       5.314   1.789   6.966  1.00  0.00    -0.508 OA
ATOM     29  H   UNL     1       4.310   1.922   6.934  1.00  0.00     0.293 HD
ENDBRANCH   8  28
TORSDOF 7
ENDMDL
MODEL 5
REMARK VINA RESULT:    -7.445      1.833      7.162
REMARK INTER + INTRA:          -9.539
REMARK INTER:                  -9.208
REMARK INTRA:                  -0.331
REMARK UNBOUND:                -0.353
REMARK SMILES O=c1c(O)c(-c2cc(O)c(O)c(O)c2)oc2cc(O)cc(O)c12
REMARK SMILES IDX 5 1 3 2 2 3 1 4 23 5 21 6 20 7 18 8 17 9 16 10 15 11 6 12
REMARK SMILES IDX 7 13 8 14 14 15 10 16 12 17 9 18 11 20 13 22 4 24 22 26
REMARK SMILES IDX 19 28
REMARK H PARENT 9 19 11 21 13 23 4 25 22 27 19 29
REMARK Flexibility Score: inf
ROOT
ATOM      1  C   UNL     1       6.646   4.904   3.074  1.00  0.00     0.180 A 
ATOM      2  C   UNL     1       6.687   6.152   3.719  1.00  0.00     0.208 A 
ATOM      3  C   UNL     1       6.290   7.298   3.011  1.00  0.00     0.238 A 
ATOM      4  O   UNL     1       6.382   8.420   3.576  1.00  0.00    -0.285 OA
ATOM      5  C   UNL     1       5.842   7.180   1.673  1.00  0.00     0.111 A 
ATOM      6  C   UNL     1       5.379   8.269   0.874  1.00  0.00     0.134 A 
ATOM      7  C   UNL     1       5.082   8.056  -0.478  1.00  0.00     0.093 A 
ATOM      8  C   UNL     1       5.170   6.784  -1.042  1.00  0.00     0.123 A 
ATOM      9  C   UNL     1       5.564   5.702  -0.256  1.00  0.00     0.094 A 
ATOM     10  C   UNL     1       5.901   5.888   1.087  1.00  0.00     0.146 A 
ATOM     11  O   UNL     1       6.282   4.834   1.799  1.00  0.00    -0.452 OA
ENDROOT
BRANCH   1  12
ATOM     12  C   UNL     1       7.024   3.649   3.762  1.00  0.00     0.029 A 
ATOM     13  C   UNL     1       8.305   3.090   3.611  1.00  0.00     0.062 A 
ATOM     14  C   UNL     1       8.654   1.913   4.289  1.00  0.00     0.162 A 
ATOM     15  C   UNL     1       6.107   3.033   4.628  1.00  0.00     0.062 A 
ATOM     16  C   UNL     1       7.720   1.292   5.137  1.00  0.00     0.200 A 
ATOM     17  C   UNL     1       6.450   1.856   5.307  1.00  0.00     0.162 A 
BRANCH  14  18
ATOM     18  O   UNL     1       9.924   1.363   4.128  1.00  0.00    -0.504 OA
ATOM     19  H   UNL     1      10.670   1.875   3.673  1.00  0.00     0.293 HD
ENDBRANCH  14  18
BRANCH  16  20
ATOM     20  O   UNL     1       8.042   0.118   5.818  1.00  0.00    -0.502 OA
ATOM     21  H   UNL     1       8.708  -0.553   5.453  1.00  0.00     0.293 HD
ENDBRANCH  16  20
BRANCH  17  22
ATOM     22  O   UNL     1       5.530   1.240   6.155  1.00  0.00    -0.504 OA
ATOM     23  H   UNL     1       5.372   1.575   7.098  1.00  0.00     0.293 HD
ENDBRANCH  17  22
ENDBRANCH   1  12
BRANCH   2  24
ATOM     24  O   UNL     1       7.154   6.250   5.032  1.00  0.00    -0.502 OA
ATOM     25  H   UNL     1       7.727   5.534   5.462  1.00  0.00     0.293 HD
ENDBRANCH   2  24
BRANCH   6  26
ATOM     26  O   UNL     1       5.167   9.560   1.364  1.00  0.00    -0.507 OA
ATOM     27  H   UNL     1       5.733  10.363   1.134  1.00  0.00     0.293 HD
ENDBRANCH   6  26
BRANCH   8  28
ATOM     28  O   UNL     1       4.852   6.606  -2.387  1.00  0.00    -0.508 OA
ATOM     29  H   UNL     1       4.931   5.702  -2.835  1.00  0.00     0.293 HD
ENDBRANCH   8  28
TORSDOF 7
ENDMDL
MODEL 6
REMARK VINA RESULT:    -7.393      1.728      6.843
REMARK INTER + INTRA:          -9.475
REMARK INTER:                  -9.129
REMARK INTRA:                  -0.346
REMARK UNBOUND:                -0.353
REMARK SMILES O=c1c(O)c(-c2cc(O)c(O)c(O)c2)oc2cc(O)cc(O)c12
REMARK SMILES IDX 5 1 3 2 2 3 1 4 23 5 21 6 20 7 18 8 17 9 16 10 15 11 6 12
REMARK SMILES IDX 7 13 8 14 14 15 10 16 12 17 9 18 11 20 13 22 4 24 22 26
REMARK SMILES IDX 19 28
REMARK H PARENT 9 19 11 21 13 23 4 25 22 27 19 29
REMARK Flexibility Score: inf
ROOT
ATOM      1  C   UNL     1       6.594   5.405   2.423  1.00  0.00     0.180 A 
ATOM      2  C   UNL     1       6.520   6.645   3.083  1.00  0.00     0.208 A 
ATOM      3  C   UNL     1       6.066   7.768   2.373  1.00  0.00     0.238 A 
ATOM      4  O   UNL     1       6.053   8.886   2.953  1.00  0.00    -0.285 OA
ATOM      5  C   UNL     1       5.677   7.635   1.018  1.00  0.00     0.111 A 
ATOM      6  C   UNL     1       5.166   8.698   0.214  1.00  0.00     0.134 A 
ATOM      7  C   UNL     1       4.936   8.482  -1.151  1.00  0.00     0.093 A 
ATOM      8  C   UNL     1       5.139   7.229  -1.726  1.00  0.00     0.123 A 
ATOM      9  C   UNL     1       5.582   6.167  -0.936  1.00  0.00     0.094 A 
ATOM     10  C   UNL     1       5.854   6.360   0.420  1.00  0.00     0.146 A 
ATOM     11  O   UNL     1       6.285   5.327   1.135  1.00  0.00    -0.452 OA
ENDROOT
BRANCH   1  12
ATOM     12  C   UNL     1       7.038   4.172   3.112  1.00  0.00     0.029 A 
ATOM     13  C   UNL     1       6.165   3.439   3.934  1.00  0.00     0.062 A 
ATOM     14  C   UNL     1       6.596   2.261   4.559  1.00  0.00     0.162 A 
ATOM     15  C   UNL     1       8.339   3.692   2.897  1.00  0.00     0.062 A 
ATOM     16  C   UNL     1       7.908   1.800   4.355  1.00  0.00     0.200 A 
ATOM     17  C   UNL     1       8.776   2.515   3.521  1.00  0.00     0.162 A 
BRANCH  14  18
ATOM     18  O   UNL     1       5.724   1.543   5.377  1.00  0.00    -0.504 OA
ATOM     19  H   UNL     1       4.848   1.940   5.695  1.00  0.00     0.293 HD
ENDBRANCH  14  18
BRANCH  16  20
ATOM     20  O   UNL     1       8.361   0.633   4.970  1.00  0.00    -0.502 OA
ATOM     21  H   UNL     1       8.646   0.610   5.942  1.00  0.00     0.293 HD
ENDBRANCH  16  20
BRANCH  17  22
ATOM     22  O   UNL     1      10.074   2.050   3.315  1.00  0.00    -0.504 OA
ATOM     23  H   UNL     1      10.259   1.083   3.075  1.00  0.00     0.293 HD
ENDBRANCH  17  22
ENDBRANCH   1  12
BRANCH   2  24
ATOM     24  O   UNL     1       6.928   6.759   4.415  1.00  0.00    -0.502 OA
ATOM     25  H   UNL     1       6.533   6.193   5.156  1.00  0.00     0.293 HD
ENDBRANCH   2  24
BRANCH   6  26
ATOM     26  O   UNL     1       4.841   9.964   0.708  1.00  0.00    -0.507 OA
ATOM     27  H   UNL     1       5.001  10.831   0.219  1.00  0.00     0.293 HD
ENDBRANCH   6  26
BRANCH   8  28
ATOM     28  O   UNL     1       4.885   7.046  -3.083  1.00  0.00    -0.508 OA
ATOM     29  H   UNL     1       4.565   7.807  -3.670  1.00  0.00     0.293 HD
ENDBRANCH   8  28
TORSDOF 7
ENDMDL
MODEL 7
REMARK VINA RESULT:    -7.227      2.348      4.172
REMARK INTER + INTRA:          -9.270
REMARK INTER:                  -9.713
REMARK INTRA:                   0.443
REMARK UNBOUND:                -0.353
REMARK SMILES O=c1c(O)c(-c2cc(O)c(O)c(O)c2)oc2cc(O)cc(O)c12
REMARK SMILES IDX 5 1 3 2 2 3 1 4 23 5 21 6 20 7 18 8 17 9 16 10 15 11 6 12
REMARK SMILES IDX 7 13 8 14 14 15 10 16 12 17 9 18 11 20 13 22 4 24 22 26
REMARK SMILES IDX 19 28
REMARK H PARENT 9 19 11 21 13 23 4 25 22 27 19 29
REMARK Flexibility Score: inf
ROOT
ATOM      1  C   UNL     1       6.669   4.334   3.052  1.00  0.00     0.180 A 
ATOM      2  C   UNL     1       7.585   3.268   3.086  1.00  0.00     0.208 A 
ATOM      3  C   UNL     1       7.557   2.379   4.172  1.00  0.00     0.238 A 
ATOM      4  O   UNL     1       8.416   1.460   4.224  1.00  0.00    -0.285 OA
ATOM      5  C   UNL     1       6.604   2.558   5.204  1.00  0.00     0.111 A 
ATOM      6  C   UNL     1       6.460   1.695   6.333  1.00  0.00     0.134 A 
ATOM      7  C   UNL     1       5.570   2.042   7.357  1.00  0.00     0.093 A 
ATOM      8  C   UNL     1       4.774   3.182   7.265  1.00  0.00     0.123 A 
ATOM      9  C   UNL     1       4.864   4.001   6.138  1.00  0.00     0.094 A 
ATOM     10  C   UNL     1       5.768   3.702   5.117  1.00  0.00     0.146 A 
ATOM     11  O   UNL     1       5.831   4.512   4.066  1.00  0.00    -0.452 OA
ENDROOT
BRANCH   1  12
ATOM     12  C   UNL     1       6.620   5.296   1.928  1.00  0.00     0.029 A 
ATOM     13  C   UNL     1       7.575   5.264   0.897  1.00  0.00     0.062 A 
ATOM     14  C   UNL     1       7.500   6.167  -0.172  1.00  0.00     0.162 A 
ATOM     15  C   UNL     1       5.569   6.223   1.858  1.00  0.00     0.062 A 
ATOM     16  C   UNL     1       6.455   7.107  -0.222  1.00  0.00     0.200 A 
ATOM     17  C   UNL     1       5.489   7.130   0.792  1.00  0.00     0.162 A 
BRANCH  14  18
ATOM     18  O   UNL     1       8.455   6.132  -1.187  1.00  0.00    -0.504 OA
ATOM     19  H   UNL     1       9.101   5.358  -1.281  1.00  0.00     0.293 HD
ENDBRANCH  14  18
BRANCH  16  20
ATOM     20  O   UNL     1       6.362   8.019  -1.273  1.00  0.00    -0.502 OA
ATOM     21  H   UNL     1       7.163   8.275  -1.838  1.00  0.00     0.293 HD
ENDBRANCH  16  20
BRANCH  17  22
ATOM     22  O   UNL     1       4.451   8.058   0.734  1.00  0.00    -0.504 OA
ATOM     23  H   UNL     1       3.776   8.052  -0.022  1.00  0.00     0.293 HD
ENDBRANCH  17  22
ENDBRANCH   1  12
BRANCH   2  24
ATOM     24  O   UNL     1       8.532   3.122   2.068  1.00  0.00    -0.502 OA
ATOM     25  H   UNL     1       8.758   3.869   1.423  1.00  0.00     0.293 HD
ENDBRANCH   2  24
BRANCH   6  26
ATOM     26  O   UNL     1       7.140   0.483   6.480  1.00  0.00    -0.507 OA
ATOM     27  H   UNL     1       7.903   0.177   5.896  1.00  0.00     0.293 HD
ENDBRANCH   6  26
BRANCH   8  28
ATOM     28  O   UNL     1       3.888   3.487   8.295  1.00  0.00    -0.508 OA
ATOM     29  H   UNL     1       3.884   2.965   9.163  1.00  0.00     0.293 HD
ENDBRANCH   8  28
TORSDOF 7
ENDMDL
MODEL 8
REMARK VINA RESULT:    -7.211     13.061     14.978
REMARK INTER + INTRA:          -9.250
REMARK INTER:                  -9.115
REMARK INTRA:                  -0.136
REMARK UNBOUND:                -0.353
REMARK SMILES O=c1c(O)c(-c2cc(O)c(O)c(O)c2)oc2cc(O)cc(O)c12
REMARK SMILES IDX 5 1 3 2 2 3 1 4 23 5 21 6 20 7 18 8 17 9 16 10 15 11 6 12
REMARK SMILES IDX 7 13 8 14 14 15 10 16 12 17 9 18 11 20 13 22 4 24 22 26
REMARK SMILES IDX 19 28
REMARK H PARENT 9 19 11 21 13 23 4 25 22 27 19 29
REMARK Flexibility Score: inf
ROOT
ATOM      1  C   UNL     1       1.988  -7.795   3.683  1.00  0.00     0.180 A 
ATOM      2  C   UNL     1       2.109  -8.819   4.639  1.00  0.00     0.208 A 
ATOM      3  C   UNL     1       1.505  -8.653   5.895  1.00  0.00     0.238 A 
ATOM      4  O   UNL     1       1.663  -9.548   6.766  1.00  0.00    -0.285 OA
ATOM      5  C   UNL     1       0.774  -7.472   6.175  1.00  0.00     0.111 A 
ATOM      6  C   UNL     1       0.089  -7.215   7.400  1.00  0.00     0.134 A 
ATOM      7  C   UNL     1      -0.493  -5.959   7.615  1.00  0.00     0.093 A 
ATOM      8  C   UNL     1      -0.469  -4.976   6.627  1.00  0.00     0.123 A 
ATOM      9  C   UNL     1       0.147  -5.238   5.403  1.00  0.00     0.094 A 
ATOM     10  C   UNL     1       0.767  -6.468   5.172  1.00  0.00     0.146 A 
ATOM     11  O   UNL     1       1.352  -6.674   3.998  1.00  0.00    -0.452 OA
ENDROOT
BRANCH   1  12
ATOM     12  C   UNL     1       2.575  -7.909   2.328  1.00  0.00     0.029 A 
ATOM     13  C   UNL     1       2.247  -8.978   1.477  1.00  0.00     0.062 A 
ATOM     14  C   UNL     1       2.794  -9.058   0.189  1.00  0.00     0.162 A 
ATOM     15  C   UNL     1       3.432  -6.901   1.861  1.00  0.00     0.062 A 
ATOM     16  C   UNL     1       3.669  -8.054  -0.262  1.00  0.00     0.200 A 
ATOM     17  C   UNL     1       3.984  -6.976   0.574  1.00  0.00     0.162 A 
BRANCH  14  18
ATOM     18  O   UNL     1       2.468 -10.125  -0.647  1.00  0.00    -0.504 OA
ATOM     19  H   UNL     1       2.344  -9.999  -1.644  1.00  0.00     0.293 HD
ENDBRANCH  14  18
BRANCH  16  20
ATOM     20  O   UNL     1       4.231  -8.114  -1.538  1.00  0.00    -0.502 OA
ATOM     21  H   UNL     1       4.640  -8.963  -1.909  1.00  0.00     0.293 HD
ENDBRANCH  16  20
BRANCH  17  22
ATOM     22  O   UNL     1       4.847  -5.979   0.120  1.00  0.00    -0.504 OA
ATOM     23  H   UNL     1       5.605  -6.186  -0.519  1.00  0.00     0.293 HD
ENDBRANCH  17  22
ENDBRANCH   1  12
BRANCH   2  24
ATOM     24  O   UNL     1       2.853  -9.966   4.350  1.00  0.00    -0.502 OA
ATOM     25  H   UNL     1       2.533 -10.674   3.701  1.00  0.00     0.293 HD
ENDBRANCH   2  24
BRANCH   6  26
ATOM     26  O   UNL     1      -0.074  -8.160   8.417  1.00  0.00    -0.507 OA
ATOM     27  H   UNL     1       0.320  -8.083   9.342  1.00  0.00     0.293 HD
ENDBRANCH   6  26
BRANCH   8  28
ATOM     28  O   UNL     1      -1.071  -3.743   6.870  1.00  0.00    -0.508 OA
ATOM     29  H   UNL     1      -0.525  -2.924   7.106  1.00  0.00     0.293 HD
ENDBRANCH   8  28
TORSDOF 7
ENDMDL
MODEL 9
REMARK VINA RESULT:    -6.829      1.863      6.968
REMARK INTER + INTRA:          -8.779
REMARK INTER:                  -8.465
REMARK INTRA:                  -0.313
REMARK UNBOUND:                -0.353
REMARK SMILES O=c1c(O)c(-c2cc(O)c(O)c(O)c2)oc2cc(O)cc(O)c12
REMARK SMILES IDX 5 1 3 2 2 3 1 4 23 5 21 6 20 7 18 8 17 9 16 10 15 11 6 12
REMARK SMILES IDX 7 13 8 14 14 15 10 16 12 17 9 18 11 20 13 22 4 24 22 26
REMARK SMILES IDX 19 28
REMARK H PARENT 9 19 11 21 13 23 4 25 22 27 19 29
REMARK Flexibility Score: inf
ROOT
ATOM      1  C   UNL     1       6.129   6.247   0.618  1.00  0.00     0.180 A 
ATOM      2  C   UNL     1       5.888   7.592   0.948  1.00  0.00     0.208 A 
ATOM      3  C   UNL     1       5.486   8.481  -0.062  1.00  0.00     0.238 A 
ATOM      4  O   UNL     1       5.325   9.695   0.229  1.00  0.00    -0.285 OA
ATOM      5  C   UNL     1       5.314   8.010  -1.387  1.00  0.00     0.111 A 
ATOM      6  C   UNL     1       4.872   8.814  -2.481  1.00  0.00     0.134 A 
ATOM      7  C   UNL     1       4.864   8.274  -3.774  1.00  0.00     0.093 A 
ATOM      8  C   UNL     1       5.218   6.946  -4.002  1.00  0.00     0.123 A 
ATOM      9  C   UNL     1       5.594   6.135  -2.931  1.00  0.00     0.094 A 
ATOM     10  C   UNL     1       5.648   6.653  -1.635  1.00  0.00     0.146 A 
ATOM     11  O   UNL     1       6.022   5.852  -0.645  1.00  0.00    -0.452 OA
ENDROOT
BRANCH   1  12
ATOM     12  C   UNL     1       6.531   5.247   1.632  1.00  0.00     0.029 A 
ATOM     13  C   UNL     1       5.604   4.725   2.551  1.00  0.00     0.062 A 
ATOM     14  C   UNL     1       5.996   3.760   3.490  1.00  0.00     0.162 A 
ATOM     15  C   UNL     1       7.849   4.765   1.642  1.00  0.00     0.062 A 
ATOM     16  C   UNL     1       7.325   3.301   3.506  1.00  0.00     0.200 A 
ATOM     17  C   UNL     1       8.247   3.802   2.580  1.00  0.00     0.162 A 
BRANCH  14  18
ATOM     18  O   UNL     1       5.072   3.253   4.401  1.00  0.00    -0.504 OA
ATOM     19  H   UNL     1       4.077   3.271   4.213  1.00  0.00     0.293 HD
ENDBRANCH  14  18
BRANCH  16  20
ATOM     20  O   UNL     1       7.740   2.345   4.434  1.00  0.00    -0.502 OA
ATOM     21  H   UNL     1       8.063   1.426   4.155  1.00  0.00     0.293 HD
ENDBRANCH  16  20
BRANCH  17  22
ATOM     22  O   UNL     1       9.562   3.337   2.595  1.00  0.00    -0.504 OA
ATOM     23  H   UNL     1       9.773   2.346   2.616  1.00  0.00     0.293 HD
ENDBRANCH  17  22
ENDBRANCH   1  12
BRANCH   2  24
ATOM     24  O   UNL     1       6.085   8.041   2.257  1.00  0.00    -0.502 OA
ATOM     25  H   UNL     1       5.430   8.655   2.726  1.00  0.00     0.293 HD
ENDBRANCH   2  24
BRANCH   6  26
ATOM     26  O   UNL     1       4.408  10.125  -2.349  1.00  0.00    -0.507 OA
ATOM     27  H   UNL     1       3.436  10.389  -2.299  1.00  0.00     0.293 HD
ENDBRANCH   6  26
BRANCH   8  28
ATOM     28  O   UNL     1       5.182   6.438  -5.299  1.00  0.00    -0.508 OA
ATOM     29  H   UNL     1       6.022   6.354  -5.859  1.00  0.00     0.293 HD
ENDBRANCH   8  28
TORSDOF 7
ENDMDL
