MODEL 1
REMARK VINA RESULT:    -4.300      0.000      0.000
REMARK INTER + INTRA:          -9.788
REMARK INTER:                  -7.820
REMARK INTRA:                  -1.968
REMARK UNBOUND:                -1.968
REMARK SMILES CCCCCC=CCC=CCCCCCCCC(=O)[O-]
REMARK SMILES IDX 11 1 12 2 13 3 14 4 15 5 16 6 17 7 18 8 19 9 20 10 10 11
REMARK SMILES IDX 9 12 8 13 7 14 6 15 5 16 4 17 3 18 2 19 1 20
REMARK H PARENT
REMARK Flexibility Score: inf
ROOT
ATOM      1  C   UNL     1      19.603  19.545  13.681  1.00  0.00     0.027 C 
ENDROOT
BRANCH   1   2
ATOM      2  C   UNL     1      18.611  18.494  14.201  1.00  0.00     0.004 C 
BRANCH   2   3
ATOM      3  C   UNL     1      19.206  17.075  14.233  1.00  0.00     0.000 C 
BRANCH   3   4
ATOM      4  C   UNL     1      20.746  17.012  14.194  1.00  0.00     0.000 C 
BRANCH   4   5
ATOM      5  C   UNL     1      21.432  16.878  15.567  1.00  0.00     0.000 C 
BRANCH   5   6
ATOM      6  C   UNL     1      22.475  17.978  15.821  1.00  0.00     0.006 C 
BRANCH   6   7
ATOM      7  C   UNL     1      21.969  19.038  16.809  1.00  0.00     0.053 C 
BRANCH   7   8
ATOM      8  C   UNL     1      22.579  20.381  16.547  1.00  0.00     0.041 C 
ATOM      9  O   UNL     1      23.486  20.507  15.684  1.00  0.00    -0.550 OA
ATOM     10  O   UNL     1      22.166  21.488  17.279  1.00  0.00    -0.550 OA
ENDBRANCH   7   8
ENDBRANCH   6   7
ENDBRANCH   5   6
ENDBRANCH   4   5
ENDBRANCH   3   4
ENDBRANCH   2   3
ENDBRANCH   1   2
BRANCH   1  11
ATOM     11  C   UNL     1      19.544  20.799  14.508  1.00  0.00    -0.031 C 
ATOM     12  C   UNL     1      18.894  20.836  15.682  1.00  0.00    -0.027 C 
BRANCH  12  13
ATOM     13  C   UNL     1      18.816  22.093  16.501  1.00  0.00     0.054 C 
BRANCH  13  14
ATOM     14  C   UNL     1      17.390  22.411  16.849  1.00  0.00    -0.027 C 
ATOM     15  C   UNL     1      16.415  21.498  16.725  1.00  0.00    -0.031 C 
BRANCH  15  16
ATOM     16  C   UNL     1      14.990  21.810  17.095  1.00  0.00     0.027 C 
BRANCH  16  17
ATOM     17  C   UNL     1      14.277  20.615  17.745  1.00  0.00     0.004 C 
BRANCH  17  18
ATOM     18  C   UNL     1      15.269  19.541  18.224  1.00  0.00     0.000 C 
BRANCH  18  19
ATOM     19  C   UNL     1      15.150  19.259  19.729  1.00  0.00    -0.003 C 
ATOM     20  C   UNL     1      16.502  18.997  20.393  1.00  0.00     0.004 C 
ENDBRANCH  18  19
ENDBRANCH  17  18
ENDBRANCH  16  17
ENDBRANCH  15  16
ENDBRANCH  13  14
ENDBRANCH  12  13
ENDBRANCH   1  11
TORSDOF 14
ENDMDL
MODEL 2
REMARK VINA RESULT:    -4.214      1.805      5.081
REMARK INTER + INTRA:          -9.630
REMARK INTER:                  -7.541
REMARK INTRA:                  -2.089
REMARK UNBOUND:                -1.968
REMARK SMILES CCCCCC=CCC=CCCCCCCCC(=O)[O-]
REMARK SMILES IDX 11 1 12 2 13 3 14 4 15 5 16 6 17 7 18 8 19 9 20 10 10 11
REMARK SMILES IDX 9 12 8 13 7 14 6 15 5 16 4 17 3 18 2 19 1 20
REMARK H PARENT
REMARK Flexibility Score: inf
ROOT
ATOM      1  C   UNL     1      14.890  21.783  17.146  1.00  0.00     0.027 C 
ENDROOT
BRANCH   1   2
ATOM      2  C   UNL     1      16.310  21.318  16.796  1.00  0.00     0.004 C 
BRANCH   2   3
ATOM      3  C   UNL     1      17.313  22.480  16.697  1.00  0.00     0.000 C 
BRANCH   3   4
ATOM      4  C   UNL     1      18.735  22.161  17.201  1.00  0.00     0.000 C 
BRANCH   4   5
ATOM      5  C   UNL     1      19.316  20.819  16.719  1.00  0.00     0.000 C 
BRANCH   5   6
ATOM      6  C   UNL     1      19.615  20.807  15.211  1.00  0.00     0.006 C 
BRANCH   6   7
ATOM      7  C   UNL     1      19.297  19.450  14.568  1.00  0.00     0.053 C 
BRANCH   7   8
ATOM      8  C   UNL     1      20.523  18.600  14.425  1.00  0.00     0.041 C 
ATOM      9  O   UNL     1      20.573  17.705  13.542  1.00  0.00    -0.550 OA
ATOM     10  O   UNL     1      21.598  18.778  15.286  1.00  0.00    -0.550 OA
ENDBRANCH   7   8
ENDBRANCH   6   7
ENDBRANCH   5   6
ENDBRANCH   4   5
ENDBRANCH   3   4
ENDBRANCH   2   3
ENDBRANCH   1   2
BRANCH   1  11
ATOM     11  C   UNL     1      14.031  20.625  17.574  1.00  0.00    -0.031 C 
ATOM     12  C   UNL     1      13.243  20.700  18.657  1.00  0.00    -0.027 C 
BRANCH  12  13
ATOM     13  C   UNL     1      12.398  19.538  19.099  1.00  0.00     0.054 C 
BRANCH  13  14
ATOM     14  C   UNL     1      13.212  18.570  19.911  1.00  0.00    -0.027 C 
ATOM     15  C   UNL     1      14.050  18.989  20.872  1.00  0.00    -0.031 C 
BRANCH  15  16
ATOM     16  C   UNL     1      14.847  18.018  21.700  1.00  0.00     0.027 C 
BRANCH  16  17
ATOM     17  C   UNL     1      16.344  18.042  21.355  1.00  0.00     0.004 C 
BRANCH  17  18
ATOM     18  C   UNL     1      16.696  19.191  20.393  1.00  0.00     0.000 C 
BRANCH  18  19
ATOM     19  C   UNL     1      17.414  18.700  19.128  1.00  0.00    -0.003 C 
ATOM     20  C   UNL     1      16.508  17.879  18.212  1.00  0.00     0.004 C 
ENDBRANCH  18  19
ENDBRANCH  17  18
ENDBRANCH  16  17
ENDBRANCH  15  16
ENDBRANCH  13  14
ENDBRANCH  12  13
ENDBRANCH   1  11
TORSDOF 14
ENDMDL
MODEL 3
REMARK VINA RESULT:    -4.132      2.060      6.200
REMARK INTER + INTRA:          -9.482
REMARK INTER:                  -7.879
REMARK INTRA:                  -1.604
REMARK UNBOUND:                -1.968
REMARK SMILES CCCCCC=CCC=CCCCCCCCC(=O)[O-]
REMARK SMILES IDX 11 1 12 2 13 3 14 4 15 5 16 6 17 7 18 8 19 9 20 10 10 11
REMARK SMILES IDX 9 12 8 13 7 14 6 15 5 16 4 17 3 18 2 19 1 20
REMARK H PARENT
REMARK Flexibility Score: inf
ROOT
ATOM      1  C   UNL     1      15.016  21.936  17.129  1.00  0.00     0.027 C 
ENDROOT
BRANCH   1   2
ATOM      2  C   UNL     1      14.110  20.696  17.100  1.00  0.00     0.004 C 
BRANCH   2   3
ATOM      3  C   UNL     1      13.552  20.331  18.487  1.00  0.00     0.000 C 
BRANCH   3   4
ATOM      4  C   UNL     1      14.116  19.032  19.097  1.00  0.00     0.000 C 
BRANCH   4   5
ATOM      5  C   UNL     1      14.783  19.192  20.476  1.00  0.00     0.000 C 
BRANCH   5   6
ATOM      6  C   UNL     1      16.303  18.964  20.433  1.00  0.00     0.006 C 
BRANCH   6   7
ATOM      7  C   UNL     1      16.838  18.901  18.995  1.00  0.00     0.053 C 
BRANCH   7   8
ATOM      8  C   UNL     1      18.045  18.021  18.887  1.00  0.00     0.041 C 
ATOM      9  O   UNL     1      18.944  18.278  18.045  1.00  0.00    -0.550 OA
ATOM     10  O   UNL     1      18.162  16.898  19.697  1.00  0.00    -0.550 OA
ENDBRANCH   7   8
ENDBRANCH   6   7
ENDBRANCH   5   6
ENDBRANCH   4   5
ENDBRANCH   3   4
ENDBRANCH   2   3
ENDBRANCH   1   2
BRANCH   1  11
ATOM     11  C   UNL     1      16.423  21.587  16.730  1.00  0.00    -0.031 C 
ATOM     12  C   UNL     1      17.445  22.426  16.960  1.00  0.00    -0.027 C 
BRANCH  12  13
ATOM     13  C   UNL     1      18.849  22.090  16.545  1.00  0.00     0.054 C 
BRANCH  13  14
ATOM     14  C   UNL     1      18.879  20.807  15.765  1.00  0.00    -0.027 C 
ATOM     15  C   UNL     1      19.454  20.732  14.555  1.00  0.00    -0.031 C 
BRANCH  15  16
ATOM     16  C   UNL     1      19.504  19.441  13.783  1.00  0.00     0.027 C 
BRANCH  16  17
ATOM     17  C   UNL     1      18.714  18.317  14.469  1.00  0.00     0.004 C 
BRANCH  17  18
ATOM     18  C   UNL     1      19.300  16.927  14.161  1.00  0.00     0.000 C 
BRANCH  18  19
ATOM     19  C   UNL     1      20.750  16.998  13.660  1.00  0.00    -0.003 C 
ATOM     20  C   UNL     1      21.769  16.627  14.738  1.00  0.00     0.004 C 
ENDBRANCH  18  19
ENDBRANCH  17  18
ENDBRANCH  16  17
ENDBRANCH  15  16
ENDBRANCH  13  14
ENDBRANCH  12  13
ENDBRANCH   1  11
TORSDOF 14
ENDMDL
MODEL 4
REMARK VINA RESULT:    -4.108      1.909      4.971
REMARK INTER + INTRA:          -9.438
REMARK INTER:                  -7.302
REMARK INTRA:                  -2.137
REMARK UNBOUND:                -1.968
REMARK SMILES CCCCCC=CCC=CCCCCCCCC(=O)[O-]
REMARK SMILES IDX 11 1 12 2 13 3 14 4 15 5 16 6 17 7 18 8 19 9 20 10 10 11
REMARK SMILES IDX 9 12 8 13 7 14 6 15 5 16 4 17 3 18 2 19 1 20
REMARK H PARENT
REMARK Flexibility Score: inf
ROOT
ATOM      1  C   UNL     1      14.523  21.476  17.511  1.00  0.00     0.027 C 
ENDROOT
BRANCH   1   2
ATOM      2  C   UNL     1      15.688  20.984  16.639  1.00  0.00     0.004 C 
BRANCH   2   3
ATOM      3  C   UNL     1      16.924  21.897  16.722  1.00  0.00     0.000 C 
BRANCH   3   4
ATOM      4  C   UNL     1      18.200  21.329  16.070  1.00  0.00     0.000 C 
BRANCH   4   5
ATOM      5  C   UNL     1      19.265  20.813  17.056  1.00  0.00     0.000 C 
BRANCH   5   6
ATOM      6  C   UNL     1      19.853  19.454  16.639  1.00  0.00     0.006 C 
BRANCH   6   7
ATOM      7  C   UNL     1      21.380  19.413  16.792  1.00  0.00     0.053 C 
BRANCH   7   8
ATOM      8  C   UNL     1      22.038  20.585  16.130  1.00  0.00     0.041 C 
ATOM      9  O   UNL     1      22.568  21.491  16.825  1.00  0.00    -0.550 OA
ATOM     10  O   UNL     1      22.040  20.691  14.744  1.00  0.00    -0.550 OA
ENDBRANCH   7   8
ENDBRANCH   6   7
ENDBRANCH   5   6
ENDBRANCH   4   5
ENDBRANCH   3   4
ENDBRANCH   2   3
ENDBRANCH   1   2
BRANCH   1  11
ATOM     11  C   UNL     1      13.721  20.321  18.043  1.00  0.00    -0.031 C 
ATOM     12  C   UNL     1      12.805  20.490  19.009  1.00  0.00    -0.027 C 
BRANCH  12  13
ATOM     13  C   UNL     1      12.016  19.335  19.558  1.00  0.00     0.054 C 
BRANCH  13  14
ATOM     14  C   UNL     1      12.921  18.355  20.248  1.00  0.00    -0.027 C 
ATOM     15  C   UNL     1      13.752  18.736  21.230  1.00  0.00    -0.031 C 
BRANCH  15  16
ATOM     16  C   UNL     1      14.643  17.750  21.937  1.00  0.00     0.027 C 
BRANCH  16  17
ATOM     17  C   UNL     1      16.130  17.977  21.630  1.00  0.00     0.004 C 
BRANCH  17  18
ATOM     18  C   UNL     1      16.367  19.282  20.849  1.00  0.00     0.000 C 
BRANCH  18  19
ATOM     19  C   UNL     1      17.073  19.045  19.506  1.00  0.00    -0.003 C 
ATOM     20  C   UNL     1      16.448  17.907  18.700  1.00  0.00     0.004 C 
ENDBRANCH  18  19
ENDBRANCH  17  18
ENDBRANCH  16  17
ENDBRANCH  15  16
ENDBRANCH  13  14
ENDBRANCH  12  13
ENDBRANCH   1  11
TORSDOF 14
ENDMDL
MODEL 5
REMARK VINA RESULT:    -4.094      1.899      3.224
REMARK INTER + INTRA:          -9.413
REMARK INTER:                  -7.812
REMARK INTRA:                  -1.601
REMARK UNBOUND:                -1.968
REMARK SMILES CCCCCC=CCC=CCCCCCCCC(=O)[O-]
REMARK SMILES IDX 11 1 12 2 13 3 14 4 15 5 16 6 17 7 18 8 19 9 20 10 10 11
REMARK SMILES IDX 9 12 8 13 7 14 6 15 5 16 4 17 3 18 2 19 1 20
REMARK H PARENT
REMARK Flexibility Score: inf
ROOT
ATOM      1  C   UNL     1      18.492  21.620  16.493  1.00  0.00     0.027 C 
ENDROOT
BRANCH   1   2
ATOM      2  C   UNL     1      18.465  20.386  15.580  1.00  0.00     0.004 C 
BRANCH   2   3
ATOM      3  C   UNL     1      19.777  19.583  15.621  1.00  0.00     0.000 C 
BRANCH   3   4
ATOM      4  C   UNL     1      20.684  19.876  16.833  1.00  0.00     0.000 C 
BRANCH   4   5
ATOM      5  C   UNL     1      22.192  19.685  16.585  1.00  0.00     0.000 C 
BRANCH   5   6
ATOM      6  C   UNL     1      22.764  20.703  15.585  1.00  0.00     0.006 C 
BRANCH   6   7
ATOM      7  C   UNL     1      24.277  20.896  15.757  1.00  0.00     0.053 C 
BRANCH   7   8
ATOM      8  C   UNL     1      24.731  22.230  15.249  1.00  0.00     0.041 C 
ATOM      9  O   UNL     1      24.308  22.665  14.147  1.00  0.00    -0.550 OA
ATOM     10  O   UNL     1      25.646  22.979  15.979  1.00  0.00    -0.550 OA
ENDBRANCH   7   8
ENDBRANCH   6   7
ENDBRANCH   5   6
ENDBRANCH   4   5
ENDBRANCH   3   4
ENDBRANCH   2   3
ENDBRANCH   1   2
BRANCH   1  11
ATOM     11  C   UNL     1      17.105  22.155  16.720  1.00  0.00    -0.031 C 
ATOM     12  C   UNL     1      16.050  21.336  16.850  1.00  0.00    -0.027 C 
BRANCH  12  13
ATOM     13  C   UNL     1      14.660  21.867  17.057  1.00  0.00     0.054 C 
BRANCH  13  14
ATOM     14  C   UNL     1      13.980  21.145  18.185  1.00  0.00    -0.027 C 
ATOM     15  C   UNL     1      13.897  19.806  18.215  1.00  0.00    -0.031 C 
BRANCH  15  16
ATOM     16  C   UNL     1      13.235  19.082  19.356  1.00  0.00     0.027 C 
BRANCH  16  17
ATOM     17  C   UNL     1      14.168  18.918  20.566  1.00  0.00     0.004 C 
BRANCH  17  18
ATOM     18  C   UNL     1      15.423  18.096  20.221  1.00  0.00     0.000 C 
BRANCH  18  19
ATOM     19  C   UNL     1      16.713  18.923  20.319  1.00  0.00    -0.003 C 
ATOM     20  C   UNL     1      17.522  18.915  19.022  1.00  0.00     0.004 C 
ENDBRANCH  18  19
ENDBRANCH  17  18
ENDBRANCH  16  17
ENDBRANCH  15  16
ENDBRANCH  13  14
ENDBRANCH  12  13
ENDBRANCH   1  11
TORSDOF 14
ENDMDL
MODEL 6
REMARK VINA RESULT:    -4.085      1.485      2.820
REMARK INTER + INTRA:          -9.397
REMARK INTER:                  -7.675
REMARK INTRA:                  -1.722
REMARK UNBOUND:                -1.968
REMARK SMILES CCCCCC=CCC=CCCCCCCCC(=O)[O-]
REMARK SMILES IDX 11 1 12 2 13 3 14 4 15 5 16 6 17 7 18 8 19 9 20 10 10 11
REMARK SMILES IDX 9 12 8 13 7 14 6 15 5 16 4 17 3 18 2 19 1 20
REMARK H PARENT
REMARK Flexibility Score: inf
ROOT
ATOM      1  C   UNL     1      19.843  16.551  14.124  1.00  0.00     0.027 C 
ENDROOT
BRANCH   1   2
ATOM      2  C   UNL     1      21.246  15.998  14.414  1.00  0.00     0.004 C 
BRANCH   2   3
ATOM      3  C   UNL     1      21.704  16.261  15.860  1.00  0.00     0.000 C 
BRANCH   3   4
ATOM      4  C   UNL     1      23.232  16.271  16.068  1.00  0.00     0.000 C 
BRANCH   4   5
ATOM      5  C   UNL     1      23.894  17.660  15.996  1.00  0.00     0.000 C 
BRANCH   5   6
ATOM      6  C   UNL     1      22.968  18.787  16.481  1.00  0.00     0.006 C 
BRANCH   6   7
ATOM      7  C   UNL     1      23.414  20.163  15.968  1.00  0.00     0.053 C 
BRANCH   7   8
ATOM      8  C   UNL     1      23.550  21.156  17.081  1.00  0.00     0.041 C 
ATOM      9  O   UNL     1      24.684  21.603  17.396  1.00  0.00    -0.550 OA
ATOM     10  O   UNL     1      22.428  21.566  17.790  1.00  0.00    -0.550 OA
ENDBRANCH   7   8
ENDBRANCH   6   7
ENDBRANCH   5   6
ENDBRANCH   4   5
ENDBRANCH   3   4
ENDBRANCH   2   3
ENDBRANCH   1   2
BRANCH   1  11
ATOM     11  C   UNL     1      19.757  18.014  14.461  1.00  0.00    -0.031 C 
ATOM     12  C   UNL     1      20.402  18.940  13.734  1.00  0.00    -0.027 C 
BRANCH  12  13
ATOM     13  C   UNL     1      20.336  20.400  14.080  1.00  0.00     0.054 C 
BRANCH  13  14
ATOM     14  C   UNL     1      19.163  20.680  14.976  1.00  0.00    -0.027 C 
ATOM     15  C   UNL     1      19.315  21.281  16.167  1.00  0.00    -0.031 C 
BRANCH  15  16
ATOM     16  C   UNL     1      18.138  21.581  17.054  1.00  0.00     0.027 C 
BRANCH  16  17
ATOM     17  C   UNL     1      16.840  20.936  16.546  1.00  0.00     0.004 C 
BRANCH  17  18
ATOM     18  C   UNL     1      15.591  21.710  17.005  1.00  0.00     0.000 C 
BRANCH  18  19
ATOM     19  C   UNL     1      14.324  20.842  16.996  1.00  0.00    -0.003 C 
ATOM     20  C   UNL     1      13.685  20.710  18.378  1.00  0.00     0.004 C 
ENDBRANCH  18  19
ENDBRANCH  17  18
ENDBRANCH  16  17
ENDBRANCH  15  16
ENDBRANCH  13  14
ENDBRANCH  12  13
ENDBRANCH   1  11
TORSDOF 14
ENDMDL
MODEL 7
REMARK VINA RESULT:    -4.085      1.666      3.821
REMARK INTER + INTRA:          -9.396
REMARK INTER:                  -7.284
REMARK INTRA:                  -2.112
REMARK UNBOUND:                -1.968
REMARK SMILES CCCCCC=CCC=CCCCCCCCC(=O)[O-]
REMARK SMILES IDX 11 1 12 2 13 3 14 4 15 5 16 6 17 7 18 8 19 9 20 10 10 11
REMARK SMILES IDX 9 12 8 13 7 14 6 15 5 16 4 17 3 18 2 19 1 20
REMARK H PARENT
REMARK Flexibility Score: inf
ROOT
ATOM      1  C   UNL     1      18.392  19.070  17.429  1.00  0.00     0.027 C 
ENDROOT
BRANCH   1   2
ATOM      2  C   UNL     1      18.409  20.605  17.369  1.00  0.00     0.004 C 
BRANCH   2   3
ATOM      3  C   UNL     1      18.537  21.145  15.934  1.00  0.00     0.000 C 
BRANCH   3   4
ATOM      4  C   UNL     1      18.749  20.071  14.848  1.00  0.00     0.000 C 
BRANCH   4   5
ATOM      5  C   UNL     1      20.156  20.040  14.222  1.00  0.00     0.000 C 
BRANCH   5   6
ATOM      6  C   UNL     1      21.236  19.561  15.205  1.00  0.00     0.006 C 
BRANCH   6   7
ATOM      7  C   UNL     1      22.309  20.630  15.452  1.00  0.00     0.053 C 
BRANCH   7   8
ATOM      8  C   UNL     1      22.452  20.952  16.908  1.00  0.00     0.041 C 
ATOM      9  O   UNL     1      21.713  21.820  17.441  1.00  0.00    -0.550 OA
ATOM     10  O   UNL     1      23.423  20.313  17.670  1.00  0.00    -0.550 OA
ENDBRANCH   7   8
ENDBRANCH   6   7
ENDBRANCH   5   6
ENDBRANCH   4   5
ENDBRANCH   3   4
ENDBRANCH   2   3
ENDBRANCH   1   2
BRANCH   1  11
ATOM     11  C   UNL     1      17.320  18.578  18.362  1.00  0.00    -0.031 C 
ATOM     12  C   UNL     1      17.215  19.041  19.617  1.00  0.00    -0.027 C 
BRANCH  12  13
ATOM     13  C   UNL     1      16.158  18.537  20.558  1.00  0.00     0.054 C 
BRANCH  13  14
ATOM     14  C   UNL     1      14.852  19.237  20.311  1.00  0.00    -0.027 C 
ATOM     15  C   UNL     1      13.822  18.616  19.715  1.00  0.00    -0.031 C 
BRANCH  15  16
ATOM     16  C   UNL     1      12.506  19.311  19.489  1.00  0.00     0.027 C 
BRANCH  16  17
ATOM     17  C   UNL     1      12.632  20.511  18.539  1.00  0.00     0.004 C 
BRANCH  17  18
ATOM     18  C   UNL     1      13.065  20.085  17.124  1.00  0.00     0.000 C 
BRANCH  18  19
ATOM     19  C   UNL     1      14.516  20.475  16.810  1.00  0.00    -0.003 C 
ATOM     20  C   UNL     1      14.854  21.902  17.241  1.00  0.00     0.004 C 
ENDBRANCH  18  19
ENDBRANCH  17  18
ENDBRANCH  16  17
ENDBRANCH  15  16
ENDBRANCH  13  14
ENDBRANCH  12  13
ENDBRANCH   1  11
TORSDOF 14
ENDMDL
MODEL 8
REMARK VINA RESULT:    -4.078      1.697      2.755
REMARK INTER + INTRA:          -9.384
REMARK INTER:                  -6.992
REMARK INTRA:                  -2.392
REMARK UNBOUND:                -1.968
REMARK SMILES CCCCCC=CCC=CCCCCCCCC(=O)[O-]
REMARK SMILES IDX 11 1 12 2 13 3 14 4 15 5 16 6 17 7 18 8 19 9 20 10 10 11
REMARK SMILES IDX 9 12 8 13 7 14 6 15 5 16 4 17 3 18 2 19 1 20
REMARK H PARENT
REMARK Flexibility Score: inf
ROOT
ATOM      1  C   UNL     1      18.208  18.796  17.400  1.00  0.00     0.027 C 
ENDROOT
BRANCH   1   2
ATOM      2  C   UNL     1      17.629  17.875  16.316  1.00  0.00     0.004 C 
BRANCH   2   3
ATOM      3  C   UNL     1      18.582  17.684  15.123  1.00  0.00     0.000 C 
BRANCH   3   4
ATOM      4  C   UNL     1      18.604  18.850  14.113  1.00  0.00     0.000 C 
BRANCH   4   5
ATOM      5  C   UNL     1      19.966  19.548  13.947  1.00  0.00     0.000 C 
BRANCH   5   6
ATOM      6  C   UNL     1      20.151  20.731  14.913  1.00  0.00     0.006 C 
BRANCH   6   7
ATOM      7  C   UNL     1      21.101  20.391  16.069  1.00  0.00     0.053 C 
BRANCH   7   8
ATOM      8  C   UNL     1      21.162  21.492  17.083  1.00  0.00     0.041 C 
ATOM      9  O   UNL     1      22.216  21.689  17.742  1.00  0.00    -0.550 OA
ATOM     10  O   UNL     1      20.043  22.281  17.322  1.00  0.00    -0.550 OA
ENDBRANCH   7   8
ENDBRANCH   6   7
ENDBRANCH   5   6
ENDBRANCH   4   5
ENDBRANCH   3   4
ENDBRANCH   2   3
ENDBRANCH   1   2
BRANCH   1  11
ATOM     11  C   UNL     1      17.356  20.022  17.579  1.00  0.00    -0.031 C 
ATOM     12  C   UNL     1      16.507  20.431  16.623  1.00  0.00    -0.027 C 
BRANCH  12  13
ATOM     13  C   UNL     1      15.669  21.667  16.790  1.00  0.00     0.054 C 
BRANCH  13  14
ATOM     14  C   UNL     1      14.633  21.464  17.859  1.00  0.00    -0.027 C 
ATOM     15  C   UNL     1      13.613  20.608  17.697  1.00  0.00    -0.031 C 
BRANCH  15  16
ATOM     16  C   UNL     1      12.588  20.388  18.777  1.00  0.00     0.027 C 
BRANCH  16  17
ATOM     17  C   UNL     1      12.996  19.275  19.754  1.00  0.00     0.004 C 
BRANCH  17  18
ATOM     18  C   UNL     1      14.043  18.325  19.145  1.00  0.00     0.000 C 
BRANCH  18  19
ATOM     19  C   UNL     1      15.098  17.879  20.167  1.00  0.00    -0.003 C 
ATOM     20  C   UNL     1      15.920  19.044  20.718  1.00  0.00     0.004 C 
ENDBRANCH  18  19
ENDBRANCH  17  18
ENDBRANCH  16  17
ENDBRANCH  15  16
ENDBRANCH  13  14
ENDBRANCH  12  13
ENDBRANCH   1  11
TORSDOF 14
ENDMDL
MODEL 9
REMARK VINA RESULT:    -4.052      1.873      5.875
REMARK INTER + INTRA:          -9.337
REMARK INTER:                  -7.233
REMARK INTRA:                  -2.104
REMARK UNBOUND:                -1.968
REMARK SMILES CCCCCC=CCC=CCCCCCCCC(=O)[O-]
REMARK SMILES IDX 11 1 12 2 13 3 14 4 15 5 16 6 17 7 18 8 19 9 20 10 10 11
REMARK SMILES IDX 9 12 8 13 7 14 6 15 5 16 4 17 3 18 2 19 1 20
REMARK H PARENT
REMARK Flexibility Score: inf
ROOT
ATOM      1  C   UNL     1      14.161  20.363  18.451  1.00  0.00     0.027 C 
ENDROOT
BRANCH   1   2
ATOM      2  C   UNL     1      14.486  21.269  17.254  1.00  0.00     0.004 C 
BRANCH   2   3
ATOM      3  C   UNL     1      15.927  21.092  16.744  1.00  0.00     0.000 C 
BRANCH   3   4
ATOM      4  C   UNL     1      16.817  22.346  16.854  1.00  0.00     0.000 C 
BRANCH   4   5
ATOM      5  C   UNL     1      18.283  22.149  16.428  1.00  0.00     0.000 C 
BRANCH   5   6
ATOM      6  C   UNL     1      18.685  20.667  16.341  1.00  0.00     0.006 C 
BRANCH   6   7
ATOM      7  C   UNL     1      20.098  20.483  15.771  1.00  0.00     0.053 C 
BRANCH   7   8
ATOM      8  C   UNL     1      20.086  20.370  14.277  1.00  0.00     0.041 C 
ATOM      9  O   UNL     1      21.125  20.624  13.614  1.00  0.00    -0.550 OA
ATOM     10  O   UNL     1      18.918  20.013  13.615  1.00  0.00    -0.550 OA
ENDBRANCH   7   8
ENDBRANCH   6   7
ENDBRANCH   5   6
ENDBRANCH   4   5
ENDBRANCH   3   4
ENDBRANCH   2   3
ENDBRANCH   1   2
BRANCH   1  11
ATOM     11  C   UNL     1      15.262  19.367  18.690  1.00  0.00    -0.031 C 
ATOM     12  C   UNL     1      15.841  19.237  19.893  1.00  0.00    -0.027 C 
BRANCH  12  13
ATOM     13  C   UNL     1      16.955  18.257  20.131  1.00  0.00     0.054 C 
BRANCH  13  14
ATOM     14  C   UNL     1      17.833  18.149  18.917  1.00  0.00    -0.027 C 
ATOM     15  C   UNL     1      17.749  17.103  18.080  1.00  0.00    -0.031 C 
BRANCH  15  16
ATOM     16  C   UNL     1      18.613  17.006  16.851  1.00  0.00     0.027 C 
BRANCH  16  17
ATOM     17  C   UNL     1      20.112  17.043  17.183  1.00  0.00     0.004 C 
BRANCH  17  18
ATOM     18  C   UNL     1      20.987  16.875  15.929  1.00  0.00     0.000 C 
BRANCH  18  19
ATOM     19  C   UNL     1      20.155  16.677  14.653  1.00  0.00    -0.003 C 
ATOM     20  C   UNL     1      20.991  16.783  13.378  1.00  0.00     0.004 C 
ENDBRANCH  18  19
ENDBRANCH  17  18
ENDBRANCH  16  17
ENDBRANCH  15  16
ENDBRANCH  13  14
ENDBRANCH  12  13
ENDBRANCH   1  11
TORSDOF 14
ENDMDL
