MODEL 1
REMARK VINA RESULT:    -4.501      0.000      0.000
REMARK INTER + INTRA:          -7.102
REMARK INTER:                  -6.343
REMARK INTRA:                  -0.759
REMARK UNBOUND:                -0.759
REMARK SMILES CCCCCCCCC(=O)[O-]
REMARK SMILES IDX 6 1 7 2 8 3 9 4 10 5 11 6 5 7 4 8 3 9 2 10 1 11
REMARK H PARENT
REMARK Flexibility Score: inf
ROOT
ATOM      1  C   UNL     1     -27.755 -34.473 -12.253  1.00  0.00     0.000 C 
ENDROOT
BRANCH   1   2
ATOM      2  C   UNL     1     -26.470 -34.638 -11.429  1.00  0.00     0.006 C 
BRANCH   2   3
ATOM      3  C   UNL     1     -25.224 -34.178 -12.197  1.00  0.00     0.053 C 
BRANCH   3   4
ATOM      4  C   UNL     1     -24.396 -35.336 -12.661  1.00  0.00     0.041 C 
ATOM      5  O   UNL     1     -24.954 -36.380 -13.092  1.00  0.00    -0.550 OA
ATOM      6  O   UNL     1     -23.010 -35.250 -12.651  1.00  0.00    -0.550 OA
ENDBRANCH   3   4
ENDBRANCH   2   3
ENDBRANCH   1   2
BRANCH   1   7
ATOM      7  C   UNL     1     -27.571 -33.422 -13.354  1.00  0.00     0.000 C 
BRANCH   7   8
ATOM      8  C   UNL     1     -28.432 -32.182 -13.083  1.00  0.00    -0.000 C 
BRANCH   8   9
ATOM      9  C   UNL     1     -27.553 -30.961 -12.769  1.00  0.00    -0.000 C 
BRANCH   9  10
ATOM     10  C   UNL     1     -27.619 -30.551 -11.290  1.00  0.00    -0.003 C 
ATOM     11  C   UNL     1     -26.405 -31.025 -10.491  1.00  0.00     0.004 C 
ENDBRANCH   9  10
ENDBRANCH   8   9
ENDBRANCH   7   8
ENDBRANCH   1   7
TORSDOF 7
ENDMDL
MODEL 2
REMARK VINA RESULT:    -4.446      1.496      2.991
REMARK INTER + INTRA:          -7.025
REMARK INTER:                  -6.140
REMARK INTRA:                  -0.885
REMARK UNBOUND:                -0.759
REMARK SMILES CCCCCCCCC(=O)[O-]
REMARK SMILES IDX 6 1 7 2 8 3 9 4 10 5 11 6 5 7 4 8 3 9 2 10 1 11
REMARK H PARENT
REMARK Flexibility Score: inf
ROOT
ATOM      1  C   UNL     1     -25.226 -31.391 -12.376  1.00  0.00     0.000 C 
ENDROOT
BRANCH   1   2
ATOM      2  C   UNL     1     -24.906 -32.623 -11.516  1.00  0.00     0.006 C 
BRANCH   2   3
ATOM      3  C   UNL     1     -24.228 -33.736 -12.325  1.00  0.00     0.053 C 
BRANCH   3   4
ATOM      4  C   UNL     1     -24.889 -35.063 -12.109  1.00  0.00     0.041 C 
ATOM      5  O   UNL     1     -25.729 -35.208 -11.182  1.00  0.00    -0.550 OA
ATOM      6  O   UNL     1     -24.602 -36.129 -12.952  1.00  0.00    -0.550 OA
ENDBRANCH   3   4
ENDBRANCH   2   3
ENDBRANCH   1   2
BRANCH   1   7
ATOM      7  C   UNL     1     -26.604 -31.524 -13.035  1.00  0.00     0.000 C 
BRANCH   7   8
ATOM      8  C   UNL     1     -27.616 -32.159 -12.073  1.00  0.00    -0.000 C 
BRANCH   8   9
ATOM      9  C   UNL     1     -28.310 -33.366 -12.723  1.00  0.00    -0.000 C 
BRANCH   9  10
ATOM     10  C   UNL     1     -27.715 -33.722 -14.094  1.00  0.00    -0.003 C 
ATOM     11  C   UNL     1     -27.740 -35.224 -14.377  1.00  0.00     0.004 C 
ENDBRANCH   9  10
ENDBRANCH   8   9
ENDBRANCH   7   8
ENDBRANCH   1   7
TORSDOF 7
ENDMDL
MODEL 3
REMARK VINA RESULT:    -4.291      2.317      4.269
REMARK INTER + INTRA:          -6.807
REMARK INTER:                  -6.116
REMARK INTRA:                  -0.691
REMARK UNBOUND:                -0.759
REMARK SMILES CCCCCCCCC(=O)[O-]
REMARK SMILES IDX 6 1 7 2 8 3 9 4 10 5 11 6 5 7 4 8 3 9 2 10 1 11
REMARK H PARENT
REMARK Flexibility Score: inf
ROOT
ATOM      1  C   UNL     1     -28.611 -32.972 -12.754  1.00  0.00     0.000 C 
ENDROOT
BRANCH   1   2
ATOM      2  C   UNL     1     -28.448 -31.459 -12.962  1.00  0.00     0.006 C 
BRANCH   2   3
ATOM      3  C   UNL     1     -27.921 -30.754 -11.705  1.00  0.00     0.053 C 
BRANCH   3   4
ATOM      4  C   UNL     1     -26.482 -31.081 -11.444  1.00  0.00     0.041 C 
ATOM      5  O   UNL     1     -26.101 -31.368 -10.279  1.00  0.00    -0.550 OA
ATOM      6  O   UNL     1     -25.572 -31.104 -12.493  1.00  0.00    -0.550 OA
ENDBRANCH   3   4
ENDBRANCH   2   3
ENDBRANCH   1   2
BRANCH   1   7
ATOM      7  C   UNL     1     -27.832 -33.760 -13.814  1.00  0.00     0.000 C 
BRANCH   7   8
ATOM      8  C   UNL     1     -27.202 -35.021 -13.211  1.00  0.00    -0.000 C 
BRANCH   8   9
ATOM      9  C   UNL     1     -26.571 -34.720 -11.843  1.00  0.00    -0.000 C 
BRANCH   9  10
ATOM     10  C   UNL     1     -25.046 -34.545 -11.921  1.00  0.00    -0.003 C 
ATOM     11  C   UNL     1     -24.357 -35.691 -12.662  1.00  0.00     0.004 C 
ENDBRANCH   9  10
ENDBRANCH   8   9
ENDBRANCH   7   8
ENDBRANCH   1   7
TORSDOF 7
ENDMDL
MODEL 4
REMARK VINA RESULT:    -4.260      3.078      4.770
REMARK INTER + INTRA:          -6.762
REMARK INTER:                  -5.983
REMARK INTRA:                  -0.779
REMARK UNBOUND:                -0.759
REMARK SMILES CCCCCCCCC(=O)[O-]
REMARK SMILES IDX 6 1 7 2 8 3 9 4 10 5 11 6 5 7 4 8 3 9 2 10 1 11
REMARK H PARENT
REMARK Flexibility Score: inf
ROOT
ATOM      1  C   UNL     1     -25.298 -32.483 -11.189  1.00  0.00     0.000 C 
ENDROOT
BRANCH   1   2
ATOM      2  C   UNL     1     -25.461 -31.146 -11.929  1.00  0.00     0.006 C 
BRANCH   2   3
ATOM      3  C   UNL     1     -26.511 -31.225 -13.045  1.00  0.00     0.053 C 
BRANCH   3   4
ATOM      4  C   UNL     1     -27.889 -30.937 -12.535  1.00  0.00     0.041 C 
ATOM      5  O   UNL     1     -28.897 -31.274 -13.210  1.00  0.00    -0.550 OA
ATOM      6  O   UNL     1     -28.061 -30.328 -11.298  1.00  0.00    -0.550 OA
ENDBRANCH   3   4
ENDBRANCH   2   3
ENDBRANCH   1   2
BRANCH   1   7
ATOM      7  C   UNL     1     -24.628 -33.530 -12.086  1.00  0.00     0.000 C 
BRANCH   7   8
ATOM      8  C   UNL     1     -25.479 -34.802 -12.180  1.00  0.00    -0.000 C 
BRANCH   8   9
ATOM      9  C   UNL     1     -26.870 -34.579 -11.566  1.00  0.00    -0.000 C 
BRANCH   9  10
ATOM     10  C   UNL     1     -27.994 -34.642 -12.611  1.00  0.00    -0.003 C 
ATOM     11  C   UNL     1     -27.488 -35.028 -14.001  1.00  0.00     0.004 C 
ENDBRANCH   9  10
ENDBRANCH   8   9
ENDBRANCH   7   8
ENDBRANCH   1   7
TORSDOF 7
ENDMDL
MODEL 5
REMARK VINA RESULT:    -4.210      3.066      4.467
REMARK INTER + INTRA:          -6.692
REMARK INTER:                  -6.012
REMARK INTRA:                  -0.680
REMARK UNBOUND:                -0.759
REMARK SMILES CCCCCCCCC(=O)[O-]
REMARK SMILES IDX 6 1 7 2 8 3 9 4 10 5 11 6 5 7 4 8 3 9 2 10 1 11
REMARK H PARENT
REMARK Flexibility Score: inf
ROOT
ATOM      1  C   UNL     1     -27.666 -33.778 -13.827  1.00  0.00     0.000 C 
ENDROOT
BRANCH   1   2
ATOM      2  C   UNL     1     -28.370 -32.943 -12.747  1.00  0.00     0.006 C 
BRANCH   2   3
ATOM      3  C   UNL     1     -28.604 -31.494 -13.194  1.00  0.00     0.053 C 
BRANCH   3   4
ATOM      4  C   UNL     1     -27.725 -30.534 -12.453  1.00  0.00     0.041 C 
ATOM      5  O   UNL     1     -26.800 -29.929 -13.057  1.00  0.00    -0.550 OA
ATOM      6  O   UNL     1     -27.948 -30.281 -11.106  1.00  0.00    -0.550 OA
ENDBRANCH   3   4
ENDBRANCH   2   3
ENDBRANCH   1   2
BRANCH   1   7
ATOM      7  C   UNL     1     -27.021 -35.030 -13.221  1.00  0.00     0.000 C 
BRANCH   7   8
ATOM      8  C   UNL     1     -26.251 -34.687 -11.939  1.00  0.00    -0.000 C 
BRANCH   8   9
ATOM      9  C   UNL     1     -24.752 -34.516 -12.228  1.00  0.00    -0.000 C 
BRANCH   9  10
ATOM     10  C   UNL     1     -24.305 -33.047 -12.182  1.00  0.00    -0.003 C 
ATOM     11  C   UNL     1     -24.932 -32.275 -11.020  1.00  0.00     0.004 C 
ENDBRANCH   9  10
ENDBRANCH   8   9
ENDBRANCH   7   8
ENDBRANCH   1   7
TORSDOF 7
ENDMDL
MODEL 6
REMARK VINA RESULT:    -4.197      1.526      2.934
REMARK INTER + INTRA:          -6.674
REMARK INTER:                  -5.815
REMARK INTRA:                  -0.859
REMARK UNBOUND:                -0.759
REMARK SMILES CCCCCCCCC(=O)[O-]
REMARK SMILES IDX 6 1 7 2 8 3 9 4 10 5 11 6 5 7 4 8 3 9 2 10 1 11
REMARK H PARENT
REMARK Flexibility Score: inf
ROOT
ATOM      1  C   UNL     1     -28.594 -31.402 -13.019  1.00  0.00     0.000 C 
ENDROOT
BRANCH   1   2
ATOM      2  C   UNL     1     -28.538 -32.914 -12.752  1.00  0.00     0.006 C 
BRANCH   2   3
ATOM      3  C   UNL     1     -27.426 -33.604 -13.552  1.00  0.00     0.053 C 
BRANCH   3   4
ATOM      4  C   UNL     1     -26.759 -34.687 -12.760  1.00  0.00     0.041 C 
ATOM      5  O   UNL     1     -26.042 -35.545 -13.340  1.00  0.00    -0.550 OA
ATOM      6  O   UNL     1     -26.901 -34.727 -11.378  1.00  0.00    -0.550 OA
ENDBRANCH   3   4
ENDBRANCH   2   3
ENDBRANCH   1   2
BRANCH   1   7
ATOM      7  C   UNL     1     -27.326 -30.707 -12.510  1.00  0.00     0.000 C 
BRANCH   7   8
ATOM      8  C   UNL     1     -27.198 -30.841 -10.987  1.00  0.00    -0.000 C 
BRANCH   8   9
ATOM      9  C   UNL     1     -25.866 -31.504 -10.604  1.00  0.00    -0.000 C 
BRANCH   9  10
ATOM     10  C   UNL     1     -24.829 -31.444 -11.736  1.00  0.00    -0.003 C 
ATOM     11  C   UNL     1     -23.879 -32.642 -11.731  1.00  0.00     0.004 C 
ENDBRANCH   9  10
ENDBRANCH   8   9
ENDBRANCH   7   8
ENDBRANCH   1   7
TORSDOF 7
ENDMDL
MODEL 7
REMARK VINA RESULT:    -4.142      1.803      3.171
REMARK INTER + INTRA:          -6.597
REMARK INTER:                  -6.037
REMARK INTRA:                  -0.560
REMARK UNBOUND:                -0.759
REMARK SMILES CCCCCCCCC(=O)[O-]
REMARK SMILES IDX 6 1 7 2 8 3 9 4 10 5 11 6 5 7 4 8 3 9 2 10 1 11
REMARK H PARENT
REMARK Flexibility Score: inf
ROOT
ATOM      1  C   UNL     1     -25.785 -34.774 -11.364  1.00  0.00     0.000 C 
ENDROOT
BRANCH   1   2
ATOM      2  C   UNL     1     -24.582 -35.224 -12.206  1.00  0.00     0.006 C 
BRANCH   2   3
ATOM      3  C   UNL     1     -23.618 -34.069 -12.507  1.00  0.00     0.053 C 
BRANCH   3   4
ATOM      4  C   UNL     1     -22.262 -34.564 -12.905  1.00  0.00     0.041 C 
ATOM      5  O   UNL     1     -21.625 -33.990 -13.828  1.00  0.00    -0.550 OA
ATOM      6  O   UNL     1     -21.687 -35.636 -12.235  1.00  0.00    -0.550 OA
ENDBRANCH   3   4
ENDBRANCH   2   3
ENDBRANCH   1   2
BRANCH   1   7
ATOM      7  C   UNL     1     -25.882 -33.244 -11.318  1.00  0.00     0.000 C 
BRANCH   7   8
ATOM      8  C   UNL     1     -27.269 -32.766 -11.765  1.00  0.00    -0.000 C 
BRANCH   8   9
ATOM      9  C   UNL     1     -28.053 -33.904 -12.437  1.00  0.00    -0.000 C 
BRANCH   9  10
ATOM     10  C   UNL     1     -27.947 -33.869 -13.969  1.00  0.00    -0.003 C 
ATOM     11  C   UNL     1     -27.704 -35.251 -14.576  1.00  0.00     0.004 C 
ENDBRANCH   9  10
ENDBRANCH   8   9
ENDBRANCH   7   8
ENDBRANCH   1   7
TORSDOF 7
ENDMDL
MODEL 8
REMARK VINA RESULT:    -3.924      2.742      4.203
REMARK INTER + INTRA:          -6.289
REMARK INTER:                  -5.621
REMARK INTRA:                  -0.668
REMARK UNBOUND:                -0.759
REMARK SMILES CCCCCCCCC(=O)[O-]
REMARK SMILES IDX 6 1 7 2 8 3 9 4 10 5 11 6 5 7 4 8 3 9 2 10 1 11
REMARK H PARENT
REMARK Flexibility Score: inf
ROOT
ATOM      1  C   UNL     1     -25.104 -34.003 -11.668  1.00  0.00     0.000 C 
ENDROOT
BRANCH   1   2
ATOM      2  C   UNL     1     -24.163 -32.896 -12.165  1.00  0.00     0.006 C 
BRANCH   2   3
ATOM      3  C   UNL     1     -24.801 -31.504 -12.067  1.00  0.00     0.053 C 
BRANCH   3   4
ATOM      4  C   UNL     1     -25.148 -31.149 -10.653  1.00  0.00     0.041 C 
ATOM      5  O   UNL     1     -24.236 -30.892  -9.824  1.00  0.00    -0.550 OA
ATOM      6  O   UNL     1     -26.478 -31.066 -10.262  1.00  0.00    -0.550 OA
ENDBRANCH   3   4
ENDBRANCH   2   3
ENDBRANCH   1   2
BRANCH   1   7
ATOM      7  C   UNL     1     -24.918 -35.289 -12.482  1.00  0.00     0.000 C 
BRANCH   7   8
ATOM      8  C   UNL     1     -26.094 -35.508 -13.442  1.00  0.00    -0.000 C 
BRANCH   8   9
ATOM      9  C   UNL     1     -27.374 -34.853 -12.902  1.00  0.00    -0.000 C 
BRANCH   9  10
ATOM     10  C   UNL     1     -27.884 -33.719 -13.805  1.00  0.00    -0.003 C 
ATOM     11  C   UNL     1     -28.329 -32.489 -13.015  1.00  0.00     0.004 C 
ENDBRANCH   9  10
ENDBRANCH   8   9
ENDBRANCH   7   8
ENDBRANCH   1   7
TORSDOF 7
ENDMDL
MODEL 9
REMARK VINA RESULT:    -3.922      2.127      4.509
REMARK INTER + INTRA:          -6.286
REMARK INTER:                  -5.797
REMARK INTRA:                  -0.490
REMARK UNBOUND:                -0.759
REMARK SMILES CCCCCCCCC(=O)[O-]
REMARK SMILES IDX 6 1 7 2 8 3 9 4 10 5 11 6 5 7 4 8 3 9 2 10 1 11
REMARK H PARENT
REMARK Flexibility Score: inf
ROOT
ATOM      1  C   UNL     1     -26.489 -31.401 -11.233  1.00  0.00     0.000 C 
ENDROOT
BRANCH   1   2
ATOM      2  C   UNL     1     -26.859 -31.401 -12.724  1.00  0.00     0.006 C 
BRANCH   2   3
ATOM      3  C   UNL     1     -28.254 -31.988 -12.976  1.00  0.00     0.053 C 
BRANCH   3   4
ATOM      4  C   UNL     1     -28.243 -33.485 -12.939  1.00  0.00     0.041 C 
ATOM      5  O   UNL     1     -28.585 -34.094 -11.891  1.00  0.00    -0.550 OA
ATOM      6  O   UNL     1     -27.890 -34.208 -14.072  1.00  0.00    -0.550 OA
ENDBRANCH   3   4
ENDBRANCH   2   3
ENDBRANCH   1   2
BRANCH   1   7
ATOM      7  C   UNL     1     -25.133 -32.080 -11.003  1.00  0.00     0.000 C 
BRANCH   7   8
ATOM      8  C   UNL     1     -24.764 -32.986 -12.184  1.00  0.00    -0.000 C 
BRANCH   8   9
ATOM      9  C   UNL     1     -24.994 -34.465 -11.837  1.00  0.00    -0.000 C 
BRANCH   9  10
ATOM     10  C   UNL     1     -24.036 -35.404 -12.585  1.00  0.00    -0.003 C 
ATOM     11  C   UNL     1     -22.634 -34.816 -12.741  1.00  0.00     0.004 C 
ENDBRANCH   9  10
ENDBRANCH   8   9
ENDBRANCH   7   8
ENDBRANCH   1   7
TORSDOF 7
ENDMDL
