MODEL 1
REMARK VINA RESULT:    -7.319      0.000      0.000
REMARK INTER + INTRA:          -7.319
REMARK INTER:                  -7.319
REMARK INTRA:                   0.000
REMARK UNBOUND:                 0.000
REMARK SMILES C=C1CCC[C@@]2(C)CC(=O)C(=C(C)C)C[C@@H]12
REMARK SMILES IDX 13 1 12 2 11 3 15 4 16 5 2 6 1 7 3 8 4 9 5 10 6 11 8 12 9 13
REMARK SMILES IDX 10 14 7 15 14 16
REMARK H PARENT
REMARK Flexibility Score: inf
ROOT
ATOM      1  C   UNL     1      -8.093  32.803  27.386  1.00  0.00     0.039 C 
ATOM      2  C   UNL     1      -8.257  33.920  26.381  1.00  0.00    -0.070 C 
ATOM      3  C   UNL     1      -8.351  33.665  25.045  1.00  0.00    -0.006 C 
ATOM      4  C   UNL     1      -8.302  32.256  24.488  1.00  0.00     0.047 C 
ATOM      5  C   UNL     1      -7.608  32.164  23.105  1.00  0.00     0.025 C 
ATOM      6  C   UNL     1      -7.831  30.770  22.541  1.00  0.00    -0.073 C 
ATOM      7  C   UNL     1      -6.884  29.826  22.661  1.00  0.00     0.008 C 
ATOM      8  C   UNL     1      -9.195  30.419  21.985  1.00  0.00     0.031 C 
ATOM      9  C   UNL     1      -9.725  31.515  21.051  1.00  0.00     0.005 C 
ATOM     10  C   UNL     1      -9.560  32.929  21.638  1.00  0.00     0.008 C 
ATOM     11  C   UNL     1      -8.097  33.235  22.079  1.00  0.00    -0.018 C 
ATOM     12  C   UNL     1      -8.014  34.655  22.700  1.00  0.00     0.088 C 
ATOM     13  C   UNL     1      -8.643  34.727  24.055  1.00  0.00     0.159 C 
ATOM     14  O   UNL     1      -9.410  35.688  24.331  1.00  0.00    -0.295 OA
ATOM     15  C   UNL     1      -7.164  33.234  20.838  1.00  0.00     0.012 C 
ATOM     16  C   UNL     1      -8.272  35.334  26.917  1.00  0.00     0.039 C 
ENDROOT
TORSDOF 0
ENDMDL
MODEL 2
REMARK VINA RESULT:    -6.190      1.865      3.394
REMARK INTER + INTRA:          -6.190
REMARK INTER:                  -6.190
REMARK INTRA:                   0.000
REMARK UNBOUND:                 0.000
REMARK SMILES C=C1CCC[C@@]2(C)CC(=O)C(=C(C)C)C[C@@H]12
REMARK SMILES IDX 13 1 12 2 11 3 15 4 16 5 2 6 1 7 3 8 4 9 5 10 6 11 8 12 9 13
REMARK SMILES IDX 10 14 7 15 14 16
REMARK H PARENT
REMARK Flexibility Score: inf
ROOT
ATOM      1  C   UNL     1      -8.612  35.441  24.623  1.00  0.00     0.039 C 
ATOM      2  C   UNL     1      -8.232  34.773  23.321  1.00  0.00    -0.070 C 
ATOM      3  C   UNL     1      -8.183  33.415  23.208  1.00  0.00    -0.006 C 
ATOM      4  C   UNL     1      -8.507  32.497  24.370  1.00  0.00     0.047 C 
ATOM      5  C   UNL     1      -7.664  31.197  24.382  1.00  0.00     0.025 C 
ATOM      6  C   UNL     1      -8.235  30.256  25.431  1.00  0.00    -0.073 C 
ATOM      7  C   UNL     1      -7.683  30.180  26.652  1.00  0.00     0.008 C 
ATOM      8  C   UNL     1      -9.527  29.527  25.129  1.00  0.00     0.031 C 
ATOM      9  C   UNL     1      -9.507  28.894  23.731  1.00  0.00     0.005 C 
ATOM     10  C   UNL     1      -8.987  29.858  22.648  1.00  0.00     0.008 C 
ATOM     11  C   UNL     1      -7.598  30.472  23.000  1.00  0.00    -0.018 C 
ATOM     12  C   UNL     1      -7.158  31.464  21.891  1.00  0.00     0.088 C 
ATOM     13  C   UNL     1      -7.943  32.737  21.914  1.00  0.00     0.159 C 
ATOM     14  O   UNL     1      -8.387  33.210  20.834  1.00  0.00    -0.295 OA
ATOM     15  C   UNL     1      -6.526  29.351  23.048  1.00  0.00     0.012 C 
ATOM     16  C   UNL     1      -7.871  35.674  22.162  1.00  0.00     0.039 C 
ENDROOT
TORSDOF 0
ENDMDL
MODEL 3
REMARK VINA RESULT:    -6.066      1.779      3.351
REMARK INTER + INTRA:          -6.066
REMARK INTER:                  -6.066
REMARK INTRA:                   0.000
REMARK UNBOUND:                 0.000
REMARK SMILES C=C1CCC[C@@]2(C)CC(=O)C(=C(C)C)C[C@@H]12
REMARK SMILES IDX 13 1 12 2 11 3 15 4 16 5 2 6 1 7 3 8 4 9 5 10 6 11 8 12 9 13
REMARK SMILES IDX 10 14 7 15 14 16
REMARK H PARENT
REMARK Flexibility Score: inf
ROOT
ATOM      1  C   UNL     1      -8.599  36.053  24.963  1.00  0.00     0.039 C 
ATOM      2  C   UNL     1      -8.576  34.902  25.942  1.00  0.00    -0.070 C 
ATOM      3  C   UNL     1      -8.500  33.609  25.515  1.00  0.00    -0.006 C 
ATOM      4  C   UNL     1      -8.430  33.249  24.044  1.00  0.00     0.047 C 
ATOM      5  C   UNL     1      -9.155  31.923  23.700  1.00  0.00     0.025 C 
ATOM      6  C   UNL     1      -8.817  31.540  22.268  1.00  0.00    -0.073 C 
ATOM      7  C   UNL     1      -9.664  31.827  21.268  1.00  0.00     0.008 C 
ATOM      8  C   UNL     1      -7.443  30.976  21.970  1.00  0.00     0.031 C 
ATOM      9  C   UNL     1      -7.052  29.882  22.972  1.00  0.00     0.005 C 
ATOM     10  C   UNL     1      -7.333  30.281  24.432  1.00  0.00     0.008 C 
ATOM     11  C   UNL     1      -8.804  30.741  24.661  1.00  0.00    -0.018 C 
ATOM     12  C   UNL     1      -9.005  31.170  26.138  1.00  0.00     0.088 C 
ATOM     13  C   UNL     1      -8.343  32.474  26.453  1.00  0.00     0.159 C 
ATOM     14  O   UNL     1      -7.664  32.585  27.509  1.00  0.00    -0.295 OA
ATOM     15  C   UNL     1      -9.771  29.555  24.404  1.00  0.00     0.012 C 
ATOM     16  C   UNL     1      -8.681  35.242  27.412  1.00  0.00     0.039 C 
ENDROOT
TORSDOF 0
ENDMDL
MODEL 4
REMARK VINA RESULT:    -6.001      2.146      4.863
REMARK INTER + INTRA:          -6.001
REMARK INTER:                  -6.001
REMARK INTRA:                   0.000
REMARK UNBOUND:                 0.000
REMARK SMILES C=C1CCC[C@@]2(C)CC(=O)C(=C(C)C)C[C@@H]12
REMARK SMILES IDX 13 1 12 2 11 3 15 4 16 5 2 6 1 7 3 8 4 9 5 10 6 11 8 12 9 13
REMARK SMILES IDX 10 14 7 15 14 16
REMARK H PARENT
REMARK Flexibility Score: inf
ROOT
ATOM      1  C   UNL     1      -8.231  35.020  22.089  1.00  0.00     0.039 C 
ATOM      2  C   UNL     1      -7.972  33.545  21.886  1.00  0.00    -0.070 C 
ATOM      3  C   UNL     1      -8.132  32.650  22.903  1.00  0.00    -0.006 C 
ATOM      4  C   UNL     1      -8.580  33.075  24.288  1.00  0.00     0.047 C 
ATOM      5  C   UNL     1      -7.945  32.234  25.425  1.00  0.00     0.025 C 
ATOM      6  C   UNL     1      -8.641  32.579  26.731  1.00  0.00    -0.073 C 
ATOM      7  C   UNL     1      -8.094  33.459  27.584  1.00  0.00     0.008 C 
ATOM      8  C   UNL     1     -10.033  32.037  26.980  1.00  0.00     0.031 C 
ATOM      9  C   UNL     1     -10.125  30.541  26.651  1.00  0.00     0.005 C 
ATOM     10  C   UNL     1      -9.476  30.188  25.299  1.00  0.00     0.008 C 
ATOM     11  C   UNL     1      -8.006  30.692  25.183  1.00  0.00    -0.018 C 
ATOM     12  C   UNL     1      -7.432  30.342  23.784  1.00  0.00     0.088 C 
ATOM     13  C   UNL     1      -8.013  31.188  22.697  1.00  0.00     0.159 C 
ATOM     14  O   UNL     1      -8.392  30.644  21.625  1.00  0.00    -0.295 OA
ATOM     15  C   UNL     1      -7.118  29.964  26.226  1.00  0.00     0.012 C 
ATOM     16  C   UNL     1      -7.491  33.109  20.521  1.00  0.00     0.039 C 
ENDROOT
TORSDOF 0
ENDMDL
MODEL 5
REMARK VINA RESULT:    -5.933      2.276      3.066
REMARK INTER + INTRA:          -5.933
REMARK INTER:                  -5.933
REMARK INTRA:                   0.000
REMARK UNBOUND:                 0.000
REMARK SMILES C=C1CCC[C@@]2(C)CC(=O)C(=C(C)C)C[C@@H]12
REMARK SMILES IDX 13 1 12 2 11 3 15 4 16 5 2 6 1 7 3 8 4 9 5 10 6 11 8 12 9 13
REMARK SMILES IDX 10 14 7 15 14 16
REMARK H PARENT
REMARK Flexibility Score: inf
ROOT
ATOM      1  C   UNL     1      -9.314  28.347  27.251  1.00  0.00     0.039 C 
ATOM      2  C   UNL     1      -9.324  29.847  27.437  1.00  0.00    -0.070 C 
ATOM      3  C   UNL     1      -9.139  30.695  26.385  1.00  0.00    -0.006 C 
ATOM      4  C   UNL     1      -8.918  30.189  24.973  1.00  0.00     0.047 C 
ATOM      5  C   UNL     1      -7.960  31.081  24.143  1.00  0.00     0.025 C 
ATOM      6  C   UNL     1      -8.003  30.626  22.694  1.00  0.00    -0.073 C 
ATOM      7  C   UNL     1      -7.058  29.806  22.208  1.00  0.00     0.008 C 
ATOM      8  C   UNL     1      -9.213  30.981  21.854  1.00  0.00     0.031 C 
ATOM      9  C   UNL     1      -9.595  32.459  22.010  1.00  0.00     0.005 C 
ATOM     10  C   UNL     1      -9.614  32.918  23.480  1.00  0.00     0.008 C 
ATOM     11  C   UNL     1      -8.283  32.607  24.228  1.00  0.00    -0.018 C 
ATOM     12  C   UNL     1      -8.388  33.055  25.710  1.00  0.00     0.088 C 
ATOM     13  C   UNL     1      -9.276  32.163  26.518  1.00  0.00     0.159 C 
ATOM     14  O   UNL     1     -10.125  32.674  27.296  1.00  0.00    -0.295 OA
ATOM     15  C   UNL     1      -7.123  33.423  23.596  1.00  0.00     0.012 C 
ATOM     16  C   UNL     1      -9.508  30.367  28.845  1.00  0.00     0.039 C 
ENDROOT
TORSDOF 0
ENDMDL
MODEL 6
REMARK VINA RESULT:    -5.231     18.008     19.296
REMARK INTER + INTRA:          -5.231
REMARK INTER:                  -5.231
REMARK INTRA:                   0.000
REMARK UNBOUND:                 0.000
REMARK SMILES C=C1CCC[C@@]2(C)CC(=O)C(=C(C)C)C[C@@H]12
REMARK SMILES IDX 13 1 12 2 11 3 15 4 16 5 2 6 1 7 3 8 4 9 5 10 6 11 8 12 9 13
REMARK SMILES IDX 10 14 7 15 14 16
REMARK H PARENT
REMARK Flexibility Score: inf
ROOT
ATOM      1  C   UNL     1       0.703  47.911  13.941  1.00  0.00     0.039 C 
ATOM      2  C   UNL     1      -0.721  47.794  14.435  1.00  0.00    -0.070 C 
ATOM      3  C   UNL     1      -1.747  47.509  13.583  1.00  0.00    -0.006 C 
ATOM      4  C   UNL     1      -1.524  47.289  12.100  1.00  0.00     0.047 C 
ATOM      5  C   UNL     1      -2.695  47.796  11.220  1.00  0.00     0.025 C 
ATOM      6  C   UNL     1      -2.480  47.310   9.796  1.00  0.00    -0.073 C 
ATOM      7  C   UNL     1      -1.931  48.119   8.875  1.00  0.00     0.008 C 
ATOM      8  C   UNL     1      -2.745  45.854   9.475  1.00  0.00     0.031 C 
ATOM      9  C   UNL     1      -4.087  45.383  10.053  1.00  0.00     0.005 C 
ATOM     10  C   UNL     1      -4.291  45.818  11.516  1.00  0.00     0.008 C 
ATOM     11  C   UNL     1      -4.106  47.351  11.724  1.00  0.00    -0.018 C 
ATOM     12  C   UNL     1      -4.281  47.710  13.223  1.00  0.00     0.088 C 
ATOM     13  C   UNL     1      -3.126  47.261  14.060  1.00  0.00     0.159 C 
ATOM     14  O   UNL     1      -3.346  46.678  15.156  1.00  0.00    -0.295 OA
ATOM     15  C   UNL     1      -5.206  48.123  10.947  1.00  0.00     0.012 C 
ATOM     16  C   UNL     1      -0.965  48.046  15.906  1.00  0.00     0.039 C 
ENDROOT
TORSDOF 0
ENDMDL
MODEL 7
REMARK VINA RESULT:    -5.185      1.750      4.284
REMARK INTER + INTRA:          -5.185
REMARK INTER:                  -5.185
REMARK INTRA:                   0.000
REMARK UNBOUND:                 0.000
REMARK SMILES C=C1CCC[C@@]2(C)CC(=O)C(=C(C)C)C[C@@H]12
REMARK SMILES IDX 13 1 12 2 11 3 15 4 16 5 2 6 1 7 3 8 4 9 5 10 6 11 8 12 9 13
REMARK SMILES IDX 10 14 7 15 14 16
REMARK H PARENT
REMARK Flexibility Score: inf
ROOT
ATOM      1  C   UNL     1      -7.416  32.762  20.893  1.00  0.00     0.039 C 
ATOM      2  C   UNL     1      -7.591  33.745  22.027  1.00  0.00    -0.070 C 
ATOM      3  C   UNL     1      -7.854  33.324  23.297  1.00  0.00    -0.006 C 
ATOM      4  C   UNL     1      -7.982  31.854  23.648  1.00  0.00     0.047 C 
ATOM      5  C   UNL     1      -9.022  31.576  24.763  1.00  0.00     0.025 C 
ATOM      6  C   UNL     1      -8.892  30.126  25.199  1.00  0.00    -0.073 C 
ATOM      7  C   UNL     1      -9.721  29.189  24.710  1.00  0.00     0.008 C 
ATOM      8  C   UNL     1      -7.717  29.729  26.068  1.00  0.00     0.031 C 
ATOM      9  C   UNL     1      -7.520  30.706  27.234  1.00  0.00     0.005 C 
ATOM     10  C   UNL     1      -7.589  32.181  26.795  1.00  0.00     0.008 C 
ATOM     11  C   UNL     1      -8.889  32.516  26.003  1.00  0.00    -0.018 C 
ATOM     12  C   UNL     1      -8.871  34.002  25.555  1.00  0.00     0.088 C 
ATOM     13  C   UNL     1      -7.899  34.256  24.447  1.00  0.00     0.159 C 
ATOM     14  O   UNL     1      -7.136  35.256  24.510  1.00  0.00    -0.295 OA
ATOM     15  C   UNL     1     -10.125  32.342  26.926  1.00  0.00     0.012 C 
ATOM     16  C   UNL     1      -7.502  35.216  21.687  1.00  0.00     0.039 C 
ENDROOT
TORSDOF 0
ENDMDL
