MODEL 1
REMARK VINA RESULT:    -4.286      0.000      0.000
REMARK INTER + INTRA:          -4.956
REMARK INTER:                  -4.912
REMARK INTRA:                  -0.044
REMARK UNBOUND:                -0.044
REMARK SMILES CC(C)[C@@H]([NH3+])C(=O)[O-]
REMARK SMILES IDX 4 1 5 2 6 6 7 7 8 8 2 9 1 10 3 11
REMARK H PARENT 5 3 5 4 5 5
REMARK Flexibility Score: inf
ROOT
ATOM      1  C   UNL     1     165.402 179.925 170.935  1.00  0.00     0.230 C 
ENDROOT
BRANCH   1   2
ATOM      2  N   UNL     1     163.975 179.573 170.928  1.00  0.00    -0.350 N 
ATOM      3  H   UNL     1     163.861 178.540 170.813  1.00  0.00     0.345 HD
ATOM      4  H   UNL     1     163.504 180.043 170.121  1.00  0.00     0.345 HD
ATOM      5  H   UNL     1     163.502 179.875 171.810  1.00  0.00     0.345 HD
ENDBRANCH   1   2
BRANCH   1   6
ATOM      6  C   UNL     1     165.728 180.874 169.806  1.00  0.00     0.099 C 
ATOM      7  O   UNL     1     166.219 180.446 168.727  1.00  0.00    -0.544 OA
ATOM      8  O   UNL     1     165.459 182.230 169.943  1.00  0.00    -0.544 OA
ENDBRANCH   1   6
BRANCH   1   9
ATOM      9  C   UNL     1     165.859 180.463 172.325  1.00  0.00     0.047 C 
ATOM     10  C   UNL     1     167.231 179.930 172.772  1.00  0.00     0.014 C 
ATOM     11  C   UNL     1     164.807 180.181 173.408  1.00  0.00     0.014 C 
ENDBRANCH   1   9
TORSDOF 3
ENDMDL
MODEL 2
REMARK VINA RESULT:    -4.280     20.372     21.384
REMARK INTER + INTRA:          -4.950
REMARK INTER:                  -4.904
REMARK INTRA:                  -0.045
REMARK UNBOUND:                -0.044
REMARK SMILES CC(C)[C@@H]([NH3+])C(=O)[O-]
REMARK SMILES IDX 4 1 5 2 6 6 7 7 8 8 2 9 1 10 3 11
REMARK H PARENT 5 3 5 4 5 5
REMARK Flexibility Score: inf
ROOT
ATOM      1  C   UNL     1     182.649 168.074 170.948  1.00  0.00     0.230 C 
ENDROOT
BRANCH   1   2
ATOM      2  N   UNL     1     184.072 168.439 170.892  1.00  0.00    -0.350 N 
ATOM      3  H   UNL     1     184.277 168.948 170.002  1.00  0.00     0.345 HD
ATOM      4  H   UNL     1     184.655 167.571 170.912  1.00  0.00     0.345 HD
ATOM      5  H   UNL     1     184.344 169.041 171.702  1.00  0.00     0.345 HD
ENDBRANCH   1   2
BRANCH   1   6
ATOM      6  C   UNL     1     182.297 167.109 169.840  1.00  0.00     0.099 C 
ATOM      7  O   UNL     1     181.786 167.521 168.764  1.00  0.00    -0.544 OA
ATOM      8  O   UNL     1     182.566 165.754 169.992  1.00  0.00    -0.544 OA
ENDBRANCH   1   6
BRANCH   1   9
ATOM      9  C   UNL     1     182.240 167.549 172.357  1.00  0.00     0.047 C 
ATOM     10  C   UNL     1     180.855 168.035 172.818  1.00  0.00     0.014 C 
ATOM     11  C   UNL     1     183.298 167.898 173.414  1.00  0.00     0.014 C 
ENDBRANCH   1   9
TORSDOF 3
ENDMDL
MODEL 3
REMARK VINA RESULT:    -4.177     16.854     17.894
REMARK INTER + INTRA:          -4.831
REMARK INTER:                  -4.785
REMARK INTRA:                  -0.046
REMARK UNBOUND:                -0.044
REMARK SMILES CC(C)[C@@H]([NH3+])C(=O)[O-]
REMARK SMILES IDX 4 1 5 2 6 6 7 7 8 8 2 9 1 10 3 11
REMARK H PARENT 5 3 5 4 5 5
REMARK Flexibility Score: inf
ROOT
ATOM      1  C   UNL     1     182.396 180.152 176.769  1.00  0.00     0.230 C 
ENDROOT
BRANCH   1   2
ATOM      2  N   UNL     1     183.695 179.753 177.330  1.00  0.00    -0.350 N 
ATOM      3  H   UNL     1     184.434 179.800 176.592  1.00  0.00     0.345 HD
ATOM      4  H   UNL     1     183.639 178.767 177.672  1.00  0.00     0.345 HD
ATOM      5  H   UNL     1     183.970 180.367 178.130  1.00  0.00     0.345 HD
ENDBRANCH   1   2
BRANCH   1   6
ATOM      6  C   UNL     1     181.943 181.472 177.348  1.00  0.00     0.099 C 
ATOM      7  O   UNL     1     182.675 182.110 178.150  1.00  0.00    -0.544 OA
ATOM      8  O   UNL     1     180.716 182.006 176.972  1.00  0.00    -0.544 OA
ENDBRANCH   1   6
BRANCH   1   9
ATOM      9  C   UNL     1     182.413 180.152 175.211  1.00  0.00     0.047 C 
ATOM     10  C   UNL     1     181.258 179.354 174.582  1.00  0.00     0.014 C 
ATOM     11  C   UNL     1     183.758 179.649 174.665  1.00  0.00     0.014 C 
ENDBRANCH   1   9
TORSDOF 3
ENDMDL
MODEL 4
REMARK VINA RESULT:    -4.159     13.831     14.396
REMARK INTER + INTRA:          -4.811
REMARK INTER:                  -4.764
REMARK INTRA:                  -0.046
REMARK UNBOUND:                -0.044
REMARK SMILES CC(C)[C@@H]([NH3+])C(=O)[O-]
REMARK SMILES IDX 4 1 5 2 6 6 7 7 8 8 2 9 1 10 3 11
REMARK H PARENT 5 3 5 4 5 5
REMARK Flexibility Score: inf
ROOT
ATOM      1  C   UNL     1     165.575 167.891 176.762  1.00  0.00     0.230 C 
ENDROOT
BRANCH   1   2
ATOM      2  N   UNL     1     164.266 168.258 177.321  1.00  0.00    -0.350 N 
ATOM      3  H   UNL     1     164.132 167.799 178.251  1.00  0.00     0.345 HD
ATOM      4  H   UNL     1     163.508 167.926 176.682  1.00  0.00     0.345 HD
ATOM      5  H   UNL     1     164.176 169.294 177.434  1.00  0.00     0.345 HD
ENDBRANCH   1   2
BRANCH   1   6
ATOM      6  C   UNL     1     166.045 166.567 177.317  1.00  0.00     0.099 C 
ATOM      7  O   UNL     1     165.343 165.930 178.147  1.00  0.00    -0.544 OA
ATOM      8  O   UNL     1     167.251 166.027 176.888  1.00  0.00    -0.544 OA
ENDBRANCH   1   6
BRANCH   1   9
ATOM      9  C   UNL     1     165.569 167.923 175.203  1.00  0.00     0.047 C 
ATOM     10  C   UNL     1     166.685 168.794 174.600  1.00  0.00     0.014 C 
ATOM     11  C   UNL     1     164.204 168.366 174.657  1.00  0.00     0.014 C 
ENDBRANCH   1   9
TORSDOF 3
ENDMDL
MODEL 5
REMARK VINA RESULT:    -4.139     16.967     18.001
REMARK INTER + INTRA:          -4.788
REMARK INTER:                  -4.769
REMARK INTRA:                  -0.019
REMARK UNBOUND:                -0.044
REMARK SMILES CC(C)[C@@H]([NH3+])C(=O)[O-]
REMARK SMILES IDX 4 1 5 2 6 6 7 7 8 8 2 9 1 10 3 11
REMARK H PARENT 5 3 5 4 5 5
REMARK Flexibility Score: inf
ROOT
ATOM      1  C   UNL     1     183.224 179.959 174.968  1.00  0.00     0.230 C 
ENDROOT
BRANCH   1   2
ATOM      2  N   UNL     1     182.582 181.098 174.297  1.00  0.00    -0.350 N 
ATOM      3  H   UNL     1     182.131 180.783 173.408  1.00  0.00     0.345 HD
ATOM      4  H   UNL     1     183.304 181.816 174.059  1.00  0.00     0.345 HD
ATOM      5  H   UNL     1     181.860 181.544 174.908  1.00  0.00     0.345 HD
ENDBRANCH   1   2
BRANCH   1   6
ATOM      6  C   UNL     1     182.859 179.921 176.433  1.00  0.00     0.099 C 
ATOM      7  O   UNL     1     183.727 180.140 177.320  1.00  0.00    -0.544 OA
ATOM      8  O   UNL     1     181.545 179.670 176.811  1.00  0.00    -0.544 OA
ENDBRANCH   1   6
BRANCH   1   9
ATOM      9  C   UNL     1     182.928 178.614 174.237  1.00  0.00     0.047 C 
ATOM     10  C   UNL     1     184.029 178.193 173.250  1.00  0.00     0.014 C 
ATOM     11  C   UNL     1     181.568 178.653 173.524  1.00  0.00     0.014 C 
ENDBRANCH   1   9
TORSDOF 3
ENDMDL
MODEL 6
REMARK VINA RESULT:    -4.135     12.592     13.127
REMARK INTER + INTRA:          -4.784
REMARK INTER:                  -4.790
REMARK INTRA:                   0.006
REMARK UNBOUND:                -0.044
REMARK SMILES CC(C)[C@@H]([NH3+])C(=O)[O-]
REMARK SMILES IDX 4 1 5 2 6 6 7 7 8 8 2 9 1 10 3 11
REMARK H PARENT 5 3 5 4 5 5
REMARK Flexibility Score: inf
ROOT
ATOM      1  C   UNL     1     164.865 168.080 175.040  1.00  0.00     0.230 C 
ENDROOT
BRANCH   1   2
ATOM      2  N   UNL     1     165.396 166.876 174.386  1.00  0.00    -0.350 N 
ATOM      3  H   UNL     1     165.400 166.075 175.058  1.00  0.00     0.345 HD
ATOM      4  H   UNL     1     166.382 167.050 174.083  1.00  0.00     0.345 HD
ATOM      5  H   UNL     1     164.830 166.616 173.546  1.00  0.00     0.345 HD
ENDBRANCH   1   2
BRANCH   1   6
ATOM      6  C   UNL     1     165.233 168.104 176.505  1.00  0.00     0.099 C 
ATOM      7  O   UNL     1     164.445 167.649 177.376  1.00  0.00    -0.544 OA
ATOM      8  O   UNL     1     166.468 168.606 176.899  1.00  0.00    -0.544 OA
ENDBRANCH   1   6
BRANCH   1   9
ATOM      9  C   UNL     1     165.286 169.381 174.291  1.00  0.00     0.047 C 
ATOM     10  C   UNL     1     164.233 169.884 173.289  1.00  0.00     0.014 C 
ATOM     11  C   UNL     1     166.641 169.208 173.589  1.00  0.00     0.014 C 
ENDBRANCH   1   9
TORSDOF 3
ENDMDL
MODEL 7
REMARK VINA RESULT:    -4.130     20.026     20.991
REMARK INTER + INTRA:          -4.778
REMARK INTER:                  -4.771
REMARK INTRA:                  -0.007
REMARK UNBOUND:                -0.044
REMARK SMILES CC(C)[C@@H]([NH3+])C(=O)[O-]
REMARK SMILES IDX 4 1 5 2 6 6 7 7 8 8 2 9 1 10 3 11
REMARK H PARENT 5 3 5 4 5 5
REMARK Flexibility Score: inf
ROOT
ATOM      1  C   UNL     1     183.111 168.058 172.957  1.00  0.00     0.230 C 
ENDROOT
BRANCH   1   2
ATOM      2  N   UNL     1     182.559 166.861 173.608  1.00  0.00    -0.350 N 
ATOM      3  H   UNL     1     181.638 166.612 173.179  1.00  0.00     0.345 HD
ATOM      4  H   UNL     1     182.402 167.057 174.623  1.00  0.00     0.345 HD
ATOM      5  H   UNL     1     183.209 166.046 173.523  1.00  0.00     0.345 HD
ENDBRANCH   1   2
BRANCH   1   6
ATOM      6  C   UNL     1     182.755 168.085 171.490  1.00  0.00     0.099 C 
ATOM      7  O   UNL     1     183.536 167.600 170.627  1.00  0.00    -0.544 OA
ATOM      8  O   UNL     1     181.540 168.623 171.083  1.00  0.00    -0.544 OA
ENDBRANCH   1   6
BRANCH   1   9
ATOM      9  C   UNL     1     182.700 169.365 173.702  1.00  0.00     0.047 C 
ATOM     10  C   UNL     1     183.769 169.881 174.679  1.00  0.00     0.014 C 
ATOM     11  C   UNL     1     181.359 169.195 174.431  1.00  0.00     0.014 C 
ENDBRANCH   1   9
TORSDOF 3
ENDMDL
MODEL 8
REMARK VINA RESULT:    -4.109      2.206      2.860
REMARK INTER + INTRA:          -4.754
REMARK INTER:                  -4.731
REMARK INTRA:                  -0.023
REMARK UNBOUND:                -0.044
REMARK SMILES CC(C)[C@@H]([NH3+])C(=O)[O-]
REMARK SMILES IDX 4 1 5 2 6 6 7 7 8 8 2 9 1 10 3 11
REMARK H PARENT 5 3 5 4 5 5
REMARK Flexibility Score: inf
ROOT
ATOM      1  C   UNL     1     164.815 179.960 173.020  1.00  0.00     0.230 C 
ENDROOT
BRANCH   1   2
ATOM      2  N   UNL     1     165.406 181.134 173.677  1.00  0.00    -0.350 N 
ATOM      3  H   UNL     1     166.364 181.313 173.297  1.00  0.00     0.345 HD
ATOM      4  H   UNL     1     165.492 180.953 174.703  1.00  0.00     0.345 HD
ATOM      5  H   UNL     1     164.817 181.986 173.538  1.00  0.00     0.345 HD
ENDBRANCH   1   2
BRANCH   1   6
ATOM      6  C   UNL     1     165.127 179.956 171.542  1.00  0.00     0.099 C 
ATOM      7  O   UNL     1     164.211 180.100 170.689  1.00  0.00    -0.544 OA
ATOM      8  O   UNL     1     166.443 179.822 171.114  1.00  0.00    -0.544 OA
ENDBRANCH   1   6
BRANCH   1   9
ATOM      9  C   UNL     1     165.225 178.632 173.726  1.00  0.00     0.047 C 
ATOM     10  C   UNL     1     164.188 178.129 174.745  1.00  0.00     0.014 C 
ATOM     11  C   UNL     1     166.602 178.756 174.396  1.00  0.00     0.014 C 
ENDBRANCH   1   9
TORSDOF 3
ENDMDL
MODEL 9
REMARK VINA RESULT:    -4.054     20.573     21.234
REMARK INTER + INTRA:          -4.691
REMARK INTER:                  -4.646
REMARK INTRA:                  -0.045
REMARK UNBOUND:                -0.044
REMARK SMILES CC(C)[C@@H]([NH3+])C(=O)[O-]
REMARK SMILES IDX 4 1 5 2 6 6 7 7 8 8 2 9 1 10 3 11
REMARK H PARENT 5 3 5 4 5 5
REMARK Flexibility Score: inf
ROOT
ATOM      1  C   UNL     1     183.835 169.509 174.347  1.00  0.00     0.230 C 
ENDROOT
BRANCH   1   2
ATOM      2  N   UNL     1     184.120 168.874 175.642  1.00  0.00    -0.350 N 
ATOM      3  H   UNL     1     183.621 169.381 176.408  1.00  0.00     0.345 HD
ATOM      4  H   UNL     1     185.146 168.922 175.836  1.00  0.00     0.345 HD
ATOM      5  H   UNL     1     183.827 167.870 175.648  1.00  0.00     0.345 HD
ENDBRANCH   1   2
BRANCH   1   6
ATOM      6  C   UNL     1     183.761 168.477 173.246  1.00  0.00     0.099 C 
ATOM      7  O   UNL     1     184.125 168.759 172.073  1.00  0.00    -0.544 OA
ATOM      8  O   UNL     1     183.316 167.192 173.532  1.00  0.00    -0.544 OA
ENDBRANCH   1   6
BRANCH   1   9
ATOM      9  C   UNL     1     182.567 170.413 174.411  1.00  0.00     0.047 C 
ATOM     10  C   UNL     1     182.810 171.768 175.098  1.00  0.00     0.014 C 
ATOM     11  C   UNL     1     181.394 169.685 175.085  1.00  0.00     0.014 C 
ENDBRANCH   1   9
TORSDOF 3
ENDMDL
