MODEL 1
REMARK VINA RESULT:    -2.634      0.000      0.000
REMARK INTER + INTRA:          -3.390
REMARK INTER:                  -3.249
REMARK INTRA:                  -0.141
REMARK UNBOUND:                -0.141
REMARK SMILES CCCCC(=O)CC
REMARK SMILES IDX 4 1 3 2 2 3 1 4 5 5 6 6 7 7 8 8
REMARK H PARENT
REMARK Flexibility Score: inf
ROOT
ATOM      1  C   UNL     1     141.663 146.564 142.801  1.00  0.00     0.075 C 
ENDROOT
BRANCH   1   2
ATOM      2  C   UNL     1     142.094 145.132 142.451  1.00  0.00     0.008 C 
BRANCH   2   3
ATOM      3  C   UNL     1     142.290 144.260 143.699  1.00  0.00    -0.003 C 
ATOM      4  C   UNL     1     142.601 145.115 144.924  1.00  0.00     0.004 C 
ENDBRANCH   2   3
ENDBRANCH   1   2
BRANCH   1   5
ATOM      5  C   UNL     1     142.218 147.585 141.839  1.00  0.00     0.132 C 
ATOM      6  O   UNL     1     143.418 147.822 141.841  1.00  0.00    -0.300 OA
BRANCH   5   7
ATOM      7  C   UNL     1     141.316 148.359 140.914  1.00  0.00     0.072 C 
ATOM      8  C   UNL     1     139.864 148.298 141.377  1.00  0.00     0.012 C 
ENDBRANCH   5   7
ENDBRANCH   1   5
TORSDOF 4
ENDMDL
MODEL 2
REMARK VINA RESULT:    -2.625      8.242      8.777
REMARK INTER + INTRA:          -3.380
REMARK INTER:                  -3.254
REMARK INTRA:                  -0.126
REMARK UNBOUND:                -0.141
REMARK SMILES CCCCC(=O)CC
REMARK SMILES IDX 4 1 3 2 2 3 1 4 5 5 6 6 7 7 8 8
REMARK H PARENT
REMARK Flexibility Score: inf
ROOT
ATOM      1  C   UNL     1     146.606 139.980 142.840  1.00  0.00     0.075 C 
ENDROOT
BRANCH   1   2
ATOM      2  C   UNL     1     145.178 139.507 142.528  1.00  0.00     0.008 C 
BRANCH   2   3
ATOM      3  C   UNL     1     144.298 139.440 143.783  1.00  0.00    -0.003 C 
ATOM      4  C   UNL     1     145.097 138.957 144.991  1.00  0.00     0.004 C 
ENDBRANCH   2   3
ENDBRANCH   1   2
BRANCH   1   5
ATOM      5  C   UNL     1     147.618 139.446 141.858  1.00  0.00     0.132 C 
ATOM      6  O   UNL     1     147.905 138.258 141.877  1.00  0.00    -0.300 OA
BRANCH   5   7
ATOM      7  C   UNL     1     148.325 140.359 140.890  1.00  0.00     0.072 C 
ATOM      8  C   UNL     1     148.427 141.778 141.441  1.00  0.00     0.012 C 
ENDBRANCH   5   7
ENDBRANCH   1   5
TORSDOF 4
ENDMDL
MODEL 3
REMARK VINA RESULT:    -2.572      8.135      8.631
REMARK INTER + INTRA:          -3.315
REMARK INTER:                  -3.185
REMARK INTRA:                  -0.130
REMARK UNBOUND:                -0.141
REMARK SMILES CCCCC(=O)CC
REMARK SMILES IDX 4 1 3 2 2 3 1 4 5 5 6 6 7 7 8 8
REMARK H PARENT
REMARK Flexibility Score: inf
ROOT
ATOM      1  C   UNL     1     135.763 142.138 142.380  1.00  0.00     0.075 C 
ENDROOT
BRANCH   1   2
ATOM      2  C   UNL     1     135.690 141.654 143.836  1.00  0.00     0.008 C 
BRANCH   2   3
ATOM      3  C   UNL     1     136.470 142.565 144.794  1.00  0.00    -0.003 C 
ATOM      4  C   UNL     1     137.959 142.565 144.464  1.00  0.00     0.004 C 
ENDBRANCH   2   3
ENDBRANCH   1   2
BRANCH   1   5
ATOM      5  C   UNL     1     134.399 142.310 141.761  1.00  0.00     0.132 C 
ATOM      6  O   UNL     1     133.688 143.237 142.122  1.00  0.00    -0.300 OA
BRANCH   5   7
ATOM      7  C   UNL     1     133.872 141.330 140.745  1.00  0.00     0.072 C 
ATOM      8  C   UNL     1     133.289 140.093 141.420  1.00  0.00     0.012 C 
ENDBRANCH   5   7
ENDBRANCH   1   5
TORSDOF 4
ENDMDL
MODEL 4
REMARK VINA RESULT:    -2.540      7.968      8.818
REMARK INTER + INTRA:          -3.275
REMARK INTER:                  -3.032
REMARK INTRA:                  -0.243
REMARK UNBOUND:                -0.141
REMARK SMILES CCCCC(=O)CC
REMARK SMILES IDX 4 1 3 2 2 3 1 4 5 5 6 6 7 7 8 8
REMARK H PARENT
REMARK Flexibility Score: inf
ROOT
ATOM      1  C   UNL     1     135.439 142.495 141.350  1.00  0.00     0.075 C 
ENDROOT
BRANCH   1   2
ATOM      2  C   UNL     1     133.966 142.467 141.785  1.00  0.00     0.008 C 
BRANCH   2   3
ATOM      3  C   UNL     1     133.123 141.513 140.930  1.00  0.00    -0.003 C 
ATOM      4  C   UNL     1     133.325 140.063 141.359  1.00  0.00     0.004 C 
ENDBRANCH   2   3
ENDBRANCH   1   2
BRANCH   1   5
ATOM      5  C   UNL     1     136.382 142.184 142.486  1.00  0.00     0.132 C 
ATOM      6  O   UNL     1     137.588 142.225 142.292  1.00  0.00    -0.300 OA
BRANCH   5   7
ATOM      7  C   UNL     1     135.866 141.769 143.839  1.00  0.00     0.072 C 
ATOM      8  C   UNL     1     136.515 142.585 144.953  1.00  0.00     0.012 C 
ENDBRANCH   5   7
ENDBRANCH   1   5
TORSDOF 4
ENDMDL
MODEL 5
REMARK VINA RESULT:    -2.533     10.524     12.272
REMARK INTER + INTRA:          -3.267
REMARK INTER:                  -3.154
REMARK INTRA:                  -0.112
REMARK UNBOUND:                -0.141
REMARK SMILES CCCCC(=O)CC
REMARK SMILES IDX 4 1 3 2 2 3 1 4 5 5 6 6 7 7 8 8
REMARK H PARENT
REMARK Flexibility Score: inf
ROOT
ATOM      1  C   UNL     1     139.789 135.157 142.962  1.00  0.00     0.075 C 
ENDROOT
BRANCH   1   2
ATOM      2  C   UNL     1     139.504 136.629 142.629  1.00  0.00     0.008 C 
BRANCH   2   3
ATOM      3  C   UNL     1     139.151 137.452 143.874  1.00  0.00    -0.003 C 
ATOM      4  C   UNL     1     139.132 136.578 145.125  1.00  0.00     0.004 C 
ENDBRANCH   2   3
ENDBRANCH   1   2
BRANCH   1   5
ATOM      5  C   UNL     1     139.484 134.234 141.809  1.00  0.00     0.132 C 
ATOM      6  O   UNL     1     138.389 133.695 141.745  1.00  0.00    -0.300 OA
BRANCH   5   7
ATOM      7  C   UNL     1     140.523 133.919 140.764  1.00  0.00     0.072 C 
ATOM      8  C   UNL     1     141.725 133.207 141.376  1.00  0.00     0.012 C 
ENDBRANCH   5   7
ENDBRANCH   1   5
TORSDOF 4
ENDMDL
MODEL 6
REMARK VINA RESULT:    -2.528      8.765      9.303
REMARK INTER + INTRA:          -3.261
REMARK INTER:                  -3.105
REMARK INTRA:                  -0.156
REMARK UNBOUND:                -0.141
REMARK SMILES CCCCC(=O)CC
REMARK SMILES IDX 4 1 3 2 2 3 1 4 5 5 6 6 7 7 8 8
REMARK H PARENT
REMARK Flexibility Score: inf
ROOT
ATOM      1  C   UNL     1     134.548 142.568 142.060  1.00  0.00     0.075 C 
ENDROOT
BRANCH   1   2
ATOM      2  C   UNL     1     135.146 141.729 143.199  1.00  0.00     0.008 C 
BRANCH   2   3
ATOM      3  C   UNL     1     136.559 142.188 143.582  1.00  0.00    -0.003 C 
ATOM      4  C   UNL     1     136.629 142.583 145.055  1.00  0.00     0.004 C 
ENDBRANCH   2   3
ENDBRANCH   1   2
BRANCH   1   5
ATOM      5  C   UNL     1     133.535 141.800 141.248  1.00  0.00     0.132 C 
ATOM      6  O   UNL     1     132.639 142.406 140.677  1.00  0.00    -0.300 OA
BRANCH   5   7
ATOM      7  C   UNL     1     133.573 140.296 141.171  1.00  0.00     0.072 C 
ATOM      8  C   UNL     1     134.336 139.824 139.937  1.00  0.00     0.012 C 
ENDBRANCH   5   7
ENDBRANCH   1   5
TORSDOF 4
ENDMDL
MODEL 7
REMARK VINA RESULT:    -2.483      8.084      8.934
REMARK INTER + INTRA:          -3.204
REMARK INTER:                  -2.962
REMARK INTRA:                  -0.243
REMARK UNBOUND:                -0.141
REMARK SMILES CCCCC(=O)CC
REMARK SMILES IDX 4 1 3 2 2 3 1 4 5 5 6 6 7 7 8 8
REMARK H PARENT
REMARK Flexibility Score: inf
ROOT
ATOM      1  C   UNL     1     146.028 139.105 141.452  1.00  0.00     0.075 C 
ENDROOT
BRANCH   1   2
ATOM      2  C   UNL     1     147.502 139.061 141.879  1.00  0.00     0.008 C 
BRANCH   2   3
ATOM      3  C   UNL     1     148.384 139.984 141.027  1.00  0.00    -0.003 C 
ATOM      4  C   UNL     1     148.191 141.446 141.420  1.00  0.00     0.004 C 
ENDBRANCH   2   3
ENDBRANCH   1   2
BRANCH   1   5
ATOM      5  C   UNL     1     145.103 139.413 142.603  1.00  0.00     0.132 C 
ATOM      6  O   UNL     1     143.894 139.412 142.419  1.00  0.00    -0.300 OA
BRANCH   5   7
ATOM      7  C   UNL     1     145.641 139.778 143.962  1.00  0.00     0.072 C 
ATOM      8  C   UNL     1     144.993 138.939 145.058  1.00  0.00     0.012 C 
ENDBRANCH   5   7
ENDBRANCH   1   5
TORSDOF 4
ENDMDL
MODEL 8
REMARK VINA RESULT:    -2.426      9.113      9.854
REMARK INTER + INTRA:          -3.135
REMARK INTER:                  -2.976
REMARK INTRA:                  -0.159
REMARK UNBOUND:                -0.141
REMARK SMILES CCCCC(=O)CC
REMARK SMILES IDX 4 1 3 2 2 3 1 4 5 5 6 6 7 7 8 8
REMARK H PARENT
REMARK Flexibility Score: inf
ROOT
ATOM      1  C   UNL     1     133.931 140.756 141.753  1.00  0.00     0.075 C 
ENDROOT
BRANCH   1   2
ATOM      2  C   UNL     1     132.824 140.925 140.701  1.00  0.00     0.008 C 
BRANCH   2   3
ATOM      3  C   UNL     1     133.295 140.545 139.292  1.00  0.00    -0.003 C 
ATOM      4  C   UNL     1     134.578 139.720 139.343  1.00  0.00     0.004 C 
ENDBRANCH   2   3
ENDBRANCH   1   2
BRANCH   1   5
ATOM      5  C   UNL     1     134.521 142.074 142.186  1.00  0.00     0.132 C 
ATOM      6  O   UNL     1     133.843 143.089 142.112  1.00  0.00    -0.300 OA
BRANCH   5   7
ATOM      7  C   UNL     1     135.949 142.175 142.656  1.00  0.00     0.072 C 
ATOM      8  C   UNL     1     136.055 141.934 144.158  1.00  0.00     0.012 C 
ENDBRANCH   5   7
ENDBRANCH   1   5
TORSDOF 4
ENDMDL
MODEL 9
REMARK VINA RESULT:    -2.384     12.569     13.208
REMARK INTER + INTRA:          -3.082
REMARK INTER:                  -2.699
REMARK INTRA:                  -0.383
REMARK UNBOUND:                -0.141
REMARK SMILES CCCCC(=O)CC
REMARK SMILES IDX 4 1 3 2 2 3 1 4 5 5 6 6 7 7 8 8
REMARK H PARENT
REMARK Flexibility Score: inf
ROOT
ATOM      1  C   UNL     1     141.094 133.463 141.361  1.00  0.00     0.075 C 
ENDROOT
BRANCH   1   2
ATOM      2  C   UNL     1     141.810 134.244 140.249  1.00  0.00     0.008 C 
BRANCH   2   3
ATOM      3  C   UNL     1     141.359 133.810 138.849  1.00  0.00    -0.003 C 
ATOM      4  C   UNL     1     140.761 132.407 138.872  1.00  0.00     0.004 C 
ENDBRANCH   2   3
ENDBRANCH   1   2
BRANCH   1   5
ATOM      5  C   UNL     1     139.977 134.254 141.994  1.00  0.00     0.132 C 
ATOM      6  O   UNL     1     140.246 135.155 142.776  1.00  0.00    -0.300 OA
BRANCH   5   7
ATOM      7  C   UNL     1     138.533 133.920 141.724  1.00  0.00     0.072 C 
ATOM      8  C   UNL     1     138.038 134.591 140.447  1.00  0.00     0.012 C 
ENDBRANCH   5   7
ENDBRANCH   1   5
TORSDOF 4
ENDMDL
