MODEL 1
REMARK VINA RESULT:    -4.766      0.000      0.000
REMARK INTER + INTRA:          -5.555
REMARK INTER:                  -5.462
REMARK INTRA:                  -0.093
REMARK UNBOUND:                -0.093
REMARK SMILES COc1cc(C(C)=O)ccc1O
REMARK SMILES IDX 5 1 4 2 3 3 11 4 10 5 9 6 6 7 7 8 8 9 2 10 1 11 12 12
REMARK H PARENT 12 13
REMARK Flexibility Score: inf
ROOT
ATOM      1  C   UNL     1      11.425 -10.111 -43.628  1.00  0.00     0.021 A 
ATOM      2  C   UNL     1      10.972  -9.904 -42.311  1.00  0.00     0.062 A 
ATOM      3  C   UNL     1      10.286  -8.725 -41.957  1.00  0.00     0.161 A 
ATOM      4  C   UNL     1      10.051  -7.745 -42.937  1.00  0.00     0.157 A 
ATOM      5  C   UNL     1      10.498  -7.946 -44.245  1.00  0.00     0.051 A 
ATOM      6  C   UNL     1      11.177  -9.115 -44.591  1.00  0.00     0.016 A 
ENDROOT
BRANCH   1   7
ATOM      7  C   UNL     1      12.147 -11.363 -43.981  1.00  0.00     0.159 C 
ATOM      8  C   UNL     1      13.288 -11.880 -43.156  1.00  0.00     0.093 C 
ATOM      9  O   UNL     1      11.802 -12.020 -45.001  1.00  0.00    -0.295 OA
ENDBRANCH   1   7
BRANCH   3  10
ATOM     10  O   UNL     1       9.826  -8.496 -40.650  1.00  0.00    -0.493 OA
ATOM     11  C   UNL     1      10.517  -8.886 -39.468  1.00  0.00     0.278 C 
ENDBRANCH   3  10
BRANCH   4  12
ATOM     12  O   UNL     1       9.376  -6.565 -42.630  1.00  0.00    -0.504 OA
ATOM     13  H   UNL     1       8.408  -6.413 -42.890  1.00  0.00     0.293 HD
ENDBRANCH   4  12
TORSDOF 3
ENDMDL
MODEL 2
REMARK VINA RESULT:    -4.592      2.376      3.276
REMARK INTER + INTRA:          -5.356
REMARK INTER:                  -5.245
REMARK INTRA:                  -0.111
REMARK UNBOUND:                -0.093
REMARK SMILES COc1cc(C(C)=O)ccc1O
REMARK SMILES IDX 5 1 4 2 3 3 11 4 10 5 9 6 6 7 7 8 8 9 2 10 1 11 12 12
REMARK H PARENT 12 13
REMARK Flexibility Score: inf
ROOT
ATOM      1  C   UNL     1      11.483 -11.658 -44.587  1.00  0.00     0.021 A 
ATOM      2  C   UNL     1      11.099 -10.352 -44.225  1.00  0.00     0.062 A 
ATOM      3  C   UNL     1       9.847  -9.831 -44.610  1.00  0.00     0.161 A 
ATOM      4  C   UNL     1       8.972 -10.632 -45.364  1.00  0.00     0.157 A 
ATOM      5  C   UNL     1       9.348 -11.928 -45.726  1.00  0.00     0.051 A 
ATOM      6  C   UNL     1      10.589 -12.439 -45.343  1.00  0.00     0.016 A 
ENDROOT
BRANCH   1   7
ATOM      7  C   UNL     1      12.810 -12.188 -44.171  1.00  0.00     0.159 C 
ATOM      8  C   UNL     1      13.547 -13.210 -44.985  1.00  0.00     0.093 C 
ATOM      9  O   UNL     1      13.344 -11.775 -43.106  1.00  0.00    -0.295 OA
ENDBRANCH   1   7
BRANCH   3  10
ATOM     10  O   UNL     1       9.443  -8.532 -44.261  1.00  0.00    -0.493 OA
ATOM     11  C   UNL     1       9.994  -7.773 -43.190  1.00  0.00     0.278 C 
ENDBRANCH   3  10
BRANCH   4  12
ATOM     12  O   UNL     1       7.724 -10.157 -45.765  1.00  0.00    -0.504 OA
ATOM     13  H   UNL     1       7.352 -10.330 -46.692  1.00  0.00     0.293 HD
ENDBRANCH   4  12
TORSDOF 3
ENDMDL
MODEL 3
REMARK VINA RESULT:    -4.590      2.690      5.146
REMARK INTER + INTRA:          -5.354
REMARK INTER:                  -5.245
REMARK INTRA:                  -0.109
REMARK UNBOUND:                -0.093
REMARK SMILES COc1cc(C(C)=O)ccc1O
REMARK SMILES IDX 5 1 4 2 3 3 11 4 10 5 9 6 6 7 7 8 8 9 2 10 1 11 12 12
REMARK H PARENT 12 13
REMARK Flexibility Score: inf
ROOT
ATOM      1  C   UNL     1      10.544 -10.040 -44.219  1.00  0.00     0.021 A 
ATOM      2  C   UNL     1       9.689 -10.678 -45.139  1.00  0.00     0.062 A 
ATOM      3  C   UNL     1       9.512 -12.076 -45.117  1.00  0.00     0.161 A 
ATOM      4  C   UNL     1      10.201 -12.840 -44.159  1.00  0.00     0.157 A 
ATOM      5  C   UNL     1      11.050 -12.213 -43.244  1.00  0.00     0.051 A 
ATOM      6  C   UNL     1      11.222 -10.828 -43.270  1.00  0.00     0.016 A 
ENDROOT
BRANCH   1   7
ATOM      7  C   UNL     1      10.716  -8.563 -44.261  1.00  0.00     0.159 C 
ATOM      8  C   UNL     1       9.888  -7.643 -43.412  1.00  0.00     0.093 C 
ATOM      9  O   UNL     1      11.580  -8.054 -45.026  1.00  0.00    -0.295 OA
ENDBRANCH   1   7
BRANCH   3  10
ATOM     10  O   UNL     1       8.666 -12.733 -46.024  1.00  0.00    -0.493 OA
ATOM     11  C   UNL     1       7.262 -12.519 -46.124  1.00  0.00     0.278 C 
ENDBRANCH   3  10
BRANCH   4  12
ATOM     12  O   UNL     1      10.055 -14.226 -44.100  1.00  0.00    -0.504 OA
ATOM     13  H   UNL     1      10.136 -14.741 -43.231  1.00  0.00     0.293 HD
ENDBRANCH   4  12
TORSDOF 3
ENDMDL
MODEL 4
REMARK VINA RESULT:    -4.496      2.309      4.743
REMARK INTER + INTRA:          -5.246
REMARK INTER:                  -5.141
REMARK INTRA:                  -0.105
REMARK UNBOUND:                -0.093
REMARK SMILES COc1cc(C(C)=O)ccc1O
REMARK SMILES IDX 5 1 4 2 3 3 11 4 10 5 9 6 6 7 7 8 8 9 2 10 1 11 12 12
REMARK H PARENT 12 13
REMARK Flexibility Score: inf
ROOT
ATOM      1  C   UNL     1      10.765  -9.786 -44.365  1.00  0.00     0.021 A 
ATOM      2  C   UNL     1      11.858 -10.475 -43.803  1.00  0.00     0.062 A 
ATOM      3  C   UNL     1      11.949 -11.879 -43.887  1.00  0.00     0.161 A 
ATOM      4  C   UNL     1      10.935 -12.596 -44.545  1.00  0.00     0.157 A 
ATOM      5  C   UNL     1       9.850 -11.917 -45.104  1.00  0.00     0.051 A 
ATOM      6  C   UNL     1       9.763 -10.527 -45.018  1.00  0.00     0.016 A 
ENDROOT
BRANCH   1   7
ATOM      7  C   UNL     1      10.688  -8.303 -44.265  1.00  0.00     0.159 C 
ATOM      8  C   UNL     1       9.833  -7.621 -43.238  1.00  0.00     0.093 C 
ATOM      9  O   UNL     1      11.354  -7.585 -45.059  1.00  0.00    -0.295 OA
ENDBRANCH   1   7
BRANCH   3  10
ATOM     10  O   UNL     1      13.028 -12.588 -43.334  1.00  0.00    -0.493 OA
ATOM     11  C   UNL     1      14.400 -12.300 -43.582  1.00  0.00     0.278 C 
ENDBRANCH   3  10
BRANCH   4  12
ATOM     12  O   UNL     1      10.986 -13.986 -44.651  1.00  0.00    -0.504 OA
ATOM     13  H   UNL     1      11.770 -14.466 -45.079  1.00  0.00     0.293 HD
ENDBRANCH   4  12
TORSDOF 3
ENDMDL
MODEL 5
REMARK VINA RESULT:    -4.460      2.569      5.066
REMARK INTER + INTRA:          -5.205
REMARK INTER:                  -5.091
REMARK INTRA:                  -0.114
REMARK UNBOUND:                -0.093
REMARK SMILES COc1cc(C(C)=O)ccc1O
REMARK SMILES IDX 5 1 4 2 3 3 11 4 10 5 9 6 6 7 7 8 8 9 2 10 1 11 12 12
REMARK H PARENT 12 13
REMARK Flexibility Score: inf
ROOT
ATOM      1  C   UNL     1      11.608 -10.427 -43.979  1.00  0.00     0.021 A 
ATOM      2  C   UNL     1      12.947 -10.856 -43.898  1.00  0.00     0.062 A 
ATOM      3  C   UNL     1      13.261 -12.202 -43.622  1.00  0.00     0.161 A 
ATOM      4  C   UNL     1      12.218 -13.125 -43.427  1.00  0.00     0.157 A 
ATOM      5  C   UNL     1      10.889 -12.704 -43.506  1.00  0.00     0.051 A 
ATOM      6  C   UNL     1      10.583 -11.370 -43.779  1.00  0.00     0.016 A 
ENDROOT
BRANCH   1   7
ATOM      7  C   UNL     1      11.298  -9.000 -44.271  1.00  0.00     0.159 C 
ATOM      8  C   UNL     1      10.014  -8.361 -43.833  1.00  0.00     0.093 C 
ATOM      9  O   UNL     1      12.131  -8.296 -44.904  1.00  0.00    -0.295 OA
ENDBRANCH   1   7
BRANCH   3  10
ATOM     10  O   UNL     1      14.587 -12.654 -43.535  1.00  0.00    -0.493 OA
ATOM     11  C   UNL     1      15.686 -11.862 -43.096  1.00  0.00     0.278 C 
ENDBRANCH   3  10
BRANCH   4  12
ATOM     12  O   UNL     1      12.484 -14.466 -43.152  1.00  0.00    -0.504 OA
ATOM     13  H   UNL     1      13.305 -14.760 -42.636  1.00  0.00     0.293 HD
ENDBRANCH   4  12
TORSDOF 3
ENDMDL
MODEL 6
REMARK VINA RESULT:    -4.450      3.593      5.233
REMARK INTER + INTRA:          -5.194
REMARK INTER:                  -5.057
REMARK INTRA:                  -0.137
REMARK UNBOUND:                -0.093
REMARK SMILES COc1cc(C(C)=O)ccc1O
REMARK SMILES IDX 5 1 4 2 3 3 11 4 10 5 9 6 6 7 7 8 8 9 2 10 1 11 12 12
REMARK H PARENT 12 13
REMARK Flexibility Score: inf
ROOT
ATOM      1  C   UNL     1       9.813 -10.830 -44.945  1.00  0.00     0.021 A 
ATOM      2  C   UNL     1       9.891 -12.236 -44.905  1.00  0.00     0.062 A 
ATOM      3  C   UNL     1       8.814 -13.034 -45.338  1.00  0.00     0.161 A 
ATOM      4  C   UNL     1       7.647 -12.413 -45.818  1.00  0.00     0.157 A 
ATOM      5  C   UNL     1       7.565 -11.020 -45.860  1.00  0.00     0.051 A 
ATOM      6  C   UNL     1       8.635 -10.233 -45.430  1.00  0.00     0.016 A 
ENDROOT
BRANCH   1   7
ATOM      7  C   UNL     1      10.963 -10.006 -44.482  1.00  0.00     0.159 C 
ATOM      8  C   UNL     1      10.852  -8.520 -44.301  1.00  0.00     0.093 C 
ATOM      9  O   UNL     1      12.068 -10.557 -44.230  1.00  0.00    -0.295 OA
ENDBRANCH   1   7
BRANCH   3  10
ATOM     10  O   UNL     1       8.868 -14.437 -45.306  1.00  0.00    -0.493 OA
ATOM     11  C   UNL     1       8.607 -15.232 -44.154  1.00  0.00     0.278 C 
ENDBRANCH   3  10
BRANCH   4  12
ATOM     12  O   UNL     1       6.558 -13.165 -46.257  1.00  0.00    -0.504 OA
ATOM     13  H   UNL     1       5.680 -13.190 -45.752  1.00  0.00     0.293 HD
ENDBRANCH   4  12
TORSDOF 3
ENDMDL
MODEL 7
REMARK VINA RESULT:    -4.444      3.569      5.774
REMARK INTER + INTRA:          -5.186
REMARK INTER:                  -5.054
REMARK INTRA:                  -0.132
REMARK UNBOUND:                -0.093
REMARK SMILES COc1cc(C(C)=O)ccc1O
REMARK SMILES IDX 5 1 4 2 3 3 11 4 10 5 9 6 6 7 7 8 8 9 2 10 1 11 12 12
REMARK H PARENT 12 13
REMARK Flexibility Score: inf
ROOT
ATOM      1  C   UNL     1       9.762 -10.687 -45.180  1.00  0.00     0.021 A 
ATOM      2  C   UNL     1      10.204 -11.921 -45.696  1.00  0.00     0.062 A 
ATOM      3  C   UNL     1       9.332 -12.758 -46.421  1.00  0.00     0.161 A 
ATOM      4  C   UNL     1       8.003 -12.349 -46.630  1.00  0.00     0.157 A 
ATOM      5  C   UNL     1       7.560 -11.127 -46.120  1.00  0.00     0.051 A 
ATOM      6  C   UNL     1       8.427 -10.301 -45.403  1.00  0.00     0.016 A 
ENDROOT
BRANCH   1   7
ATOM      7  C   UNL     1      10.699  -9.819 -44.417  1.00  0.00     0.159 C 
ATOM      8  C   UNL     1      10.313  -8.443 -43.961  1.00  0.00     0.093 C 
ATOM      9  O   UNL     1      11.856 -10.238 -44.138  1.00  0.00    -0.295 OA
ENDBRANCH   1   7
BRANCH   3  10
ATOM     10  O   UNL     1       9.749 -13.992 -46.944  1.00  0.00    -0.493 OA
ATOM     11  C   UNL     1      10.727 -14.150 -47.967  1.00  0.00     0.278 C 
ENDBRANCH   3  10
BRANCH   4  12
ATOM     12  O   UNL     1       7.106 -13.146 -47.342  1.00  0.00    -0.504 OA
ATOM     13  H   UNL     1       6.122 -13.194 -47.106  1.00  0.00     0.293 HD
ENDBRANCH   4  12
TORSDOF 3
ENDMDL
MODEL 8
REMARK VINA RESULT:    -4.419      2.570      4.854
REMARK INTER + INTRA:          -5.158
REMARK INTER:                  -5.060
REMARK INTRA:                  -0.097
REMARK UNBOUND:                -0.093
REMARK SMILES COc1cc(C(C)=O)ccc1O
REMARK SMILES IDX 5 1 4 2 3 3 11 4 10 5 9 6 6 7 7 8 8 9 2 10 1 11 12 12
REMARK H PARENT 12 13
REMARK Flexibility Score: inf
ROOT
ATOM      1  C   UNL     1      10.029  -9.981 -44.695  1.00  0.00     0.021 A 
ATOM      2  C   UNL     1      10.777 -11.128 -44.361  1.00  0.00     0.062 A 
ATOM      3  C   UNL     1      10.300 -12.418 -44.667  1.00  0.00     0.161 A 
ATOM      4  C   UNL     1       9.061 -12.557 -45.316  1.00  0.00     0.157 A 
ATOM      5  C   UNL     1       8.316 -11.424 -45.650  1.00  0.00     0.051 A 
ATOM      6  C   UNL     1       8.792 -10.148 -45.345  1.00  0.00     0.016 A 
ENDROOT
BRANCH   1   7
ATOM      7  C   UNL     1      10.551  -8.628 -44.363  1.00  0.00     0.159 C 
ATOM      8  C   UNL     1       9.950  -7.791 -43.272  1.00  0.00     0.093 C 
ATOM      9  O   UNL     1      11.527  -8.156 -45.008  1.00  0.00    -0.295 OA
ENDBRANCH   1   7
BRANCH   3  10
ATOM     10  O   UNL     1      11.026 -13.575 -44.343  1.00  0.00    -0.493 OA
ATOM     11  C   UNL     1      12.128 -13.615 -43.441  1.00  0.00     0.278 C 
ENDBRANCH   3  10
BRANCH   4  12
ATOM     12  O   UNL     1       8.552 -13.815 -45.638  1.00  0.00    -0.504 OA
ATOM     13  H   UNL     1       9.150 -14.584 -45.919  1.00  0.00     0.293 HD
ENDBRANCH   4  12
TORSDOF 3
ENDMDL
MODEL 9
REMARK VINA RESULT:    -4.403      2.691      5.009
REMARK INTER + INTRA:          -5.140
REMARK INTER:                  -5.027
REMARK INTRA:                  -0.113
REMARK UNBOUND:                -0.093
REMARK SMILES COc1cc(C(C)=O)ccc1O
REMARK SMILES IDX 5 1 4 2 3 3 11 4 10 5 9 6 6 7 7 8 8 9 2 10 1 11 12 12
REMARK H PARENT 12 13
REMARK Flexibility Score: inf
ROOT
ATOM      1  C   UNL     1      11.804 -10.596 -43.980  1.00  0.00     0.021 A 
ATOM      2  C   UNL     1      10.662 -11.413 -43.875  1.00  0.00     0.062 A 
ATOM      3  C   UNL     1      10.778 -12.785 -43.573  1.00  0.00     0.161 A 
ATOM      4  C   UNL     1      12.055 -13.339 -43.374  1.00  0.00     0.157 A 
ATOM      5  C   UNL     1      13.190 -12.533 -43.478  1.00  0.00     0.051 A 
ATOM      6  C   UNL     1      13.071 -11.175 -43.777  1.00  0.00     0.016 A 
ENDROOT
BRANCH   1   7
ATOM      7  C   UNL     1      11.659  -9.149 -44.300  1.00  0.00     0.159 C 
ATOM      8  C   UNL     1      10.412  -8.385 -43.969  1.00  0.00     0.093 C 
ATOM      9  O   UNL     1      12.604  -8.534 -44.865  1.00  0.00    -0.295 OA
ENDBRANCH   1   7
BRANCH   3  10
ATOM     10  O   UNL     1       9.655 -13.620 -43.463  1.00  0.00    -0.493 OA
ATOM     11  C   UNL     1       8.894 -14.104 -44.565  1.00  0.00     0.278 C 
ENDBRANCH   3  10
BRANCH   4  12
ATOM     12  O   UNL     1      12.216 -14.692 -43.073  1.00  0.00    -0.504 OA
ATOM     13  H   UNL     1      12.996 -15.034 -42.525  1.00  0.00     0.293 HD
ENDBRANCH   4  12
TORSDOF 3
ENDMDL
