MODEL 1
REMARK VINA RESULT:    -3.053      0.000      0.000
REMARK INTER + INTRA:          -3.245
REMARK INTER:                  -3.232
REMARK INTRA:                  -0.013
REMARK UNBOUND:                -0.013
REMARK SMILES O=Cc1ccco1
REMARK SMILES IDX 5 1 6 2 7 3 3 4 4 5 2 6 1 7
REMARK H PARENT
REMARK Flexibility Score: inf
ROOT
ATOM      1  C   UNL     1     160.630 163.286 187.503  1.00  0.00     0.043 A 
ATOM      2  C   UNL     1     160.261 163.405 186.178  1.00  0.00     0.196 A 
ATOM      3  O   UNL     1     161.170 162.845 185.414  1.00  0.00    -0.462 OA
ATOM      4  C   UNL     1     162.121 162.364 186.181  1.00  0.00     0.166 A 
ATOM      5  C   UNL     1     161.832 162.612 187.507  1.00  0.00     0.054 A 
ENDROOT
BRANCH   4   6
ATOM      6  C   UNL     1     163.308 161.665 185.684  1.00  0.00     0.298 C 
ATOM      7  O   UNL     1     163.187 160.676 184.917  1.00  0.00    -0.294 OA
ENDBRANCH   4   6
TORSDOF 1
ENDMDL
MODEL 2
REMARK VINA RESULT:    -3.040     15.707     15.916
REMARK INTER + INTRA:          -3.231
REMARK INTER:                  -3.220
REMARK INTRA:                  -0.011
REMARK UNBOUND:                -0.013
REMARK SMILES O=Cc1ccco1
REMARK SMILES IDX 5 1 6 2 7 3 3 4 4 5 2 6 1 7
REMARK H PARENT
REMARK Flexibility Score: inf
ROOT
ATOM      1  C   UNL     1     161.111 177.887 187.969  1.00  0.00     0.043 A 
ATOM      2  C   UNL     1     160.637 178.198 186.711  1.00  0.00     0.196 A 
ATOM      3  O   UNL     1     161.645 178.348 185.883  1.00  0.00    -0.462 OA
ATOM      4  C   UNL     1     162.761 178.149 186.545  1.00  0.00     0.166 A 
ATOM      5  C   UNL     1     162.485 177.855 187.864  1.00  0.00     0.054 A 
ENDROOT
BRANCH   4   6
ATOM      6  C   UNL     1     164.097 178.231 185.952  1.00  0.00     0.298 C 
ATOM      7  O   UNL     1     164.956 179.017 186.429  1.00  0.00    -0.294 OA
ENDBRANCH   4   6
TORSDOF 1
ENDMDL
MODEL 3
REMARK VINA RESULT:    -2.991     13.616     14.607
REMARK INTER + INTRA:          -3.179
REMARK INTER:                  -3.167
REMARK INTRA:                  -0.011
REMARK UNBOUND:                -0.013
REMARK SMILES O=Cc1ccco1
REMARK SMILES IDX 5 1 6 2 7 3 3 4 4 5 2 6 1 7
REMARK H PARENT
REMARK Flexibility Score: inf
ROOT
ATOM      1  C   UNL     1     160.984 176.157 187.748  1.00  0.00     0.043 A 
ATOM      2  C   UNL     1     160.485 175.115 186.993  1.00  0.00     0.196 A 
ATOM      3  O   UNL     1     160.241 175.530 185.771  1.00  0.00    -0.462 OA
ATOM      4  C   UNL     1     160.559 176.802 185.693  1.00  0.00     0.166 A 
ATOM      5  C   UNL     1     161.033 177.249 186.908  1.00  0.00     0.054 A 
ENDROOT
BRANCH   4   6
ATOM      6  C   UNL     1     160.424 177.612 184.481  1.00  0.00     0.298 C 
ATOM      7  O   UNL     1     159.875 178.742 184.532  1.00  0.00    -0.294 OA
ENDBRANCH   4   6
TORSDOF 1
ENDMDL
MODEL 4
REMARK VINA RESULT:    -2.986     20.164     20.880
REMARK INTER + INTRA:          -3.174
REMARK INTER:                  -3.163
REMARK INTRA:                  -0.011
REMARK UNBOUND:                -0.013
REMARK SMILES O=Cc1ccco1
REMARK SMILES IDX 5 1 6 2 7 3 3 4 4 5 2 6 1 7
REMARK H PARENT
REMARK Flexibility Score: inf
ROOT
ATOM      1  C   UNL     1     160.335 177.865 174.433  1.00  0.00     0.043 A 
ATOM      2  C   UNL     1     159.883 179.082 173.963  1.00  0.00     0.196 A 
ATOM      3  O   UNL     1     160.616 179.460 172.941  1.00  0.00    -0.462 OA
ATOM      4  C   UNL     1     161.530 178.544 172.721  1.00  0.00     0.166 A 
ATOM      5  C   UNL     1     161.400 177.515 173.631  1.00  0.00     0.054 A 
ENDROOT
BRANCH   4   6
ATOM      6  C   UNL     1     162.533 178.618 171.658  1.00  0.00     0.298 C 
ATOM      7  O   UNL     1     162.464 177.849 170.665  1.00  0.00    -0.294 OA
ENDBRANCH   4   6
TORSDOF 1
ENDMDL
MODEL 5
REMARK VINA RESULT:    -2.972     13.930     14.861
REMARK INTER + INTRA:          -3.159
REMARK INTER:                  -3.143
REMARK INTRA:                  -0.016
REMARK UNBOUND:                -0.013
REMARK SMILES O=Cc1ccco1
REMARK SMILES IDX 5 1 6 2 7 3 3 4 4 5 2 6 1 7
REMARK H PARENT
REMARK Flexibility Score: inf
ROOT
ATOM      1  C   UNL     1     161.009 177.582 187.788  1.00  0.00     0.043 A 
ATOM      2  C   UNL     1     161.044 176.240 187.464  1.00  0.00     0.196 A 
ATOM      3  O   UNL     1     160.782 176.086 186.187  1.00  0.00    -0.462 OA
ATOM      4  C   UNL     1     160.577 177.271 185.658  1.00  0.00     0.166 A 
ATOM      5  C   UNL     1     160.707 178.250 186.620  1.00  0.00     0.054 A 
ENDROOT
BRANCH   4   6
ATOM      6  C   UNL     1     160.258 177.500 184.248  1.00  0.00     0.298 C 
ATOM      7  O   UNL     1     159.875 176.547 183.521  1.00  0.00    -0.294 OA
ENDBRANCH   4   6
TORSDOF 1
ENDMDL
MODEL 6
REMARK VINA RESULT:    -2.960     19.855     20.137
REMARK INTER + INTRA:          -3.146
REMARK INTER:                  -3.132
REMARK INTRA:                  -0.014
REMARK UNBOUND:                -0.013
REMARK SMILES O=Cc1ccco1
REMARK SMILES IDX 5 1 6 2 7 3 3 4 4 5 2 6 1 7
REMARK H PARENT
REMARK Flexibility Score: inf
ROOT
ATOM      1  C   UNL     1     173.377 179.703 187.282  1.00  0.00     0.043 A 
ATOM      2  C   UNL     1     173.548 179.810 185.917  1.00  0.00     0.196 A 
ATOM      3  O   UNL     1     172.383 179.713 185.317  1.00  0.00    -0.462 OA
ATOM      4  C   UNL     1     171.456 179.548 186.232  1.00  0.00     0.166 A 
ATOM      5  C   UNL     1     172.025 179.534 187.488  1.00  0.00     0.054 A 
ENDROOT
BRANCH   4   6
ATOM      6  C   UNL     1     170.028 179.402 185.942  1.00  0.00     0.298 C 
ATOM      7  O   UNL     1     169.481 180.125 185.071  1.00  0.00    -0.294 OA
ENDBRANCH   4   6
TORSDOF 1
ENDMDL
MODEL 7
REMARK VINA RESULT:    -2.872      2.606      3.899
REMARK INTER + INTRA:          -3.053
REMARK INTER:                  -3.041
REMARK INTRA:                  -0.012
REMARK UNBOUND:                -0.013
REMARK SMILES O=Cc1ccco1
REMARK SMILES IDX 5 1 6 2 7 3 3 4 4 5 2 6 1 7
REMARK H PARENT
REMARK Flexibility Score: inf
ROOT
ATOM      1  C   UNL     1     165.530 162.030 188.393  1.00  0.00     0.043 A 
ATOM      2  C   UNL     1     166.398 161.502 187.458  1.00  0.00     0.196 A 
ATOM      3  O   UNL     1     165.780 161.369 186.307  1.00  0.00    -0.462 OA
ATOM      4  C   UNL     1     164.543 161.786 186.447  1.00  0.00     0.166 A 
ATOM      5  C   UNL     1     164.330 162.214 187.741  1.00  0.00     0.054 A 
ENDROOT
BRANCH   4   6
ATOM      6  C   UNL     1     163.547 161.790 185.374  1.00  0.00     0.298 C 
ATOM      7  O   UNL     1     163.183 160.709 184.843  1.00  0.00    -0.294 OA
ENDBRANCH   4   6
TORSDOF 1
ENDMDL
MODEL 8
REMARK VINA RESULT:    -2.862     20.027     20.949
REMARK INTER + INTRA:          -3.043
REMARK INTER:                  -3.031
REMARK INTRA:                  -0.011
REMARK UNBOUND:                -0.013
REMARK SMILES O=Cc1ccco1
REMARK SMILES IDX 5 1 6 2 7 3 3 4 4 5 2 6 1 7
REMARK H PARENT
REMARK Flexibility Score: inf
ROOT
ATOM      1  C   UNL     1     163.195 177.812 171.845  1.00  0.00     0.043 A 
ATOM      2  C   UNL     1     163.153 176.998 172.959  1.00  0.00     0.196 A 
ATOM      3  O   UNL     1     162.104 177.301 173.689  1.00  0.00    -0.462 OA
ATOM      4  C   UNL     1     161.456 178.280 173.102  1.00  0.00     0.166 A 
ATOM      5  C   UNL     1     162.098 178.642 171.935  1.00  0.00     0.054 A 
ENDROOT
BRANCH   4   6
ATOM      6  C   UNL     1     160.230 178.887 173.622  1.00  0.00     0.298 C 
ATOM      7  O   UNL     1     160.038 180.125 173.510  1.00  0.00    -0.294 OA
ENDBRANCH   4   6
TORSDOF 1
ENDMDL
MODEL 9
REMARK VINA RESULT:    -2.789     13.224     14.104
REMARK INTER + INTRA:          -2.966
REMARK INTER:                  -2.949
REMARK INTRA:                  -0.016
REMARK UNBOUND:                -0.013
REMARK SMILES O=Cc1ccco1
REMARK SMILES IDX 5 1 6 2 7 3 3 4 4 5 2 6 1 7
REMARK H PARENT
REMARK Flexibility Score: inf
ROOT
ATOM      1  C   UNL     1     161.306 178.179 186.810  1.00  0.00     0.043 A 
ATOM      2  C   UNL     1     160.809 177.881 185.557  1.00  0.00     0.196 A 
ATOM      3  O   UNL     1     160.400 176.633 185.529  1.00  0.00    -0.462 OA
ATOM      4  C   UNL     1     160.608 176.100 186.711  1.00  0.00     0.166 A 
ATOM      5  C   UNL     1     161.177 177.028 187.558  1.00  0.00     0.054 A 
ENDROOT
BRANCH   4   6
ATOM      6  C   UNL     1     160.278 174.718 187.061  1.00  0.00     0.298 C 
ATOM      7  O   UNL     1     159.875 173.918 186.177  1.00  0.00    -0.294 OA
ENDBRANCH   4   6
TORSDOF 1
ENDMDL
