MODEL 1
REMARK VINA RESULT:    10.742      0.000      0.000
REMARK INTER + INTRA:          25.466
REMARK INTER:                  27.070
REMARK INTRA:                  -1.604
REMARK UNBOUND:                -1.604
REMARK SMILES CCCCCCCCCCCCCCCCCCCCCCCCCCCC(=O)[O-]
REMARK SMILES IDX 15 1 16 2 17 3 18 4 19 5 20 6 21 7 22 8 23 9 24 10 25 11
REMARK SMILES IDX 26 12 27 13 28 14 29 15 30 16 14 17 13 18 12 19 11 20 10 21
REMARK SMILES IDX 9 22 8 23 7 24 6 25 5 26 4 27 3 28 2 29 1 30
REMARK H PARENT
REMARK Flexibility Score: inf
ROOT
ATOM      1  C   UNL     1      10.136   2.130 -13.837  1.00  0.00     0.000 C 
ENDROOT
BRANCH   1   2
ATOM      2  C   UNL     1      10.716   2.109 -15.261  1.00  0.00     0.000 C 
BRANCH   2   3
ATOM      3  C   UNL     1      12.229   1.841 -15.276  1.00  0.00     0.000 C 
BRANCH   3   4
ATOM      4  C   UNL     1      12.932   2.483 -16.486  1.00  0.00     0.000 C 
BRANCH   4   5
ATOM      5  C   UNL     1      13.395   1.431 -17.517  1.00  0.00     0.000 C 
BRANCH   5   6
ATOM      6  C   UNL     1      13.435  -0.004 -16.964  1.00  0.00     0.000 C 
BRANCH   6   7
ATOM      7  C   UNL     1      12.303  -0.887 -17.510  1.00  0.00     0.000 C 
BRANCH   7   8
ATOM      8  C   UNL     1      11.451  -1.523 -16.398  1.00  0.00     0.000 C 
BRANCH   8   9
ATOM      9  C   UNL     1      10.712  -2.803 -16.844  1.00  0.00     0.000 C 
BRANCH   9  10
ATOM     10  C   UNL     1      11.167  -4.041 -16.057  1.00  0.00     0.000 C 
BRANCH  10  11
ATOM     11  C   UNL     1      11.313  -5.257 -16.980  1.00  0.00     0.000 C 
BRANCH  11  12
ATOM     12  C   UNL     1      12.257  -4.949 -18.152  1.00  0.00     0.006 C 
BRANCH  12  13
ATOM     13  C   UNL     1      12.725  -6.222 -18.869  1.00  0.00     0.053 C 
BRANCH  13  14
ATOM     14  C   UNL     1      14.171  -6.510 -18.602  1.00  0.00     0.041 C 
ATOM     15  O   UNL     1      15.065  -5.965 -19.301  1.00  0.00    -0.550 OA
ATOM     16  O   UNL     1      14.528  -7.405 -17.600  1.00  0.00    -0.550 OA
ENDBRANCH  13  14
ENDBRANCH  12  13
ENDBRANCH  11  12
ENDBRANCH  10  11
ENDBRANCH   9  10
ENDBRANCH   8   9
ENDBRANCH   7   8
ENDBRANCH   6   7
ENDBRANCH   5   6
ENDBRANCH   4   5
ENDBRANCH   3   4
ENDBRANCH   2   3
ENDBRANCH   1   2
BRANCH   1  17
ATOM     17  C   UNL     1       9.268   0.897 -13.521  1.00  0.00     0.000 C 
BRANCH  17  18
ATOM     18  C   UNL     1       7.901   1.202 -12.878  1.00  0.00     0.000 C 
BRANCH  18  19
ATOM     19  C   UNL     1       6.932   1.918 -13.836  1.00  0.00     0.000 C 
BRANCH  19  20
ATOM     20  C   UNL     1       5.680   1.077 -14.146  1.00  0.00     0.000 C 
BRANCH  20  21
ATOM     21  C   UNL     1       4.373   1.640 -13.556  1.00  0.00     0.000 C 
BRANCH  21  22
ATOM     22  C   UNL     1       3.212   0.633 -13.626  1.00  0.00    -0.000 C 
BRANCH  22  23
ATOM     23  C   UNL     1       1.902   1.201 -13.053  1.00  0.00    -0.000 C 
BRANCH  23  24
ATOM     24  C   UNL     1       0.658   0.489 -13.606  1.00  0.00    -0.000 C 
BRANCH  24  25
ATOM     25  C   UNL     1      -0.118   1.403 -14.566  1.00  0.00    -0.000 C 
BRANCH  25  26
ATOM     26  C   UNL     1      -0.123   0.884 -16.014  1.00  0.00    -0.000 C 
BRANCH  26  27
ATOM     27  C   UNL     1       0.204  -0.620 -16.133  1.00  0.00    -0.000 C 
BRANCH  27  28
ATOM     28  C   UNL     1       0.676  -1.001 -17.544  1.00  0.00    -0.000 C 
BRANCH  28  29
ATOM     29  C   UNL     1      -0.036  -2.264 -18.040  1.00  0.00    -0.003 C 
ATOM     30  C   UNL     1       0.005  -2.359 -19.562  1.00  0.00     0.004 C 
ENDBRANCH  28  29
ENDBRANCH  27  28
ENDBRANCH  26  27
ENDBRANCH  25  26
ENDBRANCH  24  25
ENDBRANCH  23  24
ENDBRANCH  22  23
ENDBRANCH  21  22
ENDBRANCH  20  21
ENDBRANCH  19  20
ENDBRANCH  18  19
ENDBRANCH  17  18
ENDBRANCH   1  17
TORSDOF 26
ENDMDL
MODEL 2
REMARK VINA RESULT:    10.870      4.115     11.021
REMARK INTER + INTRA:          25.788
REMARK INTER:                  26.639
REMARK INTRA:                  -0.851
REMARK UNBOUND:                -1.604
REMARK SMILES CCCCCCCCCCCCCCCCCCCCCCCCCCCC(=O)[O-]
REMARK SMILES IDX 15 1 16 2 17 3 18 4 19 5 20 6 21 7 22 8 23 9 24 10 25 11
REMARK SMILES IDX 26 12 27 13 28 14 29 15 30 16 14 17 13 18 12 19 11 20 10 21
REMARK SMILES IDX 9 22 8 23 7 24 6 25 5 26 4 27 3 28 2 29 1 30
REMARK H PARENT
REMARK Flexibility Score: inf
ROOT
ATOM      1  C   UNL     1      10.761   1.055 -14.537  1.00  0.00     0.000 C 
ENDROOT
BRANCH   1   2
ATOM      2  C   UNL     1      10.260   1.041 -13.083  1.00  0.00     0.000 C 
BRANCH   2   3
ATOM      3  C   UNL     1       8.850   0.443 -12.953  1.00  0.00     0.000 C 
BRANCH   3   4
ATOM      4  C   UNL     1       7.756   1.521 -12.848  1.00  0.00     0.000 C 
BRANCH   4   5
ATOM      5  C   UNL     1       6.477   1.132 -13.620  1.00  0.00     0.000 C 
BRANCH   5   6
ATOM      6  C   UNL     1       5.283   2.064 -13.351  1.00  0.00     0.000 C 
BRANCH   6   7
ATOM      7  C   UNL     1       4.007   1.303 -12.961  1.00  0.00     0.000 C 
BRANCH   7   8
ATOM      8  C   UNL     1       3.104   0.990 -14.166  1.00  0.00     0.000 C 
BRANCH   8   9
ATOM      9  C   UNL     1       1.703   0.478 -13.770  1.00  0.00     0.000 C 
BRANCH   9  10
ATOM     10  C   UNL     1       0.635   0.839 -14.813  1.00  0.00     0.000 C 
BRANCH  10  11
ATOM     11  C   UNL     1      -0.104  -0.414 -15.300  1.00  0.00     0.000 C 
BRANCH  11  12
ATOM     12  C   UNL     1      -0.044  -0.529 -16.831  1.00  0.00     0.006 C 
BRANCH  12  13
ATOM     13  C   UNL     1       0.067  -1.986 -17.298  1.00  0.00     0.053 C 
BRANCH  13  14
ATOM     14  C   UNL     1      -0.014  -2.098 -18.790  1.00  0.00     0.041 C 
ATOM     15  O   UNL     1       0.030  -3.228 -19.343  1.00  0.00    -0.550 OA
ATOM     16  O   UNL     1      -0.107  -0.952 -19.569  1.00  0.00    -0.550 OA
ENDBRANCH  13  14
ENDBRANCH  12  13
ENDBRANCH  11  12
ENDBRANCH  10  11
ENDBRANCH   9  10
ENDBRANCH   8   9
ENDBRANCH   7   8
ENDBRANCH   6   7
ENDBRANCH   5   6
ENDBRANCH   4   5
ENDBRANCH   3   4
ENDBRANCH   2   3
ENDBRANCH   1   2
BRANCH   1  17
ATOM     17  C   UNL     1      11.063   2.472 -15.057  1.00  0.00     0.000 C 
BRANCH  17  18
ATOM     18  C   UNL     1      11.769   2.535 -16.425  1.00  0.00     0.000 C 
BRANCH  18  19
ATOM     19  C   UNL     1      13.191   1.947 -16.396  1.00  0.00     0.000 C 
BRANCH  19  20
ATOM     20  C   UNL     1      13.587   1.293 -17.733  1.00  0.00     0.000 C 
BRANCH  20  21
ATOM     21  C   UNL     1      13.057  -0.142 -17.921  1.00  0.00     0.000 C 
BRANCH  21  22
ATOM     22  C   UNL     1      12.191  -0.609 -16.738  1.00  0.00    -0.000 C 
BRANCH  22  23
ATOM     23  C   UNL     1      12.266  -2.129 -16.515  1.00  0.00    -0.000 C 
BRANCH  23  24
ATOM     24  C   UNL     1      10.880  -2.791 -16.484  1.00  0.00    -0.000 C 
BRANCH  24  25
ATOM     25  C   UNL     1      10.988  -4.304 -16.721  1.00  0.00    -0.000 C 
BRANCH  25  26
ATOM     26  C   UNL     1      11.651  -4.653 -18.065  1.00  0.00    -0.000 C 
BRANCH  26  27
ATOM     27  C   UNL     1      12.413  -5.996 -18.050  1.00  0.00    -0.000 C 
BRANCH  27  28
ATOM     28  C   UNL     1      13.508  -6.054 -19.124  1.00  0.00    -0.000 C 
BRANCH  28  29
ATOM     29  C   UNL     1      14.722  -6.850 -18.631  1.00  0.00    -0.003 C 
ATOM     30  C   UNL     1      14.659  -7.075 -17.123  1.00  0.00     0.004 C 
ENDBRANCH  28  29
ENDBRANCH  27  28
ENDBRANCH  26  27
ENDBRANCH  25  26
ENDBRANCH  24  25
ENDBRANCH  23  24
ENDBRANCH  22  23
ENDBRANCH  21  22
ENDBRANCH  20  21
ENDBRANCH  19  20
ENDBRANCH  18  19
ENDBRANCH  17  18
ENDBRANCH   1  17
TORSDOF 26
ENDMDL
MODEL 3
REMARK VINA RESULT:    10.905      0.773      1.403
REMARK INTER + INTRA:          25.876
REMARK INTER:                  27.265
REMARK INTRA:                  -1.389
REMARK UNBOUND:                -1.604
REMARK SMILES CCCCCCCCCCCCCCCCCCCCCCCCCCCC(=O)[O-]
REMARK SMILES IDX 15 1 16 2 17 3 18 4 19 5 20 6 21 7 22 8 23 9 24 10 25 11
REMARK SMILES IDX 26 12 27 13 28 14 29 15 30 16 14 17 13 18 12 19 11 20 10 21
REMARK SMILES IDX 9 22 8 23 7 24 6 25 5 26 4 27 3 28 2 29 1 30
REMARK H PARENT
REMARK Flexibility Score: inf
ROOT
ATOM      1  C   UNL     1      11.156   1.746 -15.580  1.00  0.00     0.000 C 
ENDROOT
BRANCH   1   2
ATOM      2  C   UNL     1      12.045   2.947 -15.944  1.00  0.00     0.000 C 
BRANCH   2   3
ATOM      3  C   UNL     1      13.445   2.521 -16.415  1.00  0.00     0.000 C 
BRANCH   3   4
ATOM      4  C   UNL     1      13.446   1.983 -17.858  1.00  0.00     0.000 C 
BRANCH   4   5
ATOM      5  C   UNL     1      14.070   0.574 -17.955  1.00  0.00     0.000 C 
BRANCH   5   6
ATOM      6  C   UNL     1      13.495  -0.430 -16.942  1.00  0.00     0.000 C 
BRANCH   6   7
ATOM      7  C   UNL     1      12.066  -0.876 -17.287  1.00  0.00     0.000 C 
BRANCH   7   8
ATOM      8  C   UNL     1      11.438  -1.765 -16.201  1.00  0.00     0.000 C 
BRANCH   8   9
ATOM      9  C   UNL     1      10.588  -2.923 -16.766  1.00  0.00     0.000 C 
BRANCH   9  10
ATOM     10  C   UNL     1      11.225  -4.295 -16.500  1.00  0.00     0.000 C 
BRANCH  10  11
ATOM     11  C   UNL     1      11.243  -5.149 -17.774  1.00  0.00     0.000 C 
BRANCH  11  12
ATOM     12  C   UNL     1      12.453  -6.095 -17.787  1.00  0.00     0.006 C 
BRANCH  12  13
ATOM     13  C   UNL     1      13.499  -5.683 -18.831  1.00  0.00     0.053 C 
BRANCH  13  14
ATOM     14  C   UNL     1      14.720  -6.548 -18.764  1.00  0.00     0.041 C 
ATOM     15  O   UNL     1      15.577  -6.507 -19.686  1.00  0.00    -0.550 OA
ATOM     16  O   UNL     1      14.896  -7.421 -17.697  1.00  0.00    -0.550 OA
ENDBRANCH  13  14
ENDBRANCH  12  13
ENDBRANCH  11  12
ENDBRANCH  10  11
ENDBRANCH   9  10
ENDBRANCH   8   9
ENDBRANCH   7   8
ENDBRANCH   6   7
ENDBRANCH   5   6
ENDBRANCH   4   5
ENDBRANCH   3   4
ENDBRANCH   2   3
ENDBRANCH   1   2
BRANCH   1  17
ATOM     17  C   UNL     1      10.712   1.751 -14.105  1.00  0.00     0.000 C 
BRANCH  17  18
ATOM     18  C   UNL     1       9.408   0.986 -13.808  1.00  0.00     0.000 C 
BRANCH  18  19
ATOM     19  C   UNL     1       8.363   1.841 -13.069  1.00  0.00     0.000 C 
BRANCH  19  20
ATOM     20  C   UNL     1       6.961   1.203 -13.083  1.00  0.00     0.000 C 
BRANCH  20  21
ATOM     21  C   UNL     1       5.963   1.884 -14.039  1.00  0.00     0.000 C 
BRANCH  21  22
ATOM     22  C   UNL     1       4.538   1.941 -13.460  1.00  0.00    -0.000 C 
BRANCH  22  23
ATOM     23  C   UNL     1       3.707   0.696 -13.814  1.00  0.00    -0.000 C 
BRANCH  23  24
ATOM     24  C   UNL     1       2.450   0.557 -12.942  1.00  0.00    -0.000 C 
BRANCH  24  25
ATOM     25  C   UNL     1       1.203   1.050 -13.692  1.00  0.00    -0.000 C 
BRANCH  25  26
ATOM     26  C   UNL     1       0.807   0.132 -14.862  1.00  0.00    -0.000 C 
BRANCH  26  27
ATOM     27  C   UNL     1      -0.122   0.809 -15.892  1.00  0.00    -0.000 C 
BRANCH  27  28
ATOM     28  C   UNL     1       0.016   0.191 -17.291  1.00  0.00    -0.000 C 
BRANCH  28  29
ATOM     29  C   UNL     1       0.767  -1.144 -17.232  1.00  0.00    -0.003 C 
ATOM     30  C   UNL     1       0.127  -2.179 -18.151  1.00  0.00     0.004 C 
ENDBRANCH  28  29
ENDBRANCH  27  28
ENDBRANCH  26  27
ENDBRANCH  25  26
ENDBRANCH  24  25
ENDBRANCH  23  24
ENDBRANCH  22  23
ENDBRANCH  21  22
ENDBRANCH  20  21
ENDBRANCH  19  20
ENDBRANCH  18  19
ENDBRANCH  17  18
ENDBRANCH   1  17
TORSDOF 26
ENDMDL
MODEL 4
REMARK VINA RESULT:    11.578      0.825      1.181
REMARK INTER + INTRA:          27.571
REMARK INTER:                  29.130
REMARK INTRA:                  -1.558
REMARK UNBOUND:                -1.604
REMARK SMILES CCCCCCCCCCCCCCCCCCCCCCCCCCCC(=O)[O-]
REMARK SMILES IDX 15 1 16 2 17 3 18 4 19 5 20 6 21 7 22 8 23 9 24 10 25 11
REMARK SMILES IDX 26 12 27 13 28 14 29 15 30 16 14 17 13 18 12 19 11 20 10 21
REMARK SMILES IDX 9 22 8 23 7 24 6 25 5 26 4 27 3 28 2 29 1 30
REMARK H PARENT
REMARK Flexibility Score: inf
ROOT
ATOM      1  C   UNL     1       9.417   0.450 -13.482  1.00  0.00     0.000 C 
ENDROOT
BRANCH   1   2
ATOM      2  C   UNL     1      10.613   1.353 -13.828  1.00  0.00     0.000 C 
BRANCH   2   3
ATOM      3  C   UNL     1      10.508   1.951 -15.240  1.00  0.00     0.000 C 
BRANCH   3   4
ATOM      4  C   UNL     1      11.756   2.763 -15.633  1.00  0.00     0.000 C 
BRANCH   4   5
ATOM      5  C   UNL     1      12.439   2.207 -16.901  1.00  0.00     0.000 C 
BRANCH   5   6
ATOM      6  C   UNL     1      13.153   0.862 -16.681  1.00  0.00     0.000 C 
BRANCH   6   7
ATOM      7  C   UNL     1      12.505  -0.293 -17.459  1.00  0.00     0.000 C 
BRANCH   7   8
ATOM      8  C   UNL     1      12.178  -1.504 -16.569  1.00  0.00     0.000 C 
BRANCH   8   9
ATOM      9  C   UNL     1      10.968  -2.324 -17.064  1.00  0.00     0.000 C 
BRANCH   9  10
ATOM     10  C   UNL     1      10.943  -3.741 -16.472  1.00  0.00     0.000 C 
BRANCH  10  11
ATOM     11  C   UNL     1      12.071  -4.601 -17.056  1.00  0.00     0.000 C 
BRANCH  11  12
ATOM     12  C   UNL     1      11.598  -5.353 -18.309  1.00  0.00     0.006 C 
BRANCH  12  13
ATOM     13  C   UNL     1      12.353  -6.673 -18.512  1.00  0.00     0.053 C 
BRANCH  13  14
ATOM     14  C   UNL     1      13.837  -6.474 -18.481  1.00  0.00     0.041 C 
ATOM     15  O   UNL     1      14.355  -5.476 -19.048  1.00  0.00    -0.550 OA
ATOM     16  O   UNL     1      14.651  -7.408 -17.850  1.00  0.00    -0.550 OA
ENDBRANCH  13  14
ENDBRANCH  12  13
ENDBRANCH  11  12
ENDBRANCH  10  11
ENDBRANCH   9  10
ENDBRANCH   8   9
ENDBRANCH   7   8
ENDBRANCH   6   7
ENDBRANCH   5   6
ENDBRANCH   4   5
ENDBRANCH   3   4
ENDBRANCH   2   3
ENDBRANCH   1   2
BRANCH   1  17
ATOM     17  C   UNL     1       8.250   1.217 -12.833  1.00  0.00     0.000 C 
BRANCH  17  18
ATOM     18  C   UNL     1       6.971   1.316 -13.689  1.00  0.00     0.000 C 
BRANCH  18  19
ATOM     19  C   UNL     1       5.859   2.139 -13.015  1.00  0.00     0.000 C 
BRANCH  19  20
ATOM     20  C   UNL     1       4.559   2.162 -13.841  1.00  0.00     0.000 C 
BRANCH  20  21
ATOM     21  C   UNL     1       3.849   0.799 -13.946  1.00  0.00     0.000 C 
BRANCH  21  22
ATOM     22  C   UNL     1       2.387   0.857 -13.468  1.00  0.00    -0.000 C 
BRANCH  22  23
ATOM     23  C   UNL     1       1.510   1.752 -14.359  1.00  0.00    -0.000 C 
BRANCH  23  24
ATOM     24  C   UNL     1       0.060   1.252 -14.452  1.00  0.00    -0.000 C 
BRANCH  24  25
ATOM     25  C   UNL     1       0.008  -0.282 -14.487  1.00  0.00    -0.000 C 
BRANCH  25  26
ATOM     26  C   UNL     1      -0.088  -0.845 -15.915  1.00  0.00    -0.000 C 
BRANCH  26  27
ATOM     27  C   UNL     1       1.064  -1.805 -16.281  1.00  0.00    -0.000 C 
BRANCH  27  28
ATOM     28  C   UNL     1       1.233  -1.957 -17.800  1.00  0.00    -0.000 C 
BRANCH  28  29
ATOM     29  C   UNL     1      -0.125  -2.119 -18.491  1.00  0.00    -0.003 C 
ATOM     30  C   UNL     1       0.029  -2.155 -20.009  1.00  0.00     0.004 C 
ENDBRANCH  28  29
ENDBRANCH  27  28
ENDBRANCH  26  27
ENDBRANCH  25  26
ENDBRANCH  24  25
ENDBRANCH  23  24
ENDBRANCH  22  23
ENDBRANCH  21  22
ENDBRANCH  20  21
ENDBRANCH  19  20
ENDBRANCH  18  19
ENDBRANCH  17  18
ENDBRANCH   1  17
TORSDOF 26
ENDMDL
MODEL 5
REMARK VINA RESULT:    12.181      4.164     10.779
REMARK INTER + INTRA:          29.091
REMARK INTER:                  28.770
REMARK INTRA:                   0.321
REMARK UNBOUND:                -1.604
REMARK SMILES CCCCCCCCCCCCCCCCCCCCCCCCCCCC(=O)[O-]
REMARK SMILES IDX 15 1 16 2 17 3 18 4 19 5 20 6 21 7 22 8 23 9 24 10 25 11
REMARK SMILES IDX 26 12 27 13 28 14 29 15 30 16 14 17 13 18 12 19 11 20 10 21
REMARK SMILES IDX 9 22 8 23 7 24 6 25 5 26 4 27 3 28 2 29 1 30
REMARK H PARENT
REMARK Flexibility Score: inf
ROOT
ATOM      1  C   UNL     1      10.225   0.909 -14.332  1.00  0.00     0.000 C 
ENDROOT
BRANCH   1   2
ATOM      2  C   UNL     1       9.703   0.822 -12.887  1.00  0.00     0.000 C 
BRANCH   2   3
ATOM      3  C   UNL     1       8.430   1.656 -12.672  1.00  0.00     0.000 C 
BRANCH   3   4
ATOM      4  C   UNL     1       7.339   1.351 -13.716  1.00  0.00     0.000 C 
BRANCH   4   5
ATOM      5  C   UNL     1       5.917   1.470 -13.126  1.00  0.00     0.000 C 
BRANCH   5   6
ATOM      6  C   UNL     1       4.798   1.329 -14.172  1.00  0.00     0.000 C 
BRANCH   6   7
ATOM      7  C   UNL     1       3.395   1.309 -13.547  1.00  0.00     0.000 C 
BRANCH   7   8
ATOM      8  C   UNL     1       2.433   0.350 -14.267  1.00  0.00     0.000 C 
BRANCH   8   9
ATOM      9  C   UNL     1       0.943   0.689 -14.045  1.00  0.00     0.000 C 
BRANCH   9  10
ATOM     10  C   UNL     1       0.033   0.016 -15.083  1.00  0.00     0.000 C 
BRANCH  10  11
ATOM     11  C   UNL     1       0.851  -0.537 -16.257  1.00  0.00     0.000 C 
BRANCH  11  12
ATOM     12  C   UNL     1       0.807  -2.072 -16.286  1.00  0.00     0.006 C 
BRANCH  12  13
ATOM     13  C   UNL     1      -0.125  -2.603 -17.383  1.00  0.00     0.053 C 
BRANCH  13  14
ATOM     14  C   UNL     1      -0.039  -1.781 -18.632  1.00  0.00     0.041 C 
ATOM     15  O   UNL     1      -0.067  -0.524 -18.566  1.00  0.00    -0.550 OA
ATOM     16  O   UNL     1       0.043  -2.404 -19.871  1.00  0.00    -0.550 OA
ENDBRANCH  13  14
ENDBRANCH  12  13
ENDBRANCH  11  12
ENDBRANCH  10  11
ENDBRANCH   9  10
ENDBRANCH   8   9
ENDBRANCH   7   8
ENDBRANCH   6   7
ENDBRANCH   5   6
ENDBRANCH   4   5
ENDBRANCH   3   4
ENDBRANCH   2   3
ENDBRANCH   1   2
BRANCH   1  17
ATOM     17  C   UNL     1      11.022   2.197 -14.609  1.00  0.00     0.000 C 
BRANCH  17  18
ATOM     18  C   UNL     1      11.257   2.519 -16.097  1.00  0.00     0.000 C 
BRANCH  18  19
ATOM     19  C   UNL     1      12.748   2.536 -16.481  1.00  0.00     0.000 C 
BRANCH  19  20
ATOM     20  C   UNL     1      13.003   1.957 -17.885  1.00  0.00     0.000 C 
BRANCH  20  21
ATOM     21  C   UNL     1      13.762   0.616 -17.891  1.00  0.00     0.000 C 
BRANCH  21  22
ATOM     22  C   UNL     1      14.120   0.135 -16.474  1.00  0.00    -0.000 C 
BRANCH  22  23
ATOM     23  C   UNL     1      12.931  -0.530 -15.759  1.00  0.00    -0.000 C 
BRANCH  23  24
ATOM     24  C   UNL     1      11.776  -0.861 -16.716  1.00  0.00    -0.000 C 
BRANCH  24  25
ATOM     25  C   UNL     1      11.919  -2.283 -17.278  1.00  0.00    -0.000 C 
BRANCH  25  26
ATOM     26  C   UNL     1      10.925  -3.276 -16.651  1.00  0.00    -0.000 C 
BRANCH  26  27
ATOM     27  C   UNL     1      11.067  -4.716 -17.189  1.00  0.00    -0.000 C 
BRANCH  27  28
ATOM     28  C   UNL     1      12.365  -4.913 -17.985  1.00  0.00    -0.000 C 
BRANCH  28  29
ATOM     29  C   UNL     1      12.764  -6.392 -18.032  1.00  0.00    -0.003 C 
ATOM     30  C   UNL     1      13.992  -6.606 -18.912  1.00  0.00     0.004 C 
ENDBRANCH  28  29
ENDBRANCH  27  28
ENDBRANCH  26  27
ENDBRANCH  25  26
ENDBRANCH  24  25
ENDBRANCH  23  24
ENDBRANCH  22  23
ENDBRANCH  21  22
ENDBRANCH  20  21
ENDBRANCH  19  20
ENDBRANCH  18  19
ENDBRANCH  17  18
ENDBRANCH   1  17
TORSDOF 26
ENDMDL
MODEL 6
REMARK VINA RESULT:    12.289      4.250     11.095
REMARK INTER + INTRA:          29.365
REMARK INTER:                  29.379
REMARK INTRA:                  -0.014
REMARK UNBOUND:                -1.604
REMARK SMILES CCCCCCCCCCCCCCCCCCCCCCCCCCCC(=O)[O-]
REMARK SMILES IDX 15 1 16 2 17 3 18 4 19 5 20 6 21 7 22 8 23 9 24 10 25 11
REMARK SMILES IDX 26 12 27 13 28 14 29 15 30 16 14 17 13 18 12 19 11 20 10 21
REMARK SMILES IDX 9 22 8 23 7 24 6 25 5 26 4 27 3 28 2 29 1 30
REMARK H PARENT
REMARK Flexibility Score: inf
ROOT
ATOM      1  C   UNL     1      11.844   2.138 -16.494  1.00  0.00     0.000 C 
ENDROOT
BRANCH   1   2
ATOM      2  C   UNL     1      11.543   2.343 -14.999  1.00  0.00     0.000 C 
BRANCH   2   3
ATOM      3  C   UNL     1      10.072   2.062 -14.653  1.00  0.00     0.000 C 
BRANCH   3   4
ATOM      4  C   UNL     1       9.906   0.857 -13.709  1.00  0.00     0.000 C 
BRANCH   4   5
ATOM      5  C   UNL     1       8.621   0.955 -12.857  1.00  0.00     0.000 C 
BRANCH   5   6
ATOM      6  C   UNL     1       7.469   1.695 -13.557  1.00  0.00     0.000 C 
BRANCH   6   7
ATOM      7  C   UNL     1       6.180   0.862 -13.629  1.00  0.00     0.000 C 
BRANCH   7   8
ATOM      8  C   UNL     1       4.910   1.727 -13.676  1.00  0.00     0.000 C 
BRANCH   8   9
ATOM      9  C   UNL     1       3.651   1.004 -13.153  1.00  0.00     0.000 C 
BRANCH   9  10
ATOM     10  C   UNL     1       2.662   0.668 -14.279  1.00  0.00     0.000 C 
BRANCH  10  11
ATOM     11  C   UNL     1       1.218   0.947 -13.844  1.00  0.00     0.000 C 
BRANCH  11  12
ATOM     12  C   UNL     1       0.217   0.229 -14.762  1.00  0.00     0.006 C 
BRANCH  12  13
ATOM     13  C   UNL     1       0.907  -0.762 -15.708  1.00  0.00     0.053 C 
BRANCH  13  14
ATOM     14  C   UNL     1       0.317  -0.718 -17.084  1.00  0.00     0.041 C 
ATOM     15  O   UNL     1       0.228  -1.771 -17.769  1.00  0.00    -0.550 OA
ATOM     16  O   UNL     1      -0.107   0.492 -17.621  1.00  0.00    -0.550 OA
ENDBRANCH  13  14
ENDBRANCH  12  13
ENDBRANCH  11  12
ENDBRANCH  10  11
ENDBRANCH   9  10
ENDBRANCH   8   9
ENDBRANCH   7   8
ENDBRANCH   6   7
ENDBRANCH   5   6
ENDBRANCH   4   5
ENDBRANCH   3   4
ENDBRANCH   2   3
ENDBRANCH   1   2
BRANCH   1  17
ATOM     17  C   UNL     1      13.261   2.594 -16.890  1.00  0.00     0.000 C 
BRANCH  17  18
ATOM     18  C   UNL     1      13.910   1.800 -18.040  1.00  0.00     0.000 C 
BRANCH  18  19
ATOM     19  C   UNL     1      13.710   0.279 -17.909  1.00  0.00     0.000 C 
BRANCH  19  20
ATOM     20  C   UNL     1      12.354  -0.084 -17.274  1.00  0.00     0.000 C 
BRANCH  20  21
ATOM     21  C   UNL     1      12.332  -1.450 -16.560  1.00  0.00     0.000 C 
BRANCH  21  22
ATOM     22  C   UNL     1      10.903  -1.936 -16.261  1.00  0.00    -0.000 C 
BRANCH  22  23
ATOM     23  C   UNL     1      10.799  -3.469 -16.210  1.00  0.00    -0.000 C 
BRANCH  23  24
ATOM     24  C   UNL     1      11.085  -4.126 -17.570  1.00  0.00    -0.000 C 
BRANCH  24  25
ATOM     25  C   UNL     1      11.744  -5.501 -17.388  1.00  0.00    -0.000 C 
BRANCH  25  26
ATOM     26  C   UNL     1      12.757  -5.830 -18.499  1.00  0.00    -0.000 C 
BRANCH  26  27
ATOM     27  C   UNL     1      14.031  -6.534 -17.985  1.00  0.00    -0.000 C 
BRANCH  27  28
ATOM     28  C   UNL     1      14.953  -6.973 -19.132  1.00  0.00    -0.000 C 
BRANCH  28  29
ATOM     29  C   UNL     1      15.533  -5.761 -19.868  1.00  0.00    -0.003 C 
ATOM     30  C   UNL     1      15.164  -5.783 -21.348  1.00  0.00     0.004 C 
ENDBRANCH  28  29
ENDBRANCH  27  28
ENDBRANCH  26  27
ENDBRANCH  25  26
ENDBRANCH  24  25
ENDBRANCH  23  24
ENDBRANCH  22  23
ENDBRANCH  21  22
ENDBRANCH  20  21
ENDBRANCH  19  20
ENDBRANCH  18  19
ENDBRANCH  17  18
ENDBRANCH   1  17
TORSDOF 26
ENDMDL
