MODEL 1
REMARK VINA RESULT:     8.436      0.000      0.000
REMARK INTER + INTRA:          11.031
REMARK INTER:                   9.422
REMARK INTRA:                   1.609
REMARK UNBOUND:                 1.609
REMARK SMILES O=C([O-])c1ccccc1C(=O)[O-]
REMARK SMILES IDX 4 1 9 2 5 3 8 4 6 5 7 6 2 7 1 8 3 9 10 10 11 11 12 12
REMARK H PARENT
REMARK Flexibility Score: inf
ROOT
ATOM      1  C   UNL     1     -19.226   9.405   4.435  1.00  0.00     0.006 A 
ATOM      2  C   UNL     1     -20.210   8.901   3.539  1.00  0.00     0.006 A 
ATOM      3  C   UNL     1     -18.014   8.706   4.584  1.00  0.00     0.010 A 
ATOM      4  C   UNL     1     -19.970   7.683   2.875  1.00  0.00     0.010 A 
ATOM      5  C   UNL     1     -17.789   7.511   3.899  1.00  0.00     0.001 A 
ATOM      6  C   UNL     1     -18.770   6.996   3.055  1.00  0.00     0.001 A 
ENDROOT
BRANCH   1   7
ATOM      7  C   UNL     1     -19.450  10.602   5.278  1.00  0.00     0.072 C 
ATOM      8  O   UNL     1     -18.490  11.125   5.905  1.00  0.00    -0.545 OA
ATOM      9  O   UNL     1     -20.728  11.125   5.443  1.00  0.00    -0.545 OA
ENDBRANCH   1   7
BRANCH   2  10
ATOM     10  C   UNL     1     -21.454   9.635   3.213  1.00  0.00     0.072 C 
ATOM     11  O   UNL     1     -21.461  10.891   3.135  1.00  0.00    -0.545 OA
ATOM     12  O   UNL     1     -22.620   8.935   2.922  1.00  0.00    -0.545 OA
ENDBRANCH   2  10
TORSDOF 2
ENDMDL
MODEL 2
REMARK VINA RESULT:     9.160      0.489      3.055
REMARK INTER + INTRA:          11.840
REMARK INTER:                  10.118
REMARK INTRA:                   1.722
REMARK UNBOUND:                 1.609
REMARK SMILES O=C([O-])c1ccccc1C(=O)[O-]
REMARK SMILES IDX 4 1 9 2 5 3 8 4 6 5 7 6 2 7 1 8 3 9 10 10 11 11 12 12
REMARK H PARENT
REMARK Flexibility Score: inf
ROOT
ATOM      1  C   UNL     1     -20.402   8.775   3.516  1.00  0.00     0.006 A 
ATOM      2  C   UNL     1     -19.578   9.441   4.466  1.00  0.00     0.006 A 
ATOM      3  C   UNL     1     -19.922   7.610   2.891  1.00  0.00     0.010 A 
ATOM      4  C   UNL     1     -18.280   8.953   4.706  1.00  0.00     0.010 A 
ATOM      5  C   UNL     1     -18.639   7.130   3.161  1.00  0.00     0.001 A 
ATOM      6  C   UNL     1     -17.817   7.808   4.058  1.00  0.00     0.001 A 
ENDROOT
BRANCH   1   7
ATOM      7  C   UNL     1     -21.724   9.297   3.099  1.00  0.00     0.072 C 
ATOM      8  O   UNL     1     -21.878  10.528   2.875  1.00  0.00    -0.545 OA
ATOM      9  O   UNL     1     -22.825   8.452   3.012  1.00  0.00    -0.545 OA
ENDBRANCH   1   7
BRANCH   2  10
ATOM     10  C   UNL     1     -20.046  10.592   5.272  1.00  0.00     0.072 C 
ATOM     11  O   UNL     1     -21.165  11.124   5.048  1.00  0.00    -0.545 OA
ATOM     12  O   UNL     1     -19.279  11.056   6.335  1.00  0.00    -0.545 OA
ENDBRANCH   2  10
TORSDOF 2
ENDMDL
MODEL 3
REMARK VINA RESULT:    10.179      2.115      3.265
REMARK INTER + INTRA:          12.978
REMARK INTER:                  12.013
REMARK INTRA:                   0.965
REMARK UNBOUND:                 1.609
REMARK SMILES O=C([O-])c1ccccc1C(=O)[O-]
REMARK SMILES IDX 4 1 9 2 5 3 8 4 6 5 7 6 2 7 1 8 3 9 10 10 11 11 12 12
REMARK H PARENT
REMARK Flexibility Score: inf
ROOT
ATOM      1  C   UNL     1     -19.852   9.998   4.621  1.00  0.00     0.006 A 
ATOM      2  C   UNL     1     -20.265   8.846   3.894  1.00  0.00     0.006 A 
ATOM      3  C   UNL     1     -20.701  11.118   4.669  1.00  0.00     0.010 A 
ATOM      4  C   UNL     1     -21.482   8.884   3.188  1.00  0.00     0.010 A 
ATOM      5  C   UNL     1     -21.915  11.125   3.979  1.00  0.00     0.001 A 
ATOM      6  C   UNL     1     -22.298  10.014   3.232  1.00  0.00     0.001 A 
ENDROOT
BRANCH   1   7
ATOM      7  C   UNL     1     -18.527  10.098   5.276  1.00  0.00     0.072 C 
ATOM      8  O   UNL     1     -17.632   9.245   5.029  1.00  0.00    -0.545 OA
ATOM      9  O   UNL     1     -18.274  11.089   6.218  1.00  0.00    -0.545 OA
ENDBRANCH   1   7
BRANCH   2  10
ATOM     10  C   UNL     1     -19.504   7.576   3.898  1.00  0.00     0.072 C 
ATOM     11  O   UNL     1     -18.446   7.455   3.227  1.00  0.00    -0.545 OA
ATOM     12  O   UNL     1     -19.918   6.519   4.701  1.00  0.00    -0.545 OA
ENDBRANCH   2  10
TORSDOF 2
ENDMDL
MODEL 4
REMARK VINA RESULT:    10.759      1.246      2.011
REMARK INTER + INTRA:          13.625
REMARK INTER:                  12.901
REMARK INTRA:                   0.724
REMARK UNBOUND:                 1.609
REMARK SMILES O=C([O-])c1ccccc1C(=O)[O-]
REMARK SMILES IDX 4 1 9 2 5 3 8 4 6 5 7 6 2 7 1 8 3 9 10 10 11 11 12 12
REMARK H PARENT
REMARK Flexibility Score: inf
ROOT
ATOM      1  C   UNL     1     -20.030   9.900   4.433  1.00  0.00     0.006 A 
ATOM      2  C   UNL     1     -20.219   8.578   3.941  1.00  0.00     0.006 A 
ATOM      3  C   UNL     1     -18.722  10.397   4.579  1.00  0.00     0.010 A 
ATOM      4  C   UNL     1     -19.090   7.780   3.677  1.00  0.00     0.010 A 
ATOM      5  C   UNL     1     -17.617   9.595   4.290  1.00  0.00     0.001 A 
ATOM      6  C   UNL     1     -17.801   8.286   3.851  1.00  0.00     0.001 A 
ENDROOT
BRANCH   1   7
ATOM      7  C   UNL     1     -21.156  10.760   4.868  1.00  0.00     0.072 C 
ATOM      8  O   UNL     1     -21.250  11.121   6.072  1.00  0.00    -0.545 OA
ATOM      9  O   UNL     1     -22.157  11.125   3.974  1.00  0.00    -0.545 OA
ENDBRANCH   1   7
BRANCH   2  10
ATOM     10  C   UNL     1     -21.553   8.018   3.626  1.00  0.00     0.072 C 
ATOM     11  O   UNL     1     -21.906   6.899   4.081  1.00  0.00    -0.545 OA
ATOM     12  O   UNL     1     -22.460   8.759   2.875  1.00  0.00    -0.545 OA
ENDBRANCH   2  10
TORSDOF 2
ENDMDL
MODEL 5
REMARK VINA RESULT:    11.227     20.556     21.123
REMARK INTER + INTRA:          14.148
REMARK INTER:                  12.788
REMARK INTRA:                   1.361
REMARK UNBOUND:                 1.609
REMARK SMILES O=C([O-])c1ccccc1C(=O)[O-]
REMARK SMILES IDX 4 1 9 2 5 3 8 4 6 5 7 6 2 7 1 8 3 9 10 10 11 11 12 12
REMARK H PARENT
REMARK Flexibility Score: inf
ROOT
ATOM      1  C   UNL     1     -21.838  -5.820  18.343  1.00  0.00     0.006 A 
ATOM      2  C   UNL     1     -21.696  -6.504  17.103  1.00  0.00     0.006 A 
ATOM      3  C   UNL     1     -21.300  -4.527  18.477  1.00  0.00     0.010 A 
ATOM      4  C   UNL     1     -20.963  -5.895  16.067  1.00  0.00     0.010 A 
ATOM      5  C   UNL     1     -20.596  -3.933  17.428  1.00  0.00     0.001 A 
ATOM      6  C   UNL     1     -20.419  -4.621  16.230  1.00  0.00     0.001 A 
ENDROOT
BRANCH   1   7
ATOM      7  C   UNL     1     -22.471  -6.439  19.530  1.00  0.00     0.072 C 
ATOM      8  O   UNL     1     -23.164  -5.740  20.317  1.00  0.00    -0.545 OA
ATOM      9  O   UNL     1     -22.257  -7.780  19.829  1.00  0.00    -0.545 OA
ENDBRANCH   1   7
BRANCH   2  10
ATOM     10  C   UNL     1     -22.343  -7.806  16.822  1.00  0.00     0.072 C 
ATOM     11  O   UNL     1     -22.964  -7.998  15.744  1.00  0.00    -0.545 OA
ATOM     12  O   UNL     1     -22.213  -8.857  17.723  1.00  0.00    -0.545 OA
ENDBRANCH   2  10
TORSDOF 2
ENDMDL
MODEL 6
REMARK VINA RESULT:    11.279     20.552     21.245
REMARK INTER + INTRA:          14.207
REMARK INTER:                  12.724
REMARK INTRA:                   1.483
REMARK UNBOUND:                 1.609
REMARK SMILES O=C([O-])c1ccccc1C(=O)[O-]
REMARK SMILES IDX 4 1 9 2 5 3 8 4 6 5 7 6 2 7 1 8 3 9 10 10 11 11 12 12
REMARK H PARENT
REMARK Flexibility Score: inf
ROOT
ATOM      1  C   UNL     1     -21.695  -6.509  17.112  1.00  0.00     0.006 A 
ATOM      2  C   UNL     1     -21.837  -5.826  18.353  1.00  0.00     0.006 A 
ATOM      3  C   UNL     1     -20.983  -5.892  16.068  1.00  0.00     0.010 A 
ATOM      4  C   UNL     1     -21.316  -4.525  18.480  1.00  0.00     0.010 A 
ATOM      5  C   UNL     1     -20.455  -4.609  16.224  1.00  0.00     0.001 A 
ATOM      6  C   UNL     1     -20.631  -3.924  17.423  1.00  0.00     0.001 A 
ENDROOT
BRANCH   1   7
ATOM      7  C   UNL     1     -22.331  -7.820  16.844  1.00  0.00     0.072 C 
ATOM      8  O   UNL     1     -22.200  -8.768  17.664  1.00  0.00    -0.545 OA
ATOM      9  O   UNL     1     -23.022  -8.045  15.658  1.00  0.00    -0.545 OA
ENDBRANCH   1   7
BRANCH   2  10
ATOM     10  C   UNL     1     -22.450  -6.448  19.549  1.00  0.00     0.072 C 
ATOM     11  O   UNL     1     -23.194  -5.779  20.313  1.00  0.00    -0.545 OA
ATOM     12  O   UNL     1     -22.263  -7.802  19.804  1.00  0.00    -0.545 OA
ENDBRANCH   2  10
TORSDOF 2
ENDMDL
