MODEL 1
REMARK VINA RESULT:    -4.250      0.000      0.000
REMARK INTER + INTRA:          -5.854
REMARK INTER:                  -5.741
REMARK INTRA:                  -0.113
REMARK UNBOUND:                -0.113
REMARK SMILES O=C[C@@H](O)[C@H](O)[C@@H](O)CO
REMARK SMILES IDX 7 1 9 2 10 3 5 5 3 6 2 7 1 8 4 9 6 11 8 13
REMARK H PARENT 10 4 4 10 6 12 8 14
REMARK Flexibility Score: inf
ROOT
ATOM      1  C   UNL     1      -7.515  -6.608   3.677  1.00  0.00     0.171 C 
ENDROOT
BRANCH   1   2
ATOM      2  C   UNL     1      -8.040  -7.243   2.374  1.00  0.00     0.190 C 
BRANCH   2   3
ATOM      3  O   UNL     1      -7.880  -6.380   1.279  1.00  0.00    -0.394 OA
ATOM      4  H   UNL     1      -6.904  -6.260   1.146  1.00  0.00     0.210 HD
ENDBRANCH   2   3
ENDBRANCH   1   2
BRANCH   1   5
ATOM      5  C   UNL     1      -6.733  -7.619   4.562  1.00  0.00     0.181 C 
BRANCH   5   6
ATOM      6  C   UNL     1      -5.489  -6.994   5.244  1.00  0.00     0.209 C 
BRANCH   6   7
ATOM      7  C   UNL     1      -5.615  -6.984   6.745  1.00  0.00     0.258 C 
ATOM      8  O   UNL     1      -4.859  -6.319   7.436  1.00  0.00    -0.300 OA
ENDBRANCH   6   7
BRANCH   6   9
ATOM      9  O   UNL     1      -4.317  -7.671   4.863  1.00  0.00    -0.383 OA
ATOM     10  H   UNL     1      -4.201  -7.516   3.889  1.00  0.00     0.211 HD
ENDBRANCH   6   9
ENDBRANCH   5   6
BRANCH   5  11
ATOM     11  O   UNL     1      -6.353  -8.740   3.801  1.00  0.00    -0.387 OA
ATOM     12  H   UNL     1      -7.017  -8.829   3.068  1.00  0.00     0.211 HD
ENDBRANCH   5  11
ENDBRANCH   1   5
BRANCH   1  13
ATOM     13  O   UNL     1      -6.759  -5.454   3.401  1.00  0.00    -0.388 OA
ATOM     14  H   UNL     1      -5.798  -5.692   3.470  1.00  0.00     0.211 HD
ENDBRANCH   1  13
TORSDOF 8
ENDMDL
MODEL 2
REMARK VINA RESULT:    -4.045      1.172      4.208
REMARK INTER + INTRA:          -5.577
REMARK INTER:                  -4.994
REMARK INTRA:                  -0.583
REMARK UNBOUND:                -0.113
REMARK SMILES O=C[C@@H](O)[C@H](O)[C@@H](O)CO
REMARK SMILES IDX 7 1 9 2 10 3 5 5 3 6 2 7 1 8 4 9 6 11 8 13
REMARK H PARENT 10 4 4 10 6 12 8 14
REMARK Flexibility Score: inf
ROOT
ATOM      1  C   UNL     1      -6.683  -7.755   4.697  1.00  0.00     0.171 C 
ENDROOT
BRANCH   1   2
ATOM      2  C   UNL     1      -5.450  -7.453   5.573  1.00  0.00     0.190 C 
BRANCH   2   3
ATOM      3  O   UNL     1      -4.256  -7.609   4.852  1.00  0.00    -0.394 OA
ATOM      4  H   UNL     1      -4.182  -6.830   4.242  1.00  0.00     0.210 HD
ENDBRANCH   2   3
ENDBRANCH   1   2
BRANCH   1   5
ATOM      5  C   UNL     1      -7.323  -6.468   4.104  1.00  0.00     0.181 C 
BRANCH   5   6
ATOM      6  C   UNL     1      -8.295  -6.759   2.931  1.00  0.00     0.209 C 
BRANCH   6   7
ATOM      7  C   UNL     1      -9.491  -5.845   2.950  1.00  0.00     0.258 C 
ATOM      8  O   UNL     1      -9.376  -4.660   3.225  1.00  0.00    -0.300 OA
ENDBRANCH   6   7
BRANCH   6   9
ATOM      9  O   UNL     1      -7.631  -6.658   1.696  1.00  0.00    -0.383 OA
ATOM     10  H   UNL     1      -6.935  -5.957   1.801  1.00  0.00     0.211 HD
ENDBRANCH   6   9
ENDBRANCH   5   6
BRANCH   5  11
ATOM     11  O   UNL     1      -6.322  -5.572   3.690  1.00  0.00    -0.387 OA
ATOM     12  H   UNL     1      -5.553  -5.693   4.307  1.00  0.00     0.211 HD
ENDBRANCH   5  11
ENDBRANCH   1   5
BRANCH   1  13
ATOM     13  O   UNL     1      -6.369  -8.696   3.701  1.00  0.00    -0.388 OA
ATOM     14  H   UNL     1      -5.664  -9.299   4.056  1.00  0.00     0.211 HD
ENDBRANCH   1  13
TORSDOF 8
ENDMDL
MODEL 3
REMARK VINA RESULT:    -3.851      0.775      4.343
REMARK INTER + INTRA:          -5.315
REMARK INTER:                  -4.854
REMARK INTRA:                  -0.461
REMARK UNBOUND:                -0.113
REMARK SMILES O=C[C@@H](O)[C@H](O)[C@@H](O)CO
REMARK SMILES IDX 7 1 9 2 10 3 5 5 3 6 2 7 1 8 4 9 6 11 8 13
REMARK H PARENT 10 4 4 10 6 12 8 14
REMARK Flexibility Score: inf
ROOT
ATOM      1  C   UNL     1      -6.057  -7.659   5.284  1.00  0.00     0.171 C 
ENDROOT
BRANCH   1   2
ATOM      2  C   UNL     1      -6.004  -7.299   6.782  1.00  0.00     0.190 C 
BRANCH   2   3
ATOM      3  O   UNL     1      -4.860  -6.545   7.091  1.00  0.00    -0.394 OA
ATOM      4  H   UNL     1      -5.153  -5.809   7.688  1.00  0.00     0.210 HD
ENDBRANCH   2   3
ENDBRANCH   1   2
BRANCH   1   5
ATOM      5  C   UNL     1      -6.975  -6.700   4.472  1.00  0.00     0.181 C 
BRANCH   5   6
ATOM      6  C   UNL     1      -7.864  -7.440   3.440  1.00  0.00     0.209 C 
BRANCH   6   7
ATOM      7  C   UNL     1      -8.376  -6.513   2.370  1.00  0.00     0.258 C 
ATOM      8  O   UNL     1      -7.798  -6.407   1.299  1.00  0.00    -0.300 OA
ENDBRANCH   6   7
BRANCH   6   9
ATOM      9  O   UNL     1      -7.166  -8.512   2.857  1.00  0.00    -0.383 OA
ATOM     10  H   UNL     1      -7.074  -8.303   1.891  1.00  0.00     0.211 HD
ENDBRANCH   6   9
ENDBRANCH   5   6
BRANCH   5  11
ATOM     11  O   UNL     1      -6.203  -5.717   3.827  1.00  0.00    -0.387 OA
ATOM     12  H   UNL     1      -5.828  -6.135   3.008  1.00  0.00     0.211 HD
ENDBRANCH   5  11
ENDBRANCH   1   5
BRANCH   1  13
ATOM     13  O   UNL     1      -4.761  -7.733   4.742  1.00  0.00    -0.388 OA
ATOM     14  H   UNL     1      -4.741  -7.184   3.915  1.00  0.00     0.211 HD
ENDBRANCH   1  13
TORSDOF 8
ENDMDL
MODEL 4
REMARK VINA RESULT:    -3.659      1.352      2.102
REMARK INTER + INTRA:          -5.056
REMARK INTER:                  -4.357
REMARK INTRA:                  -0.699
REMARK UNBOUND:                -0.113
REMARK SMILES O=C[C@@H](O)[C@H](O)[C@@H](O)CO
REMARK SMILES IDX 7 1 9 2 10 3 5 5 3 6 2 7 1 8 4 9 6 11 8 13
REMARK H PARENT 10 4 4 10 6 12 8 14
REMARK Flexibility Score: inf
ROOT
ATOM      1  C   UNL     1      -8.622  -6.605   3.447  1.00  0.00     0.171 C 
ENDROOT
BRANCH   1   2
ATOM      2  C   UNL     1      -8.986  -6.693   1.951  1.00  0.00     0.190 C 
BRANCH   2   3
ATOM      3  O   UNL     1      -7.905  -6.325   1.136  1.00  0.00    -0.394 OA
ATOM      4  H   UNL     1      -7.484  -5.530   1.555  1.00  0.00     0.210 HD
ENDBRANCH   2   3
ENDBRANCH   1   2
BRANCH   1   5
ATOM      5  C   UNL     1      -7.100  -6.790   3.704  1.00  0.00     0.181 C 
BRANCH   5   6
ATOM      6  C   UNL     1      -6.793  -7.540   5.025  1.00  0.00     0.209 C 
BRANCH   6   7
ATOM      7  C   UNL     1      -5.488  -7.100   5.633  1.00  0.00     0.258 C 
ATOM      8  O   UNL     1      -4.433  -7.241   5.032  1.00  0.00    -0.300 OA
ENDBRANCH   6   7
BRANCH   6   9
ATOM      9  O   UNL     1      -7.838  -7.371   5.950  1.00  0.00    -0.383 OA
ATOM     10  H   UNL     1      -7.979  -6.392   6.046  1.00  0.00     0.211 HD
ENDBRANCH   6   9
ENDBRANCH   5   6
BRANCH   5  11
ATOM     11  O   UNL     1      -6.449  -5.542   3.695  1.00  0.00    -0.387 OA
ATOM     12  H   UNL     1      -6.545  -5.173   2.778  1.00  0.00     0.211 HD
ENDBRANCH   5  11
ENDBRANCH   1   5
BRANCH   1  13
ATOM     13  O   UNL     1      -9.111  -5.412   4.010  1.00  0.00    -0.388 OA
ATOM     14  H   UNL     1      -8.748  -4.652   3.484  1.00  0.00     0.211 HD
ENDBRANCH   1  13
TORSDOF 8
ENDMDL
MODEL 5
REMARK VINA RESULT:    -3.633     17.822     18.474
REMARK INTER + INTRA:          -5.020
REMARK INTER:                  -4.103
REMARK INTRA:                  -0.917
REMARK UNBOUND:                -0.113
REMARK SMILES O=C[C@@H](O)[C@H](O)[C@@H](O)CO
REMARK SMILES IDX 7 1 9 2 10 3 5 5 3 6 2 7 1 8 4 9 6 11 8 13
REMARK H PARENT 10 4 4 10 6 12 8 14
REMARK Flexibility Score: inf
ROOT
ATOM      1  C   UNL     1      -7.735   6.579  -9.203  1.00  0.00     0.171 C 
ENDROOT
BRANCH   1   2
ATOM      2  C   UNL     1      -7.832   5.058  -9.436  1.00  0.00     0.190 C 
BRANCH   2   3
ATOM      3  O   UNL     1      -7.254   4.337  -8.380  1.00  0.00    -0.394 OA
ATOM      4  H   UNL     1      -6.755   3.581  -8.785  1.00  0.00     0.210 HD
ENDBRANCH   2   3
ENDBRANCH   1   2
BRANCH   1   5
ATOM      5  C   UNL     1      -8.577   7.051  -7.984  1.00  0.00     0.181 C 
BRANCH   5   6
ATOM      6  C   UNL     1      -7.715   7.658  -6.848  1.00  0.00     0.209 C 
BRANCH   6   7
ATOM      7  C   UNL     1      -8.545   8.446  -5.870  1.00  0.00     0.258 C 
ATOM      8  O   UNL     1      -9.749   8.580  -6.029  1.00  0.00    -0.300 OA
ENDBRANCH   6   7
BRANCH   6   9
ATOM      9  O   UNL     1      -6.998   6.655  -6.175  1.00  0.00    -0.383 OA
ATOM     10  H   UNL     1      -6.488   6.154  -6.865  1.00  0.00     0.211 HD
ENDBRANCH   6   9
ENDBRANCH   5   6
BRANCH   5  11
ATOM     11  O   UNL     1      -9.352   5.988  -7.486  1.00  0.00    -0.387 OA
ATOM     12  H   UNL     1      -8.718   5.291  -7.173  1.00  0.00     0.211 HD
ENDBRANCH   5  11
ENDBRANCH   1   5
BRANCH   1  13
ATOM     13  O   UNL     1      -6.392   6.984  -9.105  1.00  0.00    -0.388 OA
ATOM     14  H   UNL     1      -5.827   6.169  -9.053  1.00  0.00     0.211 HD
ENDBRANCH   1  13
TORSDOF 8
ENDMDL
MODEL 6
REMARK VINA RESULT:    -3.598     14.256     15.362
REMARK INTER + INTRA:          -4.973
REMARK INTER:                  -4.073
REMARK INTRA:                  -0.900
REMARK UNBOUND:                -0.113
REMARK SMILES O=C[C@@H](O)[C@H](O)[C@@H](O)CO
REMARK SMILES IDX 7 1 9 2 10 3 5 5 3 6 2 7 1 8 4 9 6 11 8 13
REMARK H PARENT 10 4 4 10 6 12 8 14
REMARK Flexibility Score: inf
ROOT
ATOM      1  C   UNL     1       5.658  -3.883  -1.251  1.00  0.00     0.171 C 
ENDROOT
BRANCH   1   2
ATOM      2  C   UNL     1       5.582  -3.459   0.230  1.00  0.00     0.190 C 
BRANCH   2   3
ATOM      3  O   UNL     1       6.857  -3.202   0.758  1.00  0.00    -0.394 OA
ATOM      4  H   UNL     1       7.297  -4.082   0.891  1.00  0.00     0.210 HD
ENDBRANCH   2   3
ENDBRANCH   1   2
BRANCH   1   5
ATOM      5  C   UNL     1       5.748  -2.668  -2.217  1.00  0.00     0.181 C 
BRANCH   5   6
ATOM      6  C   UNL     1       7.134  -2.534  -2.897  1.00  0.00     0.209 C 
BRANCH   6   7
ATOM      7  C   UNL     1       7.185  -1.369  -3.849  1.00  0.00     0.258 C 
ATOM      8  O   UNL     1       6.161  -0.876  -4.297  1.00  0.00    -0.300 OA
ENDBRANCH   6   7
BRANCH   6   9
ATOM      9  O   UNL     1       8.153  -2.416  -1.935  1.00  0.00    -0.383 OA
ATOM     10  H   UNL     1       7.968  -1.587  -1.421  1.00  0.00     0.211 HD
ENDBRANCH   6   9
ENDBRANCH   5   6
BRANCH   5  11
ATOM     11  O   UNL     1       5.428  -1.480  -1.536  1.00  0.00    -0.387 OA
ATOM     12  H   UNL     1       4.972  -1.743  -0.694  1.00  0.00     0.211 HD
ENDBRANCH   5  11
ENDBRANCH   1   5
BRANCH   1  13
ATOM     13  O   UNL     1       6.706  -4.798  -1.454  1.00  0.00    -0.388 OA
ATOM     14  H   UNL     1       7.551  -4.369  -1.159  1.00  0.00     0.211 HD
ENDBRANCH   1  13
TORSDOF 8
ENDMDL
MODEL 7
REMARK VINA RESULT:    -3.549     17.012     18.575
REMARK INTER + INTRA:          -4.908
REMARK INTER:                  -4.245
REMARK INTRA:                  -0.663
REMARK UNBOUND:                -0.113
REMARK SMILES O=C[C@@H](O)[C@H](O)[C@@H](O)CO
REMARK SMILES IDX 7 1 9 2 10 3 5 5 3 6 2 7 1 8 4 9 6 11 8 13
REMARK H PARENT 10 4 4 10 6 12 8 14
REMARK Flexibility Score: inf
ROOT
ATOM      1  C   UNL     1      -8.315   8.619  -3.176  1.00  0.00     0.171 C 
ENDROOT
BRANCH   1   2
ATOM      2  C   UNL     1      -8.362   9.624  -2.008  1.00  0.00     0.190 C 
BRANCH   2   3
ATOM      3  O   UNL     1      -7.086   9.845  -1.468  1.00  0.00    -0.394 OA
ATOM      4  H   UNL     1      -7.173  10.588  -0.815  1.00  0.00     0.210 HD
ENDBRANCH   2   3
ENDBRANCH   1   2
BRANCH   1   5
ATOM      5  C   UNL     1      -7.912   9.286  -4.522  1.00  0.00     0.181 C 
BRANCH   5   6
ATOM      6  C   UNL     1      -8.134   8.363  -5.748  1.00  0.00     0.209 C 
BRANCH   6   7
ATOM      7  C   UNL     1      -7.681   9.009  -7.030  1.00  0.00     0.258 C 
ATOM      8  O   UNL     1      -6.495   9.082  -7.315  1.00  0.00    -0.300 OA
ENDBRANCH   6   7
BRANCH   6   9
ATOM      9  O   UNL     1      -7.480   7.131  -5.571  1.00  0.00    -0.383 OA
ATOM     10  H   UNL     1      -8.188   6.442  -5.471  1.00  0.00     0.211 HD
ENDBRANCH   6   9
ENDBRANCH   5   6
BRANCH   5  11
ATOM     11  O   UNL     1      -6.572   9.709  -4.474  1.00  0.00    -0.387 OA
ATOM     12  H   UNL     1      -6.070   9.157  -5.129  1.00  0.00     0.211 HD
ENDBRANCH   5  11
ENDBRANCH   1   5
BRANCH   1  13
ATOM     13  O   UNL     1      -7.489   7.526  -2.861  1.00  0.00    -0.388 OA
ATOM     14  H   UNL     1      -7.455   7.439  -1.873  1.00  0.00     0.211 HD
ENDBRANCH   1  13
TORSDOF 8
ENDMDL
MODEL 8
REMARK VINA RESULT:    -3.548     13.934     15.051
REMARK INTER + INTRA:          -4.906
REMARK INTER:                  -3.978
REMARK INTRA:                  -0.928
REMARK UNBOUND:                -0.113
REMARK SMILES O=C[C@@H](O)[C@H](O)[C@@H](O)CO
REMARK SMILES IDX 7 1 9 2 10 3 5 5 3 6 2 7 1 8 4 9 6 11 8 13
REMARK H PARENT 10 4 4 10 6 12 8 14
REMARK Flexibility Score: inf
ROOT
ATOM      1  C   UNL     1       5.163  -3.146  -1.300  1.00  0.00     0.171 C 
ENDROOT
BRANCH   1   2
ATOM      2  C   UNL     1       5.484  -2.872   0.183  1.00  0.00     0.190 C 
BRANCH   2   3
ATOM      3  O   UNL     1       6.414  -3.794   0.687  1.00  0.00    -0.394 OA
ATOM      4  H   UNL     1       6.082  -4.083   1.577  1.00  0.00     0.210 HD
ENDBRANCH   2   3
ENDBRANCH   1   2
BRANCH   1   5
ATOM      5  C   UNL     1       6.439  -3.217  -2.185  1.00  0.00     0.181 C 
BRANCH   5   6
ATOM      6  C   UNL     1       6.772  -4.655  -2.656  1.00  0.00     0.209 C 
BRANCH   6   7
ATOM      7  C   UNL     1       7.869  -4.671  -3.688  1.00  0.00     0.258 C 
ATOM      8  O   UNL     1       9.020  -4.395  -3.389  1.00  0.00    -0.300 OA
ENDBRANCH   6   7
BRANCH   6   9
ATOM      9  O   UNL     1       7.124  -5.469  -1.566  1.00  0.00    -0.383 OA
ATOM     10  H   UNL     1       7.866  -6.055  -1.872  1.00  0.00     0.211 HD
ENDBRANCH   6   9
ENDBRANCH   5   6
BRANCH   5  11
ATOM     11  O   UNL     1       7.538  -2.667  -1.499  1.00  0.00    -0.387 OA
ATOM     12  H   UNL     1       7.960  -3.408  -0.989  1.00  0.00     0.211 HD
ENDBRANCH   5  11
ENDBRANCH   1   5
BRANCH   1  13
ATOM     13  O   UNL     1       4.364  -4.295  -1.433  1.00  0.00    -0.388 OA
ATOM     14  H   UNL     1       4.888  -5.074  -1.110  1.00  0.00     0.211 HD
ENDBRANCH   1  13
TORSDOF 8
ENDMDL
MODEL 9
REMARK VINA RESULT:    -3.483     18.048     18.643
REMARK INTER + INTRA:          -4.818
REMARK INTER:                  -3.880
REMARK INTRA:                  -0.938
REMARK UNBOUND:                -0.113
REMARK SMILES O=C[C@@H](O)[C@H](O)[C@@H](O)CO
REMARK SMILES IDX 7 1 9 2 10 3 5 5 3 6 2 7 1 8 4 9 6 11 8 13
REMARK H PARENT 10 4 4 10 6 12 8 14
REMARK Flexibility Score: inf
ROOT
ATOM      1  C   UNL     1      -7.544   7.458  -7.239  1.00  0.00     0.171 C 
ENDROOT
BRANCH   1   2
ATOM      2  C   UNL     1      -8.328   6.539  -8.196  1.00  0.00     0.190 C 
BRANCH   2   3
ATOM      3  O   UNL     1      -9.264   5.753  -7.506  1.00  0.00    -0.394 OA
ATOM      4  H   UNL     1      -9.344   6.135  -6.593  1.00  0.00     0.210 HD
ENDBRANCH   2   3
ENDBRANCH   1   2
BRANCH   1   5
ATOM      5  C   UNL     1      -8.344   8.732  -6.845  1.00  0.00     0.181 C 
BRANCH   5   6
ATOM      6  C   UNL     1      -7.547   9.688  -5.921  1.00  0.00     0.209 C 
BRANCH   6   7
ATOM      7  C   UNL     1      -8.012   9.608  -4.491  1.00  0.00     0.258 C 
ATOM      8  O   UNL     1      -8.001   8.549  -3.883  1.00  0.00    -0.300 OA
ENDBRANCH   6   7
BRANCH   6   9
ATOM      9  O   UNL     1      -6.169   9.423  -5.996  1.00  0.00    -0.383 OA
ATOM     10  H   UNL     1      -5.779   9.679  -5.119  1.00  0.00     0.211 HD
ENDBRANCH   6   9
ENDBRANCH   5   6
BRANCH   5  11
ATOM     11  O   UNL     1      -9.560   8.375  -6.236  1.00  0.00    -0.387 OA
ATOM     12  H   UNL     1      -9.942   7.628  -6.769  1.00  0.00     0.211 HD
ENDBRANCH   5  11
ENDBRANCH   1   5
BRANCH   1  13
ATOM     13  O   UNL     1      -7.102   6.743  -6.111  1.00  0.00    -0.388 OA
ATOM     14  H   UNL     1      -6.111   6.790  -6.084  1.00  0.00     0.211 HD
ENDBRANCH   1  13
TORSDOF 8
ENDMDL
