MODEL 1
REMARK VINA RESULT:    -4.025      0.000      0.000
REMARK INTER + INTRA:          -5.911
REMARK INTER:                  -5.437
REMARK INTRA:                  -0.474
REMARK UNBOUND:                -0.474
REMARK SMILES O=C[C@H](O)[C@H](O)[C@@H](O)CO
REMARK SMILES IDX 7 1 9 2 10 3 5 5 3 6 2 7 1 8 4 9 6 11 8 13
REMARK H PARENT 10 4 4 10 6 12 8 14
REMARK Flexibility Score: inf
ROOT
ATOM      1  C   UNL     1      27.212  26.967  23.225  1.00  0.00     0.171 C 
ENDROOT
BRANCH   1   2
ATOM      2  C   UNL     1      25.989  26.313  23.890  1.00  0.00     0.190 C 
BRANCH   2   3
ATOM      3  O   UNL     1      24.930  26.217  22.979  1.00  0.00    -0.394 OA
ATOM      4  H   UNL     1      24.160  26.683  23.399  1.00  0.00     0.210 HD
ENDBRANCH   2   3
ENDBRANCH   1   2
BRANCH   1   5
ATOM      5  C   UNL     1      27.644  26.268  21.902  1.00  0.00     0.181 C 
BRANCH   5   6
ATOM      6  C   UNL     1      29.164  26.339  21.591  1.00  0.00     0.209 C 
BRANCH   6   7
ATOM      7  C   UNL     1      29.920  25.153  22.123  1.00  0.00     0.258 C 
ATOM      8  O   UNL     1      31.039  25.292  22.591  1.00  0.00    -0.300 OA
ENDBRANCH   6   7
BRANCH   6   9
ATOM      9  O   UNL     1      29.732  27.520  22.094  1.00  0.00    -0.383 OA
ATOM     10  H   UNL     1      29.127  27.846  22.811  1.00  0.00     0.211 HD
ENDBRANCH   6   9
ENDBRANCH   5   6
BRANCH   5  11
ATOM     11  O   UNL     1      26.960  26.868  20.828  1.00  0.00    -0.387 OA
ATOM     12  H   UNL     1      26.794  26.162  20.149  1.00  0.00     0.211 HD
ENDBRANCH   5  11
ENDBRANCH   1   5
BRANCH   1  13
ATOM     13  O   UNL     1      26.886  28.306  22.948  1.00  0.00    -0.388 OA
ATOM     14  H   UNL     1      27.669  28.860  23.203  1.00  0.00     0.211 HD
ENDBRANCH   1  13
TORSDOF 8
ENDMDL
MODEL 2
REMARK VINA RESULT:    -3.893      1.187      4.474
REMARK INTER + INTRA:          -5.732
REMARK INTER:                  -5.248
REMARK INTRA:                  -0.484
REMARK UNBOUND:                -0.474
REMARK SMILES O=C[C@H](O)[C@H](O)[C@@H](O)CO
REMARK SMILES IDX 7 1 9 2 10 3 5 5 3 6 2 7 1 8 4 9 6 11 8 13
REMARK H PARENT 10 4 4 10 6 12 8 14
REMARK Flexibility Score: inf
ROOT
ATOM      1  C   UNL     1      27.691  26.251  21.992  1.00  0.00     0.171 C 
ENDROOT
BRANCH   1   2
ATOM      2  C   UNL     1      29.229  26.256  22.009  1.00  0.00     0.190 C 
BRANCH   2   3
ATOM      3  O   UNL     1      29.720  27.453  21.471  1.00  0.00    -0.394 OA
ATOM      4  H   UNL     1      30.413  27.194  20.809  1.00  0.00     0.210 HD
ENDBRANCH   2   3
ENDBRANCH   1   2
BRANCH   1   5
ATOM      5  C   UNL     1      27.056  27.004  23.199  1.00  0.00     0.181 C 
BRANCH   5   6
ATOM      6  C   UNL     1      25.513  27.167  23.130  1.00  0.00     0.209 C 
BRANCH   6   7
ATOM      7  C   UNL     1      24.998  28.204  24.091  1.00  0.00     0.258 C 
ATOM      8  O   UNL     1      24.694  29.318  23.694  1.00  0.00    -0.300 OA
ENDBRANCH   6   7
BRANCH   6   9
ATOM      9  O   UNL     1      24.861  25.946  23.364  1.00  0.00    -0.383 OA
ATOM     10  H   UNL     1      24.120  25.886  22.705  1.00  0.00     0.211 HD
ENDBRANCH   6   9
ENDBRANCH   5   6
BRANCH   5  11
ATOM     11  O   UNL     1      27.617  28.293  23.274  1.00  0.00    -0.387 OA
ATOM     12  H   UNL     1      27.585  28.685  22.361  1.00  0.00     0.211 HD
ENDBRANCH   5  11
ENDBRANCH   1   5
BRANCH   1  13
ATOM     13  O   UNL     1      27.272  26.866  20.799  1.00  0.00    -0.388 OA
ATOM     14  H   UNL     1      27.332  27.848  20.936  1.00  0.00     0.211 HD
ENDBRANCH   1  13
TORSDOF 8
ENDMDL
MODEL 3
REMARK VINA RESULT:    -3.797      1.110      1.890
REMARK INTER + INTRA:          -5.603
REMARK INTER:                  -5.056
REMARK INTRA:                  -0.547
REMARK UNBOUND:                -0.474
REMARK SMILES O=C[C@H](O)[C@H](O)[C@@H](O)CO
REMARK SMILES IDX 7 1 9 2 10 3 5 5 3 6 2 7 1 8 4 9 6 11 8 13
REMARK H PARENT 10 4 4 10 6 12 8 14
REMARK Flexibility Score: inf
ROOT
ATOM      1  C   UNL     1      26.390  27.511  23.892  1.00  0.00     0.171 C 
ENDROOT
BRANCH   1   2
ATOM      2  C   UNL     1      25.637  26.188  24.117  1.00  0.00     0.190 C 
BRANCH   2   3
ATOM      3  O   UNL     1      24.701  25.979  23.096  1.00  0.00    -0.394 OA
ATOM      4  H   UNL     1      24.690  26.812  22.557  1.00  0.00     0.210 HD
ENDBRANCH   2   3
ENDBRANCH   1   2
BRANCH   1   5
ATOM      5  C   UNL     1      27.756  27.329  23.165  1.00  0.00     0.181 C 
BRANCH   5   6
ATOM      6  C   UNL     1      27.732  26.343  21.964  1.00  0.00     0.209 C 
BRANCH   6   7
ATOM      7  C   UNL     1      29.111  25.991  21.478  1.00  0.00     0.258 C 
ATOM      8  O   UNL     1      29.684  25.002  21.907  1.00  0.00    -0.300 OA
ENDBRANCH   6   7
BRANCH   6   9
ATOM      9  O   UNL     1      26.976  26.857  20.899  1.00  0.00    -0.383 OA
ATOM     10  H   UNL     1      26.675  26.079  20.359  1.00  0.00     0.211 HD
ENDBRANCH   6   9
ENDBRANCH   5   6
BRANCH   5  11
ATOM     11  O   UNL     1      28.701  26.848  24.091  1.00  0.00    -0.387 OA
ATOM     12  H   UNL     1      28.241  26.181  24.666  1.00  0.00     0.211 HD
ENDBRANCH   5  11
ENDBRANCH   1   5
BRANCH   1  13
ATOM     13  O   UNL     1      25.568  28.347  23.116  1.00  0.00    -0.388 OA
ATOM     14  H   UNL     1      24.627  28.152  23.368  1.00  0.00     0.211 HD
ENDBRANCH   1  13
TORSDOF 8
ENDMDL
MODEL 4
REMARK VINA RESULT:    -3.739      2.110      4.843
REMARK INTER + INTRA:          -5.525
REMARK INTER:                  -4.830
REMARK INTRA:                  -0.695
REMARK UNBOUND:                -0.474
REMARK SMILES O=C[C@H](O)[C@H](O)[C@@H](O)CO
REMARK SMILES IDX 7 1 9 2 10 3 5 5 3 6 2 7 1 8 4 9 6 11 8 13
REMARK H PARENT 10 4 4 10 6 12 8 14
REMARK Flexibility Score: inf
ROOT
ATOM      1  C   UNL     1      26.325  26.454  23.451  1.00  0.00     0.171 C 
ENDROOT
BRANCH   1   2
ATOM      2  C   UNL     1      27.378  26.308  22.340  1.00  0.00     0.190 C 
BRANCH   2   3
ATOM      3  O   UNL     1      26.919  26.889  21.151  1.00  0.00    -0.394 OA
ATOM      4  H   UNL     1      27.614  27.543  20.877  1.00  0.00     0.210 HD
ENDBRANCH   2   3
ENDBRANCH   1   2
BRANCH   1   5
ATOM      5  C   UNL     1      26.192  27.909  23.990  1.00  0.00     0.181 C 
BRANCH   5   6
ATOM      6  C   UNL     1      24.738  28.454  24.050  1.00  0.00     0.209 C 
BRANCH   6   7
ATOM      7  C   UNL     1      24.687  29.933  24.318  1.00  0.00     0.258 C 
ATOM      8  O   UNL     1      24.904  30.732  23.420  1.00  0.00    -0.300 OA
ENDBRANCH   6   7
BRANCH   6   9
ATOM      9  O   UNL     1      23.980  27.776  25.017  1.00  0.00    -0.383 OA
ATOM     10  H   UNL     1      23.492  28.468  25.536  1.00  0.00     0.211 HD
ENDBRANCH   6   9
ENDBRANCH   5   6
BRANCH   5  11
ATOM     11  O   UNL     1      26.935  28.769  23.159  1.00  0.00    -0.387 OA
ATOM     12  H   UNL     1      27.043  28.315  22.282  1.00  0.00     0.211 HD
ENDBRANCH   5  11
ENDBRANCH   1   5
BRANCH   1  13
ATOM     13  O   UNL     1      25.086  26.047  22.925  1.00  0.00    -0.388 OA
ATOM     14  H   UNL     1      24.932  26.571  22.095  1.00  0.00     0.211 HD
ENDBRANCH   1  13
TORSDOF 8
ENDMDL
MODEL 5
REMARK VINA RESULT:    -3.689      1.105      4.146
REMARK INTER + INTRA:          -5.457
REMARK INTER:                  -4.942
REMARK INTRA:                  -0.515
REMARK UNBOUND:                -0.474
REMARK SMILES O=C[C@H](O)[C@H](O)[C@@H](O)CO
REMARK SMILES IDX 7 1 9 2 10 3 5 5 3 6 2 7 1 8 4 9 6 11 8 13
REMARK H PARENT 10 4 4 10 6 12 8 14
REMARK Flexibility Score: inf
ROOT
ATOM      1  C   UNL     1      27.573  26.116  22.122  1.00  0.00     0.171 C 
ENDROOT
BRANCH   1   2
ATOM      2  C   UNL     1      29.084  25.978  21.874  1.00  0.00     0.190 C 
BRANCH   2   3
ATOM      3  O   UNL     1      29.620  27.194  21.431  1.00  0.00    -0.394 OA
ATOM      4  H   UNL     1      30.551  26.998  21.148  1.00  0.00     0.210 HD
ENDBRANCH   2   3
ENDBRANCH   1   2
BRANCH   1   5
ATOM      5  C   UNL     1      27.228  26.907  23.419  1.00  0.00     0.181 C 
BRANCH   5   6
ATOM      6  C   UNL     1      25.745  26.812  23.869  1.00  0.00     0.209 C 
BRANCH   6   7
ATOM      7  C   UNL     1      25.214  25.406  23.817  1.00  0.00     0.258 C 
ATOM      8  O   UNL     1      24.486  24.986  24.704  1.00  0.00    -0.300 OA
ENDBRANCH   6   7
BRANCH   6   9
ATOM      9  O   UNL     1      24.924  27.651  23.098  1.00  0.00    -0.383 OA
ATOM     10  H   UNL     1      24.654  27.130  22.296  1.00  0.00     0.211 HD
ENDBRANCH   6   9
ENDBRANCH   5   6
BRANCH   5  11
ATOM     11  O   UNL     1      27.524  28.268  23.211  1.00  0.00    -0.387 OA
ATOM     12  H   UNL     1      27.743  28.381  22.247  1.00  0.00     0.211 HD
ENDBRANCH   5  11
ENDBRANCH   1   5
BRANCH   1  13
ATOM     13  O   UNL     1      27.016  26.785  21.018  1.00  0.00    -0.388 OA
ATOM     14  H   UNL     1      26.515  26.112  20.486  1.00  0.00     0.211 HD
ENDBRANCH   1  13
TORSDOF 8
ENDMDL
MODEL 6
REMARK VINA RESULT:    -3.599      1.312      2.349
REMARK INTER + INTRA:          -5.336
REMARK INTER:                  -4.840
REMARK INTRA:                  -0.495
REMARK UNBOUND:                -0.474
REMARK SMILES O=C[C@H](O)[C@H](O)[C@@H](O)CO
REMARK SMILES IDX 7 1 9 2 10 3 5 5 3 6 2 7 1 8 4 9 6 11 8 13
REMARK H PARENT 10 4 4 10 6 12 8 14
REMARK Flexibility Score: inf
ROOT
ATOM      1  C   UNL     1      25.631  27.499  23.460  1.00  0.00     0.171 C 
ENDROOT
BRANCH   1   2
ATOM      2  C   UNL     1      25.272  27.496  24.955  1.00  0.00     0.190 C 
BRANCH   2   3
ATOM      3  O   UNL     1      23.882  27.462  25.124  1.00  0.00    -0.394 OA
ATOM      4  H   UNL     1      23.685  26.629  25.627  1.00  0.00     0.210 HD
ENDBRANCH   2   3
ENDBRANCH   1   2
BRANCH   1   5
ATOM      5  C   UNL     1      27.165  27.460  23.192  1.00  0.00     0.181 C 
BRANCH   5   6
ATOM      6  C   UNL     1      27.615  26.442  22.108  1.00  0.00     0.209 C 
BRANCH   6   7
ATOM      7  C   UNL     1      29.104  26.228  22.100  1.00  0.00     0.258 C 
ATOM      8  O   UNL     1      29.866  27.173  22.233  1.00  0.00    -0.300 OA
ENDBRANCH   6   7
BRANCH   6   9
ATOM      9  O   UNL     1      27.191  26.839  20.830  1.00  0.00    -0.383 OA
ATOM     10  H   UNL     1      27.888  27.450  20.474  1.00  0.00     0.211 HD
ENDBRANCH   6   9
ENDBRANCH   5   6
BRANCH   5  11
ATOM     11  O   UNL     1      27.826  27.127  24.390  1.00  0.00    -0.387 OA
ATOM     12  H   UNL     1      27.633  27.848  25.046  1.00  0.00     0.211 HD
ENDBRANCH   5  11
ENDBRANCH   1   5
BRANCH   1  13
ATOM     13  O   UNL     1      25.037  26.367  22.873  1.00  0.00    -0.388 OA
ATOM     14  H   UNL     1      24.924  26.562  21.906  1.00  0.00     0.211 HD
ENDBRANCH   1  13
TORSDOF 8
ENDMDL
MODEL 7
REMARK VINA RESULT:    -3.518      2.159      2.965
REMARK INTER + INTRA:          -5.226
REMARK INTER:                  -4.883
REMARK INTRA:                  -0.343
REMARK UNBOUND:                -0.474
REMARK SMILES O=C[C@H](O)[C@H](O)[C@@H](O)CO
REMARK SMILES IDX 7 1 9 2 10 3 5 5 3 6 2 7 1 8 4 9 6 11 8 13
REMARK H PARENT 10 4 4 10 6 12 8 14
REMARK Flexibility Score: inf
ROOT
ATOM      1  C   UNL     1      25.056  26.315  24.561  1.00  0.00     0.171 C 
ENDROOT
BRANCH   1   2
ATOM      2  C   UNL     1      24.636  24.840  24.442  1.00  0.00     0.190 C 
BRANCH   2   3
ATOM      3  O   UNL     1      23.955  24.621  23.238  1.00  0.00    -0.394 OA
ATOM      4  H   UNL     1      23.996  25.478  22.737  1.00  0.00     0.210 HD
ENDBRANCH   2   3
ENDBRANCH   1   2
BRANCH   1   5
ATOM      5  C   UNL     1      25.471  26.951  23.201  1.00  0.00     0.181 C 
BRANCH   5   6
ATOM      6  C   UNL     1      26.887  26.556  22.699  1.00  0.00     0.209 C 
BRANCH   6   7
ATOM      7  C   UNL     1      27.981  27.060  23.601  1.00  0.00     0.258 C 
ATOM      8  O   UNL     1      28.303  28.238  23.583  1.00  0.00    -0.300 OA
ENDBRANCH   6   7
BRANCH   6   9
ATOM      9  O   UNL     1      27.110  27.014  21.391  1.00  0.00    -0.383 OA
ATOM     10  H   UNL     1      26.892  27.983  21.386  1.00  0.00     0.211 HD
ENDBRANCH   6   9
ENDBRANCH   5   6
BRANCH   5  11
ATOM     11  O   UNL     1      25.441  28.353  23.329  1.00  0.00    -0.387 OA
ATOM     12  H   UNL     1      24.491  28.620  23.450  1.00  0.00     0.211 HD
ENDBRANCH   5  11
ENDBRANCH   1   5
BRANCH   1  13
ATOM     13  O   UNL     1      23.966  27.031  25.085  1.00  0.00    -0.388 OA
ATOM     14  H   UNL     1      24.121  27.132  26.061  1.00  0.00     0.211 HD
ENDBRANCH   1  13
TORSDOF 8
ENDMDL
MODEL 8
REMARK VINA RESULT:    -3.518      2.096      3.137
REMARK INTER + INTRA:          -5.226
REMARK INTER:                  -4.883
REMARK INTRA:                  -0.342
REMARK UNBOUND:                -0.474
REMARK SMILES O=C[C@H](O)[C@H](O)[C@@H](O)CO
REMARK SMILES IDX 7 1 9 2 10 3 5 5 3 6 2 7 1 8 4 9 6 11 8 13
REMARK H PARENT 10 4 4 10 6 12 8 14
REMARK Flexibility Score: inf
ROOT
ATOM      1  C   UNL     1      28.801  25.352  21.642  1.00  0.00     0.171 C 
ENDROOT
BRANCH   1   2
ATOM      2  C   UNL     1      28.510  26.344  20.503  1.00  0.00     0.190 C 
BRANCH   2   3
ATOM      3  O   UNL     1      27.238  26.910  20.661  1.00  0.00    -0.394 OA
ATOM      4  H   UNL     1      27.265  27.784  20.192  1.00  0.00     0.210 HD
ENDBRANCH   2   3
ENDBRANCH   1   2
BRANCH   1   5
ATOM      5  C   UNL     1      29.728  25.936  22.749  1.00  0.00     0.181 C 
BRANCH   5   6
ATOM      6  C   UNL     1      30.297  27.350  22.447  1.00  0.00     0.209 C 
BRANCH   6   7
ATOM      7  C   UNL     1      31.733  27.497  22.868  1.00  0.00     0.258 C 
ATOM      8  O   UNL     1      32.033  27.501  24.052  1.00  0.00    -0.300 OA
ENDBRANCH   6   7
BRANCH   6   9
ATOM      9  O   UNL     1      29.525  28.350  23.058  1.00  0.00    -0.383 OA
ATOM     10  H   UNL     1      28.990  27.907  23.768  1.00  0.00     0.211 HD
ENDBRANCH   6   9
ENDBRANCH   5   6
BRANCH   5  11
ATOM     11  O   UNL     1      30.821  25.067  22.929  1.00  0.00    -0.387 OA
ATOM     12  H   UNL     1      30.917  24.909  23.906  1.00  0.00     0.211 HD
ENDBRANCH   5  11
ENDBRANCH   1   5
BRANCH   1  13
ATOM     13  O   UNL     1      27.572  24.990  22.221  1.00  0.00    -0.388 OA
ATOM     14  H   UNL     1      27.647  24.040  22.502  1.00  0.00     0.211 HD
ENDBRANCH   1  13
TORSDOF 8
ENDMDL
MODEL 9
REMARK VINA RESULT:    -3.449      1.452      2.361
REMARK INTER + INTRA:          -5.133
REMARK INTER:                  -4.733
REMARK INTRA:                  -0.400
REMARK UNBOUND:                -0.474
REMARK SMILES O=C[C@H](O)[C@H](O)[C@@H](O)CO
REMARK SMILES IDX 7 1 9 2 10 3 5 5 3 6 2 7 1 8 4 9 6 11 8 13
REMARK H PARENT 10 4 4 10 6 12 8 14
REMARK Flexibility Score: inf
ROOT
ATOM      1  C   UNL     1      27.768  26.952  23.029  1.00  0.00     0.171 C 
ENDROOT
BRANCH   1   2
ATOM      2  C   UNL     1      27.768  26.138  21.724  1.00  0.00     0.190 C 
BRANCH   2   3
ATOM      3  O   UNL     1      27.122  26.848  20.704  1.00  0.00    -0.394 OA
ATOM      4  H   UNL     1      27.638  26.672  19.875  1.00  0.00     0.210 HD
ENDBRANCH   2   3
ENDBRANCH   1   2
BRANCH   1   5
ATOM      5  C   UNL     1      29.168  27.525  23.400  1.00  0.00     0.181 C 
BRANCH   5   6
ATOM      6  C   UNL     1      30.275  27.288  22.336  1.00  0.00     0.209 C 
BRANCH   6   7
ATOM      7  C   UNL     1      31.442  26.510  22.880  1.00  0.00     0.258 C 
ATOM      8  O   UNL     1      31.389  25.293  22.960  1.00  0.00    -0.300 OA
ENDBRANCH   6   7
BRANCH   6   9
ATOM      9  O   UNL     1      30.731  28.501  21.797  1.00  0.00    -0.383 OA
ATOM     10  H   UNL     1      30.792  28.374  20.814  1.00  0.00     0.211 HD
ENDBRANCH   6   9
ENDBRANCH   5   6
BRANCH   5  11
ATOM     11  O   UNL     1      29.597  26.929  24.601  1.00  0.00    -0.387 OA
ATOM     12  H   UNL     1      29.458  25.949  24.513  1.00  0.00     0.211 HD
ENDBRANCH   5  11
ENDBRANCH   1   5
BRANCH   1  13
ATOM     13  O   UNL     1      26.866  28.019  22.870  1.00  0.00    -0.388 OA
ATOM     14  H   UNL     1      25.970  27.625  22.701  1.00  0.00     0.211 HD
ENDBRANCH   1  13
TORSDOF 8
ENDMDL
