MODEL 1
REMARK VINA RESULT:    -4.333      0.000      0.000
REMARK INTER + INTRA:          -4.909
REMARK INTER:                  -4.713
REMARK INTRA:                  -0.196
REMARK UNBOUND:                -0.196
REMARK SMILES Cc1ccc(C(C)C)c(O)c1
REMARK SMILES IDX 1 1 2 2 11 3 9 4 5 5 4 6 3 7 10 8 6 10 7 11 8 12
REMARK H PARENT 10 9
REMARK Flexibility Score: inf
ROOT
ATOM      1  C   UNL     1      -2.421  -2.939  -2.582  1.00  0.00     0.044 C 
ATOM      2  C   UNL     1      -3.318  -3.259  -1.422  1.00  0.00    -0.047 A 
ATOM      3  C   UNL     1      -4.092  -2.253  -0.831  1.00  0.00     0.049 A 
ATOM      4  C   UNL     1      -4.961  -2.549   0.229  1.00  0.00     0.119 A 
ATOM      5  C   UNL     1      -5.070  -3.876   0.705  1.00  0.00    -0.004 A 
ATOM      6  C   UNL     1      -4.300  -4.881   0.089  1.00  0.00     0.008 A 
ATOM      7  C   UNL     1      -3.439  -4.576  -0.967  1.00  0.00     0.004 A 
ENDROOT
BRANCH   4   8
ATOM      8  O   UNL     1      -5.711  -1.523   0.803  1.00  0.00    -0.508 OA
ATOM      9  H   UNL     1      -6.392  -0.996   0.269  1.00  0.00     0.293 HD
ENDBRANCH   4   8
BRANCH   5  10
ATOM     10  C   UNL     1      -5.995  -4.260   1.854  1.00  0.00     0.017 C 
ATOM     11  C   UNL     1      -5.283  -4.177   3.209  1.00  0.00     0.012 C 
ATOM     12  C   UNL     1      -6.633  -5.637   1.636  1.00  0.00     0.012 C 
ENDBRANCH   5  10
TORSDOF 2
ENDMDL
MODEL 2
REMARK VINA RESULT:    -4.304      2.185      3.107
REMARK INTER + INTRA:          -4.878
REMARK INTER:                  -4.681
REMARK INTRA:                  -0.196
REMARK UNBOUND:                -0.196
REMARK SMILES Cc1ccc(C(C)C)c(O)c1
REMARK SMILES IDX 1 1 2 2 11 3 9 4 5 5 4 6 3 7 10 8 6 10 7 11 8 12
REMARK H PARENT 10 9
REMARK Flexibility Score: inf
ROOT
ATOM      1  C   UNL     1      -4.128  -4.458  -0.150  1.00  0.00     0.044 C 
ATOM      2  C   UNL     1      -5.159  -3.905   0.790  1.00  0.00    -0.047 A 
ATOM      3  C   UNL     1      -5.547  -2.562   0.699  1.00  0.00     0.049 A 
ATOM      4  C   UNL     1      -6.536  -2.045   1.549  1.00  0.00     0.119 A 
ATOM      5  C   UNL     1      -7.160  -2.884   2.502  1.00  0.00    -0.004 A 
ATOM      6  C   UNL     1      -6.773  -4.236   2.569  1.00  0.00     0.008 A 
ATOM      7  C   UNL     1      -5.788  -4.741   1.717  1.00  0.00     0.004 A 
ENDROOT
BRANCH   4   8
ATOM      8  O   UNL     1      -6.894  -0.701   1.441  1.00  0.00    -0.508 OA
ATOM      9  H   UNL     1      -7.245  -0.176   2.234  1.00  0.00     0.293 HD
ENDBRANCH   4   8
BRANCH   5  10
ATOM     10  C   UNL     1      -8.239  -2.381   3.453  1.00  0.00     0.017 C 
ATOM     11  C   UNL     1      -7.641  -1.842   4.758  1.00  0.00     0.012 C 
ATOM     12  C   UNL     1      -9.306  -3.449   3.721  1.00  0.00     0.012 C 
ENDBRANCH   5  10
TORSDOF 2
ENDMDL
MODEL 3
REMARK VINA RESULT:    -4.264      8.865     10.863
REMARK INTER + INTRA:          -4.835
REMARK INTER:                  -4.638
REMARK INTRA:                  -0.196
REMARK UNBOUND:                -0.196
REMARK SMILES Cc1ccc(C(C)C)c(O)c1
REMARK SMILES IDX 1 1 2 2 11 3 9 4 5 5 4 6 3 7 10 8 6 10 7 11 8 12
REMARK H PARENT 10 9
REMARK Flexibility Score: inf
ROOT
ATOM      1  C   UNL     1      -2.570   3.508  -4.720  1.00  0.00     0.044 C 
ATOM      2  C   UNL     1      -1.341   3.996  -4.012  1.00  0.00    -0.047 A 
ATOM      3  C   UNL     1      -0.784   3.247  -2.968  1.00  0.00     0.049 A 
ATOM      4  C   UNL     1       0.387   3.676  -2.324  1.00  0.00     0.119 A 
ATOM      5  C   UNL     1       1.023   4.871  -2.735  1.00  0.00    -0.004 A 
ATOM      6  C   UNL     1       0.462   5.604  -3.799  1.00  0.00     0.008 A 
ATOM      7  C   UNL     1      -0.702   5.167  -4.434  1.00  0.00     0.004 A 
ENDROOT
BRANCH   4   8
ATOM      8  O   UNL     1       0.910   2.913  -1.281  1.00  0.00    -0.508 OA
ATOM      9  H   UNL     1       1.113   3.316  -0.374  1.00  0.00     0.293 HD
ENDBRANCH   4   8
BRANCH   5  10
ATOM     10  C   UNL     1       2.294   5.389  -2.075  1.00  0.00     0.017 C 
ATOM     11  C   UNL     1       1.985   6.324  -0.900  1.00  0.00     0.012 C 
ATOM     12  C   UNL     1       3.233   6.053  -3.090  1.00  0.00     0.012 C 
ENDBRANCH   5  10
TORSDOF 2
ENDMDL
MODEL 4
REMARK VINA RESULT:    -4.254      2.967      5.750
REMARK INTER + INTRA:          -4.824
REMARK INTER:                  -4.629
REMARK INTRA:                  -0.195
REMARK UNBOUND:                -0.196
REMARK SMILES Cc1ccc(C(C)C)c(O)c1
REMARK SMILES IDX 1 1 2 2 11 3 9 4 5 5 4 6 3 7 10 8 6 10 7 11 8 12
REMARK H PARENT 10 9
REMARK Flexibility Score: inf
ROOT
ATOM      1  C   UNL     1      -3.192  -3.975  -0.943  1.00  0.00     0.044 C 
ATOM      2  C   UNL     1      -3.315  -2.685  -1.698  1.00  0.00    -0.047 A 
ATOM      3  C   UNL     1      -4.332  -1.776  -1.378  1.00  0.00     0.049 A 
ATOM      4  C   UNL     1      -4.434  -0.550  -2.053  1.00  0.00     0.119 A 
ATOM      5  C   UNL     1      -3.497  -0.216  -3.060  1.00  0.00    -0.004 A 
ATOM      6  C   UNL     1      -2.469  -1.132  -3.357  1.00  0.00     0.008 A 
ATOM      7  C   UNL     1      -2.376  -2.349  -2.678  1.00  0.00     0.004 A 
ENDROOT
BRANCH   4   8
ATOM      8  O   UNL     1      -5.463   0.329  -1.719  1.00  0.00    -0.508 OA
ATOM      9  H   UNL     1      -5.596   0.660  -0.771  1.00  0.00     0.293 HD
ENDBRANCH   4   8
BRANCH   5  10
ATOM     10  C   UNL     1      -3.555   1.098  -3.828  1.00  0.00     0.017 C 
ATOM     11  C   UNL     1      -4.167   0.915  -5.222  1.00  0.00     0.012 C 
ATOM     12  C   UNL     1      -2.182   1.777  -3.900  1.00  0.00     0.012 C 
ENDBRANCH   5  10
TORSDOF 2
ENDMDL
MODEL 5
REMARK VINA RESULT:    -4.220      3.766      5.512
REMARK INTER + INTRA:          -4.786
REMARK INTER:                  -4.591
REMARK INTRA:                  -0.195
REMARK UNBOUND:                -0.196
REMARK SMILES Cc1ccc(C(C)C)c(O)c1
REMARK SMILES IDX 1 1 2 2 11 3 9 4 5 5 4 6 3 7 10 8 6 10 7 11 8 12
REMARK H PARENT 10 9
REMARK Flexibility Score: inf
ROOT
ATOM      1  C   UNL     1      -3.589   2.773  -4.896  1.00  0.00     0.044 C 
ATOM      2  C   UNL     1      -3.386   1.492  -4.142  1.00  0.00    -0.047 A 
ATOM      3  C   UNL     1      -2.253   1.319  -3.337  1.00  0.00     0.049 A 
ATOM      4  C   UNL     1      -2.072   0.140  -2.599  1.00  0.00     0.119 A 
ATOM      5  C   UNL     1      -3.045  -0.886  -2.655  1.00  0.00    -0.004 A 
ATOM      6  C   UNL     1      -4.188  -0.691  -3.454  1.00  0.00     0.008 A 
ATOM      7  C   UNL     1      -4.359   0.487  -4.183  1.00  0.00     0.004 A 
ENDROOT
BRANCH   4   8
ATOM      8  O   UNL     1      -0.929  -0.006  -1.815  1.00  0.00    -0.508 OA
ATOM      9  H   UNL     1       0.000   0.138  -2.194  1.00  0.00     0.293 HD
ENDBRANCH   4   8
BRANCH   5  10
ATOM     10  C   UNL     1      -2.905  -2.189  -1.879  1.00  0.00     0.017 C 
ATOM     11  C   UNL     1      -2.451  -3.343  -2.781  1.00  0.00     0.012 C 
ATOM     12  C   UNL     1      -4.190  -2.540  -1.119  1.00  0.00     0.012 C 
ENDBRANCH   5  10
TORSDOF 2
ENDMDL
MODEL 6
REMARK VINA RESULT:    -4.183      1.708      2.655
REMARK INTER + INTRA:          -4.747
REMARK INTER:                  -4.557
REMARK INTRA:                  -0.189
REMARK UNBOUND:                -0.196
REMARK SMILES Cc1ccc(C(C)C)c(O)c1
REMARK SMILES IDX 1 1 2 2 11 3 9 4 5 5 4 6 3 7 10 8 6 10 7 11 8 12
REMARK H PARENT 10 9
REMARK Flexibility Score: inf
ROOT
ATOM      1  C   UNL     1      -1.210  -3.865  -4.088  1.00  0.00     0.044 C 
ATOM      2  C   UNL     1      -2.165  -3.453  -3.007  1.00  0.00    -0.047 A 
ATOM      3  C   UNL     1      -2.285  -2.105  -2.648  1.00  0.00     0.049 A 
ATOM      4  C   UNL     1      -3.201  -1.705  -1.664  1.00  0.00     0.119 A 
ATOM      5  C   UNL     1      -4.024  -2.666  -1.031  1.00  0.00    -0.004 A 
ATOM      6  C   UNL     1      -3.906  -4.015  -1.415  1.00  0.00     0.008 A 
ATOM      7  C   UNL     1      -2.992  -4.403  -2.396  1.00  0.00     0.004 A 
ENDROOT
BRANCH   4   8
ATOM      8  O   UNL     1      -3.290  -0.356  -1.322  1.00  0.00    -0.508 OA
ATOM      9  H   UNL     1      -2.833   0.365  -1.869  1.00  0.00     0.293 HD
ENDBRANCH   4   8
BRANCH   5  10
ATOM     10  C   UNL     1      -5.037  -2.294   0.045  1.00  0.00     0.017 C 
ATOM     11  C   UNL     1      -5.214  -3.418   1.072  1.00  0.00     0.012 C 
ATOM     12  C   UNL     1      -6.379  -1.866  -0.560  1.00  0.00     0.012 C 
ENDBRANCH   5  10
TORSDOF 2
ENDMDL
MODEL 7
REMARK VINA RESULT:    -4.151      6.913      9.100
REMARK INTER + INTRA:          -4.712
REMARK INTER:                  -4.516
REMARK INTRA:                  -0.196
REMARK UNBOUND:                -0.196
REMARK SMILES Cc1ccc(C(C)C)c(O)c1
REMARK SMILES IDX 1 1 2 2 11 3 9 4 5 5 4 6 3 7 10 8 6 10 7 11 8 12
REMARK H PARENT 10 9
REMARK Flexibility Score: inf
ROOT
ATOM      1  C   UNL     1      -0.609   6.640  -3.974  1.00  0.00     0.044 C 
ATOM      2  C   UNL     1      -0.524   5.166  -3.708  1.00  0.00    -0.047 A 
ATOM      3  C   UNL     1       0.206   4.688  -2.613  1.00  0.00     0.049 A 
ATOM      4  C   UNL     1       0.261   3.314  -2.334  1.00  0.00     0.119 A 
ATOM      5  C   UNL     1      -0.435   2.397  -3.156  1.00  0.00    -0.004 A 
ATOM      6  C   UNL     1      -1.181   2.893  -4.242  1.00  0.00     0.008 A 
ATOM      7  C   UNL     1      -1.230   4.263  -4.510  1.00  0.00     0.004 A 
ENDROOT
BRANCH   4   8
ATOM      8  O   UNL     1       1.006   2.869  -1.242  1.00  0.00    -0.508 OA
ATOM      9  H   UNL     1       1.888   2.385  -1.359  1.00  0.00     0.293 HD
ENDBRANCH   4   8
BRANCH   5  10
ATOM     10  C   UNL     1      -0.413   0.894  -2.906  1.00  0.00     0.017 C 
ATOM     11  C   UNL     1       0.583   0.178  -3.826  1.00  0.00     0.012 C 
ATOM     12  C   UNL     1      -1.815   0.279  -3.004  1.00  0.00     0.012 C 
ENDBRANCH   5  10
TORSDOF 2
ENDMDL
MODEL 8
REMARK VINA RESULT:    -4.104      7.000      8.517
REMARK INTER + INTRA:          -4.661
REMARK INTER:                  -4.469
REMARK INTRA:                  -0.192
REMARK UNBOUND:                -0.196
REMARK SMILES Cc1ccc(C(C)C)c(O)c1
REMARK SMILES IDX 1 1 2 2 11 3 9 4 5 5 4 6 3 7 10 8 6 10 7 11 8 12
REMARK H PARENT 10 9
REMARK Flexibility Score: inf
ROOT
ATOM      1  C   UNL     1       1.481   2.587  -2.551  1.00  0.00     0.044 C 
ATOM      2  C   UNL     1       1.274   1.264  -3.227  1.00  0.00    -0.047 A 
ATOM      3  C   UNL     1       2.375   0.477  -3.590  1.00  0.00     0.049 A 
ATOM      4  C   UNL     1       2.191  -0.778  -4.190  1.00  0.00     0.119 A 
ATOM      5  C   UNL     1       0.883  -1.266  -4.423  1.00  0.00    -0.004 A 
ATOM      6  C   UNL     1      -0.213  -0.472  -4.036  1.00  0.00     0.008 A 
ATOM      7  C   UNL     1      -0.020   0.775  -3.439  1.00  0.00     0.004 A 
ENDROOT
BRANCH   4   8
ATOM      8  O   UNL     1       3.307  -1.533  -4.548  1.00  0.00    -0.508 OA
ATOM      9  H   UNL     1       3.685  -2.249  -3.940  1.00  0.00     0.293 HD
ENDBRANCH   4   8
BRANCH   5  10
ATOM     10  C   UNL     1       0.619  -2.619  -5.071  1.00  0.00     0.017 C 
ATOM     11  C   UNL     1       0.039  -2.470  -6.483  1.00  0.00     0.012 C 
ATOM     12  C   UNL     1      -0.266  -3.509  -4.189  1.00  0.00     0.012 C 
ENDBRANCH   5  10
TORSDOF 2
ENDMDL
MODEL 9
REMARK VINA RESULT:    -4.098      7.348      9.093
REMARK INTER + INTRA:          -4.654
REMARK INTER:                  -4.520
REMARK INTRA:                  -0.134
REMARK UNBOUND:                -0.196
REMARK SMILES Cc1ccc(C(C)C)c(O)c1
REMARK SMILES IDX 1 1 2 2 11 3 9 4 5 5 4 6 3 7 10 8 6 10 7 11 8 12
REMARK H PARENT 10 9
REMARK Flexibility Score: inf
ROOT
ATOM      1  C   UNL     1      -3.695   2.519  -4.985  1.00  0.00     0.044 C 
ATOM      2  C   UNL     1      -2.428   2.666  -4.196  1.00  0.00    -0.047 A 
ATOM      3  C   UNL     1      -1.907   1.576  -3.488  1.00  0.00     0.049 A 
ATOM      4  C   UNL     1      -0.704   1.693  -2.777  1.00  0.00     0.119 A 
ATOM      5  C   UNL     1       0.004   2.918  -2.780  1.00  0.00    -0.004 A 
ATOM      6  C   UNL     1      -0.522   4.000  -3.512  1.00  0.00     0.008 A 
ATOM      7  C   UNL     1      -1.720   3.873  -4.217  1.00  0.00     0.004 A 
ENDROOT
BRANCH   4   8
ATOM      8  O   UNL     1      -0.217   0.592  -2.073  1.00  0.00    -0.508 OA
ATOM      9  H   UNL     1      -0.245   0.550  -1.061  1.00  0.00     0.293 HD
ENDBRANCH   4   8
BRANCH   5  10
ATOM     10  C   UNL     1       1.314   3.108  -2.028  1.00  0.00     0.017 C 
ATOM     11  C   UNL     1       1.598   4.587  -1.742  1.00  0.00     0.012 C 
ATOM     12  C   UNL     1       2.489   2.439  -2.752  1.00  0.00     0.012 C 
ENDBRANCH   5  10
TORSDOF 2
ENDMDL
