MODEL 1
REMARK VINA RESULT:    -5.763      0.000      0.000
REMARK INTER + INTRA:          -7.852
REMARK INTER:                  -7.447
REMARK INTRA:                  -0.405
REMARK UNBOUND:                -0.405
REMARK SMILES CCO[C@H]1O[C@@H](CO)[C@H](O)[C@@H](O)[C@@H]1O
REMARK SMILES IDX 4 1 13 2 11 3 9 4 6 5 5 6 3 7 2 8 1 9 14 10 12 12 7 14 8 15
REMARK SMILES IDX 10 17
REMARK H PARENT 14 11 12 13 8 16 10 18
REMARK Flexibility Score: inf
ROOT
ATOM      1  C   UNL     1      34.374   2.780  43.805  1.00  0.00     0.281 C 
ATOM      2  C   UNL     1      35.122   3.793  42.920  1.00  0.00     0.202 C 
ATOM      3  C   UNL     1      36.015   4.689  43.795  1.00  0.00     0.179 C 
ATOM      4  C   UNL     1      36.894   3.821  44.720  1.00  0.00     0.177 C 
ATOM      5  C   UNL     1      36.023   2.769  45.459  1.00  0.00     0.178 C 
ATOM      6  O   UNL     1      35.309   1.986  44.517  1.00  0.00    -0.341 OA
ENDROOT
BRANCH   1   7
ATOM      7  O   UNL     1      33.602   1.945  42.964  1.00  0.00    -0.350 OA
BRANCH   7   8
ATOM      8  C   UNL     1      32.607   1.281  43.716  1.00  0.00     0.160 C 
ATOM      9  C   UNL     1      31.707   2.314  44.376  1.00  0.00     0.035 C 
ENDBRANCH   7   8
ENDBRANCH   1   7
BRANCH   2  10
ATOM     10  O   UNL     1      34.188   4.579  42.225  1.00  0.00    -0.385 OA
ATOM     11  H   UNL     1      33.669   5.080  42.907  1.00  0.00     0.211 HD
ENDBRANCH   2  10
BRANCH   3  12
ATOM     12  O   UNL     1      36.826   5.484  42.970  1.00  0.00    -0.387 OA
ATOM     13  H   UNL     1      37.427   6.000  43.568  1.00  0.00     0.211 HD
ENDBRANCH   3  12
BRANCH   5  14
ATOM     14  C   UNL     1      36.886   1.820  46.305  1.00  0.00     0.191 C 
BRANCH  14  15
ATOM     15  O   UNL     1      37.025   2.292  47.619  1.00  0.00    -0.394 OA
ATOM     16  H   UNL     1      37.559   3.128  47.565  1.00  0.00     0.210 HD
ENDBRANCH  14  15
ENDBRANCH   5  14
BRANCH   4  17
ATOM     17  O   UNL     1      37.603   4.630  45.625  1.00  0.00    -0.387 OA
ATOM     18  H   UNL     1      37.439   5.578  45.373  1.00  0.00     0.211 HD
ENDBRANCH   4  17
TORSDOF 7
ENDMDL
MODEL 2
REMARK VINA RESULT:    -5.503      2.530      4.650
REMARK INTER + INTRA:          -7.516
REMARK INTER:                  -7.306
REMARK INTRA:                  -0.210
REMARK UNBOUND:                -0.405
REMARK SMILES CCO[C@H]1O[C@@H](CO)[C@H](O)[C@@H](O)[C@@H]1O
REMARK SMILES IDX 4 1 13 2 11 3 9 4 6 5 5 6 3 7 2 8 1 9 14 10 12 12 7 14 8 15
REMARK SMILES IDX 10 17
REMARK H PARENT 14 11 12 13 8 16 10 18
REMARK Flexibility Score: inf
ROOT
ATOM      1  C   UNL     1      36.810  -0.071  44.776  1.00  0.00     0.281 C 
ATOM      2  C   UNL     1      37.028   0.224  46.270  1.00  0.00     0.202 C 
ATOM      3  C   UNL     1      37.167   1.740  46.486  1.00  0.00     0.179 C 
ATOM      4  C   UNL     1      35.991   2.481  45.815  1.00  0.00     0.177 C 
ATOM      5  C   UNL     1      35.815   1.998  44.351  1.00  0.00     0.178 C 
ATOM      6  O   UNL     1      35.640   0.592  44.324  1.00  0.00    -0.341 OA
ENDROOT
BRANCH   1   7
ATOM      7  O   UNL     1      36.640  -1.467  44.622  1.00  0.00    -0.350 OA
BRANCH   7   8
ATOM      8  C   UNL     1      35.418  -1.878  45.202  1.00  0.00     0.160 C 
ATOM      9  C   UNL     1      35.326  -3.395  45.150  1.00  0.00     0.035 C 
ENDBRANCH   7   8
ENDBRANCH   1   7
BRANCH   2  10
ATOM     10  O   UNL     1      38.192  -0.431  46.706  1.00  0.00    -0.385 OA
ATOM     11  H   UNL     1      38.786  -0.519  45.916  1.00  0.00     0.211 HD
ENDBRANCH   2  10
BRANCH   3  12
ATOM     12  O   UNL     1      37.183   2.014  47.863  1.00  0.00    -0.387 OA
ATOM     13  H   UNL     1      36.314   1.704  48.229  1.00  0.00     0.211 HD
ENDBRANCH   3  12
BRANCH   5  14
ATOM     14  C   UNL     1      34.584   2.640  43.691  1.00  0.00     0.191 C 
BRANCH  14  15
ATOM     15  O   UNL     1      34.891   3.143  42.418  1.00  0.00    -0.394 OA
ATOM     16  H   UNL     1      35.113   2.359  41.849  1.00  0.00     0.210 HD
ENDBRANCH  14  15
ENDBRANCH   5  14
BRANCH   4  17
ATOM     17  O   UNL     1      36.187   3.872  45.879  1.00  0.00    -0.387 OA
ATOM     18  H   UNL     1      36.097   4.145  46.831  1.00  0.00     0.211 HD
ENDBRANCH   4  17
TORSDOF 7
ENDMDL
MODEL 3
REMARK VINA RESULT:    -5.268      2.973      4.761
REMARK INTER + INTRA:          -7.212
REMARK INTER:                  -6.783
REMARK INTRA:                  -0.429
REMARK UNBOUND:                -0.405
REMARK SMILES CCO[C@H]1O[C@@H](CO)[C@H](O)[C@@H](O)[C@@H]1O
REMARK SMILES IDX 4 1 13 2 11 3 9 4 6 5 5 6 3 7 2 8 1 9 14 10 12 12 7 14 8 15
REMARK SMILES IDX 10 17
REMARK H PARENT 14 11 12 13 8 16 10 18
REMARK Flexibility Score: inf
ROOT
ATOM      1  C   UNL     1      36.125   5.725  44.201  1.00  0.00     0.281 C 
ATOM      2  C   UNL     1      35.836   6.918  45.128  1.00  0.00     0.202 C 
ATOM      3  C   UNL     1      37.160   7.566  45.569  1.00  0.00     0.179 C 
ATOM      4  C   UNL     1      38.042   7.864  44.339  1.00  0.00     0.177 C 
ATOM      5  C   UNL     1      38.148   6.606  43.435  1.00  0.00     0.178 C 
ATOM      6  O   UNL     1      36.852   6.166  43.066  1.00  0.00    -0.341 OA
ENDROOT
BRANCH   1   7
ATOM      7  O   UNL     1      34.888   5.185  43.778  1.00  0.00    -0.350 OA
BRANCH   7   8
ATOM      8  C   UNL     1      34.996   3.786  43.609  1.00  0.00     0.160 C 
ATOM      9  C   UNL     1      34.719   3.100  44.937  1.00  0.00     0.035 C 
ENDBRANCH   7   8
ENDBRANCH   1   7
BRANCH   2  10
ATOM     10  O   UNL     1      35.124   6.470  46.253  1.00  0.00    -0.385 OA
ATOM     11  H   UNL     1      34.347   7.078  46.362  1.00  0.00     0.211 HD
ENDBRANCH   2  10
BRANCH   3  12
ATOM     12  O   UNL     1      36.886   8.756  46.263  1.00  0.00    -0.387 OA
ATOM     13  H   UNL     1      36.215   8.534  46.961  1.00  0.00     0.211 HD
ENDBRANCH   3  12
BRANCH   5  14
ATOM     14  C   UNL     1      38.931   6.904  42.147  1.00  0.00     0.191 C 
BRANCH  14  15
ATOM     15  O   UNL     1      38.832   8.257  41.791  1.00  0.00    -0.394 OA
ATOM     16  H   UNL     1      38.681   8.762  42.633  1.00  0.00     0.210 HD
ENDBRANCH  14  15
ENDBRANCH   5  14
BRANCH   4  17
ATOM     17  O   UNL     1      39.310   8.317  44.742  1.00  0.00    -0.387 OA
ATOM     18  H   UNL     1      39.671   7.660  45.394  1.00  0.00     0.211 HD
ENDBRANCH   4  17
TORSDOF 7
ENDMDL
MODEL 4
REMARK VINA RESULT:    -5.261      1.741      5.328
REMARK INTER + INTRA:          -7.204
REMARK INTER:                  -6.793
REMARK INTRA:                  -0.411
REMARK UNBOUND:                -0.405
REMARK SMILES CCO[C@H]1O[C@@H](CO)[C@H](O)[C@@H](O)[C@@H]1O
REMARK SMILES IDX 4 1 13 2 11 3 9 4 6 5 5 6 3 7 2 8 1 9 14 10 12 12 7 14 8 15
REMARK SMILES IDX 10 17
REMARK H PARENT 14 11 12 13 8 16 10 18
REMARK Flexibility Score: inf
ROOT
ATOM      1  C   UNL     1      36.947   4.850  44.937  1.00  0.00     0.281 C 
ATOM      2  C   UNL     1      37.216   3.339  44.833  1.00  0.00     0.202 C 
ATOM      3  C   UNL     1      35.905   2.598  44.518  1.00  0.00     0.179 C 
ATOM      4  C   UNL     1      35.208   3.246  43.304  1.00  0.00     0.177 C 
ATOM      5  C   UNL     1      35.111   4.783  43.496  1.00  0.00     0.178 C 
ATOM      6  O   UNL     1      36.402   5.325  43.716  1.00  0.00    -0.341 OA
ENDROOT
BRANCH   1   7
ATOM      7  O   UNL     1      38.179   5.502  45.179  1.00  0.00    -0.350 OA
BRANCH   7   8
ATOM      8  C   UNL     1      38.370   6.549  44.249  1.00  0.00     0.160 C 
ATOM      9  C   UNL     1      39.776   6.461  43.679  1.00  0.00     0.035 C 
ENDBRANCH   7   8
ENDBRANCH   1   7
BRANCH   2  10
ATOM     10  O   UNL     1      37.748   2.878  46.049  1.00  0.00    -0.385 OA
ATOM     11  H   UNL     1      38.603   2.422  45.834  1.00  0.00     0.211 HD
ENDBRANCH   2  10
BRANCH   3  12
ATOM     12  O   UNL     1      36.188   1.250  44.246  1.00  0.00    -0.387 OA
ATOM     13  H   UNL     1      37.053   1.230  43.758  1.00  0.00     0.211 HD
ENDBRANCH   3  12
BRANCH   5  14
ATOM     14  C   UNL     1      34.517   5.468  42.255  1.00  0.00     0.191 C 
BRANCH  14  15
ATOM     15  O   UNL     1      34.711   4.693  41.102  1.00  0.00    -0.394 OA
ATOM     16  H   UNL     1      34.669   5.316  40.330  1.00  0.00     0.210 HD
ENDBRANCH  14  15
ENDBRANCH   5  14
BRANCH   4  17
ATOM     17  O   UNL     1      33.940   2.671  43.102  1.00  0.00    -0.387 OA
ATOM     18  H   UNL     1      33.868   1.883  43.703  1.00  0.00     0.211 HD
ENDBRANCH   4  17
TORSDOF 7
ENDMDL
MODEL 5
REMARK VINA RESULT:    -5.234      2.149      4.115
REMARK INTER + INTRA:          -7.168
REMARK INTER:                  -6.778
REMARK INTRA:                  -0.390
REMARK UNBOUND:                -0.405
REMARK SMILES CCO[C@H]1O[C@@H](CO)[C@H](O)[C@@H](O)[C@@H]1O
REMARK SMILES IDX 4 1 13 2 11 3 9 4 6 5 5 6 3 7 2 8 1 9 14 10 12 12 7 14 8 15
REMARK SMILES IDX 10 17
REMARK H PARENT 14 11 12 13 8 16 10 18
REMARK Flexibility Score: inf
ROOT
ATOM      1  C   UNL     1      36.335   2.208  44.568  1.00  0.00     0.281 C 
ATOM      2  C   UNL     1      37.633   2.495  45.343  1.00  0.00     0.202 C 
ATOM      3  C   UNL     1      37.676   1.638  46.619  1.00  0.00     0.179 C 
ATOM      4  C   UNL     1      37.408   0.158  46.274  1.00  0.00     0.177 C 
ATOM      5  C   UNL     1      36.136   0.033  45.393  1.00  0.00     0.178 C 
ATOM      6  O   UNL     1      36.274   0.832  44.231  1.00  0.00    -0.341 OA
ENDROOT
BRANCH   1   7
ATOM      7  O   UNL     1      36.352   2.977  43.380  1.00  0.00    -0.350 OA
BRANCH   7   8
ATOM      8  C   UNL     1      35.064   3.495  43.115  1.00  0.00     0.160 C 
ATOM      9  C   UNL     1      35.172   4.989  42.854  1.00  0.00     0.035 C 
ENDBRANCH   7   8
ENDBRANCH   1   7
BRANCH   2  10
ATOM     10  O   UNL     1      37.681   3.859  45.679  1.00  0.00    -0.385 OA
ATOM     11  H   UNL     1      36.759   4.124  45.935  1.00  0.00     0.211 HD
ENDBRANCH   2  10
BRANCH   3  12
ATOM     12  O   UNL     1      38.938   1.769  47.224  1.00  0.00    -0.387 OA
ATOM     13  H   UNL     1      39.614   1.570  46.525  1.00  0.00     0.211 HD
ENDBRANCH   3  12
BRANCH   5  14
ATOM     14  C   UNL     1      35.904  -1.418  44.944  1.00  0.00     0.191 C 
BRANCH  14  15
ATOM     15  O   UNL     1      35.291  -2.173  45.955  1.00  0.00    -0.394 OA
ATOM     16  H   UNL     1      35.512  -3.125  45.772  1.00  0.00     0.210 HD
ENDBRANCH  14  15
ENDBRANCH   5  14
BRANCH   4  17
ATOM     17  O   UNL     1      37.298  -0.608  47.449  1.00  0.00    -0.387 OA
ATOM     18  H   UNL     1      36.336  -0.816  47.583  1.00  0.00     0.211 HD
ENDBRANCH   4  17
TORSDOF 7
ENDMDL
MODEL 6
REMARK VINA RESULT:    -5.204      1.694      3.444
REMARK INTER + INTRA:          -7.130
REMARK INTER:                  -6.767
REMARK INTRA:                  -0.363
REMARK UNBOUND:                -0.405
REMARK SMILES CCO[C@H]1O[C@@H](CO)[C@H](O)[C@@H](O)[C@@H]1O
REMARK SMILES IDX 4 1 13 2 11 3 9 4 6 5 5 6 3 7 2 8 1 9 14 10 12 12 7 14 8 15
REMARK SMILES IDX 10 17
REMARK H PARENT 14 11 12 13 8 16 10 18
REMARK Flexibility Score: inf
ROOT
ATOM      1  C   UNL     1      35.581   4.091  43.046  1.00  0.00     0.281 C 
ATOM      2  C   UNL     1      36.402   3.193  43.987  1.00  0.00     0.202 C 
ATOM      3  C   UNL     1      37.693   3.920  44.404  1.00  0.00     0.179 C 
ATOM      4  C   UNL     1      37.361   5.330  44.934  1.00  0.00     0.177 C 
ATOM      5  C   UNL     1      36.432   6.074  43.938  1.00  0.00     0.178 C 
ATOM      6  O   UNL     1      35.263   5.308  43.702  1.00  0.00    -0.341 OA
ENDROOT
BRANCH   1   7
ATOM      7  O   UNL     1      34.383   3.412  42.722  1.00  0.00    -0.350 OA
BRANCH   7   8
ATOM      8  C   UNL     1      33.582   3.257  43.876  1.00  0.00     0.160 C 
ATOM      9  C   UNL     1      32.954   1.872  43.866  1.00  0.00     0.035 C 
ENDBRANCH   7   8
ENDBRANCH   1   7
BRANCH   2  10
ATOM     10  O   UNL     1      36.719   1.995  43.325  1.00  0.00    -0.385 OA
ATOM     11  H   UNL     1      36.275   1.263  43.828  1.00  0.00     0.211 HD
ENDBRANCH   2  10
BRANCH   3  12
ATOM     12  O   UNL     1      38.345   3.174  45.399  1.00  0.00    -0.387 OA
ATOM     13  H   UNL     1      38.009   2.242  45.327  1.00  0.00     0.211 HD
ENDBRANCH   3  12
BRANCH   5  14
ATOM     14  C   UNL     1      35.996   7.441  44.490  1.00  0.00     0.191 C 
BRANCH  14  15
ATOM     15  O   UNL     1      36.811   8.473  44.000  1.00  0.00    -0.394 OA
ATOM     16  H   UNL     1      37.730   8.289  44.328  1.00  0.00     0.210 HD
ENDBRANCH  14  15
ENDBRANCH   5  14
BRANCH   4  17
ATOM     17  O   UNL     1      38.541   6.054  45.177  1.00  0.00    -0.387 OA
ATOM     18  H   UNL     1      38.529   6.339  46.129  1.00  0.00     0.211 HD
ENDBRANCH   4  17
TORSDOF 7
ENDMDL
MODEL 7
REMARK VINA RESULT:    -5.176      1.130      4.243
REMARK INTER + INTRA:          -7.094
REMARK INTER:                  -6.657
REMARK INTRA:                  -0.437
REMARK UNBOUND:                -0.405
REMARK SMILES CCO[C@H]1O[C@@H](CO)[C@H](O)[C@@H](O)[C@@H]1O
REMARK SMILES IDX 4 1 13 2 11 3 9 4 6 5 5 6 3 7 2 8 1 9 14 10 12 12 7 14 8 15
REMARK SMILES IDX 10 17
REMARK H PARENT 14 11 12 13 8 16 10 18
REMARK Flexibility Score: inf
ROOT
ATOM      1  C   UNL     1      36.748   2.319  45.711  1.00  0.00     0.281 C 
ATOM      2  C   UNL     1      37.286   3.644  45.144  1.00  0.00     0.202 C 
ATOM      3  C   UNL     1      36.903   3.769  43.660  1.00  0.00     0.179 C 
ATOM      4  C   UNL     1      35.390   3.521  43.480  1.00  0.00     0.177 C 
ATOM      5  C   UNL     1      34.969   2.213  44.201  1.00  0.00     0.178 C 
ATOM      6  O   UNL     1      35.337   2.276  45.569  1.00  0.00    -0.341 OA
ENDROOT
BRANCH   1   7
ATOM      7  O   UNL     1      37.077   2.260  47.085  1.00  0.00    -0.350 OA
BRANCH   7   8
ATOM      8  C   UNL     1      37.450   0.945  47.443  1.00  0.00     0.160 C 
ATOM      9  C   UNL     1      38.250   0.326  46.308  1.00  0.00     0.035 C 
ENDBRANCH   7   8
ENDBRANCH   1   7
BRANCH   2  10
ATOM     10  O   UNL     1      38.684   3.673  45.282  1.00  0.00    -0.385 OA
ATOM     11  H   UNL     1      38.888   4.326  46.002  1.00  0.00     0.211 HD
ENDBRANCH   2  10
BRANCH   3  12
ATOM     12  O   UNL     1      37.237   5.053  43.200  1.00  0.00    -0.387 OA
ATOM     13  H   UNL     1      36.519   5.665  43.510  1.00  0.00     0.211 HD
ENDBRANCH   3  12
BRANCH   5  14
ATOM     14  C   UNL     1      33.449   1.996  44.131  1.00  0.00     0.191 C 
BRANCH  14  15
ATOM     15  O   UNL     1      33.070   1.433  42.904  1.00  0.00    -0.394 OA
ATOM     16  H   UNL     1      32.268   1.932  42.598  1.00  0.00     0.210 HD
ENDBRANCH  14  15
ENDBRANCH   5  14
BRANCH   4  17
ATOM     17  O   UNL     1      35.058   3.487  42.114  1.00  0.00    -0.387 OA
ATOM     18  H   UNL     1      35.803   3.911  41.612  1.00  0.00     0.211 HD
ENDBRANCH   4  17
TORSDOF 7
ENDMDL
MODEL 8
REMARK VINA RESULT:    -5.164      1.636      3.887
REMARK INTER + INTRA:          -7.078
REMARK INTER:                  -6.640
REMARK INTRA:                  -0.438
REMARK UNBOUND:                -0.405
REMARK SMILES CCO[C@H]1O[C@@H](CO)[C@H](O)[C@@H](O)[C@@H]1O
REMARK SMILES IDX 4 1 13 2 11 3 9 4 6 5 5 6 3 7 2 8 1 9 14 10 12 12 7 14 8 15
REMARK SMILES IDX 10 17
REMARK H PARENT 14 11 12 13 8 16 10 18
REMARK Flexibility Score: inf
ROOT
ATOM      1  C   UNL     1      36.884   5.029  43.344  1.00  0.00     0.281 C 
ATOM      2  C   UNL     1      35.373   4.985  43.064  1.00  0.00     0.202 C 
ATOM      3  C   UNL     1      34.885   3.526  43.066  1.00  0.00     0.179 C 
ATOM      4  C   UNL     1      35.356   2.811  44.350  1.00  0.00     0.177 C 
ATOM      5  C   UNL     1      36.876   3.039  44.566  1.00  0.00     0.178 C 
ATOM      6  O   UNL     1      37.156   4.428  44.600  1.00  0.00    -0.341 OA
ENDROOT
BRANCH   1   7
ATOM      7  O   UNL     1      37.287   6.384  43.381  1.00  0.00    -0.350 OA
BRANCH   7   8
ATOM      8  C   UNL     1      37.315   6.849  44.715  1.00  0.00     0.160 C 
ATOM      9  C   UNL     1      36.426   8.077  44.835  1.00  0.00     0.035 C 
ENDBRANCH   7   8
ENDBRANCH   1   7
BRANCH   2  10
ATOM     10  O   UNL     1      35.115   5.575  41.815  1.00  0.00    -0.385 OA
ATOM     11  H   UNL     1      35.659   5.082  41.146  1.00  0.00     0.211 HD
ENDBRANCH   2  10
BRANCH   3  12
ATOM     12  O   UNL     1      33.483   3.504  42.991  1.00  0.00    -0.387 OA
ATOM     13  H   UNL     1      33.152   3.208  43.879  1.00  0.00     0.211 HD
ENDBRANCH   3  12
BRANCH   5  14
ATOM     14  C   UNL     1      37.352   2.429  45.894  1.00  0.00     0.191 C 
BRANCH  14  15
ATOM     15  O   UNL     1      36.333   2.445  46.857  1.00  0.00    -0.394 OA
ATOM     16  H   UNL     1      36.682   1.956  47.648  1.00  0.00     0.210 HD
ENDBRANCH  14  15
ENDBRANCH   5  14
BRANCH   4  17
ATOM     17  O   UNL     1      35.044   1.441  44.291  1.00  0.00    -0.387 OA
ATOM     18  H   UNL     1      34.913   1.123  45.224  1.00  0.00     0.211 HD
ENDBRANCH   4  17
TORSDOF 7
ENDMDL
MODEL 9
REMARK VINA RESULT:    -5.127      1.747      3.159
REMARK INTER + INTRA:          -7.030
REMARK INTER:                  -6.632
REMARK INTRA:                  -0.399
REMARK UNBOUND:                -0.405
REMARK SMILES CCO[C@H]1O[C@@H](CO)[C@H](O)[C@@H](O)[C@@H]1O
REMARK SMILES IDX 4 1 13 2 11 3 9 4 6 5 5 6 3 7 2 8 1 9 14 10 12 12 7 14 8 15
REMARK SMILES IDX 10 17
REMARK H PARENT 14 11 12 13 8 16 10 18
REMARK Flexibility Score: inf
ROOT
ATOM      1  C   UNL     1      35.277   2.785  44.627  1.00  0.00     0.281 C 
ATOM      2  C   UNL     1      34.644   3.105  43.262  1.00  0.00     0.202 C 
ATOM      3  C   UNL     1      34.647   4.625  43.030  1.00  0.00     0.179 C 
ATOM      4  C   UNL     1      36.060   5.196  43.271  1.00  0.00     0.177 C 
ATOM      5  C   UNL     1      36.619   4.696  44.630  1.00  0.00     0.178 C 
ATOM      6  O   UNL     1      36.606   3.279  44.665  1.00  0.00    -0.341 OA
ENDROOT
BRANCH   1   7
ATOM      7  O   UNL     1      35.300   1.379  44.784  1.00  0.00    -0.350 OA
BRANCH   7   8
ATOM      8  C   UNL     1      36.620   0.894  44.647  1.00  0.00     0.160 C 
ATOM      9  C   UNL     1      36.595  -0.627  44.644  1.00  0.00     0.035 C 
ENDBRANCH   7   8
ENDBRANCH   1   7
BRANCH   2  10
ATOM     10  O   UNL     1      33.326   2.618  43.236  1.00  0.00    -0.385 OA
ATOM     11  H   UNL     1      33.356   1.731  42.792  1.00  0.00     0.211 HD
ENDBRANCH   2  10
BRANCH   3  12
ATOM     12  O   UNL     1      34.238   4.896  41.714  1.00  0.00    -0.387 OA
ATOM     13  H   UNL     1      34.766   4.301  41.120  1.00  0.00     0.211 HD
ENDBRANCH   3  12
BRANCH   5  14
ATOM     14  C   UNL     1      38.068   5.161  44.848  1.00  0.00     0.191 C 
BRANCH  14  15
ATOM     15  O   UNL     1      38.120   6.512  45.219  1.00  0.00    -0.394 OA
ATOM     16  H   UNL     1      37.301   6.692  45.752  1.00  0.00     0.210 HD
ENDBRANCH  14  15
ENDBRANCH   5  14
BRANCH   4  17
ATOM     17  O   UNL     1      36.040   6.600  43.207  1.00  0.00    -0.387 OA
ATOM     18  H   UNL     1      35.225   6.911  43.683  1.00  0.00     0.211 HD
ENDBRANCH   4  17
TORSDOF 7
ENDMDL
