MODEL 1
REMARK VINA RESULT:    -6.550      0.000      0.000
REMARK INTER + INTRA:          -8.910
REMARK INTER:                  -8.656
REMARK INTRA:                  -0.254
REMARK UNBOUND:                -0.254
REMARK SMILES CCCCC=CC=CCO
REMARK SMILES IDX 5 1 6 2 4 3 3 4 2 5 1 6 7 7 8 8 9 9 10 10
REMARK H PARENT 10 11
REMARK Flexibility Score: inf
ROOT
ATOM      1  C   UNL     1      -2.015  42.269  13.279  1.00  0.00    -0.027 C 
ATOM      2  C   UNL     1      -3.029  42.321  12.411  1.00  0.00    -0.005 C 
ENDROOT
BRANCH   1   3
ATOM      3  C   UNL     1      -1.347  40.971  13.633  1.00  0.00     0.027 C 
BRANCH   3   4
ATOM      4  C   UNL     1      -1.991  39.795  12.881  1.00  0.00     0.004 C 
BRANCH   4   5
ATOM      5  C   UNL     1      -2.100  38.531  13.749  1.00  0.00    -0.003 C 
ATOM      6  C   UNL     1      -2.902  37.420  13.074  1.00  0.00     0.004 C 
ENDBRANCH   4   5
ENDBRANCH   3   4
ENDBRANCH   1   3
BRANCH   2   7
ATOM      7  C   UNL     1      -3.665  43.601  12.064  1.00  0.00    -0.002 C 
ATOM      8  C   UNL     1      -3.134  44.761  12.456  1.00  0.00     0.001 C 
BRANCH   8   9
ATOM      9  C   UNL     1      -3.784  46.065  12.098  1.00  0.00     0.183 C 
BRANCH   9  10
ATOM     10  O   UNL     1      -4.304  46.680  13.244  1.00  0.00    -0.392 OA
ATOM     11  H   UNL     1      -5.242  46.365  13.335  1.00  0.00     0.210 HD
ENDBRANCH   9  10
ENDBRANCH   8   9
ENDBRANCH   2   7
TORSDOF 6
ENDMDL
MODEL 2
REMARK VINA RESULT:    -6.511      2.918      5.875
REMARK INTER + INTRA:          -8.858
REMARK INTER:                  -8.600
REMARK INTRA:                  -0.259
REMARK UNBOUND:                -0.254
REMARK SMILES CCCCC=CC=CCO
REMARK SMILES IDX 5 1 6 2 4 3 3 4 2 5 1 6 7 7 8 8 9 9 10 10
REMARK H PARENT 10 11
REMARK Flexibility Score: inf
ROOT
ATOM      1  C   UNL     1      -2.998  44.530  12.536  1.00  0.00    -0.027 C 
ATOM      2  C   UNL     1      -3.698  43.394  12.469  1.00  0.00    -0.005 C 
ENDROOT
BRANCH   1   3
ATOM      3  C   UNL     1      -3.670  45.872  12.496  1.00  0.00     0.027 C 
BRANCH   3   4
ATOM      4  C   UNL     1      -4.286  46.223  13.859  1.00  0.00     0.004 C 
BRANCH   4   5
ATOM      5  C   UNL     1      -3.446  45.704  15.036  1.00  0.00    -0.003 C 
ATOM      6  C   UNL     1      -3.368  46.701  16.191  1.00  0.00     0.004 C 
ENDBRANCH   4   5
ENDBRANCH   3   4
ENDBRANCH   1   3
BRANCH   2   7
ATOM      7  C   UNL     1      -3.026  42.086  12.523  1.00  0.00    -0.002 C 
ATOM      8  C   UNL     1      -2.050  41.851  13.402  1.00  0.00     0.001 C 
BRANCH   8   9
ATOM      9  C   UNL     1      -1.369  40.515  13.455  1.00  0.00     0.183 C 
BRANCH   9  10
ATOM     10  O   UNL     1      -2.305  39.484  13.306  1.00  0.00    -0.392 OA
ATOM     11  H   UNL     1      -2.285  39.218  12.349  1.00  0.00     0.210 HD
ENDBRANCH   9  10
ENDBRANCH   8   9
ENDBRANCH   2   7
TORSDOF 6
ENDMDL
MODEL 3
REMARK VINA RESULT:    -6.488      2.708      3.786
REMARK INTER + INTRA:          -8.828
REMARK INTER:                  -8.564
REMARK INTRA:                  -0.264
REMARK UNBOUND:                -0.254
REMARK SMILES CCCCC=CC=CCO
REMARK SMILES IDX 5 1 6 2 4 3 3 4 2 5 1 6 7 7 8 8 9 9 10 10
REMARK H PARENT 10 11
REMARK Flexibility Score: inf
ROOT
ATOM      1  C   UNL     1      -3.189  44.883  13.063  1.00  0.00    -0.027 C 
ATOM      2  C   UNL     1      -3.995  45.045  14.115  1.00  0.00    -0.005 C 
ENDROOT
BRANCH   1   3
ATOM      3  C   UNL     1      -3.426  43.802  12.049  1.00  0.00     0.027 C 
BRANCH   3   4
ATOM      4  C   UNL     1      -3.369  42.411  12.699  1.00  0.00     0.004 C 
BRANCH   4   5
ATOM      5  C   UNL     1      -1.996  42.106  13.319  1.00  0.00    -0.003 C 
ATOM      6  C   UNL     1      -1.672  40.614  13.330  1.00  0.00     0.004 C 
ENDBRANCH   4   5
ENDBRANCH   3   4
ENDBRANCH   1   3
BRANCH   2   7
ATOM      7  C   UNL     1      -3.757  46.118  15.094  1.00  0.00    -0.002 C 
ATOM      8  C   UNL     1      -3.217  45.854  16.285  1.00  0.00     0.001 C 
BRANCH   8   9
ATOM      9  C   UNL     1      -2.975  46.951  17.280  1.00  0.00     0.183 C 
BRANCH   9  10
ATOM     10  O   UNL     1      -2.867  48.186  16.627  1.00  0.00    -0.392 OA
ATOM     11  H   UNL     1      -3.068  48.020  15.669  1.00  0.00     0.210 HD
ENDBRANCH   9  10
ENDBRANCH   8   9
ENDBRANCH   2   7
TORSDOF 6
ENDMDL
MODEL 4
REMARK VINA RESULT:    -6.457      3.106      5.959
REMARK INTER + INTRA:          -8.786
REMARK INTER:                  -8.436
REMARK INTRA:                  -0.350
REMARK UNBOUND:                -0.254
REMARK SMILES CCCCC=CC=CCO
REMARK SMILES IDX 5 1 6 2 4 3 3 4 2 5 1 6 7 7 8 8 9 9 10 10
REMARK H PARENT 10 11
REMARK Flexibility Score: inf
ROOT
ATOM      1  C   UNL     1      -3.066  42.450  12.450  1.00  0.00    -0.027 C 
ATOM      2  C   UNL     1      -1.974  42.191  13.173  1.00  0.00    -0.005 C 
ENDROOT
BRANCH   1   3
ATOM      3  C   UNL     1      -3.455  43.855  12.088  1.00  0.00     0.027 C 
BRANCH   3   4
ATOM      4  C   UNL     1      -2.776  44.874  13.017  1.00  0.00     0.004 C 
BRANCH   4   5
ATOM      5  C   UNL     1      -3.779  45.609  13.919  1.00  0.00    -0.003 C 
ATOM      6  C   UNL     1      -3.478  45.428  15.406  1.00  0.00     0.004 C 
ENDBRANCH   4   5
ENDBRANCH   3   4
ENDBRANCH   1   3
BRANCH   2   7
ATOM      7  C   UNL     1      -1.598  40.809  13.509  1.00  0.00    -0.002 C 
ATOM      8  C   UNL     1      -2.410  39.788  13.228  1.00  0.00     0.001 C 
BRANCH   8   9
ATOM      9  C   UNL     1      -2.022  38.380  13.570  1.00  0.00     0.183 C 
BRANCH   9  10
ATOM     10  O   UNL     1      -3.105  37.701  14.143  1.00  0.00    -0.392 OA
ATOM     11  H   UNL     1      -3.459  37.089  13.446  1.00  0.00     0.210 HD
ENDBRANCH   9  10
ENDBRANCH   8   9
ENDBRANCH   2   7
TORSDOF 6
ENDMDL
MODEL 5
REMARK VINA RESULT:    -6.258      3.590      5.005
REMARK INTER + INTRA:          -8.525
REMARK INTER:                  -8.173
REMARK INTRA:                  -0.352
REMARK UNBOUND:                -0.254
REMARK SMILES CCCCC=CC=CCO
REMARK SMILES IDX 5 1 6 2 4 3 3 4 2 5 1 6 7 7 8 8 9 9 10 10
REMARK H PARENT 10 11
REMARK Flexibility Score: inf
ROOT
ATOM      1  C   UNL     1      -3.846  45.878  14.316  1.00  0.00    -0.027 C 
ATOM      2  C   UNL     1      -3.494  45.199  15.412  1.00  0.00    -0.005 C 
ENDROOT
BRANCH   1   3
ATOM      3  C   UNL     1      -4.227  45.176  13.045  1.00  0.00     0.027 C 
BRANCH   3   4
ATOM      4  C   UNL     1      -3.027  44.427  12.444  1.00  0.00     0.004 C 
BRANCH   4   5
ATOM      5  C   UNL     1      -3.257  42.909  12.372  1.00  0.00    -0.003 C 
ATOM      6  C   UNL     1      -2.309  42.125  13.278  1.00  0.00     0.004 C 
ENDBRANCH   4   5
ENDBRANCH   3   4
ENDBRANCH   1   3
BRANCH   2   7
ATOM      7  C   UNL     1      -3.135  45.900  16.654  1.00  0.00    -0.002 C 
ATOM      8  C   UNL     1      -3.438  47.188  16.829  1.00  0.00     0.001 C 
BRANCH   8   9
ATOM      9  C   UNL     1      -3.072  47.899  18.098  1.00  0.00     0.183 C 
BRANCH   9  10
ATOM     10  O   UNL     1      -2.941  49.274  17.867  1.00  0.00    -0.392 OA
ATOM     11  H   UNL     1      -3.747  49.555  17.360  1.00  0.00     0.210 HD
ENDBRANCH   9  10
ENDBRANCH   8   9
ENDBRANCH   2   7
TORSDOF 6
ENDMDL
MODEL 6
REMARK VINA RESULT:    -5.976      4.081      5.331
REMARK INTER + INTRA:          -8.152
REMARK INTER:                  -7.913
REMARK INTRA:                  -0.239
REMARK UNBOUND:                -0.254
REMARK SMILES CCCCC=CC=CCO
REMARK SMILES IDX 5 1 6 2 4 3 3 4 2 5 1 6 7 7 8 8 9 9 10 10
REMARK H PARENT 10 11
REMARK Flexibility Score: inf
ROOT
ATOM      1  C   UNL     1      -3.559  45.626  14.555  1.00  0.00    -0.027 C 
ATOM      2  C   UNL     1      -3.522  45.505  15.884  1.00  0.00    -0.005 C 
ENDROOT
BRANCH   1   3
ATOM      3  C   UNL     1      -4.244  44.607  13.691  1.00  0.00     0.027 C 
BRANCH   3   4
ATOM      4  C   UNL     1      -3.442  44.341  12.407  1.00  0.00     0.004 C 
BRANCH   4   5
ATOM      5  C   UNL     1      -3.195  42.843  12.166  1.00  0.00    -0.003 C 
ATOM      6  C   UNL     1      -2.397  42.189  13.292  1.00  0.00     0.004 C 
ENDBRANCH   4   5
ENDBRANCH   3   4
ENDBRANCH   1   3
BRANCH   2   7
ATOM      7  C   UNL     1      -2.859  46.518  16.719  1.00  0.00    -0.002 C 
ATOM      8  C   UNL     1      -2.549  46.264  17.992  1.00  0.00     0.001 C 
BRANCH   8   9
ATOM      9  C   UNL     1      -1.870  47.300  18.840  1.00  0.00     0.183 C 
BRANCH   9  10
ATOM     10  O   UNL     1      -0.538  47.461  18.440  1.00  0.00    -0.392 OA
ATOM     11  H   UNL     1      -0.052  47.844  19.217  1.00  0.00     0.210 HD
ENDBRANCH   9  10
ENDBRANCH   8   9
ENDBRANCH   2   7
TORSDOF 6
ENDMDL
MODEL 7
REMARK VINA RESULT:    -5.874      5.009      6.437
REMARK INTER + INTRA:          -8.016
REMARK INTER:                  -7.869
REMARK INTRA:                  -0.147
REMARK UNBOUND:                -0.254
REMARK SMILES CCCCC=CC=CCO
REMARK SMILES IDX 5 1 6 2 4 3 3 4 2 5 1 6 7 7 8 8 9 9 10 10
REMARK H PARENT 10 11
REMARK Flexibility Score: inf
ROOT
ATOM      1  C   UNL     1      -3.166  45.491  16.074  1.00  0.00    -0.027 C 
ATOM      2  C   UNL     1      -2.975  46.443  16.992  1.00  0.00    -0.005 C 
ENDROOT
BRANCH   1   3
ATOM      3  C   UNL     1      -3.810  45.792  14.751  1.00  0.00     0.027 C 
BRANCH   3   4
ATOM      4  C   UNL     1      -4.127  44.498  13.984  1.00  0.00     0.004 C 
BRANCH   4   5
ATOM      5  C   UNL     1      -3.297  44.357  12.699  1.00  0.00    -0.003 C 
ATOM      6  C   UNL     1      -3.811  43.248  11.783  1.00  0.00     0.004 C 
ENDBRANCH   4   5
ENDBRANCH   3   4
ENDBRANCH   1   3
BRANCH   2   7
ATOM      7  C   UNL     1      -2.331  46.137  18.278  1.00  0.00    -0.002 C 
ATOM      8  C   UNL     1      -1.015  46.288  18.441  1.00  0.00     0.001 C 
BRANCH   8   9
ATOM      9  C   UNL     1      -0.362  45.976  19.755  1.00  0.00     0.183 C 
BRANCH   9  10
ATOM     10  O   UNL     1      -1.324  45.604  20.702  1.00  0.00    -0.392 OA
ATOM     11  H   UNL     1      -1.259  44.618  20.801  1.00  0.00     0.210 HD
ENDBRANCH   9  10
ENDBRANCH   8   9
ENDBRANCH   2   7
TORSDOF 6
ENDMDL
MODEL 8
REMARK VINA RESULT:    -5.835      4.345      6.314
REMARK INTER + INTRA:          -7.965
REMARK INTER:                  -7.682
REMARK INTRA:                  -0.282
REMARK UNBOUND:                -0.254
REMARK SMILES CCCCC=CC=CCO
REMARK SMILES IDX 5 1 6 2 4 3 3 4 2 5 1 6 7 7 8 8 9 9 10 10
REMARK H PARENT 10 11
REMARK Flexibility Score: inf
ROOT
ATOM      1  C   UNL     1      -3.433  45.793  16.016  1.00  0.00    -0.027 C 
ATOM      2  C   UNL     1      -3.393  45.629  14.691  1.00  0.00    -0.005 C 
ENDROOT
BRANCH   1   3
ATOM      3  C   UNL     1      -3.331  47.154  16.643  1.00  0.00     0.027 C 
BRANCH   3   4
ATOM      4  C   UNL     1      -2.866  47.056  18.105  1.00  0.00     0.004 C 
BRANCH   4   5
ATOM      5  C   UNL     1      -1.918  45.870  18.343  1.00  0.00    -0.003 C 
ATOM      6  C   UNL     1      -0.452  46.293  18.420  1.00  0.00     0.004 C 
ENDBRANCH   4   5
ENDBRANCH   3   4
ENDBRANCH   1   3
BRANCH   2   7
ATOM      7  C   UNL     1      -3.508  44.291  14.090  1.00  0.00    -0.002 C 
ATOM      8  C   UNL     1      -3.177  44.080  12.815  1.00  0.00     0.001 C 
BRANCH   8   9
ATOM      9  C   UNL     1      -3.294  42.713  12.206  1.00  0.00     0.183 C 
BRANCH   9  10
ATOM     10  O   UNL     1      -3.959  41.845  13.081  1.00  0.00    -0.392 OA
ATOM     11  H   UNL     1      -3.817  42.200  13.997  1.00  0.00     0.210 HD
ENDBRANCH   9  10
ENDBRANCH   8   9
ENDBRANCH   2   7
TORSDOF 6
ENDMDL
MODEL 9
REMARK VINA RESULT:    -5.381      4.721      6.569
REMARK INTER + INTRA:          -7.365
REMARK INTER:                  -7.143
REMARK INTRA:                  -0.222
REMARK UNBOUND:                -0.254
REMARK SMILES CCCCC=CC=CCO
REMARK SMILES IDX 5 1 6 2 4 3 3 4 2 5 1 6 7 7 8 8 9 9 10 10
REMARK H PARENT 10 11
REMARK Flexibility Score: inf
ROOT
ATOM      1  C   UNL     1      -2.457  46.315  16.640  1.00  0.00    -0.027 C 
ATOM      2  C   UNL     1      -3.491  45.674  16.088  1.00  0.00    -0.005 C 
ENDROOT
BRANCH   1   3
ATOM      3  C   UNL     1      -2.139  46.185  18.102  1.00  0.00     0.027 C 
BRANCH   3   4
ATOM      4  C   UNL     1      -0.623  46.248  18.346  1.00  0.00     0.004 C 
BRANCH   4   5
ATOM      5  C   UNL     1      -0.004  47.570  17.864  1.00  0.00    -0.003 C 
ATOM      6  C   UNL     1       1.072  47.363  16.800  1.00  0.00     0.004 C 
ENDBRANCH   4   5
ENDBRANCH   3   4
ENDBRANCH   1   3
BRANCH   2   7
ATOM      7  C   UNL     1      -3.782  45.800  14.652  1.00  0.00    -0.002 C 
ATOM      8  C   UNL     1      -3.419  44.847  13.791  1.00  0.00     0.001 C 
BRANCH   8   9
ATOM      9  C   UNL     1      -3.719  44.979  12.327  1.00  0.00     0.183 C 
BRANCH   9  10
ATOM     10  O   UNL     1      -3.785  43.715  11.727  1.00  0.00    -0.392 OA
ATOM     11  H   UNL     1      -3.005  43.200  12.063  1.00  0.00     0.210 HD
ENDBRANCH   9  10
ENDBRANCH   8   9
ENDBRANCH   2   7
TORSDOF 6
ENDMDL
