MODEL 1
REMARK VINA RESULT:    -2.119      0.000      0.000
REMARK INTER + INTRA:          -2.898
REMARK INTER:                  -2.491
REMARK INTRA:                  -0.407
REMARK UNBOUND:                -0.407
REMARK SMILES [NH3+][C@H](CO)C(=O)[O-]
REMARK SMILES IDX 3 1 2 2 1 3 5 7 6 8 7 9 4 10
REMARK H PARENT 1 4 1 5 1 6 4 11
REMARK Flexibility Score: inf
ROOT
ATOM      1  C   UNL     1      18.588  -7.217   2.294  1.00  0.00     0.227 C 
ENDROOT
BRANCH   1   2
ATOM      2  C   UNL     1      18.720  -8.712   1.967  1.00  0.00     0.253 C 
BRANCH   2   3
ATOM      3  N   UNL     1      18.532  -8.958   0.531  1.00  0.00    -0.348 N 
ATOM      4  H   UNL     1      18.615  -8.067  -0.011  1.00  0.00     0.345 HD
ATOM      5  H   UNL     1      19.254  -9.635   0.191  1.00  0.00     0.345 HD
ATOM      6  H   UNL     1      17.589  -9.377   0.361  1.00  0.00     0.345 HD
ENDBRANCH   2   3
BRANCH   2   7
ATOM      7  C   UNL     1      20.065  -9.218   2.411  1.00  0.00     0.102 C 
ATOM      8  O   UNL     1      20.994  -9.368   1.573  1.00  0.00    -0.544 OA
ATOM      9  O   UNL     1      20.290  -9.536   3.746  1.00  0.00    -0.544 OA
ENDBRANCH   2   7
ENDBRANCH   1   2
BRANCH   1  10
ATOM     10  O   UNL     1      19.798  -6.729   2.802  1.00  0.00    -0.390 OA
ATOM     11  H   UNL     1      20.464  -6.827   2.072  1.00  0.00     0.210 HD
ENDBRANCH   1  10
TORSDOF 4
ENDMDL
MODEL 2
REMARK VINA RESULT:    -2.118      1.488      2.605
REMARK INTER + INTRA:          -2.897
REMARK INTER:                  -2.492
REMARK INTRA:                  -0.405
REMARK UNBOUND:                -0.407
REMARK SMILES [NH3+][C@H](CO)C(=O)[O-]
REMARK SMILES IDX 3 1 2 2 1 3 5 7 6 8 7 9 4 10
REMARK H PARENT 1 4 1 5 1 6 4 11
REMARK Flexibility Score: inf
ROOT
ATOM      1  C   UNL     1      20.447 -10.925   2.017  1.00  0.00     0.227 C 
ENDROOT
BRANCH   1   2
ATOM      2  C   UNL     1      20.141  -9.521   1.475  1.00  0.00     0.253 C 
BRANCH   2   3
ATOM      3  N   UNL     1      18.956  -9.536   0.608  1.00  0.00    -0.348 N 
ATOM      4  H   UNL     1      19.172  -9.111  -0.323  1.00  0.00     0.345 HD
ATOM      5  H   UNL     1      18.632 -10.521   0.469  1.00  0.00     0.345 HD
ATOM      6  H   UNL     1      18.179  -8.999   1.057  1.00  0.00     0.345 HD
ENDBRANCH   2   3
BRANCH   2   7
ATOM      7  C   UNL     1      19.941  -8.561   2.616  1.00  0.00     0.102 C 
ATOM      8  O   UNL     1      20.862  -7.768   2.947  1.00  0.00    -0.544 OA
ATOM      9  O   UNL     1      18.743  -8.551   3.322  1.00  0.00    -0.544 OA
ENDBRANCH   2   7
ENDBRANCH   1   2
BRANCH   1  10
ATOM     10  O   UNL     1      20.795 -10.850   3.372  1.00  0.00    -0.390 OA
ATOM     11  H   UNL     1      21.556 -11.475   3.497  1.00  0.00     0.210 HD
ENDBRANCH   1  10
TORSDOF 4
ENDMDL
MODEL 3
REMARK VINA RESULT:    -2.092      2.237      2.592
REMARK INTER + INTRA:          -2.865
REMARK INTER:                  -2.742
REMARK INTRA:                  -0.123
REMARK UNBOUND:                -0.407
REMARK SMILES [NH3+][C@H](CO)C(=O)[O-]
REMARK SMILES IDX 3 1 2 2 1 3 5 7 6 8 7 9 4 10
REMARK H PARENT 1 4 1 5 1 6 4 11
REMARK Flexibility Score: inf
ROOT
ATOM      1  C   UNL     1      19.409  -5.035   3.779  1.00  0.00     0.227 C 
ENDROOT
BRANCH   1   2
ATOM      2  C   UNL     1      19.175  -6.513   3.428  1.00  0.00     0.253 C 
BRANCH   2   3
ATOM      3  N   UNL     1      18.425  -6.646   2.173  1.00  0.00    -0.348 N 
ATOM      4  H   UNL     1      18.233  -7.652   1.960  1.00  0.00     0.345 HD
ATOM      5  H   UNL     1      17.516  -6.132   2.249  1.00  0.00     0.345 HD
ATOM      6  H   UNL     1      18.970  -6.226   1.385  1.00  0.00     0.345 HD
ENDBRANCH   2   3
BRANCH   2   7
ATOM      7  C   UNL     1      20.494  -7.231   3.326  1.00  0.00     0.102 C 
ATOM      8  O   UNL     1      20.544  -8.400   2.859  1.00  0.00    -0.544 OA
ATOM      9  O   UNL     1      21.663  -6.615   3.758  1.00  0.00    -0.544 OA
ENDBRANCH   2   7
ENDBRANCH   1   2
BRANCH   1  10
ATOM     10  O   UNL     1      19.640  -4.297   2.612  1.00  0.00    -0.390 OA
ATOM     11  H   UNL     1      20.625  -4.212   2.530  1.00  0.00     0.210 HD
ENDBRANCH   1  10
TORSDOF 4
ENDMDL
MODEL 4
REMARK VINA RESULT:    -2.089      2.061      2.627
REMARK INTER + INTRA:          -2.863
REMARK INTER:                  -2.610
REMARK INTRA:                  -0.253
REMARK UNBOUND:                -0.407
REMARK SMILES [NH3+][C@H](CO)C(=O)[O-]
REMARK SMILES IDX 3 1 2 2 1 3 5 7 6 8 7 9 4 10
REMARK H PARENT 1 4 1 5 1 6 4 11
REMARK Flexibility Score: inf
ROOT
ATOM      1  C   UNL     1      20.000  -9.095   2.135  1.00  0.00     0.227 C 
ENDROOT
BRANCH   1   2
ATOM      2  C   UNL     1      18.718  -9.584   1.444  1.00  0.00     0.253 C 
BRANCH   2   3
ATOM      3  N   UNL     1      18.369  -8.723   0.308  1.00  0.00    -0.348 N 
ATOM      4  H   UNL     1      18.409  -9.258  -0.590  1.00  0.00     0.345 HD
ATOM      5  H   UNL     1      17.402  -8.343   0.436  1.00  0.00     0.345 HD
ATOM      6  H   UNL     1      19.030  -7.915   0.256  1.00  0.00     0.345 HD
ENDBRANCH   2   3
BRANCH   2   7
ATOM      7  C   UNL     1      18.892 -11.007   0.987  1.00  0.00     0.102 C 
ATOM      8  O   UNL     1      18.419 -11.379  -0.120  1.00  0.00    -0.544 OA
ATOM      9  O   UNL     1      19.565 -11.924   1.786  1.00  0.00    -0.544 OA
ENDBRANCH   2   7
ENDBRANCH   1   2
BRANCH   1  10
ATOM     10  O   UNL     1      21.123  -9.502   1.405  1.00  0.00    -0.390 OA
ATOM     11  H   UNL     1      21.907  -9.086   1.849  1.00  0.00     0.210 HD
ENDBRANCH   1  10
TORSDOF 4
ENDMDL
MODEL 5
REMARK VINA RESULT:    -2.073      2.907      3.148
REMARK INTER + INTRA:          -2.844
REMARK INTER:                  -2.636
REMARK INTRA:                  -0.208
REMARK UNBOUND:                -0.407
REMARK SMILES [NH3+][C@H](CO)C(=O)[O-]
REMARK SMILES IDX 3 1 2 2 1 3 5 7 6 8 7 9 4 10
REMARK H PARENT 1 4 1 5 1 6 4 11
REMARK Flexibility Score: inf
ROOT
ATOM      1  C   UNL     1      18.580 -10.878   0.545  1.00  0.00     0.227 C 
ENDROOT
BRANCH   1   2
ATOM      2  C   UNL     1      19.224 -11.230   1.895  1.00  0.00     0.253 C 
BRANCH   2   3
ATOM      3  N   UNL     1      19.087 -12.663   2.187  1.00  0.00    -0.348 N 
ATOM      4  H   UNL     1      19.879 -12.997   2.783  1.00  0.00     0.345 HD
ATOM      5  H   UNL     1      18.184 -12.837   2.688  1.00  0.00     0.345 HD
ATOM      6  H   UNL     1      19.074 -13.209   1.296  1.00  0.00     0.345 HD
ENDBRANCH   2   3
BRANCH   2   7
ATOM      7  C   UNL     1      20.675 -10.835   1.891  1.00  0.00     0.102 C 
ATOM      8  O   UNL     1      21.564 -11.685   2.163  1.00  0.00    -0.544 OA
ATOM      9  O   UNL     1      21.045  -9.527   1.599  1.00  0.00    -0.544 OA
ENDBRANCH   2   7
ENDBRANCH   1   2
BRANCH   1  10
ATOM     10  O   UNL     1      18.562  -9.488   0.371  1.00  0.00    -0.390 OA
ATOM     11  H   UNL     1      17.624  -9.203   0.530  1.00  0.00     0.210 HD
ENDBRANCH   1  10
TORSDOF 4
ENDMDL
MODEL 6
REMARK VINA RESULT:    -2.021      1.910      2.878
REMARK INTER + INTRA:          -2.782
REMARK INTER:                  -2.547
REMARK INTRA:                  -0.235
REMARK UNBOUND:                -0.407
REMARK SMILES [NH3+][C@H](CO)C(=O)[O-]
REMARK SMILES IDX 3 1 2 2 1 3 5 7 6 8 7 9 4 10
REMARK H PARENT 1 4 1 5 1 6 4 11
REMARK Flexibility Score: inf
ROOT
ATOM      1  C   UNL     1      19.980  -9.465   1.504  1.00  0.00     0.227 C 
ENDROOT
BRANCH   1   2
ATOM      2  C   UNL     1      19.499  -8.876   2.839  1.00  0.00     0.253 C 
BRANCH   2   3
ATOM      3  N   UNL     1      19.906  -9.722   3.967  1.00  0.00    -0.348 N 
ATOM      4  H   UNL     1      19.072 -10.155   4.427  1.00  0.00     0.345 HD
ATOM      5  H   UNL     1      20.543 -10.481   3.629  1.00  0.00     0.345 HD
ATOM      6  H   UNL     1      20.428  -9.152   4.672  1.00  0.00     0.345 HD
ENDBRANCH   2   3
BRANCH   2   7
ATOM      7  C   UNL     1      20.042  -7.482   3.010  1.00  0.00     0.102 C 
ATOM      8  O   UNL     1      21.220  -7.307   3.418  1.00  0.00    -0.544 OA
ATOM      9  O   UNL     1      19.242  -6.379   2.730  1.00  0.00    -0.544 OA
ENDBRANCH   2   7
ENDBRANCH   1   2
BRANCH   1  10
ATOM     10  O   UNL     1      21.377  -9.401   1.427  1.00  0.00    -0.390 OA
ATOM     11  H   UNL     1      21.709  -9.487   2.359  1.00  0.00     0.210 HD
ENDBRANCH   1  10
TORSDOF 4
ENDMDL
MODEL 7
REMARK VINA RESULT:    -2.009      2.138      2.673
REMARK INTER + INTRA:          -2.769
REMARK INTER:                  -2.361
REMARK INTRA:                  -0.408
REMARK UNBOUND:                -0.407
REMARK SMILES [NH3+][C@H](CO)C(=O)[O-]
REMARK SMILES IDX 3 1 2 2 1 3 5 7 6 8 7 9 4 10
REMARK H PARENT 1 4 1 5 1 6 4 11
REMARK Flexibility Score: inf
ROOT
ATOM      1  C   UNL     1      18.268 -11.067   2.338  1.00  0.00     0.227 C 
ENDROOT
BRANCH   1   2
ATOM      2  C   UNL     1      19.206 -10.657   1.193  1.00  0.00     0.253 C 
BRANCH   2   3
ATOM      3  N   UNL     1      18.674  -9.499   0.464  1.00  0.00    -0.348 N 
ATOM      4  H   UNL     1      17.998  -9.805  -0.274  1.00  0.00     0.345 HD
ATOM      5  H   UNL     1      18.187  -8.855   1.130  1.00  0.00     0.345 HD
ATOM      6  H   UNL     1      19.456  -8.970   0.014  1.00  0.00     0.345 HD
ENDBRANCH   2   3
BRANCH   2   7
ATOM      7  C   UNL     1      20.575 -10.346   1.737  1.00  0.00     0.102 C 
ATOM      8  O   UNL     1      20.906  -9.155   1.978  1.00  0.00    -0.544 OA
ATOM      9  O   UNL     1      21.487 -11.370   1.967  1.00  0.00    -0.544 OA
ENDBRANCH   2   7
ENDBRANCH   1   2
BRANCH   1  10
ATOM     10  O   UNL     1      18.962 -11.055   3.555  1.00  0.00    -0.390 OA
ATOM     11  H   UNL     1      18.336 -11.419   4.233  1.00  0.00     0.210 HD
ENDBRANCH   1  10
TORSDOF 4
ENDMDL
MODEL 8
REMARK VINA RESULT:    -1.900      5.798      6.719
REMARK INTER + INTRA:          -2.641
REMARK INTER:                  -2.393
REMARK INTRA:                  -0.248
REMARK UNBOUND:                -0.407
REMARK SMILES [NH3+][C@H](CO)C(=O)[O-]
REMARK SMILES IDX 3 1 2 2 1 3 5 7 6 8 7 9 4 10
REMARK H PARENT 1 4 1 5 1 6 4 11
REMARK Flexibility Score: inf
ROOT
ATOM      1  C   UNL     1      18.656  -3.262   3.311  1.00  0.00     0.227 C 
ENDROOT
BRANCH   1   2
ATOM      2  C   UNL     1      17.588  -2.245   2.879  1.00  0.00     0.253 C 
BRANCH   2   3
ATOM      3  N   UNL     1      18.183  -0.925   2.639  1.00  0.00    -0.348 N 
ATOM      4  H   UNL     1      18.293  -0.399   3.537  1.00  0.00     0.345 HD
ATOM      5  H   UNL     1      19.123  -1.036   2.190  1.00  0.00     0.345 HD
ATOM      6  H   UNL     1      17.578  -0.373   1.990  1.00  0.00     0.345 HD
ENDBRANCH   2   3
BRANCH   2   7
ATOM      7  C   UNL     1      16.886  -2.733   1.640  1.00  0.00     0.102 C 
ATOM      8  O   UNL     1      16.594  -1.927   0.718  1.00  0.00    -0.544 OA
ATOM      9  O   UNL     1      16.544  -4.075   1.511  1.00  0.00    -0.544 OA
ENDBRANCH   2   7
ENDBRANCH   1   2
BRANCH   1  10
ATOM     10  O   UNL     1      19.286  -3.804   2.184  1.00  0.00    -0.390 OA
ATOM     11  H   UNL     1      20.036  -4.357   2.527  1.00  0.00     0.210 HD
ENDBRANCH   1  10
TORSDOF 4
ENDMDL
MODEL 9
REMARK VINA RESULT:    -1.868      6.182      6.775
REMARK INTER + INTRA:          -2.602
REMARK INTER:                  -2.204
REMARK INTRA:                  -0.399
REMARK UNBOUND:                -0.407
REMARK SMILES [NH3+][C@H](CO)C(=O)[O-]
REMARK SMILES IDX 3 1 2 2 1 3 5 7 6 8 7 9 4 10
REMARK H PARENT 1 4 1 5 1 6 4 11
REMARK Flexibility Score: inf
ROOT
ATOM      1  C   UNL     1      17.740 -12.334  -0.556  1.00  0.00     0.227 C 
ENDROOT
BRANCH   1   2
ATOM      2  C   UNL     1      17.541 -13.593   0.302  1.00  0.00     0.253 C 
BRANCH   2   3
ATOM      3  N   UNL     1      16.432 -13.418   1.249  1.00  0.00    -0.348 N 
ATOM      4  H   UNL     1      16.283 -14.287   1.810  1.00  0.00     0.345 HD
ATOM      5  H   UNL     1      16.644 -12.623   1.897  1.00  0.00     0.345 HD
ATOM      6  H   UNL     1      15.553 -13.189   0.731  1.00  0.00     0.345 HD
ENDBRANCH   2   3
BRANCH   2   7
ATOM      7  C   UNL     1      17.287 -14.783  -0.583  1.00  0.00     0.102 C 
ATOM      8  O   UNL     1      18.195 -15.636  -0.775  1.00  0.00    -0.544 OA
ATOM      9  O   UNL     1      16.054 -14.944  -1.206  1.00  0.00    -0.544 OA
ENDBRANCH   2   7
ENDBRANCH   1   2
BRANCH   1  10
ATOM     10  O   UNL     1      17.854 -12.688  -1.906  1.00  0.00    -0.390 OA
ATOM     11  H   UNL     1      18.320 -13.565  -1.923  1.00  0.00     0.210 HD
ENDBRANCH   1  10
TORSDOF 4
ENDMDL
