MODEL 1
REMARK VINA RESULT:    -1.365      0.000      0.000
REMARK INTER + INTRA:          -4.779
REMARK INTER:                  -2.482
REMARK INTRA:                  -2.297
REMARK UNBOUND:                -2.297
REMARK SMILES CCCCCCCCCCCCCCCC(=O)[O-]
REMARK SMILES IDX 9 1 10 2 11 3 12 4 13 5 14 6 15 7 16 8 17 9 18 10 8 11 7 12
REMARK SMILES IDX 6 13 5 14 4 15 3 16 2 17 1 18
REMARK H PARENT
REMARK Flexibility Score: inf
ROOT
ATOM      1  C   UNL     1     139.230  52.585 -12.329  1.00  0.00     0.000 C 
ENDROOT
BRANCH   1   2
ATOM      2  C   UNL     1     139.162  53.784 -13.292  1.00  0.00     0.000 C 
BRANCH   2   3
ATOM      3  C   UNL     1     140.215  54.883 -13.044  1.00  0.00     0.000 C 
BRANCH   3   4
ATOM      4  C   UNL     1     139.644  56.271 -12.692  1.00  0.00     0.000 C 
BRANCH   4   5
ATOM      5  C   UNL     1     140.043  56.810 -11.305  1.00  0.00     0.000 C 
BRANCH   5   6
ATOM      6  C   UNL     1     138.871  57.074 -10.339  1.00  0.00     0.006 C 
BRANCH   6   7
ATOM      7  C   UNL     1     138.889  56.191  -9.078  1.00  0.00     0.053 C 
BRANCH   7   8
ATOM      8  C   UNL     1     137.514  55.790  -8.638  1.00  0.00     0.041 C 
ATOM      9  O   UNL     1     137.354  54.795  -7.883  1.00  0.00    -0.550 OA
ATOM     10  O   UNL     1     136.411  56.536  -9.031  1.00  0.00    -0.550 OA
ENDBRANCH   7   8
ENDBRANCH   6   7
ENDBRANCH   5   6
ENDBRANCH   4   5
ENDBRANCH   3   4
ENDBRANCH   2   3
ENDBRANCH   1   2
BRANCH   1  11
ATOM     11  C   UNL     1     139.304  53.007 -10.852  1.00  0.00     0.000 C 
BRANCH  11  12
ATOM     12  C   UNL     1     140.596  52.535 -10.168  1.00  0.00    -0.000 C 
BRANCH  12  13
ATOM     13  C   UNL     1     141.584  53.683  -9.909  1.00  0.00    -0.000 C 
BRANCH  13  14
ATOM     14  C   UNL     1     142.929  53.414 -10.596  1.00  0.00    -0.000 C 
BRANCH  14  15
ATOM     15  C   UNL     1     143.542  54.717 -11.132  1.00  0.00    -0.000 C 
BRANCH  15  16
ATOM     16  C   UNL     1     143.893  54.635 -12.627  1.00  0.00    -0.000 C 
BRANCH  16  17
ATOM     17  C   UNL     1     143.664  55.965 -13.361  1.00  0.00    -0.003 C 
ATOM     18  C   UNL     1     143.555  57.125 -12.374  1.00  0.00     0.004 C 
ENDBRANCH  16  17
ENDBRANCH  15  16
ENDBRANCH  14  15
ENDBRANCH  13  14
ENDBRANCH  12  13
ENDBRANCH  11  12
ENDBRANCH   1  11
TORSDOF 14
ENDMDL
MODEL 2
REMARK VINA RESULT:    -1.328     15.680     17.439
REMARK INTER + INTRA:          -4.713
REMARK INTER:                  -2.386
REMARK INTRA:                  -2.327
REMARK UNBOUND:                -2.297
REMARK SMILES CCCCCCCCCCCCCCCC(=O)[O-]
REMARK SMILES IDX 9 1 10 2 11 3 12 4 13 5 14 6 15 7 16 8 17 9 18 10 8 11 7 12
REMARK SMILES IDX 6 13 5 14 4 15 3 16 2 17 1 18
REMARK H PARENT
REMARK Flexibility Score: inf
ROOT
ATOM      1  C   UNL     1     144.882  40.141 -10.640  1.00  0.00     0.000 C 
ENDROOT
BRANCH   1   2
ATOM      2  C   UNL     1     145.453  39.311 -11.804  1.00  0.00     0.000 C 
BRANCH   2   3
ATOM      3  C   UNL     1     146.990  39.333 -11.931  1.00  0.00     0.000 C 
BRANCH   3   4
ATOM      4  C   UNL     1     147.750  39.627 -10.623  1.00  0.00     0.000 C 
BRANCH   4   5
ATOM      5  C   UNL     1     148.113  38.387  -9.784  1.00  0.00     0.000 C 
BRANCH   5   6
ATOM      6  C   UNL     1     147.640  38.423  -8.317  1.00  0.00     0.006 C 
BRANCH   6   7
ATOM      7  C   UNL     1     147.429  39.844  -7.764  1.00  0.00     0.053 C 
BRANCH   7   8
ATOM      8  C   UNL     1     146.251  39.933  -6.842  1.00  0.00     0.041 C 
ATOM      9  O   UNL     1     145.370  40.815  -7.020  1.00  0.00    -0.550 OA
ATOM     10  O   UNL     1     146.106  39.018  -5.807  1.00  0.00    -0.550 OA
ENDBRANCH   7   8
ENDBRANCH   6   7
ENDBRANCH   5   6
ENDBRANCH   4   5
ENDBRANCH   3   4
ENDBRANCH   2   3
ENDBRANCH   1   2
BRANCH   1  11
ATOM     11  C   UNL     1     143.816  39.382  -9.832  1.00  0.00     0.000 C 
BRANCH  11  12
ATOM     12  C   UNL     1     144.196  37.913  -9.588  1.00  0.00    -0.000 C 
BRANCH  12  13
ATOM     13  C   UNL     1     142.971  36.994  -9.467  1.00  0.00    -0.000 C 
BRANCH  13  14
ATOM     14  C   UNL     1     141.751  37.613 -10.162  1.00  0.00    -0.000 C 
BRANCH  14  15
ATOM     15  C   UNL     1     141.432  36.875 -11.471  1.00  0.00    -0.000 C 
BRANCH  15  16
ATOM     16  C   UNL     1     142.369  37.276 -12.621  1.00  0.00    -0.000 C 
BRANCH  16  17
ATOM     17  C   UNL     1     141.710  38.251 -13.609  1.00  0.00    -0.003 C 
ATOM     18  C   UNL     1     142.042  39.698 -13.255  1.00  0.00     0.004 C 
ENDBRANCH  16  17
ENDBRANCH  15  16
ENDBRANCH  14  15
ENDBRANCH  13  14
ENDBRANCH  12  13
ENDBRANCH  11  12
ENDBRANCH   1  11
TORSDOF 14
ENDMDL
MODEL 3
REMARK VINA RESULT:    -1.313     15.303     17.619
REMARK INTER + INTRA:          -4.685
REMARK INTER:                  -2.278
REMARK INTRA:                  -2.407
REMARK UNBOUND:                -2.297
REMARK SMILES CCCCCCCCCCCCCCCC(=O)[O-]
REMARK SMILES IDX 9 1 10 2 11 3 12 4 13 5 14 6 15 7 16 8 17 9 18 10 8 11 7 12
REMARK SMILES IDX 6 13 5 14 4 15 3 16 2 17 1 18
REMARK H PARENT
REMARK Flexibility Score: inf
ROOT
ATOM      1  C   UNL     1     145.771  41.232  -7.180  1.00  0.00     0.000 C 
ENDROOT
BRANCH   1   2
ATOM      2  C   UNL     1     145.037  41.177  -8.532  1.00  0.00     0.000 C 
BRANCH   2   3
ATOM      3  C   UNL     1     143.609  40.597  -8.478  1.00  0.00     0.000 C 
BRANCH   3   4
ATOM      4  C   UNL     1     143.261  39.608  -9.608  1.00  0.00     0.000 C 
BRANCH   4   5
ATOM      5  C   UNL     1     142.382  38.415  -9.185  1.00  0.00     0.000 C 
BRANCH   5   6
ATOM      6  C   UNL     1     142.415  37.203 -10.136  1.00  0.00     0.006 C 
BRANCH   6   7
ATOM      7  C   UNL     1     141.252  37.170 -11.146  1.00  0.00     0.053 C 
BRANCH   7   8
ATOM      8  C   UNL     1     141.633  37.738 -12.479  1.00  0.00     0.041 C 
ATOM      9  O   UNL     1     141.058  38.768 -12.918  1.00  0.00    -0.550 OA
ATOM     10  O   UNL     1     142.649  37.150 -13.222  1.00  0.00    -0.550 OA
ENDBRANCH   7   8
ENDBRANCH   6   7
ENDBRANCH   5   6
ENDBRANCH   4   5
ENDBRANCH   3   4
ENDBRANCH   2   3
ENDBRANCH   1   2
BRANCH   1  11
ATOM     11  C   UNL     1     147.257  40.850  -7.291  1.00  0.00     0.000 C 
BRANCH  11  12
ATOM     12  C   UNL     1     147.570  40.067  -8.576  1.00  0.00    -0.000 C 
BRANCH  12  13
ATOM     13  C   UNL     1     147.690  38.555  -8.335  1.00  0.00    -0.000 C 
BRANCH  13  14
ATOM     14  C   UNL     1     146.454  37.816  -8.863  1.00  0.00    -0.000 C 
BRANCH  14  15
ATOM     15  C   UNL     1     145.590  37.292  -7.706  1.00  0.00    -0.000 C 
BRANCH  15  16
ATOM     16  C   UNL     1     146.299  37.392  -6.345  1.00  0.00    -0.000 C 
BRANCH  16  17
ATOM     17  C   UNL     1     145.328  37.695  -5.194  1.00  0.00    -0.003 C 
ATOM     18  C   UNL     1     144.013  38.262  -5.721  1.00  0.00     0.004 C 
ENDBRANCH  16  17
ENDBRANCH  15  16
ENDBRANCH  14  15
ENDBRANCH  13  14
ENDBRANCH  12  13
ENDBRANCH  11  12
ENDBRANCH   1  11
TORSDOF 14
ENDMDL
MODEL 4
REMARK VINA RESULT:    -1.311     14.800     17.148
REMARK INTER + INTRA:          -4.680
REMARK INTER:                  -1.980
REMARK INTRA:                  -2.700
REMARK UNBOUND:                -2.297
REMARK SMILES CCCCCCCCCCCCCCCC(=O)[O-]
REMARK SMILES IDX 9 1 10 2 11 3 12 4 13 5 14 6 15 7 16 8 17 9 18 10 8 11 7 12
REMARK SMILES IDX 6 13 5 14 4 15 3 16 2 17 1 18
REMARK H PARENT
REMARK Flexibility Score: inf
ROOT
ATOM      1  C   UNL     1     147.702  39.934  -8.865  1.00  0.00     0.000 C 
ENDROOT
BRANCH   1   2
ATOM      2  C   UNL     1     147.165  39.735 -10.295  1.00  0.00     0.000 C 
BRANCH   2   3
ATOM      3  C   UNL     1     146.053  40.716 -10.718  1.00  0.00     0.000 C 
BRANCH   3   4
ATOM      4  C   UNL     1     144.835  40.068 -11.405  1.00  0.00     0.000 C 
BRANCH   4   5
ATOM      5  C   UNL     1     145.048  38.618 -11.882  1.00  0.00     0.000 C 
BRANCH   5   6
ATOM      6  C   UNL     1     144.016  37.597 -11.365  1.00  0.00     0.006 C 
BRANCH   6   7
ATOM      7  C   UNL     1     143.068  37.061 -12.454  1.00  0.00     0.053 C 
BRANCH   7   8
ATOM      8  C   UNL     1     141.647  37.482 -12.236  1.00  0.00     0.041 C 
ATOM      9  O   UNL     1     140.929  36.882 -11.394  1.00  0.00    -0.550 OA
ATOM     10  O   UNL     1     141.125  38.562 -12.937  1.00  0.00    -0.550 OA
ENDBRANCH   7   8
ENDBRANCH   6   7
ENDBRANCH   5   6
ENDBRANCH   4   5
ENDBRANCH   3   4
ENDBRANCH   2   3
ENDBRANCH   1   2
BRANCH   1  11
ATOM     11  C   UNL     1     147.363  38.761  -7.930  1.00  0.00     0.000 C 
BRANCH  11  12
ATOM     12  C   UNL     1     146.488  37.698  -8.613  1.00  0.00    -0.000 C 
BRANCH  12  13
ATOM     13  C   UNL     1     145.238  37.344  -7.794  1.00  0.00    -0.000 C 
BRANCH  13  14
ATOM     14  C   UNL     1     144.627  38.598  -7.156  1.00  0.00    -0.000 C 
BRANCH  14  15
ATOM     15  C   UNL     1     143.475  39.145  -8.013  1.00  0.00    -0.000 C 
BRANCH  15  16
ATOM     16  C   UNL     1     143.445  40.681  -8.055  1.00  0.00    -0.000 C 
BRANCH  16  17
ATOM     17  C   UNL     1     144.363  41.319  -7.002  1.00  0.00    -0.003 C 
ATOM     18  C   UNL     1     145.211  42.431  -7.614  1.00  0.00     0.004 C 
ENDBRANCH  16  17
ENDBRANCH  15  16
ENDBRANCH  14  15
ENDBRANCH  13  14
ENDBRANCH  12  13
ENDBRANCH  11  12
ENDBRANCH   1  11
TORSDOF 14
ENDMDL
MODEL 5
REMARK VINA RESULT:    -1.293      3.159      5.282
REMARK INTER + INTRA:          -4.648
REMARK INTER:                  -2.202
REMARK INTRA:                  -2.446
REMARK UNBOUND:                -2.297
REMARK SMILES CCCCCCCCCCCCCCCC(=O)[O-]
REMARK SMILES IDX 9 1 10 2 11 3 12 4 13 5 14 6 15 7 16 8 17 9 18 10 8 11 7 12
REMARK SMILES IDX 6 13 5 14 4 15 3 16 2 17 1 18
REMARK H PARENT
REMARK Flexibility Score: inf
ROOT
ATOM      1  C   UNL     1     139.403  53.253 -11.270  1.00  0.00     0.000 C 
ENDROOT
BRANCH   1   2
ATOM      2  C   UNL     1     140.803  52.806 -10.811  1.00  0.00     0.000 C 
BRANCH   2   3
ATOM      3  C   UNL     1     141.412  53.637  -9.665  1.00  0.00     0.000 C 
BRANCH   3   4
ATOM      4  C   UNL     1     142.861  54.111  -9.897  1.00  0.00     0.000 C 
BRANCH   4   5
ATOM      5  C   UNL     1     143.284  55.346  -9.080  1.00  0.00     0.000 C 
BRANCH   5   6
ATOM      6  C   UNL     1     142.569  55.516  -7.725  1.00  0.00     0.006 C 
BRANCH   6   7
ATOM      7  C   UNL     1     143.304  54.854  -6.544  1.00  0.00     0.053 C 
BRANCH   7   8
ATOM      8  C   UNL     1     143.914  55.857  -5.612  1.00  0.00     0.041 C 
ATOM      9  O   UNL     1     143.928  57.079  -5.916  1.00  0.00    -0.550 OA
ATOM     10  O   UNL     1     144.434  55.448  -4.392  1.00  0.00    -0.550 OA
ENDBRANCH   7   8
ENDBRANCH   6   7
ENDBRANCH   5   6
ENDBRANCH   4   5
ENDBRANCH   3   4
ENDBRANCH   2   3
ENDBRANCH   1   2
BRANCH   1  11
ATOM     11  C   UNL     1     139.380  53.741 -12.729  1.00  0.00     0.000 C 
BRANCH  11  12
ATOM     12  C   UNL     1     140.418  54.842 -12.999  1.00  0.00    -0.000 C 
BRANCH  12  13
ATOM     13  C   UNL     1     139.943  56.230 -12.545  1.00  0.00    -0.000 C 
BRANCH  13  14
ATOM     14  C   UNL     1     140.928  56.847 -11.544  1.00  0.00    -0.000 C 
BRANCH  14  15
ATOM     15  C   UNL     1     140.243  57.124 -10.197  1.00  0.00    -0.000 C 
BRANCH  15  16
ATOM     16  C   UNL     1     138.711  57.034 -10.283  1.00  0.00    -0.000 C 
BRANCH  16  17
ATOM     17  C   UNL     1     138.114  56.098  -9.221  1.00  0.00    -0.003 C 
ATOM     18  C   UNL     1     138.945  56.121  -7.941  1.00  0.00     0.004 C 
ENDBRANCH  16  17
ENDBRANCH  15  16
ENDBRANCH  14  15
ENDBRANCH  13  14
ENDBRANCH  12  13
ENDBRANCH  11  12
ENDBRANCH   1  11
TORSDOF 14
ENDMDL
MODEL 6
REMARK VINA RESULT:    -1.291     14.730     16.907
REMARK INTER + INTRA:          -4.645
REMARK INTER:                  -2.173
REMARK INTRA:                  -2.471
REMARK UNBOUND:                -2.297
REMARK SMILES CCCCCCCCCCCCCCCC(=O)[O-]
REMARK SMILES IDX 9 1 10 2 11 3 12 4 13 5 14 6 15 7 16 8 17 9 18 10 8 11 7 12
REMARK SMILES IDX 6 13 5 14 4 15 3 16 2 17 1 18
REMARK H PARENT
REMARK Flexibility Score: inf
ROOT
ATOM      1  C   UNL     1     143.923  38.782  -7.361  1.00  0.00     0.000 C 
ENDROOT
BRANCH   1   2
ATOM      2  C   UNL     1     143.800  39.880  -8.434  1.00  0.00     0.000 C 
BRANCH   2   3
ATOM      3  C   UNL     1     143.903  39.385  -9.890  1.00  0.00     0.000 C 
BRANCH   3   4
ATOM      4  C   UNL     1     144.552  37.998 -10.066  1.00  0.00     0.000 C 
BRANCH   4   5
ATOM      5  C   UNL     1     143.589  36.875 -10.496  1.00  0.00     0.000 C 
BRANCH   5   6
ATOM      6  C   UNL     1     142.120  37.303 -10.682  1.00  0.00     0.006 C 
BRANCH   6   7
ATOM      7  C   UNL     1     141.641  37.267 -12.145  1.00  0.00     0.053 C 
BRANCH   7   8
ATOM      8  C   UNL     1     141.267  38.623 -12.661  1.00  0.00     0.041 C 
ATOM      9  O   UNL     1     140.944  39.540 -11.861  1.00  0.00    -0.550 OA
ATOM     10  O   UNL     1     141.309  38.887 -14.024  1.00  0.00    -0.550 OA
ENDBRANCH   7   8
ENDBRANCH   6   7
ENDBRANCH   5   6
ENDBRANCH   4   5
ENDBRANCH   3   4
ENDBRANCH   2   3
ENDBRANCH   1   2
BRANCH   1  11
ATOM     11  C   UNL     1     144.840  39.188  -6.194  1.00  0.00     0.000 C 
BRANCH  11  12
ATOM     12  C   UNL     1     146.292  39.421  -6.639  1.00  0.00    -0.000 C 
BRANCH  12  13
ATOM     13  C   UNL     1     146.933  38.167  -7.254  1.00  0.00    -0.000 C 
BRANCH  13  14
ATOM     14  C   UNL     1     147.823  38.536  -8.448  1.00  0.00    -0.000 C 
BRANCH  14  15
ATOM     15  C   UNL     1     147.786  40.048  -8.715  1.00  0.00    -0.000 C 
BRANCH  15  16
ATOM     16  C   UNL     1     147.487  40.383 -10.186  1.00  0.00    -0.000 C 
BRANCH  16  17
ATOM     17  C   UNL     1     146.766  41.729 -10.350  1.00  0.00    -0.003 C 
ATOM     18  C   UNL     1     146.463  42.359  -8.993  1.00  0.00     0.004 C 
ENDBRANCH  16  17
ENDBRANCH  15  16
ENDBRANCH  14  15
ENDBRANCH  13  14
ENDBRANCH  12  13
ENDBRANCH  11  12
ENDBRANCH   1  11
TORSDOF 14
ENDMDL
MODEL 7
REMARK VINA RESULT:    -1.248      3.133      5.080
REMARK INTER + INTRA:          -4.566
REMARK INTER:                  -2.018
REMARK INTRA:                  -2.548
REMARK UNBOUND:                -2.297
REMARK SMILES CCCCCCCCCCCCCCCC(=O)[O-]
REMARK SMILES IDX 9 1 10 2 11 3 12 4 13 5 14 6 15 7 16 8 17 9 18 10 8 11 7 12
REMARK SMILES IDX 6 13 5 14 4 15 3 16 2 17 1 18
REMARK H PARENT
REMARK Flexibility Score: inf
ROOT
ATOM      1  C   UNL     1     142.327  55.316 -12.902  1.00  0.00     0.000 C 
ENDROOT
BRANCH   1   2
ATOM      2  C   UNL     1     143.638  56.030 -12.523  1.00  0.00     0.000 C 
BRANCH   2   3
ATOM      3  C   UNL     1     143.547  56.955 -11.294  1.00  0.00     0.000 C 
BRANCH   3   4
ATOM      4  C   UNL     1     143.132  56.262  -9.981  1.00  0.00     0.000 C 
BRANCH   4   5
ATOM      5  C   UNL     1     142.287  57.125  -9.024  1.00  0.00     0.000 C 
BRANCH   5   6
ATOM      6  C   UNL     1     142.173  56.591  -7.583  1.00  0.00     0.006 C 
BRANCH   6   7
ATOM      7  C   UNL     1     143.215  55.512  -7.233  1.00  0.00     0.053 C 
BRANCH   7   8
ATOM      8  C   UNL     1     143.508  55.452  -5.764  1.00  0.00     0.041 C 
ATOM      9  O   UNL     1     144.413  56.173  -5.267  1.00  0.00    -0.550 OA
ATOM     10  O   UNL     1     142.757  54.627  -4.937  1.00  0.00    -0.550 OA
ENDBRANCH   7   8
ENDBRANCH   6   7
ENDBRANCH   5   6
ENDBRANCH   4   5
ENDBRANCH   3   4
ENDBRANCH   2   3
ENDBRANCH   1   2
BRANCH   1  11
ATOM     11  C   UNL     1     141.199  56.295 -13.273  1.00  0.00     0.000 C 
BRANCH  11  12
ATOM     12  C   UNL     1     139.852  55.906 -12.644  1.00  0.00    -0.000 C 
BRANCH  12  13
ATOM     13  C   UNL     1     139.509  56.748 -11.406  1.00  0.00    -0.000 C 
BRANCH  13  14
ATOM     14  C   UNL     1     139.141  55.851 -10.217  1.00  0.00    -0.000 C 
BRANCH  14  15
ATOM     15  C   UNL     1     139.447  54.378 -10.525  1.00  0.00    -0.000 C 
BRANCH  15  16
ATOM     16  C   UNL     1     140.471  53.770  -9.553  1.00  0.00    -0.000 C 
BRANCH  16  17
ATOM     17  C   UNL     1     141.551  52.946 -10.271  1.00  0.00    -0.003 C 
ATOM     18  C   UNL     1     142.659  52.534  -9.306  1.00  0.00     0.004 C 
ENDBRANCH  16  17
ENDBRANCH  15  16
ENDBRANCH  14  15
ENDBRANCH  13  14
ENDBRANCH  12  13
ENDBRANCH  11  12
ENDBRANCH   1  11
TORSDOF 14
ENDMDL
MODEL 8
REMARK VINA RESULT:    -1.232     14.605     16.905
REMARK INTER + INTRA:          -4.537
REMARK INTER:                  -1.830
REMARK INTRA:                  -2.707
REMARK UNBOUND:                -2.297
REMARK SMILES CCCCCCCCCCCCCCCC(=O)[O-]
REMARK SMILES IDX 9 1 10 2 11 3 12 4 13 5 14 6 15 7 16 8 17 9 18 10 8 11 7 12
REMARK SMILES IDX 6 13 5 14 4 15 3 16 2 17 1 18
REMARK H PARENT
REMARK Flexibility Score: inf
ROOT
ATOM      1  C   UNL     1     141.281  37.022 -11.565  1.00  0.00     0.000 C 
ENDROOT
BRANCH   1   2
ATOM      2  C   UNL     1     141.816  37.537 -12.914  1.00  0.00     0.000 C 
BRANCH   2   3
ATOM      3  C   UNL     1     143.246  37.083 -13.267  1.00  0.00     0.000 C 
BRANCH   3   4
ATOM      4  C   UNL     1     144.227  38.220 -13.616  1.00  0.00     0.000 C 
BRANCH   4   5
ATOM      5  C   UNL     1     145.611  38.118 -12.948  1.00  0.00     0.000 C 
BRANCH   5   6
ATOM      6  C   UNL     1     145.599  37.682 -11.469  1.00  0.00     0.006 C 
BRANCH   6   7
ATOM      7  C   UNL     1     146.154  38.743 -10.501  1.00  0.00     0.053 C 
BRANCH   7   8
ATOM      8  C   UNL     1     145.979  38.357  -9.064  1.00  0.00     0.041 C 
ATOM      9  O   UNL     1     145.794  37.152  -8.749  1.00  0.00    -0.550 OA
ATOM     10  O   UNL     1     146.056  39.322  -8.069  1.00  0.00    -0.550 OA
ENDBRANCH   7   8
ENDBRANCH   6   7
ENDBRANCH   5   6
ENDBRANCH   4   5
ENDBRANCH   3   4
ENDBRANCH   2   3
ENDBRANCH   1   2
BRANCH   1  11
ATOM     11  C   UNL     1     141.061  38.147 -10.540  1.00  0.00     0.000 C 
BRANCH  11  12
ATOM     12  C   UNL     1     142.365  38.579  -9.850  1.00  0.00    -0.000 C 
BRANCH  12  13
ATOM     13  C   UNL     1     142.543  40.104  -9.819  1.00  0.00    -0.000 C 
BRANCH  13  14
ATOM     14  C   UNL     1     143.116  40.616 -11.147  1.00  0.00    -0.000 C 
BRANCH  14  15
ATOM     15  C   UNL     1     142.187  41.663 -11.779  1.00  0.00    -0.000 C 
BRANCH  15  16
ATOM     16  C   UNL     1     141.604  41.202 -13.125  1.00  0.00    -0.000 C 
BRANCH  16  17
ATOM     17  C   UNL     1     140.126  40.796 -13.020  1.00  0.00    -0.003 C 
ATOM     18  C   UNL     1     139.489  41.365 -11.755  1.00  0.00     0.004 C 
ENDBRANCH  16  17
ENDBRANCH  15  16
ENDBRANCH  14  15
ENDBRANCH  13  14
ENDBRANCH  12  13
ENDBRANCH  11  12
ENDBRANCH   1  11
TORSDOF 14
ENDMDL
MODEL 9
REMARK VINA RESULT:    -1.228     14.916     17.277
REMARK INTER + INTRA:          -4.530
REMARK INTER:                  -2.097
REMARK INTRA:                  -2.433
REMARK UNBOUND:                -2.297
REMARK SMILES CCCCCCCCCCCCCCCC(=O)[O-]
REMARK SMILES IDX 9 1 10 2 11 3 12 4 13 5 14 6 15 7 16 8 17 9 18 10 8 11 7 12
REMARK SMILES IDX 6 13 5 14 4 15 3 16 2 17 1 18
REMARK H PARENT
REMARK Flexibility Score: inf
ROOT
ATOM      1  C   UNL     1     141.280  38.632  -9.773  1.00  0.00     0.000 C 
ENDROOT
BRANCH   1   2
ATOM      2  C   UNL     1     142.581  39.220  -9.196  1.00  0.00     0.000 C 
BRANCH   2   3
ATOM      3  C   UNL     1     143.459  39.983 -10.208  1.00  0.00     0.000 C 
BRANCH   3   4
ATOM      4  C   UNL     1     144.761  39.267 -10.617  1.00  0.00     0.000 C 
BRANCH   4   5
ATOM      5  C   UNL     1     145.032  37.936  -9.889  1.00  0.00     0.000 C 
BRANCH   5   6
ATOM      6  C   UNL     1     146.228  37.949  -8.917  1.00  0.00     0.006 C 
BRANCH   6   7
ATOM      7  C   UNL     1     146.027  38.860  -7.691  1.00  0.00     0.053 C 
BRANCH   7   8
ATOM      8  C   UNL     1     145.981  38.090  -6.406  1.00  0.00     0.041 C 
ATOM      9  O   UNL     1     145.648  36.876  -6.405  1.00  0.00    -0.550 OA
ATOM     10  O   UNL     1     146.340  38.704  -5.213  1.00  0.00    -0.550 OA
ENDBRANCH   7   8
ENDBRANCH   6   7
ENDBRANCH   5   6
ENDBRANCH   4   5
ENDBRANCH   3   4
ENDBRANCH   2   3
ENDBRANCH   1   2
BRANCH   1  11
ATOM     11  C   UNL     1     141.449  37.191 -10.283  1.00  0.00     0.000 C 
BRANCH  11  12
ATOM     12  C   UNL     1     141.288  37.083 -11.807  1.00  0.00    -0.000 C 
BRANCH  12  13
ATOM     13  C   UNL     1     142.626  36.875 -12.533  1.00  0.00    -0.000 C 
BRANCH  13  14
ATOM     14  C   UNL     1     142.848  37.959 -13.595  1.00  0.00    -0.000 C 
BRANCH  14  15
ATOM     15  C   UNL     1     141.554  38.743 -13.859  1.00  0.00    -0.000 C 
BRANCH  15  16
ATOM     16  C   UNL     1     141.683  40.235 -13.508  1.00  0.00    -0.000 C 
BRANCH  16  17
ATOM     17  C   UNL     1     140.438  40.784 -12.795  1.00  0.00    -0.003 C 
ATOM     18  C   UNL     1     140.806  41.918 -11.842  1.00  0.00     0.004 C 
ENDBRANCH  16  17
ENDBRANCH  15  16
ENDBRANCH  14  15
ENDBRANCH  13  14
ENDBRANCH  12  13
ENDBRANCH  11  12
ENDBRANCH   1  11
TORSDOF 14
ENDMDL
