MODEL 1
REMARK VINA RESULT:    -4.020      0.000      0.000
REMARK INTER + INTRA:          -4.670
REMARK INTER:                  -4.608
REMARK INTRA:                  -0.062
REMARK UNBOUND:                -0.062
REMARK SMILES CC(C)[C@H]([NH3+])C(=O)[O-]
REMARK SMILES IDX 4 1 5 2 6 6 7 7 8 8 2 9 1 10 3 11
REMARK H PARENT 5 3 5 4 5 5
REMARK Flexibility Score: inf
ROOT
ATOM      1  C   UNL     1      61.274  -1.086   7.204  1.00  0.00     0.230 C 
ENDROOT
BRANCH   1   2
ATOM      2  N   UNL     1      60.380  -2.006   7.923  1.00  0.00    -0.350 N 
ATOM      3  H   UNL     1      60.171  -2.858   7.356  1.00  0.00     0.345 HD
ATOM      4  H   UNL     1      59.479  -1.520   8.136  1.00  0.00     0.345 HD
ATOM      5  H   UNL     1      60.805  -2.292   8.834  1.00  0.00     0.345 HD
ENDBRANCH   1   2
BRANCH   1   6
ATOM      6  C   UNL     1      62.264  -1.852   6.362  1.00  0.00     0.099 C 
ATOM      7  O   UNL     1      63.429  -2.059   6.795  1.00  0.00    -0.544 OA
ATOM      8  O   UNL     1      61.893  -2.375   5.128  1.00  0.00    -0.544 OA
ENDBRANCH   1   6
BRANCH   1   9
ATOM      9  C   UNL     1      62.007  -0.085   8.150  1.00  0.00     0.047 C 
ATOM     10  C   UNL     1      61.508  -0.133   9.603  1.00  0.00     0.014 C 
ATOM     11  C   UNL     1      61.948   1.354   7.617  1.00  0.00     0.014 C 
ENDBRANCH   1   9
TORSDOF 3
ENDMDL
MODEL 2
REMARK VINA RESULT:    -3.966      3.038      3.741
REMARK INTER + INTRA:          -4.608
REMARK INTER:                  -4.567
REMARK INTRA:                  -0.040
REMARK UNBOUND:                -0.062
REMARK SMILES CC(C)[C@H]([NH3+])C(=O)[O-]
REMARK SMILES IDX 4 1 5 2 6 6 7 7 8 8 2 9 1 10 3 11
REMARK H PARENT 5 3 5 4 5 5
REMARK Flexibility Score: inf
ROOT
ATOM      1  C   UNL     1      60.949  -0.558   8.759  1.00  0.00     0.230 C 
ENDROOT
BRANCH   1   2
ATOM      2  N   UNL     1      60.246  -1.706   8.164  1.00  0.00    -0.350 N 
ATOM      3  H   UNL     1      60.897  -2.308   7.611  1.00  0.00     0.345 HD
ATOM      4  H   UNL     1      59.493  -1.359   7.527  1.00  0.00     0.345 HD
ATOM      5  H   UNL     1      59.790  -2.280   8.908  1.00  0.00     0.345 HD
ENDBRANCH   1   2
BRANCH   1   6
ATOM      6  C   UNL     1      59.968   0.402   9.386  1.00  0.00     0.099 C 
ATOM      7  O   UNL     1      58.730   0.193   9.279  1.00  0.00    -0.544 OA
ATOM      8  O   UNL     1      60.413   1.494  10.123  1.00  0.00    -0.544 OA
ENDBRANCH   1   6
BRANCH   1   9
ATOM      9  C   UNL     1      61.878   0.180   7.747  1.00  0.00     0.047 C 
ATOM     10  C   UNL     1      62.005  -0.537   6.393  1.00  0.00     0.014 C 
ATOM     11  C   UNL     1      63.270   0.447   8.338  1.00  0.00     0.014 C 
ENDBRANCH   1   9
TORSDOF 3
ENDMDL
MODEL 3
REMARK VINA RESULT:    -3.920     14.588     15.419
REMARK INTER + INTRA:          -4.555
REMARK INTER:                  -4.477
REMARK INTRA:                  -0.078
REMARK UNBOUND:                -0.062
REMARK SMILES CC(C)[C@H]([NH3+])C(=O)[O-]
REMARK SMILES IDX 4 1 5 2 6 6 7 7 8 8 2 9 1 10 3 11
REMARK H PARENT 5 3 5 4 5 5
REMARK Flexibility Score: inf
ROOT
ATOM      1  C   UNL     1      64.010   7.781  -4.714  1.00  0.00     0.230 C 
ENDROOT
BRANCH   1   2
ATOM      2  N   UNL     1      65.288   7.202  -4.273  1.00  0.00    -0.350 N 
ATOM      3  H   UNL     1      66.101   7.760  -4.620  1.00  0.00     0.345 HD
ATOM      4  H   UNL     1      65.374   6.227  -4.641  1.00  0.00     0.345 HD
ATOM      5  H   UNL     1      65.324   7.149  -3.230  1.00  0.00     0.345 HD
ENDBRANCH   1   2
BRANCH   1   6
ATOM      6  C   UNL     1      62.892   7.377  -3.784  1.00  0.00     0.099 C 
ATOM      7  O   UNL     1      62.573   6.163  -3.676  1.00  0.00    -0.544 OA
ATOM      8  O   UNL     1      62.237   8.326  -3.006  1.00  0.00    -0.544 OA
ENDBRANCH   1   6
BRANCH   1   9
ATOM      9  C   UNL     1      63.658   7.425  -6.191  1.00  0.00     0.047 C 
ATOM     10  C   UNL     1      64.839   7.586  -7.162  1.00  0.00     0.014 C 
ATOM     11  C   UNL     1      62.444   8.220  -6.697  1.00  0.00     0.014 C 
ENDBRANCH   1   9
TORSDOF 3
ENDMDL
MODEL 4
REMARK VINA RESULT:    -3.858     14.700     15.524
REMARK INTER + INTRA:          -4.483
REMARK INTER:                  -4.419
REMARK INTRA:                  -0.064
REMARK UNBOUND:                -0.062
REMARK SMILES CC(C)[C@H]([NH3+])C(=O)[O-]
REMARK SMILES IDX 4 1 5 2 6 6 7 7 8 8 2 9 1 10 3 11
REMARK H PARENT 5 3 5 4 5 5
REMARK Flexibility Score: inf
ROOT
ATOM      1  C   UNL     1      63.397   7.627  -5.251  1.00  0.00     0.230 C 
ENDROOT
BRANCH   1   2
ATOM      2  N   UNL     1      62.905   6.698  -6.281  1.00  0.00    -0.350 N 
ATOM      3  H   UNL     1      63.076   5.703  -6.011  1.00  0.00     0.345 HD
ATOM      4  H   UNL     1      63.399   6.886  -7.183  1.00  0.00     0.345 HD
ATOM      5  H   UNL     1      61.884   6.843  -6.445  1.00  0.00     0.345 HD
ENDBRANCH   1   2
BRANCH   1   6
ATOM      6  C   UNL     1      63.006   7.152  -3.873  1.00  0.00     0.099 C 
ATOM      7  O   UNL     1      62.278   7.876  -3.143  1.00  0.00    -0.544 OA
ATOM      8  O   UNL     1      63.402   5.901  -3.414  1.00  0.00    -0.544 OA
ENDBRANCH   1   6
BRANCH   1   9
ATOM      9  C   UNL     1      62.932   9.097  -5.484  1.00  0.00     0.047 C 
ATOM     10  C   UNL     1      62.197   9.306  -6.819  1.00  0.00     0.014 C 
ATOM     11  C   UNL     1      64.095  10.092  -5.358  1.00  0.00     0.014 C 
ENDBRANCH   1   9
TORSDOF 3
ENDMDL
MODEL 5
REMARK VINA RESULT:    -3.789     14.525     15.361
REMARK INTER + INTRA:          -4.405
REMARK INTER:                  -4.432
REMARK INTRA:                   0.027
REMARK UNBOUND:                -0.062
REMARK SMILES CC(C)[C@H]([NH3+])C(=O)[O-]
REMARK SMILES IDX 4 1 5 2 6 6 7 7 8 8 2 9 1 10 3 11
REMARK H PARENT 5 3 5 4 5 5
REMARK Flexibility Score: inf
ROOT
ATOM      1  C   UNL     1      64.126   7.883  -4.610  1.00  0.00     0.230 C 
ENDROOT
BRANCH   1   2
ATOM      2  N   UNL     1      65.241   6.928  -4.508  1.00  0.00    -0.350 N 
ATOM      3  H   UNL     1      66.008   7.163  -5.177  1.00  0.00     0.345 HD
ATOM      4  H   UNL     1      64.894   5.965  -4.725  1.00  0.00     0.345 HD
ATOM      5  H   UNL     1      65.621   6.913  -3.535  1.00  0.00     0.345 HD
ENDBRANCH   1   2
BRANCH   1   6
ATOM      6  C   UNL     1      62.945   7.414  -3.795  1.00  0.00     0.099 C 
ATOM      7  O   UNL     1      62.623   6.196  -3.802  1.00  0.00    -0.544 OA
ATOM      8  O   UNL     1      62.234   8.303  -2.997  1.00  0.00    -0.544 OA
ENDBRANCH   1   6
BRANCH   1   9
ATOM      9  C   UNL     1      63.704   8.172  -6.082  1.00  0.00     0.047 C 
ATOM     10  C   UNL     1      62.253   8.662  -6.223  1.00  0.00     0.014 C 
ATOM     11  C   UNL     1      63.944   6.960  -6.995  1.00  0.00     0.014 C 
ENDBRANCH   1   9
TORSDOF 3
ENDMDL
MODEL 6
REMARK VINA RESULT:    -3.692      1.517      1.662
REMARK INTER + INTRA:          -4.294
REMARK INTER:                  -4.246
REMARK INTRA:                  -0.048
REMARK UNBOUND:                -0.062
REMARK SMILES CC(C)[C@H]([NH3+])C(=O)[O-]
REMARK SMILES IDX 4 1 5 2 6 6 7 7 8 8 2 9 1 10 3 11
REMARK H PARENT 5 3 5 4 5 5
REMARK Flexibility Score: inf
ROOT
ATOM      1  C   UNL     1      61.826  -1.600   6.353  1.00  0.00     0.230 C 
ENDROOT
BRANCH   1   2
ATOM      2  N   UNL     1      61.043  -2.069   7.507  1.00  0.00    -0.350 N 
ATOM      3  H   UNL     1      61.047  -3.111   7.574  1.00  0.00     0.345 HD
ATOM      4  H   UNL     1      60.052  -1.747   7.408  1.00  0.00     0.345 HD
ATOM      5  H   UNL     1      61.418  -1.662   8.392  1.00  0.00     0.345 HD
ENDBRANCH   1   2
BRANCH   1   6
ATOM      6  C   UNL     1      62.214  -2.758   5.466  1.00  0.00     0.099 C 
ATOM      7  O   UNL     1      62.748  -3.782   5.969  1.00  0.00    -0.544 OA
ATOM      8  O   UNL     1      61.946  -2.730   4.102  1.00  0.00    -0.544 OA
ENDBRANCH   1   6
BRANCH   1   9
ATOM      9  C   UNL     1      63.081  -0.772   6.764  1.00  0.00     0.047 C 
ATOM     10  C   UNL     1      63.132  -0.434   8.263  1.00  0.00     0.014 C 
ATOM     11  C   UNL     1      63.219   0.510   5.928  1.00  0.00     0.014 C 
ENDBRANCH   1   9
TORSDOF 3
ENDMDL
MODEL 7
REMARK VINA RESULT:    -3.639     14.359     15.203
REMARK INTER + INTRA:          -4.233
REMARK INTER:                  -4.178
REMARK INTRA:                  -0.055
REMARK UNBOUND:                -0.062
REMARK SMILES CC(C)[C@H]([NH3+])C(=O)[O-]
REMARK SMILES IDX 4 1 5 2 6 6 7 7 8 8 2 9 1 10 3 11
REMARK H PARENT 5 3 5 4 5 5
REMARK Flexibility Score: inf
ROOT
ATOM      1  C   UNL     1      62.882   8.664  -3.930  1.00  0.00     0.230 C 
ENDROOT
BRANCH   1   2
ATOM      2  N   UNL     1      62.784   8.796  -2.468  1.00  0.00    -0.350 N 
ATOM      3  H   UNL     1      61.852   8.483  -2.117  1.00  0.00     0.345 HD
ATOM      4  H   UNL     1      62.920   9.798  -2.200  1.00  0.00     0.345 HD
ATOM      5  H   UNL     1      63.536   8.241  -2.001  1.00  0.00     0.345 HD
ENDBRANCH   1   2
BRANCH   1   6
ATOM      6  C   UNL     1      63.204   7.241  -4.317  1.00  0.00     0.099 C 
ATOM      7  O   UNL     1      64.084   7.012  -5.189  1.00  0.00    -0.544 OA
ATOM      8  O   UNL     1      62.572   6.174  -3.689  1.00  0.00    -0.544 OA
ENDBRANCH   1   6
BRANCH   1   9
ATOM      9  C   UNL     1      63.903   9.656  -4.565  1.00  0.00     0.047 C 
ATOM     10  C   UNL     1      64.496  10.658  -3.560  1.00  0.00     0.014 C 
ATOM     11  C   UNL     1      63.305  10.403  -5.767  1.00  0.00     0.014 C 
ENDBRANCH   1   9
TORSDOF 3
ENDMDL
MODEL 8
REMARK VINA RESULT:    -3.635      2.176      3.440
REMARK INTER + INTRA:          -4.229
REMARK INTER:                  -4.172
REMARK INTRA:                  -0.057
REMARK UNBOUND:                -0.062
REMARK SMILES CC(C)[C@H]([NH3+])C(=O)[O-]
REMARK SMILES IDX 4 1 5 2 6 6 7 7 8 8 2 9 1 10 3 11
REMARK H PARENT 5 3 5 4 5 5
REMARK Flexibility Score: inf
ROOT
ATOM      1  C   UNL     1      62.402  -1.506   6.791  1.00  0.00     0.230 C 
ENDROOT
BRANCH   1   2
ATOM      2  N   UNL     1      61.236  -2.266   7.267  1.00  0.00    -0.350 N 
ATOM      3  H   UNL     1      61.069  -2.112   8.287  1.00  0.00     0.345 HD
ATOM      4  H   UNL     1      61.399  -3.287   7.109  1.00  0.00     0.345 HD
ATOM      5  H   UNL     1      60.381  -1.997   6.730  1.00  0.00     0.345 HD
ENDBRANCH   1   2
BRANCH   1   6
ATOM      6  C   UNL     1      62.006  -0.097   6.421  1.00  0.00     0.099 C 
ATOM      7  O   UNL     1      61.730   0.734   7.326  1.00  0.00    -0.544 OA
ATOM      8  O   UNL     1      61.986   0.310   5.092  1.00  0.00    -0.544 OA
ENDBRANCH   1   6
BRANCH   1   9
ATOM      9  C   UNL     1      63.143  -2.202   5.609  1.00  0.00     0.047 C 
ATOM     10  C   UNL     1      62.333  -3.335   4.957  1.00  0.00     0.014 C 
ATOM     11  C   UNL     1      64.530  -2.715   6.026  1.00  0.00     0.014 C 
ENDBRANCH   1   9
TORSDOF 3
ENDMDL
MODEL 9
REMARK VINA RESULT:    -3.577     13.064     13.618
REMARK INTER + INTRA:          -4.162
REMARK INTER:                  -4.116
REMARK INTRA:                  -0.045
REMARK UNBOUND:                -0.062
REMARK SMILES CC(C)[C@H]([NH3+])C(=O)[O-]
REMARK SMILES IDX 4 1 5 2 6 6 7 7 8 8 2 9 1 10 3 11
REMARK H PARENT 5 3 5 4 5 5
REMARK Flexibility Score: inf
ROOT
ATOM      1  C   UNL     1      52.461   7.337   4.441  1.00  0.00     0.230 C 
ENDROOT
BRANCH   1   2
ATOM      2  N   UNL     1      52.323   7.485   2.983  1.00  0.00    -0.350 N 
ATOM      3  H   UNL     1      53.237   7.347   2.496  1.00  0.00     0.345 HD
ATOM      4  H   UNL     1      51.972   8.445   2.763  1.00  0.00     0.345 HD
ATOM      5  H   UNL     1      51.626   6.802   2.612  1.00  0.00     0.345 HD
ENDBRANCH   1   2
BRANCH   1   6
ATOM      6  C   UNL     1      51.161   6.880   5.056  1.00  0.00     0.099 C 
ATOM      7  O   UNL     1      50.907   7.153   6.259  1.00  0.00    -0.544 OA
ATOM      8  O   UNL     1      50.216   6.200   4.297  1.00  0.00    -0.544 OA
ENDBRANCH   1   6
BRANCH   1   9
ATOM      9  C   UNL     1      52.981   8.631   5.138  1.00  0.00     0.047 C 
ATOM     10  C   UNL     1      52.293   9.915   4.646  1.00  0.00     0.014 C 
ATOM     11  C   UNL     1      54.506   8.770   5.022  1.00  0.00     0.014 C 
ENDBRANCH   1   9
TORSDOF 3
ENDMDL
