MODEL 1
REMARK VINA RESULT:    -7.956      0.000      0.000
REMARK INTER + INTRA:         -14.302
REMARK INTER:                 -12.607
REMARK INTRA:                  -1.694
REMARK UNBOUND:                -1.694
REMARK SMILES C[C@@H]1O[C@@H](O[C@@H]2[C@@H](Oc3cc(O)c4c(c3)O[C@H](c3ccc(O)cc3)CC4=O)O[C@@H](CO)[C@@H](O)[C@@H]2O)[C@H](O)[C@@H](O)[C@H]1O
REMARK SMILES IDX 6 1 34 2 32 3 29 4 28 5 7 6 5 7 4 8 1 9 2 10 40 11 3 12
REMARK SMILES IDX 38 13 36 14 41 15 39 17 37 19 35 21 8 23 9 24 10 25 15 26
REMARK SMILES IDX 11 27 14 28 13 29 16 30 26 31 17 32 27 33 25 34 12 35 18 37
REMARK SMILES IDX 19 38 24 39 20 40 23 41 21 42 22 43 33 45 30 47 31 48
REMARK H PARENT 41 16 39 18 37 20 35 22 12 36 22 44 33 46 31 49
REMARK Flexibility Score: inf
ROOT
ATOM      1  C   UNL     1      -2.665 -21.290  -8.023  1.00  0.00     0.221 C 
ATOM      2  C   UNL     1      -3.159 -20.238  -9.043  1.00  0.00     0.181 C 
ATOM      3  C   UNL     1      -2.048 -19.908 -10.057  1.00  0.00     0.177 C 
ATOM      4  C   UNL     1      -0.721 -19.604  -9.320  1.00  0.00     0.179 C 
ATOM      5  O   UNL     1      -0.356 -20.687  -8.478  1.00  0.00    -0.332 OA
ATOM      6  C   UNL     1      -1.314 -20.845  -7.447  1.00  0.00     0.339 C 
ENDROOT
BRANCH   1   7
ATOM      7  O   UNL     1      -3.580 -21.394  -6.941  1.00  0.00    -0.337 OA
BRANCH   7   8
ATOM      8  C   UNL     1      -4.769 -22.090  -7.293  1.00  0.00     0.282 C 
ATOM      9  C   UNL     1      -7.107 -19.257  -7.097  1.00  0.00     0.041 C 
ATOM     10  C   UNL     1      -6.092 -20.280  -6.583  1.00  0.00     0.150 C 
ATOM     11  C   UNL     1      -6.669 -21.055  -5.365  1.00  0.00     0.174 C 
ATOM     12  O   UNL     1      -5.788 -21.167  -7.649  1.00  0.00    -0.344 OA
ATOM     13  C   UNL     1      -5.729 -22.201  -4.925  1.00  0.00     0.179 C 
ATOM     14  C   UNL     1      -5.230 -23.010  -6.141  1.00  0.00     0.202 C 
BRANCH  11  15
ATOM     15  O   UNL     1      -6.955 -20.195  -4.287  1.00  0.00    -0.388 OA
ATOM     16  H   UNL     1      -7.568 -20.669  -3.664  1.00  0.00     0.211 HD
ENDBRANCH  11  15
BRANCH  13  17
ATOM     17  O   UNL     1      -4.659 -21.749  -4.132  1.00  0.00    -0.387 OA
ATOM     18  H   UNL     1      -5.027 -21.237  -3.363  1.00  0.00     0.211 HD
ENDBRANCH  13  17
BRANCH  14  19
ATOM     19  O   UNL     1      -6.279 -23.817  -6.621  1.00  0.00    -0.385 OA
ATOM     20  H   UNL     1      -5.958 -24.266  -7.449  1.00  0.00     0.211 HD
ENDBRANCH  14  19
ENDBRANCH   7   8
ENDBRANCH   1   7
BRANCH   2  21
ATOM     21  O   UNL     1      -3.530 -19.062  -8.359  1.00  0.00    -0.387 OA
ATOM     22  H   UNL     1      -3.239 -18.287  -8.915  1.00  0.00     0.211 HD
ENDBRANCH   2  21
BRANCH   6  23
ATOM     23  O   UNL     1      -0.853 -21.832  -6.523  1.00  0.00    -0.462 OA
BRANCH  23  24
ATOM     24  C   UNL     1      -0.014 -21.576  -5.425  1.00  0.00     0.130 A 
ATOM     25  C   UNL     1      -0.484 -20.732  -4.412  1.00  0.00     0.093 A 
ATOM     26  C   UNL     1       1.279 -22.110  -5.330  1.00  0.00     0.094 A 
ATOM     27  C   UNL     1       0.339 -20.352  -3.345  1.00  0.00     0.133 A 
ATOM     28  C   UNL     1       2.125 -21.714  -4.296  1.00  0.00     0.138 A 
ATOM     29  C   UNL     1       1.677 -20.816  -3.299  1.00  0.00     0.102 A 
ATOM     30  O   UNL     1       3.433 -22.216  -4.266  1.00  0.00    -0.484 OA
ATOM     31  C   UNL     1       2.672 -20.406  -2.279  1.00  0.00     0.174 C 
ATOM     32  C   UNL     1       4.455 -21.637  -3.451  1.00  0.00     0.211 C 
ATOM     33  O   UNL     1       2.569 -19.319  -1.649  1.00  0.00    -0.294 OA
ATOM     34  C   UNL     1       3.888 -21.262  -2.078  1.00  0.00     0.131 C 
BRANCH  27  35
ATOM     35  O   UNL     1      -0.217 -19.532  -2.359  1.00  0.00    -0.507 OA
ATOM     36  H   UNL     1      -0.666 -19.877  -1.523  1.00  0.00     0.293 HD
ENDBRANCH  27  35
BRANCH  32  37
ATOM     37  C   UNL     1       5.628 -22.578  -3.310  1.00  0.00    -0.007 A 
ATOM     38  C   UNL     1       5.995 -23.398  -4.394  1.00  0.00     0.011 A 
ATOM     39  C   UNL     1       6.403 -22.603  -2.135  1.00  0.00     0.011 A 
ATOM     40  C   UNL     1       7.101 -24.248  -4.291  1.00  0.00     0.046 A 
ATOM     41  C   UNL     1       7.508 -23.459  -2.034  1.00  0.00     0.046 A 
ATOM     42  C   UNL     1       7.858 -24.282  -3.110  1.00  0.00     0.115 A 
BRANCH  42  43
ATOM     43  O   UNL     1       8.961 -25.125  -2.992  1.00  0.00    -0.508 OA
ATOM     44  H   UNL     1       9.118 -25.690  -2.161  1.00  0.00     0.293 HD
ENDBRANCH  42  43
ENDBRANCH  32  37
ENDBRANCH  23  24
ENDBRANCH   6  23
BRANCH   3  45
ATOM     45  O   UNL     1      -1.879 -21.002 -10.931  1.00  0.00    -0.387 OA
ATOM     46  H   UNL     1      -2.622 -20.969 -11.590  1.00  0.00     0.211 HD
ENDBRANCH   3  45
BRANCH   4  47
ATOM     47  C   UNL     1       0.409 -19.333 -10.323  1.00  0.00     0.191 C 
BRANCH  47  48
ATOM     48  O   UNL     1       1.031 -20.530 -10.707  1.00  0.00    -0.394 OA
ATOM     49  H   UNL     1       1.790 -20.288 -11.299  1.00  0.00     0.210 HD
ENDBRANCH  47  48
ENDBRANCH   4  47
TORSDOF 14
ENDMDL
MODEL 2
REMARK VINA RESULT:    -7.525      1.998      2.595
REMARK INTER + INTRA:         -13.619
REMARK INTER:                 -12.893
REMARK INTRA:                  -0.726
REMARK UNBOUND:                -1.694
REMARK SMILES C[C@@H]1O[C@@H](O[C@@H]2[C@@H](Oc3cc(O)c4c(c3)O[C@H](c3ccc(O)cc3)CC4=O)O[C@@H](CO)[C@@H](O)[C@@H]2O)[C@H](O)[C@@H](O)[C@H]1O
REMARK SMILES IDX 6 1 34 2 32 3 29 4 28 5 7 6 5 7 4 8 1 9 2 10 40 11 3 12
REMARK SMILES IDX 38 13 36 14 41 15 39 17 37 19 35 21 8 23 9 24 10 25 15 26
REMARK SMILES IDX 11 27 14 28 13 29 16 30 26 31 17 32 27 33 25 34 12 35 18 37
REMARK SMILES IDX 19 38 24 39 20 40 23 41 21 42 22 43 33 45 30 47 31 48
REMARK H PARENT 41 16 39 18 37 20 35 22 12 36 22 44 33 46 31 49
REMARK Flexibility Score: inf
ROOT
ATOM      1  C   UNL     1      -2.803 -19.800  -8.180  1.00  0.00     0.221 C 
ATOM      2  C   UNL     1      -2.560 -18.380  -8.742  1.00  0.00     0.181 C 
ATOM      3  C   UNL     1      -1.490 -18.417  -9.849  1.00  0.00     0.177 C 
ATOM      4  C   UNL     1      -0.247 -19.207  -9.370  1.00  0.00     0.179 C 
ATOM      5  O   UNL     1      -0.614 -20.513  -8.953  1.00  0.00    -0.332 OA
ATOM      6  C   UNL     1      -1.458 -20.443  -7.818  1.00  0.00     0.339 C 
ENDROOT
BRANCH   1   7
ATOM      7  O   UNL     1      -3.579 -19.730  -6.991  1.00  0.00    -0.337 OA
BRANCH   7   8
ATOM      8  C   UNL     1      -4.731 -20.565  -7.039  1.00  0.00     0.282 C 
ATOM      9  C   UNL     1      -6.019 -19.486 -10.312  1.00  0.00     0.041 C 
ATOM     10  C   UNL     1      -5.600 -19.338  -8.848  1.00  0.00     0.150 C 
ATOM     11  C   UNL     1      -6.761 -18.737  -8.007  1.00  0.00     0.174 C 
ATOM     12  O   UNL     1      -5.237 -20.623  -8.365  1.00  0.00    -0.344 OA
ATOM     13  C   UNL     1      -6.421 -18.723  -6.498  1.00  0.00     0.179 C 
ATOM     14  C   UNL     1      -5.811 -20.068  -6.053  1.00  0.00     0.202 C 
BRANCH  11  15
ATOM     15  O   UNL     1      -7.120 -17.451  -8.456  1.00  0.00    -0.388 OA
ATOM     16  H   UNL     1      -7.851 -17.547  -9.123  1.00  0.00     0.211 HD
ENDBRANCH  11  15
BRANCH  13  17
ATOM     17  O   UNL     1      -5.601 -17.639  -6.139  1.00  0.00    -0.387 OA
ATOM     18  H   UNL     1      -6.178 -16.852  -5.948  1.00  0.00     0.211 HD
ENDBRANCH  13  17
BRANCH  14  19
ATOM     19  O   UNL     1      -6.828 -21.041  -5.995  1.00  0.00    -0.385 OA
ATOM     20  H   UNL     1      -7.305 -20.925  -5.129  1.00  0.00     0.211 HD
ENDBRANCH  14  19
ENDBRANCH   7   8
ENDBRANCH   1   7
BRANCH   2  21
ATOM     21  O   UNL     1      -2.125 -17.533  -7.702  1.00  0.00    -0.387 OA
ATOM     22  H   UNL     1      -1.131 -17.484  -7.751  1.00  0.00     0.211 HD
ENDBRANCH   2  21
BRANCH   6  23
ATOM     23  O   UNL     1      -1.690 -21.761  -7.320  1.00  0.00    -0.462 OA
BRANCH  23  24
ATOM     24  C   UNL     1      -1.058 -22.318  -6.196  1.00  0.00     0.130 A 
ATOM     25  C   UNL     1      -1.853 -22.711  -5.113  1.00  0.00     0.093 A 
ATOM     26  C   UNL     1       0.335 -22.463  -6.113  1.00  0.00     0.094 A 
ATOM     27  C   UNL     1      -1.281 -23.175  -3.922  1.00  0.00     0.133 A 
ATOM     28  C   UNL     1       0.925 -22.886  -4.924  1.00  0.00     0.138 A 
ATOM     29  C   UNL     1       0.131 -23.230  -3.805  1.00  0.00     0.102 A 
ATOM     30  O   UNL     1       2.322 -22.957  -4.854  1.00  0.00    -0.484 OA
ATOM     31  C   UNL     1       0.854 -23.607  -2.567  1.00  0.00     0.174 C 
ATOM     32  C   UNL     1       3.020 -23.068  -3.611  1.00  0.00     0.211 C 
ATOM     33  O   UNL     1       0.331 -23.487  -1.428  1.00  0.00    -0.294 OA
ATOM     34  C   UNL     1       2.288 -24.038  -2.677  1.00  0.00     0.131 C 
BRANCH  27  35
ATOM     35  O   UNL     1      -2.147 -23.577  -2.902  1.00  0.00    -0.507 OA
ATOM     36  H   UNL     1      -3.092 -23.239  -2.795  1.00  0.00     0.293 HD
ENDBRANCH  27  35
BRANCH  32  37
ATOM     37  C   UNL     1       4.447 -23.509  -3.833  1.00  0.00    -0.007 A 
ATOM     38  C   UNL     1       5.055 -24.385  -2.913  1.00  0.00     0.011 A 
ATOM     39  C   UNL     1       5.160 -23.114  -4.981  1.00  0.00     0.011 A 
ATOM     40  C   UNL     1       6.363 -24.832  -3.124  1.00  0.00     0.046 A 
ATOM     41  C   UNL     1       6.473 -23.561  -5.187  1.00  0.00     0.046 A 
ATOM     42  C   UNL     1       7.076 -24.419  -4.260  1.00  0.00     0.115 A 
BRANCH  42  43
ATOM     43  O   UNL     1       8.380 -24.855  -4.484  1.00  0.00    -0.508 OA
ATOM     44  H   UNL     1       8.986 -24.406  -5.166  1.00  0.00     0.293 HD
ENDBRANCH  42  43
ENDBRANCH  32  37
ENDBRANCH  23  24
ENDBRANCH   6  23
BRANCH   3  45
ATOM     45  O   UNL     1      -2.035 -19.021 -11.001  1.00  0.00    -0.387 OA
ATOM     46  H   UNL     1      -2.539 -18.319 -11.491  1.00  0.00     0.211 HD
ENDBRANCH   3  45
BRANCH   4  47
ATOM     47  C   UNL     1       0.802 -19.302 -10.487  1.00  0.00     0.191 C 
BRANCH  47  48
ATOM     48  O   UNL     1       1.275 -20.616 -10.614  1.00  0.00    -0.394 OA
ATOM     49  H   UNL     1       1.914 -20.770  -9.869  1.00  0.00     0.210 HD
ENDBRANCH  47  48
ENDBRANCH   4  47
TORSDOF 14
ENDMDL
MODEL 3
REMARK VINA RESULT:    -7.216      1.868      2.592
REMARK INTER + INTRA:         -13.130
REMARK INTER:                 -11.394
REMARK INTRA:                  -1.735
REMARK UNBOUND:                -1.694
REMARK SMILES C[C@@H]1O[C@@H](O[C@@H]2[C@@H](Oc3cc(O)c4c(c3)O[C@H](c3ccc(O)cc3)CC4=O)O[C@@H](CO)[C@@H](O)[C@@H]2O)[C@H](O)[C@@H](O)[C@H]1O
REMARK SMILES IDX 6 1 34 2 32 3 29 4 28 5 7 6 5 7 4 8 1 9 2 10 40 11 3 12
REMARK SMILES IDX 38 13 36 14 41 15 39 17 37 19 35 21 8 23 9 24 10 25 15 26
REMARK SMILES IDX 11 27 14 28 13 29 16 30 26 31 17 32 27 33 25 34 12 35 18 37
REMARK SMILES IDX 19 38 24 39 20 40 23 41 21 42 22 43 33 45 30 47 31 48
REMARK H PARENT 41 16 39 18 37 20 35 22 12 36 22 44 33 46 31 49
REMARK Flexibility Score: inf
ROOT
ATOM      1  C   UNL     1      -2.529 -19.579  -8.610  1.00  0.00     0.221 C 
ATOM      2  C   UNL     1      -2.233 -18.152  -9.127  1.00  0.00     0.181 C 
ATOM      3  C   UNL     1      -1.093 -18.181 -10.162  1.00  0.00     0.177 C 
ATOM      4  C   UNL     1       0.107 -18.995  -9.619  1.00  0.00     0.179 C 
ATOM      5  O   UNL     1      -0.301 -20.305  -9.253  1.00  0.00    -0.332 OA
ATOM      6  C   UNL     1      -1.217 -20.245  -8.174  1.00  0.00     0.339 C 
ENDROOT
BRANCH   1   7
ATOM      7  O   UNL     1      -3.380 -19.523  -7.474  1.00  0.00    -0.337 OA
BRANCH   7   8
ATOM      8  C   UNL     1      -4.741 -19.294  -7.818  1.00  0.00     0.282 C 
ATOM      9  C   UNL     1      -6.293 -20.848  -4.867  1.00  0.00     0.041 C 
ATOM     10  C   UNL     1      -5.461 -20.787  -6.150  1.00  0.00     0.150 C 
ATOM     11  C   UNL     1      -5.965 -21.841  -7.175  1.00  0.00     0.174 C 
ATOM     12  O   UNL     1      -5.570 -19.473  -6.679  1.00  0.00    -0.344 OA
ATOM     13  C   UNL     1      -5.247 -21.696  -8.538  1.00  0.00     0.179 C 
ATOM     14  C   UNL     1      -5.179 -20.217  -8.976  1.00  0.00     0.202 C 
BRANCH  11  15
ATOM     15  O   UNL     1      -5.843 -23.153  -6.678  1.00  0.00    -0.388 OA
ATOM     16  H   UNL     1      -5.697 -23.765  -7.448  1.00  0.00     0.211 HD
ENDBRANCH  11  15
BRANCH  13  17
ATOM     17  O   UNL     1      -3.975 -22.295  -8.545  1.00  0.00    -0.387 OA
ATOM     18  H   UNL     1      -3.802 -22.686  -7.648  1.00  0.00     0.211 HD
ENDBRANCH  13  17
BRANCH  14  19
ATOM     19  O   UNL     1      -6.455 -19.803  -9.405  1.00  0.00    -0.385 OA
ATOM     20  H   UNL     1      -6.382 -18.853  -9.691  1.00  0.00     0.211 HD
ENDBRANCH  14  19
ENDBRANCH   7   8
ENDBRANCH   1   7
BRANCH   2  21
ATOM     21  O   UNL     1      -1.858 -17.330  -8.044  1.00  0.00    -0.387 OA
ATOM     22  H   UNL     1      -0.863 -17.267  -8.046  1.00  0.00     0.211 HD
ENDBRANCH   2  21
BRANCH   6  23
ATOM     23  O   UNL     1      -1.495 -21.570  -7.718  1.00  0.00    -0.462 OA
BRANCH  23  24
ATOM     24  C   UNL     1      -1.035 -22.118  -6.509  1.00  0.00     0.130 A 
ATOM     25  C   UNL     1      -1.980 -22.508  -5.553  1.00  0.00     0.093 A 
ATOM     26  C   UNL     1       0.331 -22.256  -6.221  1.00  0.00     0.094 A 
ATOM     27  C   UNL     1      -1.587 -22.962  -4.288  1.00  0.00     0.133 A 
ATOM     28  C   UNL     1       0.741 -22.670  -4.955  1.00  0.00     0.138 A 
ATOM     29  C   UNL     1      -0.209 -23.011  -3.964  1.00  0.00     0.102 A 
ATOM     30  O   UNL     1       2.113 -22.736  -4.679  1.00  0.00    -0.484 OA
ATOM     31  C   UNL     1       0.326 -23.378  -2.630  1.00  0.00     0.174 C 
ATOM     32  C   UNL     1       2.620 -22.835  -3.346  1.00  0.00     0.211 C 
ATOM     33  O   UNL     1      -0.361 -23.253  -1.581  1.00  0.00    -0.294 OA
ATOM     34  C   UNL     1       1.761 -23.803  -2.525  1.00  0.00     0.131 C 
BRANCH  27  35
ATOM     35  O   UNL     1      -2.593 -23.362  -3.404  1.00  0.00    -0.507 OA
ATOM     36  H   UNL     1      -2.583 -24.231  -2.891  1.00  0.00     0.293 HD
ENDBRANCH  27  35
BRANCH  32  37
ATOM     37  C   UNL     1       4.066 -23.273  -3.353  1.00  0.00    -0.007 A 
ATOM     38  C   UNL     1       4.807 -23.203  -4.547  1.00  0.00     0.011 A 
ATOM     39  C   UNL     1       4.706 -23.686  -2.168  1.00  0.00     0.011 A 
ATOM     40  C   UNL     1       6.157 -23.570  -4.560  1.00  0.00     0.046 A 
ATOM     41  C   UNL     1       6.057 -24.057  -2.187  1.00  0.00     0.046 A 
ATOM     42  C   UNL     1       6.784 -24.000  -3.381  1.00  0.00     0.115 A 
BRANCH  42  43
ATOM     43  O   UNL     1       8.127 -24.369  -3.379  1.00  0.00    -0.508 OA
ATOM     44  H   UNL     1       8.565 -24.795  -2.566  1.00  0.00     0.293 HD
ENDBRANCH  42  43
ENDBRANCH  32  37
ENDBRANCH  23  24
ENDBRANCH   6  23
BRANCH   3  45
ATOM     45  O   UNL     1      -1.568 -18.756 -11.359  1.00  0.00    -0.387 OA
ATOM     46  H   UNL     1      -0.889 -19.416 -11.658  1.00  0.00     0.211 HD
ENDBRANCH   3  45
BRANCH   4  47
ATOM     47  C   UNL     1       1.225 -19.082 -10.666  1.00  0.00     0.191 C 
BRANCH  47  48
ATOM     48  O   UNL     1       1.450 -20.413 -11.044  1.00  0.00    -0.394 OA
ATOM     49  H   UNL     1       1.814 -20.398 -11.968  1.00  0.00     0.210 HD
ENDBRANCH  47  48
ENDBRANCH   4  47
TORSDOF 14
ENDMDL
MODEL 4
REMARK VINA RESULT:    -7.098      2.928      5.755
REMARK INTER + INTRA:         -12.942
REMARK INTER:                 -11.508
REMARK INTRA:                  -1.433
REMARK UNBOUND:                -1.694
REMARK SMILES C[C@@H]1O[C@@H](O[C@@H]2[C@@H](Oc3cc(O)c4c(c3)O[C@H](c3ccc(O)cc3)CC4=O)O[C@@H](CO)[C@@H](O)[C@@H]2O)[C@H](O)[C@@H](O)[C@H]1O
REMARK SMILES IDX 6 1 34 2 32 3 29 4 28 5 7 6 5 7 4 8 1 9 2 10 40 11 3 12
REMARK SMILES IDX 38 13 36 14 41 15 39 17 37 19 35 21 8 23 9 24 10 25 15 26
REMARK SMILES IDX 11 27 14 28 13 29 16 30 26 31 17 32 27 33 25 34 12 35 18 37
REMARK SMILES IDX 19 38 24 39 20 40 23 41 21 42 22 43 33 45 30 47 31 48
REMARK H PARENT 41 16 39 18 37 20 35 22 12 36 22 44 33 46 31 49
REMARK Flexibility Score: inf
ROOT
ATOM      1  C   UNL     1      -1.789 -21.749  -5.023  1.00  0.00     0.221 C 
ATOM      2  C   UNL     1      -3.124 -22.108  -4.331  1.00  0.00     0.181 C 
ATOM      3  C   UNL     1      -2.881 -22.500  -2.862  1.00  0.00     0.177 C 
ATOM      4  C   UNL     1      -1.737 -23.540  -2.766  1.00  0.00     0.179 C 
ATOM      5  O   UNL     1      -0.556 -23.044  -3.377  1.00  0.00    -0.332 OA
ATOM      6  C   UNL     1      -0.767 -22.864  -4.767  1.00  0.00     0.339 C 
ENDROOT
BRANCH   1   7
ATOM      7  O   UNL     1      -1.974 -21.650  -6.428  1.00  0.00    -0.337 OA
BRANCH   7   8
ATOM      8  C   UNL     1      -2.465 -20.377  -6.828  1.00  0.00     0.282 C 
ATOM      9  C   UNL     1      -4.670 -21.505  -9.549  1.00  0.00     0.041 C 
ATOM     10  C   UNL     1      -3.349 -21.292  -8.807  1.00  0.00     0.150 C 
ATOM     11  C   UNL     1      -2.326 -20.558  -9.718  1.00  0.00     0.174 C 
ATOM     12  O   UNL     1      -3.622 -20.533  -7.638  1.00  0.00    -0.344 OA
ATOM     13  C   UNL     1      -1.039 -20.190  -8.943  1.00  0.00     0.179 C 
ATOM     14  C   UNL     1      -1.374 -19.573  -7.568  1.00  0.00     0.202 C 
BRANCH  11  15
ATOM     15  O   UNL     1      -2.023 -21.306 -10.872  1.00  0.00    -0.388 OA
ATOM     16  H   UNL     1      -1.363 -22.007 -10.625  1.00  0.00     0.211 HD
ENDBRANCH  11  15
BRANCH  13  17
ATOM     17  O   UNL     1      -0.152 -21.274  -8.820  1.00  0.00    -0.387 OA
ATOM     18  H   UNL     1       0.012 -21.443  -7.854  1.00  0.00     0.211 HD
ENDBRANCH  13  17
BRANCH  14  19
ATOM     19  O   UNL     1      -1.849 -18.261  -7.753  1.00  0.00    -0.385 OA
ATOM     20  H   UNL     1      -1.321 -17.851  -8.490  1.00  0.00     0.211 HD
ENDBRANCH  14  19
ENDBRANCH   7   8
ENDBRANCH   1   7
BRANCH   2  21
ATOM     21  O   UNL     1      -3.726 -23.188  -5.009  1.00  0.00    -0.387 OA
ATOM     22  H   UNL     1      -3.059 -23.544  -5.658  1.00  0.00     0.211 HD
ENDBRANCH   2  21
BRANCH   6  23
ATOM     23  O   UNL     1       0.470 -22.515  -5.390  1.00  0.00    -0.462 OA
BRANCH  23  24
ATOM     24  C   UNL     1       1.718 -22.494  -4.743  1.00  0.00     0.130 A 
ATOM     25  C   UNL     1       2.367 -23.712  -4.510  1.00  0.00     0.093 A 
ATOM     26  C   UNL     1       2.313 -21.303  -4.302  1.00  0.00     0.094 A 
ATOM     27  C   UNL     1       3.560 -23.771  -3.779  1.00  0.00     0.133 A 
ATOM     28  C   UNL     1       3.479 -21.344  -3.541  1.00  0.00     0.138 A 
ATOM     29  C   UNL     1       4.111 -22.576  -3.251  1.00  0.00     0.102 A 
ATOM     30  O   UNL     1       4.012 -20.141  -3.060  1.00  0.00    -0.484 OA
ATOM     31  C   UNL     1       5.310 -22.521  -2.381  1.00  0.00     0.174 C 
ATOM     32  C   UNL     1       5.000 -20.102  -2.026  1.00  0.00     0.211 C 
ATOM     33  O   UNL     1       5.677 -23.508  -1.691  1.00  0.00    -0.294 OA
ATOM     34  C   UNL     1       6.033 -21.214  -2.240  1.00  0.00     0.131 C 
BRANCH  27  35
ATOM     35  O   UNL     1       4.159 -25.023  -3.619  1.00  0.00    -0.507 OA
ATOM     36  H   UNL     1       5.113 -25.231  -3.876  1.00  0.00     0.293 HD
ENDBRANCH  27  35
BRANCH  32  37
ATOM     37  C   UNL     1       5.668 -18.749  -1.973  1.00  0.00    -0.007 A 
ATOM     38  C   UNL     1       6.643 -18.417  -2.932  1.00  0.00     0.011 A 
ATOM     39  C   UNL     1       5.286 -17.786  -1.019  1.00  0.00     0.011 A 
ATOM     40  C   UNL     1       7.245 -17.155  -2.918  1.00  0.00     0.046 A 
ATOM     41  C   UNL     1       5.894 -16.524  -1.005  1.00  0.00     0.046 A 
ATOM     42  C   UNL     1       6.874 -16.206  -1.953  1.00  0.00     0.115 A 
BRANCH  42  43
ATOM     43  O   UNL     1       7.465 -14.945  -1.926  1.00  0.00    -0.508 OA
ATOM     44  H   UNL     1       6.910 -14.093  -1.937  1.00  0.00     0.293 HD
ENDBRANCH  42  43
ENDBRANCH  32  37
ENDBRANCH  23  24
ENDBRANCH   6  23
BRANCH   3  45
ATOM     45  O   UNL     1      -2.552 -21.346  -2.122  1.00  0.00    -0.387 OA
ATOM     46  H   UNL     1      -1.678 -21.018  -2.461  1.00  0.00     0.211 HD
ENDBRANCH   3  45
BRANCH   4  47
ATOM     47  C   UNL     1      -1.444 -23.894  -1.301  1.00  0.00     0.191 C 
BRANCH  47  48
ATOM     48  O   UNL     1      -0.780 -25.125  -1.210  1.00  0.00    -0.394 OA
ATOM     49  H   UNL     1      -1.364 -25.734  -0.687  1.00  0.00     0.210 HD
ENDBRANCH  47  48
ENDBRANCH   4  47
TORSDOF 14
ENDMDL
MODEL 5
REMARK VINA RESULT:    -7.036      9.156     13.501
REMARK INTER + INTRA:         -12.843
REMARK INTER:                 -11.590
REMARK INTRA:                  -1.254
REMARK UNBOUND:                -1.694
REMARK SMILES C[C@@H]1O[C@@H](O[C@@H]2[C@@H](Oc3cc(O)c4c(c3)O[C@H](c3ccc(O)cc3)CC4=O)O[C@@H](CO)[C@@H](O)[C@@H]2O)[C@H](O)[C@@H](O)[C@H]1O
REMARK SMILES IDX 6 1 34 2 32 3 29 4 28 5 7 6 5 7 4 8 1 9 2 10 40 11 3 12
REMARK SMILES IDX 38 13 36 14 41 15 39 17 37 19 35 21 8 23 9 24 10 25 15 26
REMARK SMILES IDX 11 27 14 28 13 29 16 30 26 31 17 32 27 33 25 34 12 35 18 37
REMARK SMILES IDX 19 38 24 39 20 40 23 41 21 42 22 43 33 45 30 47 31 48
REMARK H PARENT 41 16 39 18 37 20 35 22 12 36 22 44 33 46 31 49
REMARK Flexibility Score: inf
ROOT
ATOM      1  C   UNL     1      11.069 -13.067  -7.040  1.00  0.00     0.221 C 
ATOM      2  C   UNL     1      11.136 -11.526  -7.151  1.00  0.00     0.181 C 
ATOM      3  C   UNL     1      10.671 -10.871  -5.837  1.00  0.00     0.177 C 
ATOM      4  C   UNL     1       9.327 -11.486  -5.376  1.00  0.00     0.179 C 
ATOM      5  O   UNL     1       9.438 -12.895  -5.248  1.00  0.00    -0.332 OA
ATOM      6  C   UNL     1       9.689 -13.480  -6.513  1.00  0.00     0.339 C 
ENDROOT
BRANCH   1   7
ATOM      7  O   UNL     1      11.235 -13.659  -8.321  1.00  0.00    -0.337 OA
BRANCH   7   8
ATOM      8  C   UNL     1      12.362 -14.525  -8.383  1.00  0.00     0.282 C 
ATOM      9  C   UNL     1      12.846 -14.485 -12.029  1.00  0.00     0.041 C 
ATOM     10  C   UNL     1      12.116 -14.750 -10.711  1.00  0.00     0.150 C 
ATOM     11  C   UNL     1      11.683 -16.240 -10.619  1.00  0.00     0.174 C 
ATOM     12  O   UNL     1      12.996 -14.411  -9.649  1.00  0.00    -0.344 OA
ATOM     13  C   UNL     1      11.084 -16.572  -9.232  1.00  0.00     0.179 C 
ATOM     14  C   UNL     1      11.951 -15.986  -8.097  1.00  0.00     0.202 C 
BRANCH  11  15
ATOM     15  O   UNL     1      10.791 -16.589 -11.651  1.00  0.00    -0.388 OA
ATOM     16  H   UNL     1      10.657 -15.793 -12.230  1.00  0.00     0.211 HD
ENDBRANCH  11  15
BRANCH  13  17
ATOM     17  O   UNL     1       9.741 -16.174  -9.114  1.00  0.00    -0.387 OA
ATOM     18  H   UNL     1       9.184 -16.757  -9.696  1.00  0.00     0.211 HD
ENDBRANCH  13  17
BRANCH  14  19
ATOM     19  O   UNL     1      13.125 -16.752  -7.969  1.00  0.00    -0.385 OA
ATOM     20  H   UNL     1      13.731 -16.271  -7.344  1.00  0.00     0.211 HD
ENDBRANCH  14  19
ENDBRANCH   7   8
ENDBRANCH   1   7
BRANCH   2  21
ATOM     21  O   UNL     1      10.303 -11.096  -8.205  1.00  0.00    -0.387 OA
ATOM     22  H   UNL     1      10.252 -11.838  -8.869  1.00  0.00     0.211 HD
ENDBRANCH   2  21
BRANCH   6  23
ATOM     23  O   UNL     1       9.642 -14.903  -6.392  1.00  0.00    -0.462 OA
BRANCH  23  24
ATOM     24  C   UNL     1       9.260 -15.599  -5.233  1.00  0.00     0.130 A 
ATOM     25  C   UNL     1       9.956 -15.345  -4.045  1.00  0.00     0.093 A 
ATOM     26  C   UNL     1       8.233 -16.554  -5.237  1.00  0.00     0.094 A 
ATOM     27  C   UNL     1       9.697 -16.079  -2.882  1.00  0.00     0.133 A 
ATOM     28  C   UNL     1       7.986 -17.320  -4.100  1.00  0.00     0.138 A 
ATOM     29  C   UNL     1       8.724 -17.110  -2.912  1.00  0.00     0.102 A 
ATOM     30  O   UNL     1       6.997 -18.310  -4.157  1.00  0.00    -0.484 OA
ATOM     31  C   UNL     1       8.431 -18.018  -1.777  1.00  0.00     0.174 C 
ATOM     32  C   UNL     1       6.889 -19.341  -3.172  1.00  0.00     0.211 C 
ATOM     33  O   UNL     1       9.279 -18.250  -0.875  1.00  0.00    -0.294 OA
ATOM     34  C   UNL     1       7.128 -18.762  -1.772  1.00  0.00     0.131 C 
BRANCH  27  35
ATOM     35  O   UNL     1      10.414 -15.741  -1.731  1.00  0.00    -0.507 OA
ATOM     36  H   UNL     1      11.371 -15.420  -1.734  1.00  0.00     0.293 HD
ENDBRANCH  27  35
BRANCH  32  37
ATOM     37  C   UNL     1       5.543 -20.022  -3.250  1.00  0.00    -0.007 A 
ATOM     38  C   UNL     1       5.346 -21.067  -4.171  1.00  0.00     0.011 A 
ATOM     39  C   UNL     1       4.501 -19.674  -2.369  1.00  0.00     0.011 A 
ATOM     40  C   UNL     1       4.117 -21.731  -4.230  1.00  0.00     0.046 A 
ATOM     41  C   UNL     1       3.269 -20.338  -2.434  1.00  0.00     0.046 A 
ATOM     42  C   UNL     1       3.075 -21.368  -3.363  1.00  0.00     0.115 A 
BRANCH  42  43
ATOM     43  O   UNL     1       1.845 -22.019  -3.411  1.00  0.00    -0.508 OA
ATOM     44  H   UNL     1       1.308 -22.214  -2.569  1.00  0.00     0.293 HD
ENDBRANCH  42  43
ENDBRANCH  32  37
ENDBRANCH  23  24
ENDBRANCH   6  23
BRANCH   3  45
ATOM     45  O   UNL     1      11.658 -11.064  -4.848  1.00  0.00    -0.387 OA
ATOM     46  H   UNL     1      12.516 -10.723  -5.217  1.00  0.00     0.211 HD
ENDBRANCH   3  45
BRANCH   4  47
ATOM     47  C   UNL     1       8.885 -10.884  -4.035  1.00  0.00     0.191 C 
BRANCH  47  48
ATOM     48  O   UNL     1       9.407  -9.593  -3.872  1.00  0.00    -0.394 OA
ATOM     49  H   UNL     1      10.131  -9.484  -4.542  1.00  0.00     0.210 HD
ENDBRANCH  47  48
ENDBRANCH   4  47
TORSDOF 14
ENDMDL
MODEL 6
REMARK VINA RESULT:    -6.946      1.797      4.977
REMARK INTER + INTRA:         -12.701
REMARK INTER:                 -11.705
REMARK INTRA:                  -0.996
REMARK UNBOUND:                -1.694
REMARK SMILES C[C@@H]1O[C@@H](O[C@@H]2[C@@H](Oc3cc(O)c4c(c3)O[C@H](c3ccc(O)cc3)CC4=O)O[C@@H](CO)[C@@H](O)[C@@H]2O)[C@H](O)[C@@H](O)[C@H]1O
REMARK SMILES IDX 6 1 34 2 32 3 29 4 28 5 7 6 5 7 4 8 1 9 2 10 40 11 3 12
REMARK SMILES IDX 38 13 36 14 41 15 39 17 37 19 35 21 8 23 9 24 10 25 15 26
REMARK SMILES IDX 11 27 14 28 13 29 16 30 26 31 17 32 27 33 25 34 12 35 18 37
REMARK SMILES IDX 19 38 24 39 20 40 23 41 21 42 22 43 33 45 30 47 31 48
REMARK H PARENT 41 16 39 18 37 20 35 22 12 36 22 44 33 46 31 49
REMARK Flexibility Score: inf
ROOT
ATOM      1  C   UNL     1      -3.961 -20.476  -7.329  1.00  0.00     0.221 C 
ATOM      2  C   UNL     1      -5.398 -19.952  -7.554  1.00  0.00     0.181 C 
ATOM      3  C   UNL     1      -6.382 -20.654  -6.600  1.00  0.00     0.177 C 
ATOM      4  C   UNL     1      -6.177 -22.188  -6.651  1.00  0.00     0.179 C 
ATOM      5  O   UNL     1      -4.830 -22.524  -6.353  1.00  0.00    -0.332 OA
ATOM      6  C   UNL     1      -3.968 -22.010  -7.353  1.00  0.00     0.339 C 
ENDROOT
BRANCH   1   7
ATOM      7  O   UNL     1      -3.107 -20.035  -8.375  1.00  0.00    -0.337 OA
BRANCH   7   8
ATOM      8  C   UNL     1      -2.181 -19.044  -7.947  1.00  0.00     0.282 C 
ATOM      9  C   UNL     1      -1.141 -17.839 -11.264  1.00  0.00     0.041 C 
ATOM     10  C   UNL     1      -1.317 -18.847 -10.127  1.00  0.00     0.150 C 
ATOM     11  C   UNL     1       0.048 -19.484  -9.747  1.00  0.00     0.174 C 
ATOM     12  O   UNL     1      -1.881 -18.160  -9.018  1.00  0.00    -0.344 OA
ATOM     13  C   UNL     1      -0.075 -20.388  -8.498  1.00  0.00     0.179 C 
ATOM     14  C   UNL     1      -0.896 -19.696  -7.389  1.00  0.00     0.202 C 
BRANCH  11  15
ATOM     15  O   UNL     1       0.613 -20.190 -10.826  1.00  0.00    -0.388 OA
ATOM     16  H   UNL     1       0.741 -21.136 -10.548  1.00  0.00     0.211 HD
ENDBRANCH  11  15
BRANCH  13  17
ATOM     17  O   UNL     1      -0.586 -21.662  -8.800  1.00  0.00    -0.387 OA
ATOM     18  H   UNL     1      -0.648 -21.754  -9.788  1.00  0.00     0.211 HD
ENDBRANCH  13  17
BRANCH  14  19
ATOM     19  O   UNL     1      -0.116 -18.684  -6.798  1.00  0.00    -0.385 OA
ATOM     20  H   UNL     1       0.472 -19.115  -6.121  1.00  0.00     0.211 HD
ENDBRANCH  14  19
ENDBRANCH   7   8
ENDBRANCH   1   7
BRANCH   2  21
ATOM     21  O   UNL     1      -5.783 -20.201  -8.888  1.00  0.00    -0.387 OA
ATOM     22  H   UNL     1      -6.387 -19.459  -9.169  1.00  0.00     0.211 HD
ENDBRANCH   2  21
BRANCH   6  23
ATOM     23  O   UNL     1      -2.642 -22.488  -7.123  1.00  0.00    -0.462 OA
BRANCH  23  24
ATOM     24  C   UNL     1      -2.044 -22.620  -5.859  1.00  0.00     0.130 A 
ATOM     25  C   UNL     1      -2.868 -22.604  -4.727  1.00  0.00     0.093 A 
ATOM     26  C   UNL     1      -0.655 -22.736  -5.695  1.00  0.00     0.094 A 
ATOM     27  C   UNL     1      -2.329 -22.626  -3.436  1.00  0.00     0.133 A 
ATOM     28  C   UNL     1      -0.098 -22.721  -4.418  1.00  0.00     0.138 A 
ATOM     29  C   UNL     1      -0.921 -22.646  -3.270  1.00  0.00     0.102 A 
ATOM     30  O   UNL     1       1.296 -22.772  -4.291  1.00  0.00    -0.484 OA
ATOM     31  C   UNL     1      -0.231 -22.571  -1.961  1.00  0.00     0.174 C 
ATOM     32  C   UNL     1       1.966 -22.445  -3.071  1.00  0.00     0.211 C 
ATOM     33  O   UNL     1      -0.777 -22.056  -0.949  1.00  0.00    -0.294 OA
ATOM     34  C   UNL     1       1.198 -23.022  -1.876  1.00  0.00     0.131 C 
BRANCH  27  35
ATOM     35  O   UNL     1      -3.223 -22.639  -2.361  1.00  0.00    -0.507 OA
ATOM     36  H   UNL     1      -3.416 -23.453  -1.796  1.00  0.00     0.293 HD
ENDBRANCH  27  35
BRANCH  32  37
ATOM     37  C   UNL     1       3.390 -22.946  -3.088  1.00  0.00    -0.007 A 
ATOM     38  C   UNL     1       4.080 -23.038  -4.311  1.00  0.00     0.011 A 
ATOM     39  C   UNL     1       4.065 -23.259  -1.892  1.00  0.00     0.011 A 
ATOM     40  C   UNL     1       5.411 -23.466  -4.339  1.00  0.00     0.046 A 
ATOM     41  C   UNL     1       5.397 -23.691  -1.924  1.00  0.00     0.046 A 
ATOM     42  C   UNL     1       6.072 -23.795  -3.146  1.00  0.00     0.115 A 
BRANCH  42  43
ATOM     43  O   UNL     1       7.398 -24.223  -3.158  1.00  0.00    -0.508 OA
ATOM     44  H   UNL     1       7.658 -25.153  -3.478  1.00  0.00     0.293 HD
ENDBRANCH  42  43
ENDBRANCH  32  37
ENDBRANCH  23  24
ENDBRANCH   6  23
BRANCH   3  45
ATOM     45  O   UNL     1      -6.176 -20.179  -5.289  1.00  0.00    -0.387 OA
ATOM     46  H   UNL     1      -6.260 -19.190  -5.317  1.00  0.00     0.211 HD
ENDBRANCH   3  45
BRANCH   4  47
ATOM     47  C   UNL     1      -7.111 -22.896  -5.659  1.00  0.00     0.191 C 
BRANCH  47  48
ATOM     48  O   UNL     1      -7.030 -24.287  -5.805  1.00  0.00    -0.394 OA
ATOM     49  H   UNL     1      -6.077 -24.539  -5.682  1.00  0.00     0.210 HD
ENDBRANCH  47  48
ENDBRANCH   4  47
TORSDOF 14
ENDMDL
MODEL 7
REMARK VINA RESULT:    -6.929      2.073      4.788
REMARK INTER + INTRA:         -12.675
REMARK INTER:                 -11.216
REMARK INTRA:                  -1.459
REMARK UNBOUND:                -1.694
REMARK SMILES C[C@@H]1O[C@@H](O[C@@H]2[C@@H](Oc3cc(O)c4c(c3)O[C@H](c3ccc(O)cc3)CC4=O)O[C@@H](CO)[C@@H](O)[C@@H]2O)[C@H](O)[C@@H](O)[C@H]1O
REMARK SMILES IDX 6 1 34 2 32 3 29 4 28 5 7 6 5 7 4 8 1 9 2 10 40 11 3 12
REMARK SMILES IDX 38 13 36 14 41 15 39 17 37 19 35 21 8 23 9 24 10 25 15 26
REMARK SMILES IDX 11 27 14 28 13 29 16 30 26 31 17 32 27 33 25 34 12 35 18 37
REMARK SMILES IDX 19 38 24 39 20 40 23 41 21 42 22 43 33 45 30 47 31 48
REMARK H PARENT 41 16 39 18 37 20 35 22 12 36 22 44 33 46 31 49
REMARK Flexibility Score: inf
ROOT
ATOM      1  C   UNL     1      -1.819 -21.463  -4.950  1.00  0.00     0.221 C 
ATOM      2  C   UNL     1      -3.120 -22.149  -4.473  1.00  0.00     0.181 C 
ATOM      3  C   UNL     1      -3.013 -22.529  -2.984  1.00  0.00     0.177 C 
ATOM      4  C   UNL     1      -1.684 -23.277  -2.714  1.00  0.00     0.179 C 
ATOM      5  O   UNL     1      -0.576 -22.496  -3.136  1.00  0.00    -0.332 OA
ATOM      6  C   UNL     1      -0.612 -22.319  -4.541  1.00  0.00     0.339 C 
ENDROOT
BRANCH   1   7
ATOM      7  O   UNL     1      -1.810 -21.358  -6.366  1.00  0.00    -0.337 OA
BRANCH   7   8
ATOM      8  C   UNL     1      -2.404 -20.152  -6.831  1.00  0.00     0.282 C 
ATOM      9  C   UNL     1      -4.718 -21.625  -9.282  1.00  0.00     0.041 C 
ATOM     10  C   UNL     1      -3.365 -21.278  -8.659  1.00  0.00     0.150 C 
ATOM     11  C   UNL     1      -2.453 -20.568  -9.699  1.00  0.00     0.174 C 
ATOM     12  O   UNL     1      -3.602 -20.439  -7.538  1.00  0.00    -0.344 OA
ATOM     13  C   UNL     1      -1.140 -20.066  -9.053  1.00  0.00     0.179 C 
ATOM     14  C   UNL     1      -1.417 -19.355  -7.711  1.00  0.00     0.202 C 
BRANCH  11  15
ATOM     15  O   UNL     1      -2.186 -21.393 -10.808  1.00  0.00    -0.388 OA
ATOM     16  H   UNL     1      -3.047 -21.590 -11.265  1.00  0.00     0.211 HD
ENDBRANCH  11  15
BRANCH  13  17
ATOM     17  O   UNL     1      -0.183 -21.086  -8.909  1.00  0.00    -0.387 OA
ATOM     18  H   UNL     1       0.599 -20.872  -9.484  1.00  0.00     0.211 HD
ENDBRANCH  13  17
BRANCH  14  19
ATOM     19  O   UNL     1      -1.982 -18.091  -7.966  1.00  0.00    -0.385 OA
ATOM     20  H   UNL     1      -1.235 -17.443  -8.075  1.00  0.00     0.211 HD
ENDBRANCH  14  19
ENDBRANCH   7   8
ENDBRANCH   1   7
BRANCH   2  21
ATOM     21  O   UNL     1      -3.342 -23.314  -5.236  1.00  0.00    -0.387 OA
ATOM     22  H   UNL     1      -2.600 -23.385  -5.898  1.00  0.00     0.211 HD
ENDBRANCH   2  21
BRANCH   6  23
ATOM     23  O   UNL     1       0.586 -21.669  -4.965  1.00  0.00    -0.462 OA
BRANCH  23  24
ATOM     24  C   UNL     1       1.543 -21.105  -4.104  1.00  0.00     0.130 A 
ATOM     25  C   UNL     1       1.242 -19.888  -3.481  1.00  0.00     0.093 A 
ATOM     26  C   UNL     1       2.791 -21.703  -3.876  1.00  0.00     0.094 A 
ATOM     27  C   UNL     1       2.190 -19.221  -2.696  1.00  0.00     0.133 A 
ATOM     28  C   UNL     1       3.760 -21.037  -3.129  1.00  0.00     0.138 A 
ATOM     29  C   UNL     1       3.483 -19.779  -2.544  1.00  0.00     0.102 A 
ATOM     30  O   UNL     1       5.019 -21.632  -2.975  1.00  0.00    -0.484 OA
ATOM     31  C   UNL     1       4.600 -19.122  -1.822  1.00  0.00     0.174 C 
ATOM     32  C   UNL     1       6.158 -20.903  -2.510  1.00  0.00     0.211 C 
ATOM     33  O   UNL     1       4.647 -17.873  -1.666  1.00  0.00    -0.294 OA
ATOM     34  C   UNL     1       5.755 -19.965  -1.367  1.00  0.00     0.131 C 
BRANCH  27  35
ATOM     35  O   UNL     1       1.798 -18.028  -2.084  1.00  0.00    -0.507 OA
ATOM     36  H   UNL     1       2.276 -17.610  -1.299  1.00  0.00     0.293 HD
ENDBRANCH  27  35
BRANCH  32  37
ATOM     37  C   UNL     1       7.257 -21.842  -2.074  1.00  0.00    -0.007 A 
ATOM     38  C   UNL     1       7.223 -23.188  -2.482  1.00  0.00     0.011 A 
ATOM     39  C   UNL     1       8.352 -21.379  -1.319  1.00  0.00     0.011 A 
ATOM     40  C   UNL     1       8.252 -24.062  -2.116  1.00  0.00     0.046 A 
ATOM     41  C   UNL     1       9.379 -22.258  -0.951  1.00  0.00     0.046 A 
ATOM     42  C   UNL     1       9.331 -23.599  -1.348  1.00  0.00     0.115 A 
BRANCH  42  43
ATOM     43  O   UNL     1      10.363 -24.457  -0.975  1.00  0.00    -0.508 OA
ATOM     44  H   UNL     1      10.823 -25.067  -1.647  1.00  0.00     0.293 HD
ENDBRANCH  42  43
ENDBRANCH  32  37
ENDBRANCH  23  24
ENDBRANCH   6  23
BRANCH   3  45
ATOM     45  O   UNL     1      -3.080 -21.359  -2.201  1.00  0.00    -0.387 OA
ATOM     46  H   UNL     1      -3.999 -20.992  -2.296  1.00  0.00     0.211 HD
ENDBRANCH   3  45
BRANCH   4  47
ATOM     47  C   UNL     1      -1.539 -23.607  -1.222  1.00  0.00     0.191 C 
BRANCH  47  48
ATOM     48  O   UNL     1      -0.265 -24.125  -0.950  1.00  0.00    -0.394 OA
ATOM     49  H   UNL     1      -0.248 -25.057  -1.292  1.00  0.00     0.210 HD
ENDBRANCH  47  48
ENDBRANCH   4  47
TORSDOF 14
ENDMDL
MODEL 8
REMARK VINA RESULT:    -6.928      1.707      2.142
REMARK INTER + INTRA:         -12.673
REMARK INTER:                 -12.745
REMARK INTRA:                   0.072
REMARK UNBOUND:                -1.694
REMARK SMILES C[C@@H]1O[C@@H](O[C@@H]2[C@@H](Oc3cc(O)c4c(c3)O[C@H](c3ccc(O)cc3)CC4=O)O[C@@H](CO)[C@@H](O)[C@@H]2O)[C@H](O)[C@@H](O)[C@H]1O
REMARK SMILES IDX 6 1 34 2 32 3 29 4 28 5 7 6 5 7 4 8 1 9 2 10 40 11 3 12
REMARK SMILES IDX 38 13 36 14 41 15 39 17 37 19 35 21 8 23 9 24 10 25 15 26
REMARK SMILES IDX 11 27 14 28 13 29 16 30 26 31 17 32 27 33 25 34 12 35 18 37
REMARK SMILES IDX 19 38 24 39 20 40 23 41 21 42 22 43 33 45 30 47 31 48
REMARK H PARENT 41 16 39 18 37 20 35 22 12 36 22 44 33 46 31 49
REMARK Flexibility Score: inf
ROOT
ATOM      1  C   UNL     1      -2.220 -20.549  -7.976  1.00  0.00     0.221 C 
ATOM      2  C   UNL     1      -2.718 -20.401  -9.432  1.00  0.00     0.181 C 
ATOM      3  C   UNL     1      -1.566 -19.957 -10.352  1.00  0.00     0.177 C 
ATOM      4  C   UNL     1      -0.822 -18.747  -9.737  1.00  0.00     0.179 C 
ATOM      5  O   UNL     1      -0.359 -19.054  -8.431  1.00  0.00    -0.332 OA
ATOM      6  C   UNL     1      -1.459 -19.281  -7.566  1.00  0.00     0.339 C 
ENDROOT
BRANCH   1   7
ATOM      7  O   UNL     1      -3.322 -20.692  -7.091  1.00  0.00    -0.337 OA
BRANCH   7   8
ATOM      8  C   UNL     1      -4.360 -21.499  -7.634  1.00  0.00     0.282 C 
ATOM      9  C   UNL     1      -7.125 -19.099  -7.271  1.00  0.00     0.041 C 
ATOM     10  C   UNL     1      -5.997 -20.024  -6.810  1.00  0.00     0.150 C 
ATOM     11  C   UNL     1      -6.523 -21.042  -5.759  1.00  0.00     0.174 C 
ATOM     12  O   UNL     1      -5.487 -20.695  -7.953  1.00  0.00    -0.344 OA
ATOM     13  C   UNL     1      -5.444 -22.089  -5.393  1.00  0.00     0.179 C 
ATOM     14  C   UNL     1      -4.745 -22.632  -6.658  1.00  0.00     0.202 C 
BRANCH  11  15
ATOM     15  O   UNL     1      -7.012 -20.398  -4.607  1.00  0.00    -0.388 OA
ATOM     16  H   UNL     1      -7.818 -20.888  -4.293  1.00  0.00     0.211 HD
ENDBRANCH  11  15
BRANCH  13  17
ATOM     17  O   UNL     1      -4.514 -21.603  -4.458  1.00  0.00    -0.387 OA
ATOM     18  H   UNL     1      -4.948 -20.888  -3.919  1.00  0.00     0.211 HD
ENDBRANCH  13  17
BRANCH  14  19
ATOM     19  O   UNL     1      -5.619 -23.508  -7.330  1.00  0.00    -0.385 OA
ATOM     20  H   UNL     1      -5.074 -24.052  -7.960  1.00  0.00     0.211 HD
ENDBRANCH  14  19
ENDBRANCH   7   8
ENDBRANCH   1   7
BRANCH   2  21
ATOM     21  O   UNL     1      -3.749 -19.439  -9.478  1.00  0.00    -0.387 OA
ATOM     22  H   UNL     1      -3.686 -18.892  -8.647  1.00  0.00     0.211 HD
ENDBRANCH   2  21
BRANCH   6  23
ATOM     23  O   UNL     1      -0.982 -19.433  -6.229  1.00  0.00    -0.462 OA
BRANCH  23  24
ATOM     24  C   UNL     1      -0.576 -20.649  -5.654  1.00  0.00     0.130 A 
ATOM     25  C   UNL     1      -1.562 -21.524  -5.181  1.00  0.00     0.093 A 
ATOM     26  C   UNL     1       0.775 -20.997  -5.513  1.00  0.00     0.094 A 
ATOM     27  C   UNL     1      -1.224 -22.701  -4.504  1.00  0.00     0.133 A 
ATOM     28  C   UNL     1       1.132 -22.146  -4.808  1.00  0.00     0.138 A 
ATOM     29  C   UNL     1       0.142 -23.005  -4.277  1.00  0.00     0.102 A 
ATOM     30  O   UNL     1       2.492 -22.430  -4.629  1.00  0.00    -0.484 OA
ATOM     31  C   UNL     1       0.622 -24.165  -3.490  1.00  0.00     0.174 C 
ATOM     32  C   UNL     1       2.953 -23.386  -3.670  1.00  0.00     0.211 C 
ATOM     33  O   UNL     1      -0.094 -24.716  -2.612  1.00  0.00    -0.294 OA
ATOM     34  C   UNL     1       2.041 -24.618  -3.672  1.00  0.00     0.131 C 
BRANCH  27  35
ATOM     35  O   UNL     1      -2.268 -23.534  -4.092  1.00  0.00    -0.507 OA
ATOM     36  H   UNL     1      -2.976 -23.266  -3.424  1.00  0.00     0.293 HD
ENDBRANCH  27  35
BRANCH  32  37
ATOM     37  C   UNL     1       4.386 -23.776  -3.946  1.00  0.00    -0.007 A 
ATOM     38  C   UNL     1       5.101 -23.118  -4.964  1.00  0.00     0.011 A 
ATOM     39  C   UNL     1       5.041 -24.741  -3.157  1.00  0.00     0.011 A 
ATOM     40  C   UNL     1       6.439 -23.443  -5.207  1.00  0.00     0.046 A 
ATOM     41  C   UNL     1       6.381 -25.066  -3.406  1.00  0.00     0.046 A 
ATOM     42  C   UNL     1       7.082 -24.419  -4.431  1.00  0.00     0.115 A 
BRANCH  42  43
ATOM     43  O   UNL     1       8.414 -24.754  -4.661  1.00  0.00    -0.508 OA
ATOM     44  H   UNL     1       9.030 -24.156  -5.207  1.00  0.00     0.293 HD
ENDBRANCH  42  43
ENDBRANCH  32  37
ENDBRANCH  23  24
ENDBRANCH   6  23
BRANCH   3  45
ATOM     45  O   UNL     1      -0.675 -21.035 -10.532  1.00  0.00    -0.387 OA
ATOM     46  H   UNL     1       0.099 -20.693 -11.053  1.00  0.00     0.211 HD
ENDBRANCH   3  45
BRANCH   4  47
ATOM     47  C   UNL     1       0.366 -18.333 -10.616  1.00  0.00     0.191 C 
BRANCH  47  48
ATOM     48  O   UNL     1       0.275 -16.981 -10.972  1.00  0.00    -0.394 OA
ATOM     49  H   UNL     1      -0.690 -16.766 -11.063  1.00  0.00     0.210 HD
ENDBRANCH  47  48
ENDBRANCH   4  47
TORSDOF 14
ENDMDL
MODEL 9
REMARK VINA RESULT:    -6.777      2.128      3.010
REMARK INTER + INTRA:         -12.433
REMARK INTER:                 -11.407
REMARK INTRA:                  -1.026
REMARK UNBOUND:                -1.694
REMARK SMILES C[C@@H]1O[C@@H](O[C@@H]2[C@@H](Oc3cc(O)c4c(c3)O[C@H](c3ccc(O)cc3)CC4=O)O[C@@H](CO)[C@@H](O)[C@@H]2O)[C@H](O)[C@@H](O)[C@H]1O
REMARK SMILES IDX 6 1 34 2 32 3 29 4 28 5 7 6 5 7 4 8 1 9 2 10 40 11 3 12
REMARK SMILES IDX 38 13 36 14 41 15 39 17 37 19 35 21 8 23 9 24 10 25 15 26
REMARK SMILES IDX 11 27 14 28 13 29 16 30 26 31 17 32 27 33 25 34 12 35 18 37
REMARK SMILES IDX 19 38 24 39 20 40 23 41 21 42 22 43 33 45 30 47 31 48
REMARK H PARENT 41 16 39 18 37 20 35 22 12 36 22 44 33 46 31 49
REMARK Flexibility Score: inf
ROOT
ATOM      1  C   UNL     1      -2.523 -20.039  -8.450  1.00  0.00     0.221 C 
ATOM      2  C   UNL     1      -2.382 -18.633  -9.078  1.00  0.00     0.181 C 
ATOM      3  C   UNL     1      -1.212 -18.607 -10.079  1.00  0.00     0.177 C 
ATOM      4  C   UNL     1       0.057 -19.223  -9.441  1.00  0.00     0.179 C 
ATOM      5  O   UNL     1      -0.205 -20.539  -8.976  1.00  0.00    -0.332 OA
ATOM      6  C   UNL     1      -1.158 -20.504  -7.928  1.00  0.00     0.339 C 
ENDROOT
BRANCH   1   7
ATOM      7  O   UNL     1      -3.413 -19.995  -7.343  1.00  0.00    -0.337 OA
BRANCH   7   8
ATOM      8  C   UNL     1      -4.520 -20.876  -7.494  1.00  0.00     0.282 C 
ATOM      9  C   UNL     1      -5.992 -19.348 -10.500  1.00  0.00     0.041 C 
ATOM     10  C   UNL     1      -5.524 -19.419  -9.045  1.00  0.00     0.150 C 
ATOM     11  C   UNL     1      -6.680 -19.035  -8.081  1.00  0.00     0.174 C 
ATOM     12  O   UNL     1      -5.075 -20.744  -8.795  1.00  0.00    -0.344 OA
ATOM     13  C   UNL     1      -6.282 -19.250  -6.602  1.00  0.00     0.179 C 
ATOM     14  C   UNL     1      -5.585 -20.613  -6.406  1.00  0.00     0.202 C 
BRANCH  11  15
ATOM     15  O   UNL     1      -7.124 -17.716  -8.298  1.00  0.00    -0.388 OA
ATOM     16  H   UNL     1      -7.969 -17.584  -7.791  1.00  0.00     0.211 HD
ENDBRANCH  11  15
BRANCH  13  17
ATOM     17  O   UNL     1      -5.506 -18.195  -6.092  1.00  0.00    -0.387 OA
ATOM     18  H   UNL     1      -6.101 -17.418  -5.916  1.00  0.00     0.211 HD
ENDBRANCH  13  17
BRANCH  14  19
ATOM     19  O   UNL     1      -6.546 -21.639  -6.481  1.00  0.00    -0.385 OA
ATOM     20  H   UNL     1      -6.157 -22.377  -7.024  1.00  0.00     0.211 HD
ENDBRANCH  14  19
ENDBRANCH   7   8
ENDBRANCH   1   7
BRANCH   2  21
ATOM     21  O   UNL     1      -2.144 -17.687  -8.059  1.00  0.00    -0.387 OA
ATOM     22  H   UNL     1      -1.874 -18.189  -7.241  1.00  0.00     0.211 HD
ENDBRANCH   2  21
BRANCH   6  23
ATOM     23  O   UNL     1      -1.292 -21.812  -7.370  1.00  0.00    -0.462 OA
BRANCH  23  24
ATOM     24  C   UNL     1      -0.580 -22.287  -6.255  1.00  0.00     0.130 A 
ATOM     25  C   UNL     1      -1.024 -23.460  -5.633  1.00  0.00     0.093 A 
ATOM     26  C   UNL     1       0.533 -21.612  -5.733  1.00  0.00     0.094 A 
ATOM     27  C   UNL     1      -0.426 -23.929  -4.458  1.00  0.00     0.133 A 
ATOM     28  C   UNL     1       1.118 -22.043  -4.544  1.00  0.00     0.138 A 
ATOM     29  C   UNL     1       0.638 -23.194  -3.878  1.00  0.00     0.102 A 
ATOM     30  O   UNL     1       2.187 -21.308  -4.015  1.00  0.00    -0.484 OA
ATOM     31  C   UNL     1       1.285 -23.533  -2.588  1.00  0.00     0.174 C 
ATOM     32  C   UNL     1       2.637 -21.475  -2.668  1.00  0.00     0.211 C 
ATOM     33  O   UNL     1       0.691 -24.206  -1.703  1.00  0.00    -0.294 OA
ATOM     34  C   UNL     1       2.640 -22.961  -2.292  1.00  0.00     0.131 C 
BRANCH  27  35
ATOM     35  O   UNL     1      -0.909 -25.124  -3.919  1.00  0.00    -0.507 OA
ATOM     36  H   UNL     1      -1.129 -25.944  -4.465  1.00  0.00     0.293 HD
ENDBRANCH  27  35
BRANCH  32  37
ATOM     37  C   UNL     1       4.007 -20.869  -2.480  1.00  0.00    -0.007 A 
ATOM     38  C   UNL     1       4.150 -19.470  -2.445  1.00  0.00     0.011 A 
ATOM     39  C   UNL     1       5.138 -21.682  -2.270  1.00  0.00     0.011 A 
ATOM     40  C   UNL     1       5.407 -18.894  -2.235  1.00  0.00     0.046 A 
ATOM     41  C   UNL     1       6.397 -21.102  -2.064  1.00  0.00     0.046 A 
ATOM     42  C   UNL     1       6.534 -19.709  -2.046  1.00  0.00     0.115 A 
BRANCH  42  43
ATOM     43  O   UNL     1       7.793 -19.151  -1.836  1.00  0.00    -0.508 OA
ATOM     44  H   UNL     1       7.926 -18.335  -1.243  1.00  0.00     0.293 HD
ENDBRANCH  42  43
ENDBRANCH  32  37
ENDBRANCH  23  24
ENDBRANCH   6  23
BRANCH   3  45
ATOM     45  O   UNL     1      -1.574 -19.330 -11.235  1.00  0.00    -0.387 OA
ATOM     46  H   UNL     1      -1.395 -20.289 -11.051  1.00  0.00     0.211 HD
ENDBRANCH   3  45
BRANCH   4  47
ATOM     47  C   UNL     1       1.213 -19.259 -10.450  1.00  0.00     0.191 C 
BRANCH  47  48
ATOM     48  O   UNL     1       1.268 -20.499 -11.100  1.00  0.00    -0.394 OA
ATOM     49  H   UNL     1       2.116 -20.936 -10.826  1.00  0.00     0.210 HD
ENDBRANCH  47  48
ENDBRANCH   4  47
TORSDOF 14
ENDMDL
