MODEL 1
REMARK VINA RESULT:    -4.051      0.000      0.000
REMARK INTER + INTRA:          -4.930
REMARK INTER:                  -4.762
REMARK INTRA:                  -0.168
REMARK UNBOUND:                -0.168
REMARK SMILES COc1ccc(C=CC(=O)[O-])cc1
REMARK SMILES IDX 6 1 5 2 12 3 4 4 13 5 3 6 7 7 8 8 9 9 10 10 11 11 2 12 1 13
REMARK H PARENT
REMARK Flexibility Score: inf
ROOT
ATOM      1  C   UNL     1      15.827  -6.747  12.961  1.00  0.00    -0.025 A 
ATOM      2  C   UNL     1      15.578  -6.704  11.580  1.00  0.00     0.012 A 
ATOM      3  C   UNL     1      15.637  -7.963  13.647  1.00  0.00     0.012 A 
ATOM      4  C   UNL     1      15.124  -7.838  10.900  1.00  0.00     0.047 A 
ATOM      5  C   UNL     1      15.184  -9.097  12.964  1.00  0.00     0.047 A 
ATOM      6  C   UNL     1      14.922  -9.045  11.592  1.00  0.00     0.118 A 
ENDROOT
BRANCH   1   7
ATOM      7  C   UNL     1      16.316  -5.518  13.634  1.00  0.00     0.010 C 
ATOM      8  C   UNL     1      15.623  -4.372  13.687  1.00  0.00     0.025 C 
BRANCH   8   9
ATOM      9  C   UNL     1      16.153  -3.174  14.356  1.00  0.00     0.064 C 
ATOM     10  O   UNL     1      15.954  -3.011  15.588  1.00  0.00    -0.545 OA
ATOM     11  O   UNL     1      16.874  -2.217  13.650  1.00  0.00    -0.545 OA
ENDBRANCH   8   9
ENDBRANCH   1   7
BRANCH   6  12
ATOM     12  O   UNL     1      14.468 -10.211  10.955  1.00  0.00    -0.497 OA
ATOM     13  C   UNL     1      14.499 -11.509  11.538  1.00  0.00     0.278 C 
ENDBRANCH   6  12
TORSDOF 3
ENDMDL
MODEL 2
REMARK VINA RESULT:    -3.857     13.701     14.955
REMARK INTER + INTRA:          -4.701
REMARK INTER:                  -4.525
REMARK INTRA:                  -0.176
REMARK UNBOUND:                -0.168
REMARK SMILES COc1ccc(C=CC(=O)[O-])cc1
REMARK SMILES IDX 6 1 5 2 12 3 4 4 13 5 3 6 7 7 8 8 9 9 10 10 11 11 2 12 1 13
REMARK H PARENT
REMARK Flexibility Score: inf
ROOT
ATOM      1  C   UNL     1      13.492 -17.979  20.359  1.00  0.00    -0.025 A 
ATOM      2  C   UNL     1      13.810 -17.900  21.724  1.00  0.00     0.012 A 
ATOM      3  C   UNL     1      14.540 -18.063  19.421  1.00  0.00     0.012 A 
ATOM      4  C   UNL     1      15.142 -17.879  22.147  1.00  0.00     0.047 A 
ATOM      5  C   UNL     1      15.872 -18.043  19.847  1.00  0.00     0.047 A 
ATOM      6  C   UNL     1      16.185 -17.949  21.207  1.00  0.00     0.118 A 
ENDROOT
BRANCH   1   7
ATOM      7  C   UNL     1      12.061 -18.007  19.962  1.00  0.00     0.010 C 
ATOM      8  C   UNL     1      11.068 -18.379  20.781  1.00  0.00     0.025 C 
BRANCH   8   9
ATOM      9  C   UNL     1       9.665 -18.403  20.341  1.00  0.00     0.064 C 
ATOM     10  O   UNL     1       8.974 -19.439  20.523  1.00  0.00    -0.545 OA
ATOM     11  O   UNL     1       9.086 -17.297  19.728  1.00  0.00    -0.545 OA
ENDBRANCH   8   9
ENDBRANCH   1   7
BRANCH   6  12
ATOM     12  O   UNL     1      17.538 -17.931  21.580  1.00  0.00    -0.497 OA
ATOM     13  C   UNL     1      18.000 -17.948  22.926  1.00  0.00     0.278 C 
ENDBRANCH   6  12
TORSDOF 3
ENDMDL
MODEL 3
REMARK VINA RESULT:    -3.836      1.290      2.119
REMARK INTER + INTRA:          -4.677
REMARK INTER:                  -4.511
REMARK INTRA:                  -0.165
REMARK UNBOUND:                -0.168
REMARK SMILES COc1ccc(C=CC(=O)[O-])cc1
REMARK SMILES IDX 6 1 5 2 12 3 4 4 13 5 3 6 7 7 8 8 9 9 10 10 11 11 2 12 1 13
REMARK H PARENT
REMARK Flexibility Score: inf
ROOT
ATOM      1  C   UNL     1      15.554  -7.145  12.318  1.00  0.00    -0.025 A 
ATOM      2  C   UNL     1      15.232  -8.437  12.763  1.00  0.00     0.012 A 
ATOM      3  C   UNL     1      15.472  -6.862  10.940  1.00  0.00     0.012 A 
ATOM      4  C   UNL     1      14.862  -9.434  11.856  1.00  0.00     0.047 A 
ATOM      5  C   UNL     1      15.100  -7.861  10.034  1.00  0.00     0.047 A 
ATOM      6  C   UNL     1      14.796  -9.151  10.480  1.00  0.00     0.118 A 
ENDROOT
BRANCH   1   7
ATOM      7  C   UNL     1      15.933  -6.120  13.323  1.00  0.00     0.010 C 
ATOM      8  C   UNL     1      15.513  -4.848  13.283  1.00  0.00     0.025 C 
BRANCH   8   9
ATOM      9  C   UNL     1      15.923  -3.863  14.296  1.00  0.00     0.064 C 
ATOM     10  O   UNL     1      16.832  -3.035  14.025  1.00  0.00    -0.545 OA
ATOM     11  O   UNL     1      15.322  -3.829  15.549  1.00  0.00    -0.545 OA
ENDBRANCH   8   9
ENDBRANCH   1   7
BRANCH   6  12
ATOM     12  O   UNL     1      14.430 -10.116   9.529  1.00  0.00    -0.497 OA
ATOM     13  C   UNL     1      14.138  -9.831   8.166  1.00  0.00     0.278 C 
ENDBRANCH   6  12
TORSDOF 3
ENDMDL
MODEL 4
REMARK VINA RESULT:    -3.813      4.956      6.783
REMARK INTER + INTRA:          -4.649
REMARK INTER:                  -4.497
REMARK INTRA:                  -0.152
REMARK UNBOUND:                -0.168
REMARK SMILES COc1ccc(C=CC(=O)[O-])cc1
REMARK SMILES IDX 6 1 5 2 12 3 4 4 13 5 3 6 7 7 8 8 9 9 10 10 11 11 2 12 1 13
REMARK H PARENT
REMARK Flexibility Score: inf
ROOT
ATOM      1  C   UNL     1      16.277  -6.502   8.065  1.00  0.00    -0.025 A 
ATOM      2  C   UNL     1      17.611  -6.410   7.637  1.00  0.00     0.012 A 
ATOM      3  C   UNL     1      15.278  -5.846   7.318  1.00  0.00     0.012 A 
ATOM      4  C   UNL     1      17.949  -5.661   6.506  1.00  0.00     0.047 A 
ATOM      5  C   UNL     1      15.619  -5.098   6.186  1.00  0.00     0.047 A 
ATOM      6  C   UNL     1      16.951  -4.996   5.773  1.00  0.00     0.118 A 
ENDROOT
BRANCH   1   7
ATOM      7  C   UNL     1      15.970  -7.318   9.266  1.00  0.00     0.010 C 
ATOM      8  C   UNL     1      15.581  -6.799  10.439  1.00  0.00     0.025 C 
BRANCH   8   9
ATOM      9  C   UNL     1      15.298  -7.646  11.608  1.00  0.00     0.064 C 
ATOM     10  O   UNL     1      14.419  -8.544  11.527  1.00  0.00    -0.545 OA
ATOM     11  O   UNL     1      15.987  -7.474  12.803  1.00  0.00    -0.545 OA
ENDBRANCH   8   9
ENDBRANCH   1   7
BRANCH   6  12
ATOM     12  O   UNL     1      17.238  -4.231   4.632  1.00  0.00    -0.497 OA
ATOM     13  C   UNL     1      17.979  -3.016   4.644  1.00  0.00     0.278 C 
ENDBRANCH   6  12
TORSDOF 3
ENDMDL
MODEL 5
REMARK VINA RESULT:    -3.795      8.969     11.697
REMARK INTER + INTRA:          -4.628
REMARK INTER:                  -4.468
REMARK INTRA:                  -0.160
REMARK UNBOUND:                -0.168
REMARK SMILES COc1ccc(C=CC(=O)[O-])cc1
REMARK SMILES IDX 6 1 5 2 12 3 4 4 13 5 3 6 7 7 8 8 9 9 10 10 11 11 2 12 1 13
REMARK H PARENT
REMARK Flexibility Score: inf
ROOT
ATOM      1  C   UNL     1      17.223 -14.404  19.579  1.00  0.00    -0.025 A 
ATOM      2  C   UNL     1      16.403 -13.295  19.317  1.00  0.00     0.012 A 
ATOM      3  C   UNL     1      18.621 -14.223  19.606  1.00  0.00     0.012 A 
ATOM      4  C   UNL     1      16.960 -12.038  19.062  1.00  0.00     0.047 A 
ATOM      5  C   UNL     1      19.175 -12.964  19.352  1.00  0.00     0.047 A 
ATOM      6  C   UNL     1      18.356 -11.866  19.076  1.00  0.00     0.118 A 
ENDROOT
BRANCH   1   7
ATOM      7  C   UNL     1      16.582 -15.714  19.852  1.00  0.00     0.010 C 
ATOM      8  C   UNL     1      15.994 -16.466  18.912  1.00  0.00     0.025 C 
BRANCH   8   9
ATOM      9  C   UNL     1      15.360 -17.755  19.231  1.00  0.00     0.064 C 
ATOM     10  O   UNL     1      16.073 -18.785  19.351  1.00  0.00    -0.545 OA
ATOM     11  O   UNL     1      13.984 -17.854  19.406  1.00  0.00    -0.545 OA
ENDBRANCH   8   9
ENDBRANCH   1   7
BRANCH   6  12
ATOM     12  O   UNL     1      18.963 -10.626  18.826  1.00  0.00    -0.497 OA
ATOM     13  C   UNL     1      18.255  -9.434  18.505  1.00  0.00     0.278 C 
ENDBRANCH   6  12
TORSDOF 3
ENDMDL
MODEL 6
REMARK VINA RESULT:    -3.741      2.255      6.981
REMARK INTER + INTRA:          -4.565
REMARK INTER:                  -4.399
REMARK INTRA:                  -0.166
REMARK UNBOUND:                -0.168
REMARK SMILES COc1ccc(C=CC(=O)[O-])cc1
REMARK SMILES IDX 6 1 5 2 12 3 4 4 13 5 3 6 7 7 8 8 9 9 10 10 11 11 2 12 1 13
REMARK H PARENT
REMARK Flexibility Score: inf
ROOT
ATOM      1  C   UNL     1      14.856  -9.955  11.924  1.00  0.00    -0.025 A 
ATOM      2  C   UNL     1      14.709  -9.062  10.851  1.00  0.00     0.012 A 
ATOM      3  C   UNL     1      15.286  -9.455  13.169  1.00  0.00     0.012 A 
ATOM      4  C   UNL     1      15.008  -7.705  11.005  1.00  0.00     0.047 A 
ATOM      5  C   UNL     1      15.583  -8.097  13.321  1.00  0.00     0.047 A 
ATOM      6  C   UNL     1      15.451  -7.213  12.246  1.00  0.00     0.118 A 
ENDROOT
BRANCH   1   7
ATOM      7  C   UNL     1      14.517 -11.385  11.711  1.00  0.00     0.010 C 
ATOM      8  C   UNL     1      15.325 -12.400  12.047  1.00  0.00     0.025 C 
BRANCH   8   9
ATOM      9  C   UNL     1      14.951 -13.803  11.806  1.00  0.00     0.064 C 
ATOM     10  O   UNL     1      13.854 -14.067  11.249  1.00  0.00    -0.545 OA
ATOM     11  O   UNL     1      15.793 -14.844  12.182  1.00  0.00    -0.545 OA
ENDBRANCH   8   9
ENDBRANCH   1   7
BRANCH   6  12
ATOM     12  O   UNL     1      15.763  -5.861  12.451  1.00  0.00    -0.497 OA
ATOM     13  C   UNL     1      15.987  -5.273  13.728  1.00  0.00     0.278 C 
ENDBRANCH   6  12
TORSDOF 3
ENDMDL
MODEL 7
REMARK VINA RESULT:    -3.688      9.927     11.679
REMARK INTER + INTRA:          -4.503
REMARK INTER:                  -4.345
REMARK INTRA:                  -0.158
REMARK UNBOUND:                -0.168
REMARK SMILES COc1ccc(C=CC(=O)[O-])cc1
REMARK SMILES IDX 6 1 5 2 12 3 4 4 13 5 3 6 7 7 8 8 9 9 10 10 11 11 2 12 1 13
REMARK H PARENT
REMARK Flexibility Score: inf
ROOT
ATOM      1  C   UNL     1      15.113 -16.256  19.082  1.00  0.00    -0.025 A 
ATOM      2  C   UNL     1      14.135 -16.150  18.080  1.00  0.00     0.012 A 
ATOM      3  C   UNL     1      14.857 -17.081  20.196  1.00  0.00     0.012 A 
ATOM      4  C   UNL     1      12.918 -16.828  18.195  1.00  0.00     0.047 A 
ATOM      5  C   UNL     1      13.639 -17.759  20.308  1.00  0.00     0.047 A 
ATOM      6  C   UNL     1      12.661 -17.638  19.316  1.00  0.00     0.118 A 
ENDROOT
BRANCH   1   7
ATOM      7  C   UNL     1      16.392 -15.523  18.907  1.00  0.00     0.010 C 
ATOM      8  C   UNL     1      16.663 -14.348  19.492  1.00  0.00     0.025 C 
BRANCH   8   9
ATOM      9  C   UNL     1      17.941 -13.652  19.281  1.00  0.00     0.064 C 
ATOM     10  O   UNL     1      19.023 -14.266  19.474  1.00  0.00    -0.545 OA
ATOM     11  O   UNL     1      17.975 -12.324  18.869  1.00  0.00    -0.545 OA
ENDBRANCH   8   9
ENDBRANCH   1   7
BRANCH   6  12
ATOM     12  O   UNL     1      11.456 -18.339  19.478  1.00  0.00    -0.497 OA
ATOM     13  C   UNL     1      10.773 -18.485  20.718  1.00  0.00     0.278 C 
ENDBRANCH   6  12
TORSDOF 3
ENDMDL
MODEL 8
REMARK VINA RESULT:    -3.680     13.018     13.908
REMARK INTER + INTRA:          -4.493
REMARK INTER:                  -4.332
REMARK INTRA:                  -0.161
REMARK UNBOUND:                -0.168
REMARK SMILES COc1ccc(C=CC(=O)[O-])cc1
REMARK SMILES IDX 6 1 5 2 12 3 4 4 13 5 3 6 7 7 8 8 9 9 10 10 11 11 2 12 1 13
REMARK H PARENT
REMARK Flexibility Score: inf
ROOT
ATOM      1  C   UNL     1      13.352 -17.623  20.057  1.00  0.00    -0.025 A 
ATOM      2  C   UNL     1      13.131 -17.628  18.670  1.00  0.00     0.012 A 
ATOM      3  C   UNL     1      12.300 -18.007  20.913  1.00  0.00     0.012 A 
ATOM      4  C   UNL     1      11.885 -17.983  18.146  1.00  0.00     0.047 A 
ATOM      5  C   UNL     1      11.054 -18.362  20.386  1.00  0.00     0.047 A 
ATOM      6  C   UNL     1      10.834 -18.351  19.005  1.00  0.00     0.118 A 
ENDROOT
BRANCH   1   7
ATOM      7  C   UNL     1      14.696 -17.247  20.563  1.00  0.00     0.010 C 
ATOM      8  C   UNL     1      15.484 -18.071  21.267  1.00  0.00     0.025 C 
BRANCH   8   9
ATOM      9  C   UNL     1      16.805 -17.652  21.758  1.00  0.00     0.064 C 
ATOM     10  O   UNL     1      17.428 -18.385  22.569  1.00  0.00    -0.545 OA
ATOM     11  O   UNL     1      17.381 -16.457  21.339  1.00  0.00    -0.545 OA
ENDBRANCH   8   9
ENDBRANCH   1   7
BRANCH   6  12
ATOM     12  O   UNL     1       9.565 -18.715  18.529  1.00  0.00    -0.497 OA
ATOM     13  C   UNL     1       9.279 -19.044  17.174  1.00  0.00     0.278 C 
ENDBRANCH   6  12
TORSDOF 3
ENDMDL
