MODEL 1
REMARK VINA RESULT:    -2.846      0.000      0.000
REMARK INTER + INTRA:          -7.097
REMARK INTER:                  -6.173
REMARK INTRA:                  -0.925
REMARK UNBOUND:                -0.925
REMARK SMILES CCCCCCCCCCCCCCCCCCCCCC(=O)[O-]
REMARK SMILES IDX 12 1 11 2 10 3 9 4 8 5 7 6 6 7 5 8 4 9 3 10 2 11 1 12 13 13
REMARK SMILES IDX 14 14 15 15 16 16 17 17 18 18 19 19 20 20 21 21 22 22 23 23
REMARK SMILES IDX 24 24
REMARK H PARENT
REMARK Flexibility Score: inf
ROOT
ATOM      1  C   UNL     1      42.650  63.986  56.910  1.00  0.00     0.000 C 
ENDROOT
BRANCH   1   2
ATOM      2  C   UNL     1      43.606  63.654  55.756  1.00  0.00     0.000 C 
BRANCH   2   3
ATOM      3  C   UNL     1      44.727  64.695  55.601  1.00  0.00     0.000 C 
BRANCH   3   4
ATOM      4  C   UNL     1      45.478  64.949  56.920  1.00  0.00    -0.000 C 
BRANCH   4   5
ATOM      5  C   UNL     1      45.583  63.689  57.801  1.00  0.00    -0.000 C 
BRANCH   5   6
ATOM      6  C   UNL     1      45.902  63.954  59.284  1.00  0.00    -0.000 C 
BRANCH   6   7
ATOM      7  C   UNL     1      46.960  63.019  59.899  1.00  0.00    -0.000 C 
BRANCH   7   8
ATOM      8  C   UNL     1      47.818  63.690  60.992  1.00  0.00    -0.000 C 
BRANCH   8   9
ATOM      9  C   UNL     1      48.629  64.875  60.450  1.00  0.00    -0.000 C 
BRANCH   9  10
ATOM     10  C   UNL     1      50.135  64.658  60.661  1.00  0.00    -0.000 C 
BRANCH  10  11
ATOM     11  C   UNL     1      50.709  63.574  59.735  1.00  0.00    -0.003 C 
ATOM     12  C   UNL     1      51.888  64.071  58.899  1.00  0.00     0.004 C 
ENDBRANCH  10  11
ENDBRANCH   9  10
ENDBRANCH   8   9
ENDBRANCH   7   8
ENDBRANCH   6   7
ENDBRANCH   5   6
ENDBRANCH   4   5
ENDBRANCH   3   4
ENDBRANCH   2   3
ENDBRANCH   1   2
BRANCH   1  13
ATOM     13  C   UNL     1      41.204  64.117  56.408  1.00  0.00     0.000 C 
BRANCH  13  14
ATOM     14  C   UNL     1      40.375  65.125  57.224  1.00  0.00     0.000 C 
BRANCH  14  15
ATOM     15  C   UNL     1      39.557  64.514  58.381  1.00  0.00     0.000 C 
BRANCH  15  16
ATOM     16  C   UNL     1      38.680  63.311  57.994  1.00  0.00     0.000 C 
BRANCH  16  17
ATOM     17  C   UNL     1      39.382  61.965  58.221  1.00  0.00     0.000 C 
BRANCH  17  18
ATOM     18  C   UNL     1      38.833  61.263  59.468  1.00  0.00     0.000 C 
BRANCH  18  19
ATOM     19  C   UNL     1      37.312  61.447  59.580  1.00  0.00     0.000 C 
BRANCH  19  20
ATOM     20  C   UNL     1      36.861  61.766  61.014  1.00  0.00     0.006 C 
BRANCH  20  21
ATOM     21  C   UNL     1      35.783  62.856  61.063  1.00  0.00     0.053 C 
BRANCH  21  22
ATOM     22  C   UNL     1      36.352  64.171  60.630  1.00  0.00     0.041 C 
ATOM     23  O   UNL     1      35.739  64.883  59.792  1.00  0.00    -0.550 OA
ATOM     24  O   UNL     1      37.586  64.588  61.116  1.00  0.00    -0.550 OA
ENDBRANCH  21  22
ENDBRANCH  20  21
ENDBRANCH  19  20
ENDBRANCH  18  19
ENDBRANCH  17  18
ENDBRANCH  16  17
ENDBRANCH  15  16
ENDBRANCH  14  15
ENDBRANCH  13  14
ENDBRANCH   1  13
TORSDOF 20
ENDMDL
MODEL 2
REMARK VINA RESULT:    -2.527      1.671      2.150
REMARK INTER + INTRA:          -6.407
REMARK INTER:                  -6.580
REMARK INTRA:                   0.173
REMARK UNBOUND:                -0.925
REMARK SMILES CCCCCCCCCCCCCCCCCCCCCC(=O)[O-]
REMARK SMILES IDX 12 1 11 2 10 3 9 4 8 5 7 6 6 7 5 8 4 9 3 10 2 11 1 12 13 13
REMARK SMILES IDX 14 14 15 15 16 16 17 17 18 18 19 19 20 20 21 21 22 22 23 23
REMARK SMILES IDX 24 24
REMARK H PARENT
REMARK Flexibility Score: inf
ROOT
ATOM      1  C   UNL     1      42.846  64.002  56.143  1.00  0.00     0.000 C 
ENDROOT
BRANCH   1   2
ATOM      2  C   UNL     1      43.587  63.879  54.803  1.00  0.00     0.000 C 
BRANCH   2   3
ATOM      3  C   UNL     1      45.035  64.394  54.881  1.00  0.00     0.000 C 
BRANCH   3   4
ATOM      4  C   UNL     1      45.331  65.111  56.210  1.00  0.00    -0.000 C 
BRANCH   4   5
ATOM      5  C   UNL     1      44.956  64.266  57.443  1.00  0.00    -0.000 C 
BRANCH   5   6
ATOM      6  C   UNL     1      45.878  64.449  58.662  1.00  0.00    -0.000 C 
BRANCH   6   7
ATOM      7  C   UNL     1      46.565  63.161  59.156  1.00  0.00    -0.000 C 
BRANCH   7   8
ATOM      8  C   UNL     1      47.710  63.417  60.159  1.00  0.00    -0.000 C 
BRANCH   8   9
ATOM      9  C   UNL     1      48.144  64.889  60.184  1.00  0.00    -0.000 C 
BRANCH   9  10
ATOM     10  C   UNL     1      49.528  65.069  59.542  1.00  0.00    -0.000 C 
BRANCH  10  11
ATOM     11  C   UNL     1      50.559  64.059  60.070  1.00  0.00    -0.003 C 
ATOM     12  C   UNL     1      51.714  63.826  59.096  1.00  0.00     0.004 C 
ENDBRANCH  10  11
ENDBRANCH   9  10
ENDBRANCH   8   9
ENDBRANCH   7   8
ENDBRANCH   6   7
ENDBRANCH   5   6
ENDBRANCH   4   5
ENDBRANCH   3   4
ENDBRANCH   2   3
ENDBRANCH   1   2
BRANCH   1  13
ATOM     13  C   UNL     1      41.421  64.536  55.937  1.00  0.00     0.000 C 
BRANCH  13  14
ATOM     14  C   UNL     1      40.799  65.097  57.229  1.00  0.00     0.000 C 
BRANCH  14  15
ATOM     15  C   UNL     1      40.080  64.057  58.114  1.00  0.00     0.000 C 
BRANCH  15  16
ATOM     16  C   UNL     1      38.882  64.599  58.912  1.00  0.00     0.000 C 
BRANCH  16  17
ATOM     17  C   UNL     1      37.556  64.482  58.148  1.00  0.00     0.000 C 
BRANCH  17  18
ATOM     18  C   UNL     1      36.417  64.062  59.085  1.00  0.00     0.000 C 
BRANCH  18  19
ATOM     19  C   UNL     1      36.863  64.119  60.554  1.00  0.00     0.000 C 
BRANCH  19  20
ATOM     20  C   UNL     1      37.518  62.811  61.023  1.00  0.00     0.006 C 
BRANCH  20  21
ATOM     21  C   UNL     1      36.953  61.578  60.305  1.00  0.00     0.053 C 
BRANCH  21  22
ATOM     22  C   UNL     1      38.048  60.837  59.603  1.00  0.00     0.041 C 
ATOM     23  O   UNL     1      38.137  60.875  58.348  1.00  0.00    -0.550 OA
ATOM     24  O   UNL     1      38.942  60.061  60.334  1.00  0.00    -0.550 OA
ENDBRANCH  21  22
ENDBRANCH  20  21
ENDBRANCH  19  20
ENDBRANCH  18  19
ENDBRANCH  17  18
ENDBRANCH  16  17
ENDBRANCH  15  16
ENDBRANCH  14  15
ENDBRANCH  13  14
ENDBRANCH   1  13
TORSDOF 20
ENDMDL
MODEL 3
REMARK VINA RESULT:    -2.201     22.381     24.089
REMARK INTER + INTRA:          -5.698
REMARK INTER:                  -4.828
REMARK INTRA:                  -0.870
REMARK UNBOUND:                -0.925
REMARK SMILES CCCCCCCCCCCCCCCCCCCCCC(=O)[O-]
REMARK SMILES IDX 12 1 11 2 10 3 9 4 8 5 7 6 6 7 5 8 4 9 3 10 2 11 1 12 13 13
REMARK SMILES IDX 14 14 15 15 16 16 17 17 18 18 19 19 20 20 21 21 22 22 23 23
REMARK SMILES IDX 24 24
REMARK H PARENT
REMARK Flexibility Score: inf
ROOT
ATOM      1  C   UNL     1      47.454  47.405  42.748  1.00  0.00     0.000 C 
ENDROOT
BRANCH   1   2
ATOM      2  C   UNL     1      48.385  46.200  42.949  1.00  0.00     0.000 C 
BRANCH   2   3
ATOM      3  C   UNL     1      49.697  46.332  42.157  1.00  0.00     0.000 C 
BRANCH   3   4
ATOM      4  C   UNL     1      49.945  45.129  41.230  1.00  0.00    -0.000 C 
BRANCH   4   5
ATOM      5  C   UNL     1      51.439  44.907  40.923  1.00  0.00    -0.000 C 
BRANCH   5   6
ATOM      6  C   UNL     1      52.299  46.184  40.916  1.00  0.00    -0.000 C 
BRANCH   6   7
ATOM      7  C   UNL     1      53.563  46.121  41.794  1.00  0.00    -0.000 C 
BRANCH   7   8
ATOM      8  C   UNL     1      53.345  45.402  43.142  1.00  0.00    -0.000 C 
BRANCH   8   9
ATOM      9  C   UNL     1      53.003  46.380  44.275  1.00  0.00    -0.000 C 
BRANCH   9  10
ATOM     10  C   UNL     1      51.868  45.835  45.154  1.00  0.00    -0.000 C 
BRANCH  10  11
ATOM     11  C   UNL     1      51.422  46.837  46.230  1.00  0.00    -0.003 C 
ATOM     12  C   UNL     1      49.914  46.805  46.483  1.00  0.00     0.004 C 
ENDBRANCH  10  11
ENDBRANCH   9  10
ENDBRANCH   8   9
ENDBRANCH   7   8
ENDBRANCH   6   7
ENDBRANCH   5   6
ENDBRANCH   4   5
ENDBRANCH   3   4
ENDBRANCH   2   3
ENDBRANCH   1   2
BRANCH   1  13
ATOM     13  C   UNL     1      47.041  47.541  41.275  1.00  0.00     0.000 C 
BRANCH  13  14
ATOM     14  C   UNL     1      45.797  46.706  40.921  1.00  0.00     0.000 C 
BRANCH  14  15
ATOM     15  C   UNL     1      45.350  45.704  42.006  1.00  0.00     0.000 C 
BRANCH  15  16
ATOM     16  C   UNL     1      44.046  44.948  41.697  1.00  0.00     0.000 C 
BRANCH  16  17
ATOM     17  C   UNL     1      42.796  45.822  41.871  1.00  0.00     0.000 C 
BRANCH  17  18
ATOM     18  C   UNL     1      42.807  46.998  40.887  1.00  0.00     0.000 C 
BRANCH  18  19
ATOM     19  C   UNL     1      42.402  48.304  41.587  1.00  0.00     0.000 C 
BRANCH  19  20
ATOM     20  C   UNL     1      43.355  49.466  41.265  1.00  0.00     0.006 C 
BRANCH  20  21
ATOM     21  C   UNL     1      44.487  49.600  42.292  1.00  0.00     0.053 C 
BRANCH  21  22
ATOM     22  C   UNL     1      43.930  49.922  43.643  1.00  0.00     0.041 C 
ATOM     23  O   UNL     1      44.668  50.422  44.532  1.00  0.00    -0.550 OA
ATOM     24  O   UNL     1      42.604  49.621  43.937  1.00  0.00    -0.550 OA
ENDBRANCH  21  22
ENDBRANCH  20  21
ENDBRANCH  19  20
ENDBRANCH  18  19
ENDBRANCH  17  18
ENDBRANCH  16  17
ENDBRANCH  15  16
ENDBRANCH  14  15
ENDBRANCH  13  14
ENDBRANCH   1  13
TORSDOF 20
ENDMDL
MODEL 4
REMARK VINA RESULT:    -2.015      4.569      9.978
REMARK INTER + INTRA:          -5.296
REMARK INTER:                  -3.799
REMARK INTRA:                  -1.496
REMARK UNBOUND:                -0.925
REMARK SMILES CCCCCCCCCCCCCCCCCCCCCC(=O)[O-]
REMARK SMILES IDX 12 1 11 2 10 3 9 4 8 5 7 6 6 7 5 8 4 9 3 10 2 11 1 12 13 13
REMARK SMILES IDX 14 14 15 15 16 16 17 17 18 18 19 19 20 20 21 21 22 22 23 23
REMARK SMILES IDX 24 24
REMARK H PARENT
REMARK Flexibility Score: inf
ROOT
ATOM      1  C   UNL     1      44.600  62.638  55.946  1.00  0.00     0.000 C 
ENDROOT
BRANCH   1   2
ATOM      2  C   UNL     1      44.258  63.276  54.592  1.00  0.00     0.000 C 
BRANCH   2   3
ATOM      3  C   UNL     1      42.785  63.710  54.500  1.00  0.00     0.000 C 
BRANCH   3   4
ATOM      4  C   UNL     1      42.554  65.124  55.059  1.00  0.00    -0.000 C 
BRANCH   4   5
ATOM      5  C   UNL     1      41.957  65.117  56.480  1.00  0.00    -0.000 C 
BRANCH   5   6
ATOM      6  C   UNL     1      40.811  64.113  56.699  1.00  0.00    -0.000 C 
BRANCH   6   7
ATOM      7  C   UNL     1      40.202  64.120  58.115  1.00  0.00    -0.000 C 
BRANCH   7   8
ATOM      8  C   UNL     1      38.661  64.207  58.125  1.00  0.00    -0.000 C 
BRANCH   8   9
ATOM      9  C   UNL     1      38.077  64.023  59.534  1.00  0.00    -0.000 C 
BRANCH   9  10
ATOM     10  C   UNL     1      37.034  62.896  59.557  1.00  0.00    -0.000 C 
BRANCH  10  11
ATOM     11  C   UNL     1      37.614  61.547  59.102  1.00  0.00    -0.003 C 
ATOM     12  C   UNL     1      38.888  61.164  59.855  1.00  0.00     0.004 C 
ENDBRANCH  10  11
ENDBRANCH   9  10
ENDBRANCH   8   9
ENDBRANCH   7   8
ENDBRANCH   6   7
ENDBRANCH   5   6
ENDBRANCH   4   5
ENDBRANCH   3   4
ENDBRANCH   2   3
ENDBRANCH   1   2
BRANCH   1  13
ATOM     13  C   UNL     1      45.691  63.438  56.672  1.00  0.00     0.000 C 
BRANCH  13  14
ATOM     14  C   UNL     1      45.142  64.682  57.395  1.00  0.00     0.000 C 
BRANCH  14  15
ATOM     15  C   UNL     1      44.703  64.449  58.856  1.00  0.00     0.000 C 
BRANCH  15  16
ATOM     16  C   UNL     1      45.801  64.676  59.909  1.00  0.00     0.000 C 
BRANCH  16  17
ATOM     17  C   UNL     1      46.265  63.373  60.575  1.00  0.00     0.000 C 
BRANCH  17  18
ATOM     18  C   UNL     1      47.704  63.501  61.089  1.00  0.00     0.000 C 
BRANCH  18  19
ATOM     19  C   UNL     1      48.280  64.889  60.774  1.00  0.00     0.000 C 
BRANCH  19  20
ATOM     20  C   UNL     1      49.298  64.859  59.624  1.00  0.00     0.006 C 
BRANCH  20  21
ATOM     21  C   UNL     1      50.748  64.922  60.120  1.00  0.00     0.053 C 
BRANCH  21  22
ATOM     22  C   UNL     1      51.687  64.470  59.045  1.00  0.00     0.041 C 
ATOM     23  O   UNL     1      52.495  63.529  59.262  1.00  0.00    -0.550 OA
ATOM     24  O   UNL     1      51.703  65.123  57.817  1.00  0.00    -0.550 OA
ENDBRANCH  21  22
ENDBRANCH  20  21
ENDBRANCH  19  20
ENDBRANCH  18  19
ENDBRANCH  17  18
ENDBRANCH  16  17
ENDBRANCH  15  16
ENDBRANCH  14  15
ENDBRANCH  13  14
ENDBRANCH   1  13
TORSDOF 20
ENDMDL
MODEL 5
REMARK VINA RESULT:    -1.829      4.059     10.289
REMARK INTER + INTRA:          -4.892
REMARK INTER:                  -4.342
REMARK INTRA:                  -0.550
REMARK UNBOUND:                -0.925
REMARK SMILES CCCCCCCCCCCCCCCCCCCCCC(=O)[O-]
REMARK SMILES IDX 12 1 11 2 10 3 9 4 8 5 7 6 6 7 5 8 4 9 3 10 2 11 1 12 13 13
REMARK SMILES IDX 14 14 15 15 16 16 17 17 18 18 19 19 20 20 21 21 22 22 23 23
REMARK SMILES IDX 24 24
REMARK H PARENT
REMARK Flexibility Score: inf
ROOT
ATOM      1  C   UNL     1      40.919  64.201  56.930  1.00  0.00     0.000 C 
ENDROOT
BRANCH   1   2
ATOM      2  C   UNL     1      40.682  65.121  58.138  1.00  0.00     0.000 C 
BRANCH   2   3
ATOM      3  C   UNL     1      39.282  64.941  58.749  1.00  0.00     0.000 C 
BRANCH   3   4
ATOM      4  C   UNL     1      38.557  63.700  58.200  1.00  0.00    -0.000 C 
BRANCH   4   5
ATOM      5  C   UNL     1      39.401  62.416  58.313  1.00  0.00    -0.000 C 
BRANCH   5   6
ATOM      6  C   UNL     1      38.867  61.370  59.308  1.00  0.00    -0.000 C 
BRANCH   6   7
ATOM      7  C   UNL     1      38.231  61.952  60.584  1.00  0.00    -0.000 C 
BRANCH   7   8
ATOM      8  C   UNL     1      36.847  61.353  60.915  1.00  0.00    -0.000 C 
BRANCH   8   9
ATOM      9  C   UNL     1      35.731  62.406  60.875  1.00  0.00    -0.000 C 
BRANCH   9  10
ATOM     10  C   UNL     1      36.311  63.822  60.742  1.00  0.00    -0.000 C 
BRANCH  10  11
ATOM     11  C   UNL     1      35.238  64.869  60.405  1.00  0.00    -0.003 C 
ATOM     12  C   UNL     1      35.084  65.098  58.901  1.00  0.00     0.004 C 
ENDBRANCH  10  11
ENDBRANCH   9  10
ENDBRANCH   8   9
ENDBRANCH   7   8
ENDBRANCH   6   7
ENDBRANCH   5   6
ENDBRANCH   4   5
ENDBRANCH   3   4
ENDBRANCH   2   3
ENDBRANCH   1   2
BRANCH   1  13
ATOM     13  C   UNL     1      42.366  63.686  56.906  1.00  0.00     0.000 C 
BRANCH  13  14
ATOM     14  C   UNL     1      43.233  64.385  55.843  1.00  0.00     0.000 C 
BRANCH  14  15
ATOM     15  C   UNL     1      44.597  64.901  56.347  1.00  0.00     0.000 C 
BRANCH  15  16
ATOM     16  C   UNL     1      45.198  64.110  57.522  1.00  0.00     0.000 C 
BRANCH  16  17
ATOM     17  C   UNL     1      45.680  65.016  58.664  1.00  0.00     0.000 C 
BRANCH  17  18
ATOM     18  C   UNL     1      45.836  64.222  59.967  1.00  0.00     0.000 C 
BRANCH  18  19
ATOM     19  C   UNL     1      47.310  63.877  60.228  1.00  0.00     0.000 C 
BRANCH  19  20
ATOM     20  C   UNL     1      48.204  65.124  60.299  1.00  0.00     0.006 C 
BRANCH  20  21
ATOM     21  C   UNL     1      49.378  65.063  59.314  1.00  0.00     0.053 C 
BRANCH  21  22
ATOM     22  C   UNL     1      50.372  64.031  59.750  1.00  0.00     0.041 C 
ATOM     23  O   UNL     1      50.351  63.588  60.928  1.00  0.00    -0.550 OA
ATOM     24  O   UNL     1      51.354  63.595  58.867  1.00  0.00    -0.550 OA
ENDBRANCH  21  22
ENDBRANCH  20  21
ENDBRANCH  19  20
ENDBRANCH  18  19
ENDBRANCH  17  18
ENDBRANCH  16  17
ENDBRANCH  15  16
ENDBRANCH  14  15
ENDBRANCH  13  14
ENDBRANCH   1  13
TORSDOF 20
ENDMDL
MODEL 6
REMARK VINA RESULT:    -1.622      4.069      9.476
REMARK INTER + INTRA:          -4.443
REMARK INTER:                  -3.216
REMARK INTRA:                  -1.228
REMARK UNBOUND:                -0.925
REMARK SMILES CCCCCCCCCCCCCCCCCCCCCC(=O)[O-]
REMARK SMILES IDX 12 1 11 2 10 3 9 4 8 5 7 6 6 7 5 8 4 9 3 10 2 11 1 12 13 13
REMARK SMILES IDX 14 14 15 15 16 16 17 17 18 18 19 19 20 20 21 21 22 22 23 23
REMARK SMILES IDX 24 24
REMARK H PARENT
REMARK Flexibility Score: inf
ROOT
ATOM      1  C   UNL     1      43.765  63.372  54.746  1.00  0.00     0.000 C 
ENDROOT
BRANCH   1   2
ATOM      2  C   UNL     1      42.300  63.512  54.308  1.00  0.00     0.000 C 
BRANCH   2   3
ATOM      3  C   UNL     1      41.701  64.879  54.679  1.00  0.00     0.000 C 
BRANCH   3   4
ATOM      4  C   UNL     1      41.692  65.122  56.199  1.00  0.00    -0.000 C 
BRANCH   4   5
ATOM      5  C   UNL     1      40.435  64.557  56.887  1.00  0.00    -0.000 C 
BRANCH   5   6
ATOM      6  C   UNL     1      40.495  64.520  58.425  1.00  0.00    -0.000 C 
BRANCH   6   7
ATOM      7  C   UNL     1      39.451  63.605  59.094  1.00  0.00    -0.000 C 
BRANCH   7   8
ATOM      8  C   UNL     1      38.734  62.659  58.108  1.00  0.00    -0.000 C 
BRANCH   8   9
ATOM      9  C   UNL     1      38.550  61.248  58.684  1.00  0.00    -0.000 C 
BRANCH   9  10
ATOM     10  C   UNL     1      37.383  61.205  59.681  1.00  0.00    -0.000 C 
BRANCH  10  11
ATOM     11  C   UNL     1      36.530  62.483  59.646  1.00  0.00    -0.003 C 
ATOM     12  C   UNL     1      36.113  62.957  61.039  1.00  0.00     0.004 C 
ENDBRANCH  10  11
ENDBRANCH   9  10
ENDBRANCH   8   9
ENDBRANCH   7   8
ENDBRANCH   6   7
ENDBRANCH   5   6
ENDBRANCH   4   5
ENDBRANCH   3   4
ENDBRANCH   2   3
ENDBRANCH   1   2
BRANCH   1  13
ATOM     13  C   UNL     1      44.655  64.395  54.023  1.00  0.00     0.000 C 
BRANCH  13  14
ATOM     14  C   UNL     1      45.623  65.125  54.973  1.00  0.00     0.000 C 
BRANCH  14  15
ATOM     15  C   UNL     1      45.208  65.120  56.460  1.00  0.00     0.000 C 
BRANCH  15  16
ATOM     16  C   UNL     1      46.167  64.370  57.400  1.00  0.00     0.000 C 
BRANCH  16  17
ATOM     17  C   UNL     1      46.136  64.910  58.837  1.00  0.00     0.000 C 
BRANCH  17  18
ATOM     18  C   UNL     1      45.303  64.001  59.747  1.00  0.00     0.000 C 
BRANCH  18  19
ATOM     19  C   UNL     1      46.002  63.786  61.099  1.00  0.00     0.000 C 
BRANCH  19  20
ATOM     20  C   UNL     1      47.427  64.359  61.124  1.00  0.00     0.006 C 
BRANCH  20  21
ATOM     21  C   UNL     1      48.501  63.275  60.977  1.00  0.00     0.053 C 
BRANCH  21  22
ATOM     22  C   UNL     1      49.675  63.803  60.214  1.00  0.00     0.041 C 
ATOM     23  O   UNL     1      50.253  63.083  59.358  1.00  0.00    -0.550 OA
ATOM     24  O   UNL     1      50.163  65.077  60.484  1.00  0.00    -0.550 OA
ENDBRANCH  21  22
ENDBRANCH  20  21
ENDBRANCH  19  20
ENDBRANCH  18  19
ENDBRANCH  17  18
ENDBRANCH  16  17
ENDBRANCH  15  16
ENDBRANCH  14  15
ENDBRANCH  13  14
ENDBRANCH   1  13
TORSDOF 20
ENDMDL
MODEL 7
REMARK VINA RESULT:    -0.879      3.661      9.542
REMARK INTER + INTRA:          -2.832
REMARK INTER:                  -2.914
REMARK INTRA:                   0.082
REMARK UNBOUND:                -0.925
REMARK SMILES CCCCCCCCCCCCCCCCCCCCCC(=O)[O-]
REMARK SMILES IDX 12 1 11 2 10 3 9 4 8 5 7 6 6 7 5 8 4 9 3 10 2 11 1 12 13 13
REMARK SMILES IDX 14 14 15 15 16 16 17 17 18 18 19 19 20 20 21 21 22 22 23 23
REMARK SMILES IDX 24 24
REMARK H PARENT
REMARK Flexibility Score: inf
ROOT
ATOM      1  C   UNL     1      41.458  65.081  57.457  1.00  0.00     0.000 C 
ENDROOT
BRANCH   1   2
ATOM      2  C   UNL     1      41.778  65.120  58.959  1.00  0.00     0.000 C 
BRANCH   2   3
ATOM      3  C   UNL     1      40.515  65.035  59.832  1.00  0.00     0.000 C 
BRANCH   3   4
ATOM      4  C   UNL     1      39.265  64.652  59.020  1.00  0.00    -0.000 C 
BRANCH   4   5
ATOM      5  C   UNL     1      39.414  63.301  58.293  1.00  0.00    -0.000 C 
BRANCH   5   6
ATOM      6  C   UNL     1      38.571  62.152  58.876  1.00  0.00    -0.000 C 
BRANCH   6   7
ATOM      7  C   UNL     1      38.499  62.114  60.414  1.00  0.00    -0.000 C 
BRANCH   7   8
ATOM      8  C   UNL     1      37.657  60.943  60.965  1.00  0.00    -0.000 C 
BRANCH   8   9
ATOM      9  C   UNL     1      36.148  61.208  60.855  1.00  0.00    -0.000 C 
BRANCH   9  10
ATOM     10  C   UNL     1      35.832  62.698  61.057  1.00  0.00    -0.000 C 
BRANCH  10  11
ATOM     11  C   UNL     1      35.483  63.410  59.741  1.00  0.00    -0.003 C 
ATOM     12  C   UNL     1      35.268  64.913  59.918  1.00  0.00     0.004 C 
ENDBRANCH  10  11
ENDBRANCH   9  10
ENDBRANCH   8   9
ENDBRANCH   7   8
ENDBRANCH   6   7
ENDBRANCH   5   6
ENDBRANCH   4   5
ENDBRANCH   3   4
ENDBRANCH   2   3
ENDBRANCH   1   2
BRANCH   1  13
ATOM     13  C   UNL     1      42.569  64.362  56.676  1.00  0.00     0.000 C 
BRANCH  13  14
ATOM     14  C   UNL     1      42.486  64.603  55.158  1.00  0.00     0.000 C 
BRANCH  14  15
ATOM     15  C   UNL     1      43.465  63.766  54.308  1.00  0.00     0.000 C 
BRANCH  15  16
ATOM     16  C   UNL     1      44.077  62.552  55.028  1.00  0.00     0.000 C 
BRANCH  16  17
ATOM     17  C   UNL     1      45.434  62.864  55.674  1.00  0.00     0.000 C 
BRANCH  17  18
ATOM     18  C   UNL     1      45.773  64.354  55.545  1.00  0.00     0.000 C 
BRANCH  18  19
ATOM     19  C   UNL     1      45.540  65.089  56.874  1.00  0.00     0.000 C 
BRANCH  19  20
ATOM     20  C   UNL     1      46.727  64.953  57.840  1.00  0.00     0.006 C 
BRANCH  20  21
ATOM     21  C   UNL     1      46.523  63.832  58.868  1.00  0.00     0.053 C 
BRANCH  21  22
ATOM     22  C   UNL     1      47.607  63.869  59.900  1.00  0.00     0.041 C 
ATOM     23  O   UNL     1      47.895  62.834  60.556  1.00  0.00    -0.550 OA
ATOM     24  O   UNL     1      48.266  65.063  60.174  1.00  0.00    -0.550 OA
ENDBRANCH  21  22
ENDBRANCH  20  21
ENDBRANCH  19  20
ENDBRANCH  18  19
ENDBRANCH  17  18
ENDBRANCH  16  17
ENDBRANCH  15  16
ENDBRANCH  14  15
ENDBRANCH  13  14
ENDBRANCH   1  13
TORSDOF 20
ENDMDL
MODEL 8
REMARK VINA RESULT:    -0.765      1.983      3.024
REMARK INTER + INTRA:          -2.584
REMARK INTER:                  -1.798
REMARK INTRA:                  -0.786
REMARK UNBOUND:                -0.925
REMARK SMILES CCCCCCCCCCCCCCCCCCCCCC(=O)[O-]
REMARK SMILES IDX 12 1 11 2 10 3 9 4 8 5 7 6 6 7 5 8 4 9 3 10 2 11 1 12 13 13
REMARK SMILES IDX 14 14 15 15 16 16 17 17 18 18 19 19 20 20 21 21 22 22 23 23
REMARK SMILES IDX 24 24
REMARK H PARENT
REMARK Flexibility Score: inf
ROOT
ATOM      1  C   UNL     1      44.461  62.199  54.924  1.00  0.00     0.000 C 
ENDROOT
BRANCH   1   2
ATOM      2  C   UNL     1      44.030  63.349  54.000  1.00  0.00     0.000 C 
BRANCH   2   3
ATOM      3  C   UNL     1      44.789  64.654  54.291  1.00  0.00     0.000 C 
BRANCH   3   4
ATOM      4  C   UNL     1      46.118  64.409  55.027  1.00  0.00    -0.000 C 
BRANCH   4   5
ATOM      5  C   UNL     1      46.188  65.124  56.390  1.00  0.00    -0.000 C 
BRANCH   5   6
ATOM      6  C   UNL     1      44.964  64.915  57.300  1.00  0.00    -0.000 C 
BRANCH   6   7
ATOM      7  C   UNL     1      45.237  64.100  58.579  1.00  0.00    -0.000 C 
BRANCH   7   8
ATOM      8  C   UNL     1      46.141  64.828  59.596  1.00  0.00    -0.000 C 
BRANCH   8   9
ATOM      9  C   UNL     1      47.613  64.845  59.160  1.00  0.00    -0.000 C 
BRANCH   9  10
ATOM     10  C   UNL     1      48.539  64.461  60.323  1.00  0.00    -0.000 C 
BRANCH  10  11
ATOM     11  C   UNL     1      49.050  63.015  60.217  1.00  0.00    -0.003 C 
ATOM     12  C   UNL     1      48.234  62.034  61.059  1.00  0.00     0.004 C 
ENDBRANCH  10  11
ENDBRANCH   9  10
ENDBRANCH   8   9
ENDBRANCH   7   8
ENDBRANCH   6   7
ENDBRANCH   5   6
ENDBRANCH   4   5
ENDBRANCH   3   4
ENDBRANCH   2   3
ENDBRANCH   1   2
BRANCH   1  13
ATOM     13  C   UNL     1      43.647  62.205  56.226  1.00  0.00     0.000 C 
BRANCH  13  14
ATOM     14  C   UNL     1      42.210  62.725  56.033  1.00  0.00     0.000 C 
BRANCH  14  15
ATOM     15  C   UNL     1      42.020  64.234  56.294  1.00  0.00     0.000 C 
BRANCH  15  16
ATOM     16  C   UNL     1      40.744  64.603  57.072  1.00  0.00     0.000 C 
BRANCH  16  17
ATOM     17  C   UNL     1      41.039  65.125  58.485  1.00  0.00     0.000 C 
BRANCH  17  18
ATOM     18  C   UNL     1      39.940  64.703  59.467  1.00  0.00     0.000 C 
BRANCH  18  19
ATOM     19  C   UNL     1      38.561  64.723  58.792  1.00  0.00     0.000 C 
BRANCH  19  20
ATOM     20  C   UNL     1      37.822  63.382  58.919  1.00  0.00     0.006 C 
BRANCH  20  21
ATOM     21  C   UNL     1      37.889  62.805  60.338  1.00  0.00     0.053 C 
BRANCH  21  22
ATOM     22  C   UNL     1      38.261  61.355  60.295  1.00  0.00     0.041 C 
ATOM     23  O   UNL     1      39.350  60.995  59.775  1.00  0.00    -0.550 OA
ATOM     24  O   UNL     1      37.380  60.396  60.784  1.00  0.00    -0.550 OA
ENDBRANCH  21  22
ENDBRANCH  20  21
ENDBRANCH  19  20
ENDBRANCH  18  19
ENDBRANCH  17  18
ENDBRANCH  16  17
ENDBRANCH  15  16
ENDBRANCH  14  15
ENDBRANCH  13  14
ENDBRANCH   1  13
TORSDOF 20
ENDMDL
