MODEL 1
REMARK VINA RESULT:    -6.606      0.000      0.000
REMARK INTER + INTRA:         -11.804
REMARK INTER:                 -10.081
REMARK INTRA:                  -1.722
REMARK UNBOUND:                -1.722
REMARK SMILES CC(=O)CCC=C(C)CCC=C(C)CCC=C(C)C
REMARK SMILES IDX 10 1 11 2 12 3 13 4 14 5 15 6 16 7 18 8 17 9 19 10 9 11 7 12
REMARK SMILES IDX 6 13 8 14 5 15 4 16 2 17 3 18 1 19
REMARK H PARENT
REMARK Flexibility Score: inf
ROOT
ATOM      1  C   UNL     1      31.799  20.506  19.121  1.00  0.00     0.032 C 
ENDROOT
BRANCH   1   2
ATOM      2  C   UNL     1      33.174  20.971  18.710  1.00  0.00    -0.028 C 
ATOM      3  C   UNL     1      33.501  21.436  17.482  1.00  0.00    -0.077 C 
ATOM      4  C   UNL     1      34.916  21.893  17.245  1.00  0.00     0.039 C 
BRANCH   3   5
ATOM      5  C   UNL     1      32.520  21.475  16.328  1.00  0.00     0.034 C 
BRANCH   5   6
ATOM      6  C   UNL     1      32.820  20.357  15.324  1.00  0.00     0.032 C 
BRANCH   6   7
ATOM      7  C   UNL     1      31.815  19.235  15.438  1.00  0.00    -0.028 C 
ATOM      8  C   UNL     1      33.395  17.837  16.774  1.00  0.00     0.039 C 
ATOM      9  C   UNL     1      32.068  18.084  16.097  1.00  0.00    -0.080 C 
ATOM     10  C   UNL     1      30.994  17.029  16.150  1.00  0.00     0.039 C 
ENDBRANCH   6   7
ENDBRANCH   5   6
ENDBRANCH   3   5
ENDBRANCH   1   2
BRANCH   1  11
ATOM     11  C   UNL     1      31.853  19.458  20.244  1.00  0.00     0.034 C 
BRANCH  11  12
ATOM     12  C   UNL     1      31.292  19.997  21.548  1.00  0.00    -0.077 C 
ATOM     13  C   UNL     1      32.055  20.523  22.535  1.00  0.00    -0.028 C 
ATOM     14  C   UNL     1      29.806  19.900  21.779  1.00  0.00     0.039 C 
BRANCH  13  15
ATOM     15  C   UNL     1      33.550  20.738  22.480  1.00  0.00     0.035 C 
BRANCH  15  16
ATOM     16  C   UNL     1      34.283  19.799  23.445  1.00  0.00     0.079 C 
BRANCH  16  17
ATOM     17  C   UNL     1      33.775  19.943  24.856  1.00  0.00     0.130 C 
ATOM     18  O   UNL     1      34.041  20.952  25.492  1.00  0.00    -0.300 OA
ATOM     19  C   UNL     1      32.942  18.872  25.495  1.00  0.00     0.087 C 
ENDBRANCH  16  17
ENDBRANCH  15  16
ENDBRANCH  13  15
ENDBRANCH  11  12
ENDBRANCH   1  11
TORSDOF 9
ENDMDL
MODEL 2
REMARK VINA RESULT:    -6.512      2.829      7.317
REMARK INTER + INTRA:         -11.661
REMARK INTER:                 -10.123
REMARK INTRA:                  -1.538
REMARK UNBOUND:                -1.722
REMARK SMILES CC(=O)CCC=C(C)CCC=C(C)CCC=C(C)C
REMARK SMILES IDX 10 1 11 2 12 3 13 4 14 5 15 6 16 7 18 8 17 9 19 10 9 11 7 12
REMARK SMILES IDX 6 13 8 14 5 15 4 16 2 17 3 18 1 19
REMARK H PARENT
REMARK Flexibility Score: inf
ROOT
ATOM      1  C   UNL     1      32.175  19.758  18.941  1.00  0.00     0.032 C 
ENDROOT
BRANCH   1   2
ATOM      2  C   UNL     1      30.977  19.880  19.851  1.00  0.00    -0.028 C 
ATOM      3  C   UNL     1      31.012  19.772  21.199  1.00  0.00    -0.077 C 
ATOM      4  C   UNL     1      29.727  19.954  21.963  1.00  0.00     0.039 C 
BRANCH   3   5
ATOM      5  C   UNL     1      32.274  19.432  21.966  1.00  0.00     0.034 C 
BRANCH   5   6
ATOM      6  C   UNL     1      32.630  20.555  22.947  1.00  0.00     0.032 C 
BRANCH   6   7
ATOM      7  C   UNL     1      34.078  20.476  23.367  1.00  0.00    -0.028 C 
ATOM      8  C   UNL     1      33.482  19.380  25.530  1.00  0.00     0.039 C 
ATOM      9  C   UNL     1      34.476  19.942  24.541  1.00  0.00    -0.080 C 
ATOM     10  C   UNL     1      35.948  19.912  24.862  1.00  0.00     0.039 C 
ENDBRANCH   6   7
ENDBRANCH   5   6
ENDBRANCH   3   5
ENDBRANCH   1   2
BRANCH   1  11
ATOM     11  C   UNL     1      32.466  21.065  18.187  1.00  0.00     0.034 C 
BRANCH  11  12
ATOM     12  C   UNL     1      33.798  21.669  18.596  1.00  0.00    -0.077 C 
ATOM     13  C   UNL     1      34.842  21.830  17.750  1.00  0.00    -0.028 C 
ATOM     14  C   UNL     1      33.986  22.069  20.037  1.00  0.00     0.039 C 
BRANCH  13  15
ATOM     15  C   UNL     1      34.838  21.525  16.270  1.00  0.00     0.035 C 
BRANCH  15  16
ATOM     16  C   UNL     1      35.225  20.067  16.002  1.00  0.00     0.079 C 
BRANCH  16  17
ATOM     17  C   UNL     1      34.112  19.309  15.329  1.00  0.00     0.130 C 
ATOM     18  O   UNL     1      34.116  18.087  15.351  1.00  0.00    -0.300 OA
ATOM     19  C   UNL     1      32.993  20.025  14.634  1.00  0.00     0.087 C 
ENDBRANCH  16  17
ENDBRANCH  15  16
ENDBRANCH  13  15
ENDBRANCH  11  12
ENDBRANCH   1  11
TORSDOF 9
ENDMDL
MODEL 3
REMARK VINA RESULT:    -6.505      1.440      3.329
REMARK INTER + INTRA:         -11.650
REMARK INTER:                  -9.882
REMARK INTRA:                  -1.768
REMARK UNBOUND:                -1.722
REMARK SMILES CC(=O)CCC=C(C)CCC=C(C)CCC=C(C)C
REMARK SMILES IDX 10 1 11 2 12 3 13 4 14 5 15 6 16 7 18 8 17 9 19 10 9 11 7 12
REMARK SMILES IDX 6 13 8 14 5 15 4 16 2 17 3 18 1 19
REMARK H PARENT
REMARK Flexibility Score: inf
ROOT
ATOM      1  C   UNL     1      32.492  18.859  19.002  1.00  0.00     0.032 C 
ENDROOT
BRANCH   1   2
ATOM      2  C   UNL     1      31.595  18.373  17.890  1.00  0.00    -0.028 C 
ATOM      3  C   UNL     1      32.014  17.714  16.786  1.00  0.00    -0.077 C 
ATOM      4  C   UNL     1      30.982  17.267  15.785  1.00  0.00     0.039 C 
BRANCH   3   5
ATOM      5  C   UNL     1      33.477  17.445  16.493  1.00  0.00     0.034 C 
BRANCH   5   6
ATOM      6  C   UNL     1      33.990  18.381  15.394  1.00  0.00     0.032 C 
BRANCH   6   7
ATOM      7  C   UNL     1      34.682  19.588  15.981  1.00  0.00    -0.028 C 
ATOM      8  C   UNL     1      32.693  21.040  15.565  1.00  0.00     0.039 C 
ATOM      9  C   UNL     1      34.100  20.803  16.063  1.00  0.00    -0.080 C 
ATOM     10  C   UNL     1      34.880  21.941  16.668  1.00  0.00     0.039 C 
ENDBRANCH   6   7
ENDBRANCH   5   6
ENDBRANCH   3   5
ENDBRANCH   1   2
BRANCH   1  11
ATOM     11  C   UNL     1      31.861  20.016  19.792  1.00  0.00     0.034 C 
BRANCH  11  12
ATOM     12  C   UNL     1      32.895  20.776  20.603  1.00  0.00    -0.077 C 
ATOM     13  C   UNL     1      33.077  20.613  21.934  1.00  0.00    -0.028 C 
ATOM     14  C   UNL     1      33.738  21.807  19.896  1.00  0.00     0.039 C 
BRANCH  13  15
ATOM     15  C   UNL     1      32.360  19.610  22.810  1.00  0.00     0.035 C 
BRANCH  15  16
ATOM     16  C   UNL     1      33.280  18.444  23.188  1.00  0.00     0.079 C 
BRANCH  16  17
ATOM     17  C   UNL     1      34.259  18.833  24.264  1.00  0.00     0.130 C 
ATOM     18  O   UNL     1      35.412  18.433  24.203  1.00  0.00    -0.300 OA
ATOM     19  C   UNL     1      33.847  19.708  25.411  1.00  0.00     0.087 C 
ENDBRANCH  16  17
ENDBRANCH  15  16
ENDBRANCH  13  15
ENDBRANCH  11  12
ENDBRANCH   1  11
TORSDOF 9
ENDMDL
MODEL 4
REMARK VINA RESULT:    -6.467      1.716      3.637
REMARK INTER + INTRA:         -11.592
REMARK INTER:                  -9.797
REMARK INTRA:                  -1.795
REMARK UNBOUND:                -1.722
REMARK SMILES CC(=O)CCC=C(C)CCC=C(C)CCC=C(C)C
REMARK SMILES IDX 10 1 11 2 12 3 13 4 14 5 15 6 16 7 18 8 17 9 19 10 9 11 7 12
REMARK SMILES IDX 6 13 8 14 5 15 4 16 2 17 3 18 1 19
REMARK H PARENT
REMARK Flexibility Score: inf
ROOT
ATOM      1  C   UNL     1      32.605  18.904  18.919  1.00  0.00     0.032 C 
ENDROOT
BRANCH   1   2
ATOM      2  C   UNL     1      31.666  18.404  17.849  1.00  0.00    -0.028 C 
ATOM      3  C   UNL     1      32.043  17.731  16.737  1.00  0.00    -0.077 C 
ATOM      4  C   UNL     1      30.973  17.272  15.783  1.00  0.00     0.039 C 
BRANCH   3   5
ATOM      5  C   UNL     1      33.493  17.460  16.391  1.00  0.00     0.034 C 
BRANCH   5   6
ATOM      6  C   UNL     1      33.984  18.435  15.314  1.00  0.00     0.032 C 
BRANCH   6   7
ATOM      7  C   UNL     1      34.656  19.638  15.931  1.00  0.00    -0.028 C 
ATOM      8  C   UNL     1      32.648  21.070  15.542  1.00  0.00     0.039 C 
ATOM      9  C   UNL     1      34.056  20.842  16.040  1.00  0.00    -0.080 C 
ATOM     10  C   UNL     1      34.817  21.978  16.673  1.00  0.00     0.039 C 
ENDBRANCH   6   7
ENDBRANCH   5   6
ENDBRANCH   3   5
ENDBRANCH   1   2
BRANCH   1  11
ATOM     11  C   UNL     1      31.894  19.806  19.939  1.00  0.00     0.034 C 
BRANCH  11  12
ATOM     12  C   UNL     1      32.878  20.647  20.732  1.00  0.00    -0.077 C 
ATOM     13  C   UNL     1      33.119  20.477  22.053  1.00  0.00    -0.028 C 
ATOM     14  C   UNL     1      33.594  21.767  20.021  1.00  0.00     0.039 C 
BRANCH  13  15
ATOM     15  C   UNL     1      32.531  19.395  22.929  1.00  0.00     0.035 C 
BRANCH  15  16
ATOM     16  C   UNL     1      31.756  19.994  24.108  1.00  0.00     0.079 C 
BRANCH  16  17
ATOM     17  C   UNL     1      30.313  19.563  24.103  1.00  0.00     0.130 C 
ATOM     18  O   UNL     1      29.762  19.294  25.160  1.00  0.00    -0.300 OA
ATOM     19  C   UNL     1      29.536  19.463  22.824  1.00  0.00     0.087 C 
ENDBRANCH  16  17
ENDBRANCH  15  16
ENDBRANCH  13  15
ENDBRANCH  11  12
ENDBRANCH   1  11
TORSDOF 9
ENDMDL
MODEL 5
REMARK VINA RESULT:    -6.360      2.977      7.575
REMARK INTER + INTRA:         -11.429
REMARK INTER:                 -10.054
REMARK INTRA:                  -1.374
REMARK UNBOUND:                -1.722
REMARK SMILES CC(=O)CCC=C(C)CCC=C(C)CCC=C(C)C
REMARK SMILES IDX 10 1 11 2 12 3 13 4 14 5 15 6 16 7 18 8 17 9 19 10 9 11 7 12
REMARK SMILES IDX 6 13 8 14 5 15 4 16 2 17 3 18 1 19
REMARK H PARENT
REMARK Flexibility Score: inf
ROOT
ATOM      1  C   UNL     1      32.881  21.030  22.517  1.00  0.00     0.032 C 
ENDROOT
BRANCH   1   2
ATOM      2  C   UNL     1      34.078  20.418  23.201  1.00  0.00    -0.028 C 
ATOM      3  C   UNL     1      34.084  19.222  23.833  1.00  0.00    -0.077 C 
ATOM      4  C   UNL     1      35.375  18.739  24.438  1.00  0.00     0.039 C 
BRANCH   3   5
ATOM      5  C   UNL     1      32.840  18.370  23.996  1.00  0.00     0.034 C 
BRANCH   5   6
ATOM      6  C   UNL     1      32.185  18.623  25.358  1.00  0.00     0.032 C 
BRANCH   6   7
ATOM      7  C   UNL     1      30.796  19.192  25.200  1.00  0.00    -0.028 C 
ATOM      8  C   UNL     1      29.986  18.017  27.249  1.00  0.00     0.039 C 
ATOM      9  C   UNL     1      29.788  18.922  26.056  1.00  0.00    -0.080 C 
ATOM     10  C   UNL     1      28.438  19.543  25.806  1.00  0.00     0.039 C 
ENDBRANCH   6   7
ENDBRANCH   5   6
ENDBRANCH   3   5
ENDBRANCH   1   2
BRANCH   1  11
ATOM     11  C   UNL     1      32.878  20.759  21.004  1.00  0.00     0.034 C 
BRANCH  11  12
ATOM     12  C   UNL     1      31.579  20.119  20.548  1.00  0.00    -0.077 C 
ATOM     13  C   UNL     1      31.346  19.712  19.278  1.00  0.00    -0.028 C 
ATOM     14  C   UNL     1      30.466  19.969  21.553  1.00  0.00     0.039 C 
BRANCH  13  15
ATOM     15  C   UNL     1      32.341  19.744  18.141  1.00  0.00     0.035 C 
BRANCH  15  16
ATOM     16  C   UNL     1      32.170  21.006  17.288  1.00  0.00     0.079 C 
BRANCH  16  17
ATOM     17  C   UNL     1      33.358  21.239  16.393  1.00  0.00     0.130 C 
ATOM     18  O   UNL     1      33.318  20.865  15.229  1.00  0.00    -0.300 OA
ATOM     19  C   UNL     1      34.591  21.927  16.899  1.00  0.00     0.087 C 
ENDBRANCH  16  17
ENDBRANCH  15  16
ENDBRANCH  13  15
ENDBRANCH  11  12
ENDBRANCH   1  11
TORSDOF 9
ENDMDL
MODEL 6
REMARK VINA RESULT:    -6.341      3.051      7.553
REMARK INTER + INTRA:         -11.400
REMARK INTER:                 -10.024
REMARK INTRA:                  -1.376
REMARK UNBOUND:                -1.722
REMARK SMILES CC(=O)CCC=C(C)CCC=C(C)CCC=C(C)C
REMARK SMILES IDX 10 1 11 2 12 3 13 4 14 5 15 6 16 7 18 8 17 9 19 10 9 11 7 12
REMARK SMILES IDX 6 13 8 14 5 15 4 16 2 17 3 18 1 19
REMARK H PARENT
REMARK Flexibility Score: inf
ROOT
ATOM      1  C   UNL     1      31.942  19.449  19.455  1.00  0.00     0.032 C 
ENDROOT
BRANCH   1   2
ATOM      2  C   UNL     1      30.672  19.643  20.246  1.00  0.00    -0.028 C 
ATOM      3  C   UNL     1      30.592  19.650  21.596  1.00  0.00    -0.077 C 
ATOM      4  C   UNL     1      29.248  19.891  22.231  1.00  0.00     0.039 C 
BRANCH   3   5
ATOM      5  C   UNL     1      31.783  19.382  22.493  1.00  0.00     0.034 C 
BRANCH   5   6
ATOM      6  C   UNL     1      31.589  20.042  23.863  1.00  0.00     0.032 C 
BRANCH   6   7
ATOM      7  C   UNL     1      31.508  19.009  24.962  1.00  0.00    -0.028 C 
ATOM      8  C   UNL     1      29.319  19.905  25.763  1.00  0.00     0.039 C 
ATOM      9  C   UNL     1      30.479  18.939  25.831  1.00  0.00    -0.080 C 
ATOM     10  C   UNL     1      30.497  17.868  26.891  1.00  0.00     0.039 C 
ENDBRANCH   6   7
ENDBRANCH   5   6
ENDBRANCH   3   5
ENDBRANCH   1   2
BRANCH   1  11
ATOM     11  C   UNL     1      32.255  20.655  18.556  1.00  0.00     0.034 C 
BRANCH  11  12
ATOM     12  C   UNL     1      33.498  21.395  19.015  1.00  0.00    -0.077 C 
ATOM     13  C   UNL     1      34.451  21.861  18.174  1.00  0.00    -0.028 C 
ATOM     14  C   UNL     1      33.710  21.582  20.496  1.00  0.00     0.039 C 
BRANCH  13  15
ATOM     15  C   UNL     1      34.404  21.803  16.664  1.00  0.00     0.035 C 
BRANCH  15  16
ATOM     16  C   UNL     1      35.136  20.566  16.132  1.00  0.00     0.079 C 
BRANCH  16  17
ATOM     17  C   UNL     1      34.193  19.611  15.449  1.00  0.00     0.130 C 
ATOM     18  O   UNL     1      33.636  19.951  14.415  1.00  0.00    -0.300 OA
ATOM     19  C   UNL     1      33.926  18.246  16.010  1.00  0.00     0.087 C 
ENDBRANCH  16  17
ENDBRANCH  15  16
ENDBRANCH  13  15
ENDBRANCH  11  12
ENDBRANCH   1  11
TORSDOF 9
ENDMDL
MODEL 7
REMARK VINA RESULT:    -6.326      0.893      2.628
REMARK INTER + INTRA:         -11.377
REMARK INTER:                  -9.854
REMARK INTRA:                  -1.523
REMARK UNBOUND:                -1.722
REMARK SMILES CC(=O)CCC=C(C)CCC=C(C)CCC=C(C)C
REMARK SMILES IDX 10 1 11 2 12 3 13 4 14 5 15 6 16 7 18 8 17 9 19 10 9 11 7 12
REMARK SMILES IDX 6 13 8 14 5 15 4 16 2 17 3 18 1 19
REMARK H PARENT
REMARK Flexibility Score: inf
ROOT
ATOM      1  C   UNL     1      31.517  19.500  18.719  1.00  0.00     0.032 C 
ENDROOT
BRANCH   1   2
ATOM      2  C   UNL     1      32.291  18.432  17.986  1.00  0.00    -0.028 C 
ATOM      3  C   UNL     1      32.406  18.342  16.641  1.00  0.00    -0.077 C 
ATOM      4  C   UNL     1      33.246  17.230  16.070  1.00  0.00     0.039 C 
BRANCH   3   5
ATOM      5  C   UNL     1      31.695  19.281  15.688  1.00  0.00     0.034 C 
BRANCH   5   6
ATOM      6  C   UNL     1      32.681  20.284  15.080  1.00  0.00     0.032 C 
BRANCH   6   7
ATOM      7  C   UNL     1      33.261  21.191  16.138  1.00  0.00    -0.028 C 
ATOM      8  C   UNL     1      35.520  20.151  15.916  1.00  0.00     0.039 C 
ATOM      9  C   UNL     1      34.553  21.138  16.525  1.00  0.00    -0.080 C 
ATOM     10  C   UNL     1      35.030  22.091  17.591  1.00  0.00     0.039 C 
ENDBRANCH   6   7
ENDBRANCH   5   6
ENDBRANCH   3   5
ENDBRANCH   1   2
BRANCH   1  11
ATOM     11  C   UNL     1      32.351  20.162  19.827  1.00  0.00     0.034 C 
BRANCH  11  12
ATOM     12  C   UNL     1      31.623  20.158  21.160  1.00  0.00    -0.077 C 
ATOM     13  C   UNL     1      32.215  20.452  22.341  1.00  0.00    -0.028 C 
ATOM     14  C   UNL     1      30.170  19.759  21.177  1.00  0.00     0.039 C 
BRANCH  13  15
ATOM     15  C   UNL     1      33.645  20.906  22.527  1.00  0.00     0.035 C 
BRANCH  15  16
ATOM     16  C   UNL     1      34.381  20.023  23.540  1.00  0.00     0.079 C 
BRANCH  16  17
ATOM     17  C   UNL     1      33.766  20.115  24.911  1.00  0.00     0.130 C 
ATOM     18  O   UNL     1      33.760  21.188  25.498  1.00  0.00    -0.300 OA
ATOM     19  C   UNL     1      33.153  18.916  25.572  1.00  0.00     0.087 C 
ENDBRANCH  16  17
ENDBRANCH  15  16
ENDBRANCH  13  15
ENDBRANCH  11  12
ENDBRANCH   1  11
TORSDOF 9
ENDMDL
MODEL 8
REMARK VINA RESULT:    -6.302      2.983      7.579
REMARK INTER + INTRA:         -11.340
REMARK INTER:                  -9.983
REMARK INTRA:                  -1.358
REMARK UNBOUND:                -1.722
REMARK SMILES CC(=O)CCC=C(C)CCC=C(C)CCC=C(C)C
REMARK SMILES IDX 10 1 11 2 12 3 13 4 14 5 15 6 16 7 18 8 17 9 19 10 9 11 7 12
REMARK SMILES IDX 6 13 8 14 5 15 4 16 2 17 3 18 1 19
REMARK H PARENT
REMARK Flexibility Score: inf
ROOT
ATOM      1  C   UNL     1      32.907  20.946  22.440  1.00  0.00     0.032 C 
ENDROOT
BRANCH   1   2
ATOM      2  C   UNL     1      34.111  20.309  23.089  1.00  0.00    -0.028 C 
ATOM      3  C   UNL     1      34.090  19.166  23.810  1.00  0.00    -0.077 C 
ATOM      4  C   UNL     1      35.391  18.646  24.363  1.00  0.00     0.039 C 
BRANCH   3   5
ATOM      5  C   UNL     1      32.813  18.412  24.123  1.00  0.00     0.034 C 
BRANCH   5   6
ATOM      6  C   UNL     1      32.232  18.865  25.467  1.00  0.00     0.032 C 
BRANCH   6   7
ATOM      7  C   UNL     1      30.787  19.281  25.326  1.00  0.00    -0.028 C 
ATOM      8  C   UNL     1      30.095  17.849  27.251  1.00  0.00     0.039 C 
ATOM      9  C   UNL     1      29.807  18.824  26.133  1.00  0.00    -0.080 C 
ATOM     10  C   UNL     1      28.397  19.304  25.906  1.00  0.00     0.039 C 
ENDBRANCH   6   7
ENDBRANCH   5   6
ENDBRANCH   3   5
ENDBRANCH   1   2
BRANCH   1  11
ATOM     11  C   UNL     1      32.884  20.728  20.919  1.00  0.00     0.034 C 
BRANCH  11  12
ATOM     12  C   UNL     1      31.616  20.026  20.467  1.00  0.00    -0.077 C 
ATOM     13  C   UNL     1      31.372  19.663  19.186  1.00  0.00    -0.028 C 
ATOM     14  C   UNL     1      30.546  19.758  21.493  1.00  0.00     0.039 C 
BRANCH  13  15
ATOM     15  C   UNL     1      32.330  19.813  18.026  1.00  0.00     0.035 C 
BRANCH  15  16
ATOM     16  C   UNL     1      33.196  18.560  17.855  1.00  0.00     0.079 C 
BRANCH  16  17
ATOM     17  C   UNL     1      32.892  17.843  16.567  1.00  0.00     0.130 C 
ATOM     18  O   UNL     1      33.786  17.659  15.754  1.00  0.00    -0.300 OA
ATOM     19  C   UNL     1      31.511  17.343  16.262  1.00  0.00     0.087 C 
ENDBRANCH  16  17
ENDBRANCH  15  16
ENDBRANCH  13  15
ENDBRANCH  11  12
ENDBRANCH   1  11
TORSDOF 9
ENDMDL
MODEL 9
REMARK VINA RESULT:    -6.180      5.411      9.775
REMARK INTER + INTRA:         -11.154
REMARK INTER:                  -9.687
REMARK INTRA:                  -1.467
REMARK UNBOUND:                -1.722
REMARK SMILES CC(=O)CCC=C(C)CCC=C(C)CCC=C(C)C
REMARK SMILES IDX 10 1 11 2 12 3 13 4 14 5 15 6 16 7 18 8 17 9 19 10 9 11 7 12
REMARK SMILES IDX 6 13 8 14 5 15 4 16 2 17 3 18 1 19
REMARK H PARENT
REMARK Flexibility Score: inf
ROOT
ATOM      1  C   UNL     1      28.436  19.251  25.842  1.00  0.00     0.032 C 
ENDROOT
BRANCH   1   2
ATOM      2  C   UNL     1      28.647  18.577  27.175  1.00  0.00    -0.028 C 
ATOM      3  C   UNL     1      28.566  19.192  28.377  1.00  0.00    -0.077 C 
ATOM      4  C   UNL     1      28.772  18.364  29.618  1.00  0.00     0.039 C 
BRANCH   3   5
ATOM      5  C   UNL     1      28.322  20.680  28.526  1.00  0.00     0.034 C 
BRANCH   5   6
ATOM      6  C   UNL     1      26.935  20.944  29.123  1.00  0.00     0.032 C 
BRANCH   6   7
ATOM      7  C   UNL     1      25.840  20.522  28.173  1.00  0.00    -0.028 C 
ATOM      8  C   UNL     1      24.981  18.817  29.781  1.00  0.00     0.039 C 
ATOM      9  C   UNL     1      24.946  19.555  28.464  1.00  0.00    -0.080 C 
ATOM     10  C   UNL     1      23.892  19.212  27.443  1.00  0.00     0.039 C 
ENDBRANCH   6   7
ENDBRANCH   5   6
ENDBRANCH   3   5
ENDBRANCH   1   2
BRANCH   1  11
ATOM     11  C   UNL     1      29.681  20.023  25.379  1.00  0.00     0.034 C 
BRANCH  11  12
ATOM     12  C   UNL     1      30.310  19.396  24.147  1.00  0.00    -0.077 C 
ATOM     13  C   UNL     1      31.512  18.774  24.150  1.00  0.00    -0.028 C 
ATOM     14  C   UNL     1      29.577  19.511  22.835  1.00  0.00     0.039 C 
BRANCH  13  15
ATOM     15  C   UNL     1      32.378  18.526  25.364  1.00  0.00     0.035 C 
BRANCH  15  16
ATOM     16  C   UNL     1      33.451  19.611  25.511  1.00  0.00     0.079 C 
BRANCH  16  17
ATOM     17  C   UNL     1      34.832  19.068  25.251  1.00  0.00     0.130 C 
ATOM     18  O   UNL     1      35.078  18.540  24.177  1.00  0.00    -0.300 OA
ATOM     19  C   UNL     1      35.914  19.168  26.285  1.00  0.00     0.087 C 
ENDBRANCH  16  17
ENDBRANCH  15  16
ENDBRANCH  13  15
ENDBRANCH  11  12
ENDBRANCH   1  11
TORSDOF 9
ENDMDL
