MODEL 1
REMARK VINA RESULT:    -5.402      0.000      0.000
REMARK INTER + INTRA:          -6.337
REMARK INTER:                  -6.192
REMARK INTRA:                  -0.145
REMARK UNBOUND:                -0.145
REMARK SMILES COC(=O)c1ccccc1O
REMARK SMILES IDX 5 1 6 2 7 3 8 4 9 5 10 6 3 7 4 8 2 9 1 10 11 11
REMARK H PARENT 11 12
REMARK Flexibility Score: inf
ROOT
ATOM      1  C   UNL     1      18.862 -10.752  68.362  1.00  0.00     0.101 A 
ATOM      2  C   UNL     1      18.069 -11.909  68.226  1.00  0.00     0.019 A 
ATOM      3  C   UNL     1      17.278 -12.102  67.092  1.00  0.00     0.001 A 
ATOM      4  C   UNL     1      17.265 -11.147  66.076  1.00  0.00     0.004 A 
ATOM      5  C   UNL     1      18.043  -9.995  66.191  1.00  0.00     0.047 A 
ATOM      6  C   UNL     1      18.844  -9.788  67.325  1.00  0.00     0.130 A 
ENDROOT
BRANCH   1   7
ATOM      7  C   UNL     1      19.692 -10.581  69.583  1.00  0.00     0.341 C 
ATOM      8  O   UNL     1      19.610  -9.527  70.272  1.00  0.00    -0.246 OA
BRANCH   7   9
ATOM      9  O   UNL     1      20.572 -11.598  69.970  1.00  0.00    -0.465 OA
ATOM     10  C   UNL     1      21.286 -12.395  69.033  1.00  0.00     0.282 C 
ENDBRANCH   7   9
ENDBRANCH   1   7
BRANCH   6  11
ATOM     11  O   UNL     1      19.612  -8.627  67.415  1.00  0.00    -0.507 OA
ATOM     12  H   UNL     1      19.441  -7.827  66.818  1.00  0.00     0.293 HD
ENDBRANCH   6  11
TORSDOF 3
ENDMDL
MODEL 2
REMARK VINA RESULT:    -5.352      1.247      1.429
REMARK INTER + INTRA:          -6.279
REMARK INTER:                  -5.996
REMARK INTRA:                  -0.282
REMARK UNBOUND:                -0.145
REMARK SMILES COC(=O)c1ccccc1O
REMARK SMILES IDX 5 1 6 2 7 3 8 4 9 5 10 6 3 7 4 8 2 9 1 10 11 11
REMARK H PARENT 11 12
REMARK Flexibility Score: inf
ROOT
ATOM      1  C   UNL     1      19.239 -10.123  67.873  1.00  0.00     0.101 A 
ATOM      2  C   UNL     1      17.846 -10.217  67.687  1.00  0.00     0.019 A 
ATOM      3  C   UNL     1      17.284 -10.073  66.417  1.00  0.00     0.001 A 
ATOM      4  C   UNL     1      18.101  -9.834  65.313  1.00  0.00     0.004 A 
ATOM      5  C   UNL     1      19.484  -9.738  65.475  1.00  0.00     0.047 A 
ATOM      6  C   UNL     1      20.062  -9.881  66.746  1.00  0.00     0.130 A 
ENDROOT
BRANCH   1   7
ATOM      7  C   UNL     1      19.802 -10.281  69.239  1.00  0.00     0.341 C 
ATOM      8  O   UNL     1      19.552  -9.433  70.139  1.00  0.00    -0.246 OA
BRANCH   7   9
ATOM      9  O   UNL     1      20.617 -11.382  69.529  1.00  0.00    -0.465 OA
ATOM     10  C   UNL     1      20.359 -12.684  69.018  1.00  0.00     0.282 C 
ENDBRANCH   7   9
ENDBRANCH   1   7
BRANCH   6  11
ATOM     11  O   UNL     1      21.447  -9.780  66.881  1.00  0.00    -0.507 OA
ATOM     12  H   UNL     1      21.876  -9.414  67.723  1.00  0.00     0.293 HD
ENDBRANCH   6  11
TORSDOF 3
ENDMDL
MODEL 3
REMARK VINA RESULT:    -5.330      0.999      2.067
REMARK INTER + INTRA:          -6.254
REMARK INTER:                  -6.005
REMARK INTRA:                  -0.249
REMARK UNBOUND:                -0.145
REMARK SMILES COC(=O)c1ccccc1O
REMARK SMILES IDX 5 1 6 2 7 3 8 4 9 5 10 6 3 7 4 8 2 9 1 10 11 11
REMARK H PARENT 11 12
REMARK Flexibility Score: inf
ROOT
ATOM      1  C   UNL     1      18.993 -10.754  68.244  1.00  0.00     0.101 A 
ATOM      2  C   UNL     1      19.219  -9.804  67.229  1.00  0.00     0.019 A 
ATOM      3  C   UNL     1      18.551  -9.893  66.006  1.00  0.00     0.001 A 
ATOM      4  C   UNL     1      17.648 -10.930  65.776  1.00  0.00     0.004 A 
ATOM      5  C   UNL     1      17.410 -11.881  66.769  1.00  0.00     0.047 A 
ATOM      6  C   UNL     1      18.074 -11.803  68.003  1.00  0.00     0.130 A 
ENDROOT
BRANCH   1   7
ATOM      7  C   UNL     1      19.723 -10.626  69.533  1.00  0.00     0.341 C 
ATOM      8  O   UNL     1      19.630  -9.573  70.222  1.00  0.00    -0.246 OA
BRANCH   7   9
ATOM      9  O   UNL     1      20.520 -11.684  69.985  1.00  0.00    -0.465 OA
ATOM     10  C   UNL     1      21.300 -12.488  69.108  1.00  0.00     0.282 C 
ENDBRANCH   7   9
ENDBRANCH   1   7
BRANCH   6  11
ATOM     11  O   UNL     1      17.818 -12.767  68.979  1.00  0.00    -0.507 OA
ATOM     12  H   UNL     1      17.089 -13.462  68.864  1.00  0.00     0.293 HD
ENDBRANCH   6  11
TORSDOF 3
ENDMDL
MODEL 4
REMARK VINA RESULT:    -4.832      2.819      4.466
REMARK INTER + INTRA:          -5.683
REMARK INTER:                  -5.395
REMARK INTRA:                  -0.288
REMARK UNBOUND:                -0.145
REMARK SMILES COC(=O)c1ccccc1O
REMARK SMILES IDX 5 1 6 2 7 3 8 4 9 5 10 6 3 7 4 8 2 9 1 10 11 11
REMARK H PARENT 11 12
REMARK Flexibility Score: inf
ROOT
ATOM      1  C   UNL     1      19.453  -9.811  65.482  1.00  0.00     0.101 A 
ATOM      2  C   UNL     1      18.063  -9.907  65.688  1.00  0.00     0.019 A 
ATOM      3  C   UNL     1      17.534  -9.945  66.981  1.00  0.00     0.001 A 
ATOM      4  C   UNL     1      18.382  -9.888  68.086  1.00  0.00     0.004 A 
ATOM      5  C   UNL     1      19.762  -9.793  67.903  1.00  0.00     0.047 A 
ATOM      6  C   UNL     1      20.307  -9.753  66.610  1.00  0.00     0.130 A 
ENDROOT
BRANCH   1   7
ATOM      7  C   UNL     1      19.979  -9.773  64.093  1.00  0.00     0.341 C 
ATOM      8  O   UNL     1      19.329 -10.292  63.145  1.00  0.00    -0.246 OA
BRANCH   7   9
ATOM      9  O   UNL     1      21.208  -9.155  63.835  1.00  0.00    -0.465 OA
ATOM     10  C   UNL     1      22.113  -9.627  62.844  1.00  0.00     0.282 C 
ENDBRANCH   7   9
ENDBRANCH   1   7
BRANCH   6  11
ATOM     11  O   UNL     1      21.690  -9.657  66.455  1.00  0.00    -0.507 OA
ATOM     12  H   UNL     1      22.149  -9.923  65.592  1.00  0.00     0.293 HD
ENDBRANCH   6  11
TORSDOF 3
ENDMDL
MODEL 5
REMARK VINA RESULT:    -4.699     17.984     19.661
REMARK INTER + INTRA:          -5.531
REMARK INTER:                  -5.276
REMARK INTRA:                  -0.255
REMARK UNBOUND:                -0.145
REMARK SMILES COC(=O)c1ccccc1O
REMARK SMILES IDX 5 1 6 2 7 3 8 4 9 5 10 6 3 7 4 8 2 9 1 10 11 11
REMARK H PARENT 11 12
REMARK Flexibility Score: inf
ROOT
ATOM      1  C   UNL     1      14.557   3.748  56.214  1.00  0.00     0.101 A 
ATOM      2  C   UNL     1      13.544   4.092  57.129  1.00  0.00     0.019 A 
ATOM      3  C   UNL     1      12.812   5.271  56.974  1.00  0.00     0.001 A 
ATOM      4  C   UNL     1      13.078   6.125  55.904  1.00  0.00     0.004 A 
ATOM      5  C   UNL     1      14.078   5.802  54.986  1.00  0.00     0.047 A 
ATOM      6  C   UNL     1      14.821   4.620  55.129  1.00  0.00     0.130 A 
ENDROOT
BRANCH   1   7
ATOM      7  C   UNL     1      15.315   2.485  56.411  1.00  0.00     0.341 C 
ATOM      8  O   UNL     1      16.559   2.507  56.617  1.00  0.00    -0.246 OA
BRANCH   7   9
ATOM      9  O   UNL     1      14.641   1.259  56.367  1.00  0.00    -0.465 OA
ATOM     10  C   UNL     1      13.607   0.984  55.429  1.00  0.00     0.282 C 
ENDBRANCH   7   9
ENDBRANCH   1   7
BRANCH   6  11
ATOM     11  O   UNL     1      15.815   4.321  54.198  1.00  0.00    -0.507 OA
ATOM     12  H   UNL     1      16.698   3.906  54.474  1.00  0.00     0.293 HD
ENDBRANCH   6  11
TORSDOF 3
ENDMDL
MODEL 6
REMARK VINA RESULT:    -4.561      2.314      3.423
REMARK INTER + INTRA:          -5.372
REMARK INTER:                  -5.038
REMARK INTRA:                  -0.335
REMARK UNBOUND:                -0.145
REMARK SMILES COC(=O)c1ccccc1O
REMARK SMILES IDX 5 1 6 2 7 3 8 4 9 5 10 6 3 7 4 8 2 9 1 10 11 11
REMARK H PARENT 11 12
REMARK Flexibility Score: inf
ROOT
ATOM      1  C   UNL     1      19.218 -10.548  65.491  1.00  0.00     0.101 A 
ATOM      2  C   UNL     1      18.349 -11.595  65.126  1.00  0.00     0.019 A 
ATOM      3  C   UNL     1      17.178 -11.835  65.848  1.00  0.00     0.001 A 
ATOM      4  C   UNL     1      16.855 -11.037  66.944  1.00  0.00     0.004 A 
ATOM      5  C   UNL     1      17.702  -9.994  67.322  1.00  0.00     0.047 A 
ATOM      6  C   UNL     1      18.881  -9.741  66.605  1.00  0.00     0.130 A 
ENDROOT
BRANCH   1   7
ATOM      7  C   UNL     1      20.455 -10.321  64.699  1.00  0.00     0.341 C 
ATOM      8  O   UNL     1      20.395 -10.136  63.453  1.00  0.00    -0.246 OA
BRANCH   7   9
ATOM      9  O   UNL     1      21.698 -10.315  65.343  1.00  0.00    -0.465 OA
ATOM     10  C   UNL     1      22.119 -11.360  66.211  1.00  0.00     0.282 C 
ENDBRANCH   7   9
ENDBRANCH   1   7
BRANCH   6  11
ATOM     11  O   UNL     1      19.711  -8.693  67.004  1.00  0.00    -0.507 OA
ATOM     12  H   UNL     1      20.234  -8.141  66.334  1.00  0.00     0.293 HD
ENDBRANCH   6  11
TORSDOF 3
ENDMDL
MODEL 7
REMARK VINA RESULT:    -4.552      1.781      2.362
REMARK INTER + INTRA:          -5.362
REMARK INTER:                  -5.076
REMARK INTRA:                  -0.286
REMARK UNBOUND:                -0.145
REMARK SMILES COC(=O)c1ccccc1O
REMARK SMILES IDX 5 1 6 2 7 3 8 4 9 5 10 6 3 7 4 8 2 9 1 10 11 11
REMARK H PARENT 11 12
REMARK Flexibility Score: inf
ROOT
ATOM      1  C   UNL     1      17.875 -11.648  66.759  1.00  0.00     0.101 A 
ATOM      2  C   UNL     1      17.907 -12.598  65.720  1.00  0.00     0.019 A 
ATOM      3  C   UNL     1      17.541 -12.245  64.419  1.00  0.00     0.001 A 
ATOM      4  C   UNL     1      17.138 -10.942  64.134  1.00  0.00     0.004 A 
ATOM      5  C   UNL     1      17.100  -9.986  65.150  1.00  0.00     0.047 A 
ATOM      6  C   UNL     1      17.466 -10.326  66.461  1.00  0.00     0.130 A 
ENDROOT
BRANCH   1   7
ATOM      7  C   UNL     1      18.272 -12.060  68.131  1.00  0.00     0.341 C 
ATOM      8  O   UNL     1      17.735 -13.060  68.682  1.00  0.00    -0.246 OA
BRANCH   7   9
ATOM      9  O   UNL     1      19.250 -11.330  68.817  1.00  0.00    -0.465 OA
ATOM     10  C   UNL     1      20.476 -11.907  69.251  1.00  0.00     0.282 C 
ENDBRANCH   7   9
ENDBRANCH   1   7
BRANCH   6  11
ATOM     11  O   UNL     1      17.418  -9.351  67.458  1.00  0.00    -0.507 OA
ATOM     12  H   UNL     1      16.593  -9.213  68.030  1.00  0.00     0.293 HD
ENDBRANCH   6  11
TORSDOF 3
ENDMDL
MODEL 8
REMARK VINA RESULT:    -4.526      3.788      5.355
REMARK INTER + INTRA:          -5.332
REMARK INTER:                  -5.047
REMARK INTRA:                  -0.285
REMARK UNBOUND:                -0.145
REMARK SMILES COC(=O)c1ccccc1O
REMARK SMILES IDX 5 1 6 2 7 3 8 4 9 5 10 6 3 7 4 8 2 9 1 10 11 11
REMARK H PARENT 11 12
REMARK Flexibility Score: inf
ROOT
ATOM      1  C   UNL     1      17.592 -10.329  64.590  1.00  0.00     0.101 A 
ATOM      2  C   UNL     1      16.995 -10.377  65.865  1.00  0.00     0.019 A 
ATOM      3  C   UNL     1      17.724 -10.040  67.008  1.00  0.00     0.001 A 
ATOM      4  C   UNL     1      19.058  -9.651  66.897  1.00  0.00     0.004 A 
ATOM      5  C   UNL     1      19.667  -9.596  65.643  1.00  0.00     0.047 A 
ATOM      6  C   UNL     1      18.947  -9.931  64.487  1.00  0.00     0.130 A 
ENDROOT
BRANCH   1   7
ATOM      7  C   UNL     1      16.785 -10.694  63.397  1.00  0.00     0.341 C 
ATOM      8  O   UNL     1      15.665 -10.152  63.188  1.00  0.00    -0.246 OA
BRANCH   7   9
ATOM      9  O   UNL     1      17.272 -11.649  62.497  1.00  0.00    -0.465 OA
ATOM     10  C   UNL     1      16.543 -12.819  62.148  1.00  0.00     0.282 C 
ENDBRANCH   7   9
ENDBRANCH   1   7
BRANCH   6  11
ATOM     11  O   UNL     1      19.580  -9.869  63.246  1.00  0.00    -0.507 OA
ATOM     12  H   UNL     1      19.230  -9.282  62.497  1.00  0.00     0.293 HD
ENDBRANCH   6  11
TORSDOF 3
ENDMDL
MODEL 9
REMARK VINA RESULT:    -4.436      2.003      3.197
REMARK INTER + INTRA:          -5.230
REMARK INTER:                  -4.960
REMARK INTRA:                  -0.270
REMARK UNBOUND:                -0.145
REMARK SMILES COC(=O)c1ccccc1O
REMARK SMILES IDX 5 1 6 2 7 3 8 4 9 5 10 6 3 7 4 8 2 9 1 10 11 11
REMARK H PARENT 11 12
REMARK Flexibility Score: inf
ROOT
ATOM      1  C   UNL     1      18.517  -9.905  65.559  1.00  0.00     0.101 A 
ATOM      2  C   UNL     1      17.261 -10.374  65.992  1.00  0.00     0.019 A 
ATOM      3  C   UNL     1      16.262 -10.692  65.069  1.00  0.00     0.001 A 
ATOM      4  C   UNL     1      16.499 -10.548  63.703  1.00  0.00     0.004 A 
ATOM      5  C   UNL     1      17.737 -10.087  63.254  1.00  0.00     0.047 A 
ATOM      6  C   UNL     1      18.751  -9.764  64.170  1.00  0.00     0.130 A 
ENDROOT
BRANCH   1   7
ATOM      7  C   UNL     1      19.557  -9.577  66.570  1.00  0.00     0.341 C 
ATOM      8  O   UNL     1      20.782  -9.647  66.278  1.00  0.00    -0.246 OA
BRANCH   7   9
ATOM      9  O   UNL     1      19.171  -9.186  67.858  1.00  0.00    -0.465 OA
ATOM     10  C   UNL     1      19.508  -9.934  69.020  1.00  0.00     0.282 C 
ENDBRANCH   7   9
ENDBRANCH   1   7
BRANCH   6  11
ATOM     11  O   UNL     1      19.979  -9.304  63.695  1.00  0.00    -0.507 OA
ATOM     12  H   UNL     1      20.041  -8.642  62.930  1.00  0.00     0.293 HD
ENDBRANCH   6  11
TORSDOF 3
ENDMDL
