MODEL 1
REMARK VINA RESULT:    -4.547      0.000      0.000
REMARK INTER + INTRA:          -5.612
REMARK INTER:                  -5.345
REMARK INTRA:                  -0.267
REMARK UNBOUND:                -0.267
REMARK SMILES O=c1cc(-c2ccc(O)c(O)c2)oc2cc(O)cc(O)c12
REMARK SMILES IDX 4 1 3 2 2 3 1 4 21 5 19 6 18 7 16 8 15 9 14 10 13 11 5 12
REMARK SMILES IDX 6 13 7 14 8 15 12 16 10 17 9 18 11 20 20 22 17 24
REMARK H PARENT 9 19 11 21 20 23 17 25
REMARK Flexibility Score: inf
ROOT
ATOM      1  C   UNL     1       6.211   8.323  35.200  1.00  0.00     0.138 A 
ATOM      2  C   UNL     1       5.315   7.568  35.969  1.00  0.00     0.100 A 
ATOM      3  C   UNL     1       5.674   6.285  36.385  1.00  0.00     0.197 A 
ATOM      4  O   UNL     1       4.875   5.655  37.125  1.00  0.00    -0.289 OA
ATOM      5  C   UNL     1       6.925   5.746  36.002  1.00  0.00     0.107 A 
ATOM      6  C   UNL     1       7.380   4.434  36.334  1.00  0.00     0.134 A 
ATOM      7  C   UNL     1       8.685   4.051  35.997  1.00  0.00     0.093 A 
ATOM      8  C   UNL     1       9.529   4.908  35.291  1.00  0.00     0.123 A 
ATOM      9  C   UNL     1       9.075   6.173  34.914  1.00  0.00     0.094 A 
ATOM     10  C   UNL     1       7.790   6.597  35.265  1.00  0.00     0.146 A 
ATOM     11  O   UNL     1       7.401   7.815  34.900  1.00  0.00    -0.456 OA
ENDROOT
BRANCH   1  12
ATOM     12  C   UNL     1       5.880   9.693  34.730  1.00  0.00     0.021 A 
ATOM     13  C   UNL     1       5.932  10.039  33.367  1.00  0.00     0.016 A 
ATOM     14  C   UNL     1       5.625  11.339  32.954  1.00  0.00     0.051 A 
ATOM     15  C   UNL     1       5.269  12.313  33.894  1.00  0.00     0.157 A 
ATOM     16  C   UNL     1       5.534  10.682  35.668  1.00  0.00     0.062 A 
ATOM     17  C   UNL     1       5.225  11.986  35.253  1.00  0.00     0.158 A 
BRANCH  15  18
ATOM     18  O   UNL     1       4.961  13.610  33.485  1.00  0.00    -0.504 OA
ATOM     19  H   UNL     1       5.687  14.287  33.279  1.00  0.00     0.293 HD
ENDBRANCH  15  18
BRANCH  17  20
ATOM     20  O   UNL     1       4.875  12.958  36.187  1.00  0.00    -0.504 OA
ATOM     21  H   UNL     1       3.970  12.955  36.643  1.00  0.00     0.293 HD
ENDBRANCH  17  20
ENDBRANCH   1  12
BRANCH   6  22
ATOM     22  O   UNL     1       6.590   3.469  36.964  1.00  0.00    -0.507 OA
ATOM     23  H   UNL     1       6.176   3.569  37.878  1.00  0.00     0.293 HD
ENDBRANCH   6  22
BRANCH   8  24
ATOM     24  O   UNL     1      10.816   4.488  34.961  1.00  0.00    -0.508 OA
ATOM     25  H   UNL     1      11.286   3.761  35.487  1.00  0.00     0.293 HD
ENDBRANCH   8  24
TORSDOF 5
ENDMDL
MODEL 2
REMARK VINA RESULT:    -4.267      1.824      2.580
REMARK INTER + INTRA:          -5.282
REMARK INTER:                  -5.015
REMARK INTRA:                  -0.267
REMARK UNBOUND:                -0.267
REMARK SMILES O=c1cc(-c2ccc(O)c(O)c2)oc2cc(O)cc(O)c12
REMARK SMILES IDX 4 1 3 2 2 3 1 4 21 5 19 6 18 7 16 8 15 9 14 10 13 11 5 12
REMARK SMILES IDX 6 13 7 14 8 15 12 16 10 17 9 18 11 20 20 22 17 24
REMARK H PARENT 9 19 11 21 20 23 17 25
REMARK Flexibility Score: inf
ROOT
ATOM      1  C   UNL     1       6.827   5.891  35.301  1.00  0.00     0.138 A 
ATOM      2  C   UNL     1       5.769   5.051  35.675  1.00  0.00     0.100 A 
ATOM      3  C   UNL     1       6.045   3.782  36.188  1.00  0.00     0.197 A 
ATOM      4  O   UNL     1       5.077   3.075  36.573  1.00  0.00    -0.289 OA
ATOM      5  C   UNL     1       7.385   3.343  36.297  1.00  0.00     0.107 A 
ATOM      6  C   UNL     1       7.782   2.055  36.768  1.00  0.00     0.134 A 
ATOM      7  C   UNL     1       9.143   1.774  36.941  1.00  0.00     0.093 A 
ATOM      8  C   UNL     1      10.122   2.709  36.606  1.00  0.00     0.123 A 
ATOM      9  C   UNL     1       9.746   3.952  36.094  1.00  0.00     0.094 A 
ATOM     10  C   UNL     1       8.395   4.275  35.942  1.00  0.00     0.146 A 
ATOM     11  O   UNL     1       8.079   5.475  35.464  1.00  0.00    -0.456 OA
ENDROOT
BRANCH   1  12
ATOM     12  C   UNL     1       6.591   7.249  34.749  1.00  0.00     0.021 A 
ATOM     13  C   UNL     1       7.120   7.643  33.505  1.00  0.00     0.016 A 
ATOM     14  C   UNL     1       6.891   8.932  33.015  1.00  0.00     0.051 A 
ATOM     15  C   UNL     1       6.140   9.848  33.760  1.00  0.00     0.157 A 
ATOM     16  C   UNL     1       5.850   8.182  35.496  1.00  0.00     0.062 A 
ATOM     17  C   UNL     1       5.619   9.474  35.003  1.00  0.00     0.158 A 
BRANCH  15  18
ATOM     18  O   UNL     1       5.908  11.134  33.272  1.00  0.00    -0.504 OA
ATOM     19  H   UNL     1       6.606  11.627  32.726  1.00  0.00     0.293 HD
ENDBRANCH  15  18
BRANCH  17  20
ATOM     20  O   UNL     1       4.876  10.389  35.745  1.00  0.00    -0.504 OA
ATOM     21  H   UNL     1       5.251  10.828  36.578  1.00  0.00     0.293 HD
ENDBRANCH  17  20
ENDBRANCH   1  12
BRANCH   6  22
ATOM     22  O   UNL     1       6.890   1.018  37.052  1.00  0.00    -0.507 OA
ATOM     23  H   UNL     1       5.974   0.917  36.643  1.00  0.00     0.293 HD
ENDBRANCH   6  22
BRANCH   8  24
ATOM     24  O   UNL     1      11.467   2.389  36.778  1.00  0.00    -0.508 OA
ATOM     25  H   UNL     1      12.055   2.134  35.994  1.00  0.00     0.293 HD
ENDBRANCH   8  24
TORSDOF 5
ENDMDL
MODEL 3
REMARK VINA RESULT:    -4.245      1.372      1.876
REMARK INTER + INTRA:          -5.256
REMARK INTER:                  -4.978
REMARK INTRA:                  -0.278
REMARK UNBOUND:                -0.267
REMARK SMILES O=c1cc(-c2ccc(O)c(O)c2)oc2cc(O)cc(O)c12
REMARK SMILES IDX 4 1 3 2 2 3 1 4 21 5 19 6 18 7 16 8 15 9 14 10 13 11 5 12
REMARK SMILES IDX 6 13 7 14 8 15 12 16 10 17 9 18 11 20 20 22 17 24
REMARK H PARENT 9 19 11 21 20 23 17 25
REMARK Flexibility Score: inf
ROOT
ATOM      1  C   UNL     1       7.477   7.314  35.015  1.00  0.00     0.138 A 
ATOM      2  C   UNL     1       6.916   6.416  35.934  1.00  0.00     0.100 A 
ATOM      3  C   UNL     1       7.596   5.239  36.250  1.00  0.00     0.197 A 
ATOM      4  O   UNL     1       7.098   4.482  37.123  1.00  0.00    -0.289 OA
ATOM      5  C   UNL     1       8.828   4.946  35.618  1.00  0.00     0.107 A 
ATOM      6  C   UNL     1       9.588   3.757  35.832  1.00  0.00     0.134 A 
ATOM      7  C   UNL     1      10.850   3.630  35.238  1.00  0.00     0.093 A 
ATOM      8  C   UNL     1      11.353   4.619  34.392  1.00  0.00     0.123 A 
ATOM      9  C   UNL     1      10.593   5.761  34.133  1.00  0.00     0.094 A 
ATOM     10  C   UNL     1       9.346   5.933  34.738  1.00  0.00     0.146 A 
ATOM     11  O   UNL     1       8.660   7.042  34.477  1.00  0.00    -0.456 OA
ENDROOT
BRANCH   1  12
ATOM     12  C   UNL     1       6.796   8.581  34.642  1.00  0.00     0.021 A 
ATOM     13  C   UNL     1       6.794   9.056  33.317  1.00  0.00     0.016 A 
ATOM     14  C   UNL     1       6.154  10.257  32.997  1.00  0.00     0.051 A 
ATOM     15  C   UNL     1       5.515  11.004  33.993  1.00  0.00     0.157 A 
ATOM     16  C   UNL     1       6.163   9.346  35.638  1.00  0.00     0.062 A 
ATOM     17  C   UNL     1       5.520  10.550  35.316  1.00  0.00     0.158 A 
BRANCH  15  18
ATOM     18  O   UNL     1       4.875  12.202  33.676  1.00  0.00    -0.504 OA
ATOM     19  H   UNL     1       5.395  13.015  33.368  1.00  0.00     0.293 HD
ENDBRANCH  15  18
BRANCH  17  20
ATOM     20  O   UNL     1       4.887  11.298  36.306  1.00  0.00    -0.504 OA
ATOM     21  H   UNL     1       3.876  11.347  36.369  1.00  0.00     0.293 HD
ENDBRANCH  17  20
ENDBRANCH   1  12
BRANCH   6  22
ATOM     22  O   UNL     1       9.144   2.671  36.590  1.00  0.00    -0.507 OA
ATOM     23  H   UNL     1       8.302   2.661  37.145  1.00  0.00     0.293 HD
ENDBRANCH   6  22
BRANCH   8  24
ATOM     24  O   UNL     1      12.606   4.451  33.807  1.00  0.00    -0.508 OA
ATOM     25  H   UNL     1      13.379   4.044  34.320  1.00  0.00     0.293 HD
ENDBRANCH   8  24
TORSDOF 5
ENDMDL
MODEL 4
REMARK VINA RESULT:    -4.132      1.425      3.103
REMARK INTER + INTRA:          -5.124
REMARK INTER:                  -4.848
REMARK INTRA:                  -0.276
REMARK UNBOUND:                -0.267
REMARK SMILES O=c1cc(-c2ccc(O)c(O)c2)oc2cc(O)cc(O)c12
REMARK SMILES IDX 4 1 3 2 2 3 1 4 21 5 19 6 18 7 16 8 15 9 14 10 13 11 5 12
REMARK SMILES IDX 6 13 7 14 8 15 12 16 10 17 9 18 11 20 20 22 17 24
REMARK H PARENT 9 19 11 21 20 23 17 25
REMARK Flexibility Score: inf
ROOT
ATOM      1  C   UNL     1       7.395   6.884  35.055  1.00  0.00     0.138 A 
ATOM      2  C   UNL     1       8.774   6.640  34.980  1.00  0.00     0.100 A 
ATOM      3  C   UNL     1       9.278   5.403  35.384  1.00  0.00     0.197 A 
ATOM      4  O   UNL     1      10.511   5.191  35.248  1.00  0.00    -0.289 OA
ATOM      5  C   UNL     1       8.400   4.418  35.896  1.00  0.00     0.107 A 
ATOM      6  C   UNL     1       8.808   3.137  36.376  1.00  0.00     0.134 A 
ATOM      7  C   UNL     1       7.836   2.201  36.752  1.00  0.00     0.093 A 
ATOM      8  C   UNL     1       6.478   2.518  36.722  1.00  0.00     0.123 A 
ATOM      9  C   UNL     1       6.072   3.787  36.305  1.00  0.00     0.094 A 
ATOM     10  C   UNL     1       7.015   4.731  35.891  1.00  0.00     0.146 A 
ATOM     11  O   UNL     1       6.586   5.923  35.488  1.00  0.00    -0.456 OA
ENDROOT
BRANCH   1  12
ATOM     12  C   UNL     1       6.805   8.182  34.638  1.00  0.00     0.021 A 
ATOM     13  C   UNL     1       6.940   8.667  33.324  1.00  0.00     0.016 A 
ATOM     14  C   UNL     1       6.384   9.897  32.963  1.00  0.00     0.051 A 
ATOM     15  C   UNL     1       5.692  10.664  33.907  1.00  0.00     0.157 A 
ATOM     16  C   UNL     1       6.121   8.966  35.584  1.00  0.00     0.062 A 
ATOM     17  C   UNL     1       5.561  10.200  35.220  1.00  0.00     0.158 A 
BRANCH  15  18
ATOM     18  O   UNL     1       5.134  11.891  33.549  1.00  0.00    -0.504 OA
ATOM     19  H   UNL     1       4.152  11.978  33.315  1.00  0.00     0.293 HD
ENDBRANCH  15  18
BRANCH  17  20
ATOM     20  O   UNL     1       4.876  10.967  36.160  1.00  0.00    -0.504 OA
ATOM     21  H   UNL     1       4.089  10.594  36.678  1.00  0.00     0.293 HD
ENDBRANCH  17  20
ENDBRANCH   1  12
BRANCH   6  22
ATOM     22  O   UNL     1      10.141   2.747  36.527  1.00  0.00    -0.507 OA
ATOM     23  H   UNL     1      10.642   2.147  35.891  1.00  0.00     0.293 HD
ENDBRANCH   6  22
BRANCH   8  24
ATOM     24  O   UNL     1       5.541   1.566  37.116  1.00  0.00    -0.508 OA
ATOM     25  H   UNL     1       5.633   1.063  37.991  1.00  0.00     0.293 HD
ENDBRANCH   8  24
TORSDOF 5
ENDMDL
MODEL 5
REMARK VINA RESULT:    -3.519      2.909      3.954
REMARK INTER + INTRA:          -4.403
REMARK INTER:                  -4.110
REMARK INTRA:                  -0.293
REMARK UNBOUND:                -0.267
REMARK SMILES O=c1cc(-c2ccc(O)c(O)c2)oc2cc(O)cc(O)c12
REMARK SMILES IDX 4 1 3 2 2 3 1 4 21 5 19 6 18 7 16 8 15 9 14 10 13 11 5 12
REMARK SMILES IDX 6 13 7 14 8 15 12 16 10 17 9 18 11 20 20 22 17 24
REMARK H PARENT 9 19 11 21 20 23 17 25
REMARK Flexibility Score: inf
ROOT
ATOM      1  C   UNL     1       5.274   6.495  34.396  1.00  0.00     0.138 A 
ATOM      2  C   UNL     1       5.132   6.111  33.055  1.00  0.00     0.100 A 
ATOM      3  C   UNL     1       5.065   4.755  32.730  1.00  0.00     0.197 A 
ATOM      4  O   UNL     1       4.876   4.442  31.526  1.00  0.00    -0.289 OA
ATOM      5  C   UNL     1       5.173   3.780  33.750  1.00  0.00     0.107 A 
ATOM      6  C   UNL     1       5.159   2.370  33.530  1.00  0.00     0.134 A 
ATOM      7  C   UNL     1       5.157   1.501  34.629  1.00  0.00     0.093 A 
ATOM      8  C   UNL     1       5.228   1.987  35.934  1.00  0.00     0.123 A 
ATOM      9  C   UNL     1       5.297   3.364  36.157  1.00  0.00     0.094 A 
ATOM     10  C   UNL     1       5.266   4.257  35.084  1.00  0.00     0.146 A 
ATOM     11  O   UNL     1       5.319   5.561  35.340  1.00  0.00    -0.456 OA
ENDROOT
BRANCH   1  12
ATOM     12  C   UNL     1       5.352   7.922  34.798  1.00  0.00     0.021 A 
ATOM     13  C   UNL     1       5.191   8.322  36.139  1.00  0.00     0.016 A 
ATOM     14  C   UNL     1       5.258   9.674  36.487  1.00  0.00     0.051 A 
ATOM     15  C   UNL     1       5.478  10.647  35.505  1.00  0.00     0.157 A 
ATOM     16  C   UNL     1       5.558   8.908  33.817  1.00  0.00     0.062 A 
ATOM     17  C   UNL     1       5.627  10.264  34.167  1.00  0.00     0.158 A 
BRANCH  15  18
ATOM     18  O   UNL     1       5.547  11.996  35.850  1.00  0.00    -0.504 OA
ATOM     19  H   UNL     1       6.384  12.543  35.683  1.00  0.00     0.293 HD
ENDBRANCH  15  18
BRANCH  17  20
ATOM     20  O   UNL     1       5.841  11.235  33.191  1.00  0.00    -0.504 OA
ATOM     21  H   UNL     1       5.071  11.666  32.693  1.00  0.00     0.293 HD
ENDBRANCH  17  20
ENDBRANCH   1  12
BRANCH   6  22
ATOM     22  O   UNL     1       5.174   1.776  32.266  1.00  0.00    -0.507 OA
ATOM     23  H   UNL     1       5.736   2.087  31.488  1.00  0.00     0.293 HD
ENDBRANCH   6  22
BRANCH   8  24
ATOM     24  O   UNL     1       5.238   1.093  37.002  1.00  0.00    -0.508 OA
ATOM     25  H   UNL     1       5.687   1.322  37.880  1.00  0.00     0.293 HD
ENDBRANCH   8  24
TORSDOF 5
ENDMDL
MODEL 6
REMARK VINA RESULT:    -3.476      1.634      7.284
REMARK INTER + INTRA:          -4.353
REMARK INTER:                  -4.090
REMARK INTRA:                  -0.263
REMARK UNBOUND:                -0.267
REMARK SMILES O=c1cc(-c2ccc(O)c(O)c2)oc2cc(O)cc(O)c12
REMARK SMILES IDX 4 1 3 2 2 3 1 4 21 5 19 6 18 7 16 8 15 9 14 10 13 11 5 12
REMARK SMILES IDX 6 13 7 14 8 15 12 16 10 17 9 18 11 20 20 22 17 24
REMARK H PARENT 9 19 11 21 20 23 17 25
REMARK Flexibility Score: inf
ROOT
ATOM      1  C   UNL     1       7.232   7.021  35.057  1.00  0.00     0.138 A 
ATOM      2  C   UNL     1       7.339   7.344  33.697  1.00  0.00     0.100 A 
ATOM      3  C   UNL     1       6.895   8.588  33.247  1.00  0.00     0.197 A 
ATOM      4  O   UNL     1       7.061   8.874  32.033  1.00  0.00    -0.289 OA
ATOM      5  C   UNL     1       6.312   9.500  34.159  1.00  0.00     0.107 A 
ATOM      6  C   UNL     1       5.787  10.780  33.805  1.00  0.00     0.134 A 
ATOM      7  C   UNL     1       5.340  11.643  34.812  1.00  0.00     0.093 A 
ATOM      8  C   UNL     1       5.341  11.254  36.151  1.00  0.00     0.123 A 
ATOM      9  C   UNL     1       5.802   9.983  36.502  1.00  0.00     0.094 A 
ATOM     10  C   UNL     1       6.287   9.111  35.524  1.00  0.00     0.146 A 
ATOM     11  O   UNL     1       6.730   7.916  35.902  1.00  0.00    -0.456 OA
ENDROOT
BRANCH   1  12
ATOM     12  C   UNL     1       7.688   5.712  35.590  1.00  0.00     0.021 A 
ATOM     13  C   UNL     1       9.008   5.516  36.038  1.00  0.00     0.016 A 
ATOM     14  C   UNL     1       9.412   4.269  36.525  1.00  0.00     0.051 A 
ATOM     15  C   UNL     1       8.510   3.200  36.565  1.00  0.00     0.157 A 
ATOM     16  C   UNL     1       6.793   4.628  35.622  1.00  0.00     0.062 A 
ATOM     17  C   UNL     1       7.199   3.378  36.112  1.00  0.00     0.158 A 
BRANCH  15  18
ATOM     18  O   UNL     1       8.910   1.956  37.052  1.00  0.00    -0.504 OA
ATOM     19  H   UNL     1       9.051   1.795  38.043  1.00  0.00     0.293 HD
ENDBRANCH  15  18
BRANCH  17  20
ATOM     20  O   UNL     1       6.304   2.311  36.149  1.00  0.00    -0.504 OA
ATOM     21  H   UNL     1       5.417   2.379  36.635  1.00  0.00     0.293 HD
ENDBRANCH  17  20
ENDBRANCH   1  12
BRANCH   6  22
ATOM     22  O   UNL     1       5.661  11.236  32.491  1.00  0.00    -0.507 OA
ATOM     23  H   UNL     1       4.800  11.546  32.067  1.00  0.00     0.293 HD
ENDBRANCH   6  22
BRANCH   8  24
ATOM     24  O   UNL     1       4.875  12.134  37.125  1.00  0.00    -0.508 OA
ATOM     25  H   UNL     1       3.926  12.487  37.108  1.00  0.00     0.293 HD
ENDBRANCH   8  24
TORSDOF 5
ENDMDL
MODEL 7
REMARK VINA RESULT:    -3.223      1.418      7.304
REMARK INTER + INTRA:          -4.056
REMARK INTER:                  -3.781
REMARK INTRA:                  -0.274
REMARK UNBOUND:                -0.267
REMARK SMILES O=c1cc(-c2ccc(O)c(O)c2)oc2cc(O)cc(O)c12
REMARK SMILES IDX 4 1 3 2 2 3 1 4 21 5 19 6 18 7 16 8 15 9 14 10 13 11 5 12
REMARK SMILES IDX 6 13 7 14 8 15 12 16 10 17 9 18 11 20 20 22 17 24
REMARK H PARENT 9 19 11 21 20 23 17 25
REMARK Flexibility Score: inf
ROOT
ATOM      1  C   UNL     1       7.205   7.683  35.030  1.00  0.00     0.138 A 
ATOM      2  C   UNL     1       7.222   7.975  33.659  1.00  0.00     0.100 A 
ATOM      3  C   UNL     1       6.726   9.200  33.209  1.00  0.00     0.197 A 
ATOM      4  O   UNL     1       6.811   9.460  31.981  1.00  0.00    -0.289 OA
ATOM      5  C   UNL     1       6.182  10.122  34.135  1.00  0.00     0.107 A 
ATOM      6  C   UNL     1       5.612  11.383  33.785  1.00  0.00     0.134 A 
ATOM      7  C   UNL     1       5.209  12.262  34.799  1.00  0.00     0.093 A 
ATOM      8  C   UNL     1       5.301  11.904  36.144  1.00  0.00     0.123 A 
ATOM      9  C   UNL     1       5.808  10.651  36.494  1.00  0.00     0.094 A 
ATOM     10  C   UNL     1       6.249   9.765  35.507  1.00  0.00     0.146 A 
ATOM     11  O   UNL     1       6.738   8.588  35.883  1.00  0.00    -0.456 OA
ENDROOT
BRANCH   1  12
ATOM     12  C   UNL     1       7.718   6.395  35.562  1.00  0.00     0.021 A 
ATOM     13  C   UNL     1       7.011   5.662  36.534  1.00  0.00     0.016 A 
ATOM     14  C   UNL     1       7.523   4.459  37.026  1.00  0.00     0.051 A 
ATOM     15  C   UNL     1       8.751   3.972  36.562  1.00  0.00     0.157 A 
ATOM     16  C   UNL     1       8.958   5.905  35.113  1.00  0.00     0.062 A 
ATOM     17  C   UNL     1       9.471   4.696  35.606  1.00  0.00     0.158 A 
BRANCH  15  18
ATOM     18  O   UNL     1       9.264   2.770  37.049  1.00  0.00    -0.504 OA
ATOM     19  H   UNL     1       9.540   2.021  36.426  1.00  0.00     0.293 HD
ENDBRANCH  15  18
BRANCH  17  20
ATOM     20  O   UNL     1      10.695   4.212  35.149  1.00  0.00    -0.504 OA
ATOM     21  H   UNL     1      10.758   3.359  34.605  1.00  0.00     0.293 HD
ENDBRANCH  17  20
ENDBRANCH   1  12
BRANCH   6  22
ATOM     22  O   UNL     1       5.396  11.806  32.471  1.00  0.00    -0.507 OA
ATOM     23  H   UNL     1       4.940  11.260  31.757  1.00  0.00     0.293 HD
ENDBRANCH   6  22
BRANCH   8  24
ATOM     24  O   UNL     1       4.878  12.798  37.124  1.00  0.00    -0.508 OA
ATOM     25  H   UNL     1       4.982  13.799  37.008  1.00  0.00     0.293 HD
ENDBRANCH   8  24
TORSDOF 5
ENDMDL
MODEL 8
REMARK VINA RESULT:    -2.913      2.712      5.172
REMARK INTER + INTRA:          -3.691
REMARK INTER:                  -3.396
REMARK INTRA:                  -0.295
REMARK UNBOUND:                -0.267
REMARK SMILES O=c1cc(-c2ccc(O)c(O)c2)oc2cc(O)cc(O)c12
REMARK SMILES IDX 4 1 3 2 2 3 1 4 21 5 19 6 18 7 16 8 15 9 14 10 13 11 5 12
REMARK SMILES IDX 6 13 7 14 8 15 12 16 10 17 9 18 11 20 20 22 17 24
REMARK H PARENT 9 19 11 21 20 23 17 25
REMARK Flexibility Score: inf
ROOT
ATOM      1  C   UNL     1       5.569  12.528  34.863  1.00  0.00     0.138 A 
ATOM      2  C   UNL     1       5.769  12.231  33.508  1.00  0.00     0.100 A 
ATOM      3  C   UNL     1       5.927  10.902  33.110  1.00  0.00     0.197 A 
ATOM      4  O   UNL     1       6.043  10.661  31.880  1.00  0.00    -0.289 OA
ATOM      5  C   UNL     1       5.915   9.871  34.079  1.00  0.00     0.107 A 
ATOM      6  C   UNL     1       6.106   8.485  33.793  1.00  0.00     0.134 A 
ATOM      7  C   UNL     1       5.958   7.543  34.818  1.00  0.00     0.093 A 
ATOM      8  C   UNL     1       5.686   7.938  36.128  1.00  0.00     0.123 A 
ATOM      9  C   UNL     1       5.550   9.295  36.428  1.00  0.00     0.094 A 
ATOM     10  C   UNL     1       5.658  10.257  35.421  1.00  0.00     0.146 A 
ATOM     11  O   UNL     1       5.508  11.537  35.746  1.00  0.00    -0.456 OA
ENDROOT
BRANCH   1  12
ATOM     12  C   UNL     1       5.397  13.924  35.342  1.00  0.00     0.021 A 
ATOM     13  C   UNL     1       5.138  14.214  36.695  1.00  0.00     0.016 A 
ATOM     14  C   UNL     1       4.970  15.536  37.116  1.00  0.00     0.051 A 
ATOM     15  C   UNL     1       5.050  16.586  36.195  1.00  0.00     0.157 A 
ATOM     16  C   UNL     1       5.462  14.984  34.422  1.00  0.00     0.062 A 
ATOM     17  C   UNL     1       5.294  16.311  34.845  1.00  0.00     0.158 A 
BRANCH  15  18
ATOM     18  O   UNL     1       4.884  17.906  36.612  1.00  0.00    -0.504 OA
ATOM     19  H   UNL     1       5.679  18.508  36.793  1.00  0.00     0.293 HD
ENDBRANCH  15  18
BRANCH  17  20
ATOM     20  O   UNL     1       5.369  17.358  33.928  1.00  0.00    -0.504 OA
ATOM     21  H   UNL     1       5.932  17.289  33.089  1.00  0.00     0.293 HD
ENDBRANCH  17  20
ENDBRANCH   1  12
BRANCH   6  22
ATOM     22  O   UNL     1       6.465   7.989  32.537  1.00  0.00    -0.507 OA
ATOM     23  H   UNL     1       7.069   8.460  31.881  1.00  0.00     0.293 HD
ENDBRANCH   6  22
BRANCH   8  24
ATOM     24  O   UNL     1       5.559   6.973  37.125  1.00  0.00    -0.508 OA
ATOM     25  H   UNL     1       5.693   7.202  38.103  1.00  0.00     0.293 HD
ENDBRANCH   8  24
TORSDOF 5
ENDMDL
