MODEL 1
REMARK VINA RESULT:    -6.509      0.000      0.000
REMARK INTER + INTRA:         -10.706
REMARK INTER:                  -9.553
REMARK INTRA:                  -1.153
REMARK UNBOUND:                -1.153
REMARK SMILES O=c1c(O[C@@H]2O[C@H](CO)[C@@H](O)[C@@H](O)[C@H]2O)c(-c2ccc(O)c(O)c2)oc2cc(O)cc(O)c12
REMARK SMILES IDX 4 1 3 2 16 3 25 4 2 5 26 6 1 7 33 8 27 9 31 10 28 11 30 12
REMARK SMILES IDX 17 13 18 14 19 15 20 16 24 17 22 18 21 19 23 21 32 23 29 25
REMARK SMILES IDX 5 27 14 28 6 29 12 30 7 31 10 32 15 33 13 35 8 37 9 38 11 40
REMARK H PARENT 21 20 23 22 32 24 29 26 15 34 13 36 9 39 11 41
REMARK Flexibility Score: inf
ROOT
ATOM      1  O   UNL     1      35.847   6.305 -20.514  1.00  0.00    -0.454 OA
ENDROOT
BRANCH   1   2
ATOM      2  C   UNL     1      34.623   6.057 -21.146  1.00  0.00     0.214 A 
ATOM      3  C   UNL     1      34.496   5.092 -22.168  1.00  0.00     0.180 A 
ATOM      4  O   UNL     1      33.332   4.947 -22.796  1.00  0.00    -0.452 OA
ATOM      5  C   UNL     1      33.493   6.787 -20.761  1.00  0.00     0.239 A 
ATOM      6  C   UNL     1      32.244   5.645 -22.487  1.00  0.00     0.146 A 
ATOM      7  O   UNL     1      33.592   7.620 -19.819  1.00  0.00    -0.285 OA
ATOM      8  C   UNL     1      32.272   6.593 -21.438  1.00  0.00     0.111 A 
ATOM      9  C   UNL     1      31.066   5.422 -23.204  1.00  0.00     0.094 A 
ATOM     10  C   UNL     1      31.091   7.308 -21.124  1.00  0.00     0.134 A 
ATOM     11  C   UNL     1      29.903   6.132 -22.890  1.00  0.00     0.123 A 
ATOM     12  C   UNL     1      29.917   7.068 -21.854  1.00  0.00     0.093 A 
BRANCH   3  13
ATOM     13  C   UNL     1      35.617   4.212 -22.567  1.00  0.00     0.025 A 
ATOM     14  C   UNL     1      35.415   2.828 -22.646  1.00  0.00     0.016 A 
ATOM     15  C   UNL     1      36.463   1.983 -23.020  1.00  0.00     0.051 A 
ATOM     16  C   UNL     1      37.730   2.501 -23.309  1.00  0.00     0.157 A 
ATOM     17  C   UNL     1      36.894   4.734 -22.830  1.00  0.00     0.062 A 
ATOM     18  C   UNL     1      37.950   3.895 -23.207  1.00  0.00     0.158 A 
BRANCH  16  19
ATOM     19  O   UNL     1      38.732   1.605 -23.686  1.00  0.00    -0.504 OA
ATOM     20  H   UNL     1      39.629   1.536 -23.229  1.00  0.00     0.293 HD
ENDBRANCH  16  19
BRANCH  18  21
ATOM     21  O   UNL     1      39.189   4.485 -23.465  1.00  0.00    -0.504 OA
ATOM     22  H   UNL     1      39.735   4.977 -22.772  1.00  0.00     0.293 HD
ENDBRANCH  18  21
ENDBRANCH   3  13
BRANCH  10  23
ATOM     23  O   UNL     1      31.075   8.251 -20.095  1.00  0.00    -0.507 OA
ATOM     24  H   UNL     1      30.214   8.681 -19.779  1.00  0.00     0.293 HD
ENDBRANCH  10  23
BRANCH  11  25
ATOM     25  O   UNL     1      28.724   5.915 -23.602  1.00  0.00    -0.508 OA
ATOM     26  H   UNL     1      27.839   6.296 -23.290  1.00  0.00     0.293 HD
ENDBRANCH  11  25
ENDBRANCH   1   2
BRANCH   1  27
ATOM     27  C   UNL     1      36.112   5.927 -19.160  1.00  0.00     0.339 C 
ATOM     28  C   UNL     1      36.299   4.402 -19.032  1.00  0.00     0.214 C 
ATOM     29  O   UNL     1      37.211   6.660 -18.637  1.00  0.00    -0.332 OA
ATOM     30  C   UNL     1      37.621   3.985 -19.696  1.00  0.00     0.180 C 
ATOM     31  C   UNL     1      38.472   6.329 -19.217  1.00  0.00     0.179 C 
ATOM     32  C   UNL     1      38.796   4.815 -19.152  1.00  0.00     0.177 C 
BRANCH  28  33
ATOM     33  O   UNL     1      36.297   4.037 -17.674  1.00  0.00    -0.384 OA
ATOM     34  H   UNL     1      37.086   3.451 -17.532  1.00  0.00     0.211 HD
ENDBRANCH  28  33
BRANCH  30  35
ATOM     35  O   UNL     1      37.855   2.602 -19.567  1.00  0.00    -0.387 OA
ATOM     36  H   UNL     1      38.797   2.469 -19.285  1.00  0.00     0.211 HD
ENDBRANCH  30  35
BRANCH  31  37
ATOM     37  C   UNL     1      38.666   6.932 -20.622  1.00  0.00     0.191 C 
BRANCH  37  38
ATOM     38  O   UNL     1      39.756   6.320 -21.256  1.00  0.00    -0.394 OA
ATOM     39  H   UNL     1      39.372   5.707 -21.935  1.00  0.00     0.210 HD
ENDBRANCH  37  38
ENDBRANCH  31  37
BRANCH  32  40
ATOM     40  O   UNL     1      39.067   4.451 -17.821  1.00  0.00    -0.387 OA
ATOM     41  H   UNL     1      38.252   4.009 -17.469  1.00  0.00     0.211 HD
ENDBRANCH  32  40
ENDBRANCH   1  27
TORSDOF 12
ENDMDL
MODEL 2
REMARK VINA RESULT:    -6.319      3.527      5.267
REMARK INTER + INTRA:         -10.427
REMARK INTER:                  -9.024
REMARK INTRA:                  -1.403
REMARK UNBOUND:                -1.153
REMARK SMILES O=c1c(O[C@@H]2O[C@H](CO)[C@@H](O)[C@@H](O)[C@H]2O)c(-c2ccc(O)c(O)c2)oc2cc(O)cc(O)c12
REMARK SMILES IDX 4 1 3 2 16 3 25 4 2 5 26 6 1 7 33 8 27 9 31 10 28 11 30 12
REMARK SMILES IDX 17 13 18 14 19 15 20 16 24 17 22 18 21 19 23 21 32 23 29 25
REMARK SMILES IDX 5 27 14 28 6 29 12 30 7 31 10 32 15 33 13 35 8 37 9 38 11 40
REMARK H PARENT 21 20 23 22 32 24 29 26 15 34 13 36 9 39 11 41
REMARK Flexibility Score: inf
ROOT
ATOM      1  O   UNL     1      34.857   3.798 -20.418  1.00  0.00    -0.454 OA
ENDROOT
BRANCH   1   2
ATOM      2  C   UNL     1      33.627   3.337 -19.937  1.00  0.00     0.214 A 
ATOM      3  C   UNL     1      32.402   3.855 -20.411  1.00  0.00     0.180 A 
ATOM      4  O   UNL     1      31.259   3.445 -19.867  1.00  0.00    -0.452 OA
ATOM      5  C   UNL     1      33.605   2.339 -18.957  1.00  0.00     0.239 A 
ATOM      6  C   UNL     1      31.195   2.527 -18.909  1.00  0.00     0.146 A 
ATOM      7  O   UNL     1      34.695   1.843 -18.561  1.00  0.00    -0.285 OA
ATOM      8  C   UNL     1      32.373   1.917 -18.416  1.00  0.00     0.111 A 
ATOM      9  C   UNL     1      29.947   2.160 -18.399  1.00  0.00     0.094 A 
ATOM     10  C   UNL     1      32.268   0.931 -17.407  1.00  0.00     0.134 A 
ATOM     11  C   UNL     1      29.850   1.186 -17.401  1.00  0.00     0.123 A 
ATOM     12  C   UNL     1      31.005   0.575 -16.910  1.00  0.00     0.093 A 
BRANCH   3  13
ATOM     13  C   UNL     1      32.335   4.840 -21.513  1.00  0.00     0.025 A 
ATOM     14  C   UNL     1      32.454   4.404 -22.840  1.00  0.00     0.016 A 
ATOM     15  C   UNL     1      32.393   5.321 -23.891  1.00  0.00     0.051 A 
ATOM     16  C   UNL     1      32.227   6.686 -23.639  1.00  0.00     0.157 A 
ATOM     17  C   UNL     1      32.195   6.214 -21.255  1.00  0.00     0.062 A 
ATOM     18  C   UNL     1      32.132   7.140 -22.303  1.00  0.00     0.158 A 
BRANCH  16  19
ATOM     19  O   UNL     1      32.165   7.550 -24.736  1.00  0.00    -0.504 OA
ATOM     20  H   UNL     1      32.976   7.937 -25.196  1.00  0.00     0.293 HD
ENDBRANCH  16  19
BRANCH  18  21
ATOM     21  O   UNL     1      31.978   8.488 -21.972  1.00  0.00    -0.504 OA
ATOM     22  H   UNL     1      32.748   9.111 -21.773  1.00  0.00     0.293 HD
ENDBRANCH  18  21
ENDBRANCH   3  13
BRANCH  10  23
ATOM     23  O   UNL     1      33.405   0.305 -16.894  1.00  0.00    -0.507 OA
ATOM     24  H   UNL     1      33.677   0.404 -15.923  1.00  0.00     0.293 HD
ENDBRANCH  10  23
BRANCH  11  25
ATOM     25  O   UNL     1      28.607   0.816 -16.889  1.00  0.00    -0.508 OA
ATOM     26  H   UNL     1      27.798   0.707 -17.489  1.00  0.00     0.293 HD
ENDBRANCH  11  25
ENDBRANCH   1   2
BRANCH   1  27
ATOM     27  C   UNL     1      35.414   5.061 -20.042  1.00  0.00     0.339 C 
ATOM     28  C   UNL     1      36.160   4.966 -18.696  1.00  0.00     0.214 C 
ATOM     29  O   UNL     1      36.227   5.585 -21.084  1.00  0.00    -0.332 OA
ATOM     30  C   UNL     1      37.446   4.143 -18.874  1.00  0.00     0.180 C 
ATOM     31  C   UNL     1      37.435   4.862 -21.310  1.00  0.00     0.179 C 
ATOM     32  C   UNL     1      38.296   4.694 -20.032  1.00  0.00     0.177 C 
BRANCH  28  33
ATOM     33  O   UNL     1      36.466   6.258 -18.231  1.00  0.00    -0.384 OA
ATOM     34  H   UNL     1      37.016   6.145 -17.412  1.00  0.00     0.211 HD
ENDBRANCH  28  33
BRANCH  30  35
ATOM     35  O   UNL     1      38.183   4.064 -17.677  1.00  0.00    -0.387 OA
ATOM     36  H   UNL     1      38.747   3.248 -17.710  1.00  0.00     0.211 HD
ENDBRANCH  30  35
BRANCH  31  37
ATOM     37  C   UNL     1      37.214   3.540 -22.071  1.00  0.00     0.191 C 
BRANCH  37  38
ATOM     38  O   UNL     1      36.092   3.651 -22.902  1.00  0.00    -0.394 OA
ATOM     39  H   UNL     1      35.458   2.947 -22.607  1.00  0.00     0.210 HD
ENDBRANCH  37  38
ENDBRANCH  31  37
BRANCH  32  40
ATOM     40  O   UNL     1      38.850   5.936 -19.674  1.00  0.00    -0.387 OA
ATOM     41  H   UNL     1      39.609   6.103 -20.290  1.00  0.00     0.211 HD
ENDBRANCH  32  40
ENDBRANCH   1  27
TORSDOF 12
ENDMDL
MODEL 3
REMARK VINA RESULT:    -6.227      2.650      7.027
REMARK INTER + INTRA:         -10.292
REMARK INTER:                  -8.959
REMARK INTRA:                  -1.332
REMARK UNBOUND:                -1.153
REMARK SMILES O=c1c(O[C@@H]2O[C@H](CO)[C@@H](O)[C@@H](O)[C@H]2O)c(-c2ccc(O)c(O)c2)oc2cc(O)cc(O)c12
REMARK SMILES IDX 4 1 3 2 16 3 25 4 2 5 26 6 1 7 33 8 27 9 31 10 28 11 30 12
REMARK SMILES IDX 17 13 18 14 19 15 20 16 24 17 22 18 21 19 23 21 32 23 29 25
REMARK SMILES IDX 5 27 14 28 6 29 12 30 7 31 10 32 15 33 13 35 8 37 9 38 11 40
REMARK H PARENT 21 20 23 22 32 24 29 26 15 34 13 36 9 39 11 41
REMARK Flexibility Score: inf
ROOT
ATOM      1  O   UNL     1      33.669   5.319 -21.199  1.00  0.00    -0.454 OA
ENDROOT
BRANCH   1   2
ATOM      2  C   UNL     1      34.915   4.724 -21.428  1.00  0.00     0.214 A 
ATOM      3  C   UNL     1      35.238   3.452 -20.908  1.00  0.00     0.180 A 
ATOM      4  O   UNL     1      36.462   2.961 -21.082  1.00  0.00    -0.452 OA
ATOM      5  C   UNL     1      35.870   5.406 -22.188  1.00  0.00     0.239 A 
ATOM      6  C   UNL     1      37.410   3.591 -21.766  1.00  0.00     0.146 A 
ATOM      7  O   UNL     1      35.572   6.524 -22.691  1.00  0.00    -0.285 OA
ATOM      8  C   UNL     1      37.152   4.846 -22.366  1.00  0.00     0.111 A 
ATOM      9  C   UNL     1      38.668   2.995 -21.895  1.00  0.00     0.094 A 
ATOM     10  C   UNL     1      38.180   5.483 -23.101  1.00  0.00     0.134 A 
ATOM     11  C   UNL     1      39.679   3.630 -22.621  1.00  0.00     0.123 A 
ATOM     12  C   UNL     1      39.434   4.866 -23.222  1.00  0.00     0.093 A 
BRANCH   3  13
ATOM     13  C   UNL     1      34.252   2.624 -20.177  1.00  0.00     0.025 A 
ATOM     14  C   UNL     1      33.665   1.523 -20.815  1.00  0.00     0.016 A 
ATOM     15  C   UNL     1      32.733   0.732 -20.139  1.00  0.00     0.051 A 
ATOM     16  C   UNL     1      32.361   1.032 -18.825  1.00  0.00     0.157 A 
ATOM     17  C   UNL     1      33.861   2.945 -18.866  1.00  0.00     0.062 A 
ATOM     18  C   UNL     1      32.929   2.157 -18.181  1.00  0.00     0.158 A 
BRANCH  16  19
ATOM     19  O   UNL     1      31.431   0.196 -18.202  1.00  0.00    -0.504 OA
ATOM     20  H   UNL     1      31.431  -0.810 -18.286  1.00  0.00     0.293 HD
ENDBRANCH  16  19
BRANCH  18  21
ATOM     21  O   UNL     1      32.597   2.528 -16.876  1.00  0.00    -0.504 OA
ATOM     22  H   UNL     1      31.758   2.227 -16.400  1.00  0.00     0.293 HD
ENDBRANCH  18  21
ENDBRANCH   3  13
BRANCH  10  23
ATOM     23  O   UNL     1      37.965   6.720 -23.711  1.00  0.00    -0.507 OA
ATOM     24  H   UNL     1      37.106   7.239 -23.576  1.00  0.00     0.293 HD
ENDBRANCH  10  23
BRANCH  11  25
ATOM     25  O   UNL     1      40.935   3.040 -22.753  1.00  0.00    -0.508 OA
ATOM     26  H   UNL     1      41.075   2.050 -22.591  1.00  0.00     0.293 HD
ENDBRANCH  11  25
ENDBRANCH   1   2
BRANCH   1  27
ATOM     27  C   UNL     1      32.551   5.141 -22.075  1.00  0.00     0.339 C 
ATOM     28  C   UNL     1      31.423   4.346 -21.388  1.00  0.00     0.214 C 
ATOM     29  O   UNL     1      32.107   6.390 -22.587  1.00  0.00    -0.332 OA
ATOM     30  C   UNL     1      30.777   5.206 -20.291  1.00  0.00     0.180 C 
ATOM     31  C   UNL     1      31.504   7.245 -21.618  1.00  0.00     0.179 C 
ATOM     32  C   UNL     1      30.340   6.572 -20.849  1.00  0.00     0.177 C 
BRANCH  28  33
ATOM     33  O   UNL     1      30.463   3.965 -22.342  1.00  0.00    -0.384 OA
ATOM     34  H   UNL     1      30.946   3.473 -23.055  1.00  0.00     0.211 HD
ENDBRANCH  28  33
BRANCH  30  35
ATOM     35  O   UNL     1      29.711   4.535 -19.661  1.00  0.00    -0.387 OA
ATOM     36  H   UNL     1      28.958   5.172 -19.554  1.00  0.00     0.211 HD
ENDBRANCH  30  35
BRANCH  31  37
ATOM     37  C   UNL     1      32.530   7.927 -20.692  1.00  0.00     0.191 C 
BRANCH  37  38
ATOM     38  O   UNL     1      31.868   8.557 -19.631  1.00  0.00    -0.394 OA
ATOM     39  H   UNL     1      32.062   8.015 -18.823  1.00  0.00     0.210 HD
ENDBRANCH  37  38
ENDBRANCH  31  37
BRANCH  32  40
ATOM     40  O   UNL     1      29.240   6.410 -21.710  1.00  0.00    -0.387 OA
ATOM     41  H   UNL     1      29.598   6.376 -22.635  1.00  0.00     0.211 HD
ENDBRANCH  32  40
ENDBRANCH   1  27
TORSDOF 12
ENDMDL
MODEL 4
REMARK VINA RESULT:    -6.223      4.072      5.900
REMARK INTER + INTRA:         -10.287
REMARK INTER:                  -8.766
REMARK INTRA:                  -1.521
REMARK UNBOUND:                -1.153
REMARK SMILES O=c1c(O[C@@H]2O[C@H](CO)[C@@H](O)[C@@H](O)[C@H]2O)c(-c2ccc(O)c(O)c2)oc2cc(O)cc(O)c12
REMARK SMILES IDX 4 1 3 2 16 3 25 4 2 5 26 6 1 7 33 8 27 9 31 10 28 11 30 12
REMARK SMILES IDX 17 13 18 14 19 15 20 16 24 17 22 18 21 19 23 21 32 23 29 25
REMARK SMILES IDX 5 27 14 28 6 29 12 30 7 31 10 32 15 33 13 35 8 37 9 38 11 40
REMARK H PARENT 21 20 23 22 32 24 29 26 15 34 13 36 9 39 11 41
REMARK Flexibility Score: inf
ROOT
ATOM      1  O   UNL     1      32.428   4.243 -21.201  1.00  0.00    -0.454 OA
ENDROOT
BRANCH   1   2
ATOM      2  C   UNL     1      31.848   3.169 -20.516  1.00  0.00     0.214 A 
ATOM      3  C   UNL     1      32.249   1.836 -20.748  1.00  0.00     0.180 A 
ATOM      4  O   UNL     1      31.614   0.841 -20.134  1.00  0.00    -0.452 OA
ATOM      5  C   UNL     1      30.842   3.419 -19.578  1.00  0.00     0.239 A 
ATOM      6  C   UNL     1      30.629   1.032 -19.263  1.00  0.00     0.146 A 
ATOM      7  O   UNL     1      30.510   4.612 -19.335  1.00  0.00    -0.285 OA
ATOM      8  C   UNL     1      30.204   2.340 -18.933  1.00  0.00     0.111 A 
ATOM      9  C   UNL     1      30.022  -0.078 -18.668  1.00  0.00     0.094 A 
ATOM     10  C   UNL     1      29.162   2.508 -17.989  1.00  0.00     0.134 A 
ATOM     11  C   UNL     1      28.993   0.095 -17.738  1.00  0.00     0.123 A 
ATOM     12  C   UNL     1      28.568   1.382 -17.401  1.00  0.00     0.093 A 
BRANCH   3  13
ATOM     13  C   UNL     1      33.371   1.494 -21.651  1.00  0.00     0.025 A 
ATOM     14  C   UNL     1      33.138   1.364 -23.027  1.00  0.00     0.016 A 
ATOM     15  C   UNL     1      34.186   1.042 -23.891  1.00  0.00     0.051 A 
ATOM     16  C   UNL     1      35.478   0.831 -23.400  1.00  0.00     0.157 A 
ATOM     17  C   UNL     1      34.662   1.256 -21.150  1.00  0.00     0.062 A 
ATOM     18  C   UNL     1      35.719   0.934 -22.010  1.00  0.00     0.158 A 
BRANCH  16  19
ATOM     19  O   UNL     1      36.484   0.520 -24.319  1.00  0.00    -0.504 OA
ATOM     20  H   UNL     1      36.393   0.640 -25.317  1.00  0.00     0.293 HD
ENDBRANCH  16  19
BRANCH  18  21
ATOM     21  O   UNL     1      36.978   0.724 -21.443  1.00  0.00    -0.504 OA
ATOM     22  H   UNL     1      37.225   0.995 -20.502  1.00  0.00     0.293 HD
ENDBRANCH  18  21
ENDBRANCH   3  13
BRANCH  10  23
ATOM     23  O   UNL     1      28.714   3.781 -17.634  1.00  0.00    -0.507 OA
ATOM     24  H   UNL     1      28.712   4.096 -16.671  1.00  0.00     0.293 HD
ENDBRANCH  10  23
BRANCH  11  25
ATOM     25  O   UNL     1      28.384  -1.007 -17.140  1.00  0.00    -0.508 OA
ATOM     26  H   UNL     1      28.780  -1.937 -17.216  1.00  0.00     0.293 HD
ENDBRANCH  11  25
ENDBRANCH   1   2
BRANCH   1  27
ATOM     27  C   UNL     1      31.950   4.704 -22.468  1.00  0.00     0.339 C 
ATOM     28  C   UNL     1      31.014   5.918 -22.306  1.00  0.00     0.214 C 
ATOM     29  O   UNL     1      33.032   4.961 -23.353  1.00  0.00    -0.332 OA
ATOM     30  C   UNL     1      31.827   7.143 -21.859  1.00  0.00     0.180 C 
ATOM     31  C   UNL     1      33.837   6.082 -22.992  1.00  0.00     0.179 C 
ATOM     32  C   UNL     1      33.020   7.385 -22.800  1.00  0.00     0.177 C 
BRANCH  28  33
ATOM     33  O   UNL     1      30.362   6.181 -23.524  1.00  0.00    -0.384 OA
ATOM     34  H   UNL     1      29.602   6.786 -23.318  1.00  0.00     0.211 HD
ENDBRANCH  28  33
BRANCH  30  35
ATOM     35  O   UNL     1      31.018   8.289 -21.736  1.00  0.00    -0.387 OA
ATOM     36  H   UNL     1      31.598   9.059 -21.501  1.00  0.00     0.211 HD
ENDBRANCH  30  35
BRANCH  31  37
ATOM     37  C   UNL     1      34.792   5.786 -21.820  1.00  0.00     0.191 C 
BRANCH  37  38
ATOM     38  O   UNL     1      35.378   4.525 -21.990  1.00  0.00    -0.394 OA
ATOM     39  H   UNL     1      34.632   3.897 -22.177  1.00  0.00     0.210 HD
ENDBRANCH  37  38
ENDBRANCH  31  37
BRANCH  32  40
ATOM     40  O   UNL     1      32.562   7.840 -24.049  1.00  0.00    -0.387 OA
ATOM     41  H   UNL     1      33.276   8.416 -24.427  1.00  0.00     0.211 HD
ENDBRANCH  32  40
ENDBRANCH   1  27
TORSDOF 12
ENDMDL
MODEL 5
REMARK VINA RESULT:    -6.223      3.784      5.646
REMARK INTER + INTRA:         -10.287
REMARK INTER:                  -8.613
REMARK INTRA:                  -1.674
REMARK UNBOUND:                -1.153
REMARK SMILES O=c1c(O[C@@H]2O[C@H](CO)[C@@H](O)[C@@H](O)[C@H]2O)c(-c2ccc(O)c(O)c2)oc2cc(O)cc(O)c12
REMARK SMILES IDX 4 1 3 2 16 3 25 4 2 5 26 6 1 7 33 8 27 9 31 10 28 11 30 12
REMARK SMILES IDX 17 13 18 14 19 15 20 16 24 17 22 18 21 19 23 21 32 23 29 25
REMARK SMILES IDX 5 27 14 28 6 29 12 30 7 31 10 32 15 33 13 35 8 37 9 38 11 40
REMARK H PARENT 21 20 23 22 32 24 29 26 15 34 13 36 9 39 11 41
REMARK Flexibility Score: inf
ROOT
ATOM      1  O   UNL     1      34.201   3.693 -20.139  1.00  0.00    -0.454 OA
ENDROOT
BRANCH   1   2
ATOM      2  C   UNL     1      32.922   3.224 -19.820  1.00  0.00     0.214 A 
ATOM      3  C   UNL     1      31.764   3.749 -20.432  1.00  0.00     0.180 A 
ATOM      4  O   UNL     1      30.564   3.330 -20.040  1.00  0.00    -0.452 OA
ATOM      5  C   UNL     1      32.782   2.211 -18.866  1.00  0.00     0.239 A 
ATOM      6  C   UNL     1      30.384   2.397 -19.112  1.00  0.00     0.146 A 
ATOM      7  O   UNL     1      33.816   1.709 -18.346  1.00  0.00    -0.285 OA
ATOM      8  C   UNL     1      31.494   1.780 -18.487  1.00  0.00     0.111 A 
ATOM      9  C   UNL     1      29.084   2.021 -18.765  1.00  0.00     0.094 A 
ATOM     10  C   UNL     1      31.268   0.778 -17.514  1.00  0.00     0.134 A 
ATOM     11  C   UNL     1      28.867   1.032 -17.802  1.00  0.00     0.123 A 
ATOM     12  C   UNL     1      29.955   0.414 -17.182  1.00  0.00     0.093 A 
BRANCH   3  13
ATOM     13  C   UNL     1      31.830   4.751 -21.519  1.00  0.00     0.025 A 
ATOM     14  C   UNL     1      31.937   4.324 -22.850  1.00  0.00     0.016 A 
ATOM     15  C   UNL     1      32.001   5.257 -23.887  1.00  0.00     0.051 A 
ATOM     16  C   UNL     1      31.974   6.629 -23.616  1.00  0.00     0.157 A 
ATOM     17  C   UNL     1      31.830   6.128 -21.241  1.00  0.00     0.062 A 
ATOM     18  C   UNL     1      31.893   7.071 -22.275  1.00  0.00     0.158 A 
BRANCH  16  19
ATOM     19  O   UNL     1      32.033   7.510 -24.698  1.00  0.00    -0.504 OA
ATOM     20  H   UNL     1      32.881   7.736 -25.196  1.00  0.00     0.293 HD
ENDBRANCH  16  19
BRANCH  18  21
ATOM     21  O   UNL     1      31.875   8.423 -21.924  1.00  0.00    -0.504 OA
ATOM     22  H   UNL     1      32.620   9.070 -22.138  1.00  0.00     0.293 HD
ENDBRANCH  18  21
ENDBRANCH   3  13
BRANCH  10  23
ATOM     23  O   UNL     1      32.335   0.144 -16.875  1.00  0.00    -0.507 OA
ATOM     24  H   UNL     1      32.578   0.349 -15.913  1.00  0.00     0.293 HD
ENDBRANCH  10  23
BRANCH  11  25
ATOM     25  O   UNL     1      27.572   0.653 -17.452  1.00  0.00    -0.508 OA
ATOM     26  H   UNL     1      27.202   0.824 -16.525  1.00  0.00     0.293 HD
ENDBRANCH  11  25
ENDBRANCH   1   2
BRANCH   1  27
ATOM     27  C   UNL     1      35.131   2.940 -20.924  1.00  0.00     0.339 C 
ATOM     28  C   UNL     1      35.556   3.717 -22.186  1.00  0.00     0.214 C 
ATOM     29  O   UNL     1      36.239   2.527 -20.135  1.00  0.00    -0.332 OA
ATOM     30  C   UNL     1      36.439   4.910 -21.787  1.00  0.00     0.180 C 
ATOM     31  C   UNL     1      37.097   3.588 -19.721  1.00  0.00     0.179 C 
ATOM     32  C   UNL     1      37.610   4.455 -20.899  1.00  0.00     0.177 C 
BRANCH  28  33
ATOM     33  O   UNL     1      36.253   2.861 -23.056  1.00  0.00    -0.384 OA
ATOM     34  H   UNL     1      36.124   3.218 -23.974  1.00  0.00     0.211 HD
ENDBRANCH  28  33
BRANCH  30  35
ATOM     35  O   UNL     1      36.886   5.627 -22.913  1.00  0.00    -0.387 OA
ATOM     36  H   UNL     1      37.102   6.553 -22.630  1.00  0.00     0.211 HD
ENDBRANCH  30  35
BRANCH  31  37
ATOM     37  C   UNL     1      36.513   4.420 -18.563  1.00  0.00     0.191 C 
BRANCH  37  38
ATOM     38  O   UNL     1      35.875   3.576 -17.645  1.00  0.00    -0.394 OA
ATOM     39  H   UNL     1      36.164   3.878 -16.745  1.00  0.00     0.210 HD
ENDBRANCH  37  38
ENDBRANCH  31  37
BRANCH  32  40
ATOM     40  O   UNL     1      38.532   3.715 -21.660  1.00  0.00    -0.387 OA
ATOM     41  H   UNL     1      39.060   4.367 -22.189  1.00  0.00     0.211 HD
ENDBRANCH  32  40
ENDBRANCH   1  27
TORSDOF 12
ENDMDL
MODEL 6
REMARK VINA RESULT:    -6.215      2.661      7.043
REMARK INTER + INTRA:         -10.275
REMARK INTER:                  -8.534
REMARK INTRA:                  -1.741
REMARK UNBOUND:                -1.153
REMARK SMILES O=c1c(O[C@@H]2O[C@H](CO)[C@@H](O)[C@@H](O)[C@H]2O)c(-c2ccc(O)c(O)c2)oc2cc(O)cc(O)c12
REMARK SMILES IDX 4 1 3 2 16 3 25 4 2 5 26 6 1 7 33 8 27 9 31 10 28 11 30 12
REMARK SMILES IDX 17 13 18 14 19 15 20 16 24 17 22 18 21 19 23 21 32 23 29 25
REMARK SMILES IDX 5 27 14 28 6 29 12 30 7 31 10 32 15 33 13 35 8 37 9 38 11 40
REMARK H PARENT 21 20 23 22 32 24 29 26 15 34 13 36 9 39 11 41
REMARK Flexibility Score: inf
ROOT
ATOM      1  O   UNL     1      34.087   5.228 -21.244  1.00  0.00    -0.454 OA
ENDROOT
BRANCH   1   2
ATOM      2  C   UNL     1      34.758   4.040 -21.559  1.00  0.00     0.214 A 
ATOM      3  C   UNL     1      34.203   2.775 -21.272  1.00  0.00     0.180 A 
ATOM      4  O   UNL     1      34.910   1.674 -21.514  1.00  0.00    -0.452 OA
ATOM      5  C   UNL     1      36.014   4.104 -22.171  1.00  0.00     0.239 A 
ATOM      6  C   UNL     1      36.121   1.692 -22.060  1.00  0.00     0.146 A 
ATOM      7  O   UNL     1      36.495   5.232 -22.469  1.00  0.00    -0.285 OA
ATOM      8  C   UNL     1      36.727   2.916 -22.429  1.00  0.00     0.111 A 
ATOM      9  C   UNL     1      36.788   0.483 -22.277  1.00  0.00     0.094 A 
ATOM     10  C   UNL     1      38.011   2.898 -23.024  1.00  0.00     0.134 A 
ATOM     11  C   UNL     1      38.057   0.472 -22.864  1.00  0.00     0.123 A 
ATOM     12  C   UNL     1      38.663   1.674 -23.236  1.00  0.00     0.093 A 
BRANCH   3  13
ATOM     13  C   UNL     1      32.840   2.617 -20.715  1.00  0.00     0.025 A 
ATOM     14  C   UNL     1      32.610   2.889 -19.360  1.00  0.00     0.016 A 
ATOM     15  C   UNL     1      31.331   2.745 -18.820  1.00  0.00     0.051 A 
ATOM     16  C   UNL     1      30.263   2.317 -19.615  1.00  0.00     0.157 A 
ATOM     17  C   UNL     1      31.777   2.161 -21.512  1.00  0.00     0.062 A 
ATOM     18  C   UNL     1      30.490   2.015 -20.979  1.00  0.00     0.158 A 
BRANCH  16  19
ATOM     19  O   UNL     1      29.007   2.202 -19.016  1.00  0.00    -0.504 OA
ATOM     20  H   UNL     1      28.387   1.416 -19.149  1.00  0.00     0.293 HD
ENDBRANCH  16  19
BRANCH  18  21
ATOM     21  O   UNL     1      29.479   1.569 -21.832  1.00  0.00    -0.504 OA
ATOM     22  H   UNL     1      28.594   1.201 -21.514  1.00  0.00     0.293 HD
ENDBRANCH  18  21
ENDBRANCH   3  13
BRANCH  10  23
ATOM     23  O   UNL     1      38.643   4.083 -23.403  1.00  0.00    -0.507 OA
ATOM     24  H   UNL     1      39.402   4.091 -24.074  1.00  0.00     0.293 HD
ENDBRANCH  10  23
BRANCH  11  25
ATOM     25  O   UNL     1      38.727  -0.731 -23.083  1.00  0.00    -0.508 OA
ATOM     26  H   UNL     1      39.675  -0.752 -23.439  1.00  0.00     0.293 HD
ENDBRANCH  11  25
ENDBRANCH   1   2
BRANCH   1  27
ATOM     27  C   UNL     1      33.309   5.956 -22.198  1.00  0.00     0.339 C 
ATOM     28  C   UNL     1      31.811   5.932 -21.835  1.00  0.00     0.214 C 
ATOM     29  O   UNL     1      33.813   7.275 -22.359  1.00  0.00    -0.332 OA
ATOM     30  C   UNL     1      31.569   6.783 -20.578  1.00  0.00     0.180 C 
ATOM     31  C   UNL     1      33.630   8.119 -21.224  1.00  0.00     0.179 C 
ATOM     32  C   UNL     1      32.157   8.194 -20.749  1.00  0.00     0.177 C 
BRANCH  28  33
ATOM     33  O   UNL     1      31.054   6.423 -22.913  1.00  0.00    -0.384 OA
ATOM     34  H   UNL     1      31.691   6.860 -23.536  1.00  0.00     0.211 HD
ENDBRANCH  28  33
BRANCH  30  35
ATOM     35  O   UNL     1      30.206   6.824 -20.231  1.00  0.00    -0.387 OA
ATOM     36  H   UNL     1      29.915   7.772 -20.212  1.00  0.00     0.211 HD
ENDBRANCH  30  35
BRANCH  31  37
ATOM     37  C   UNL     1      34.622   7.820 -20.083  1.00  0.00     0.191 C 
BRANCH  37  38
ATOM     38  O   UNL     1      35.862   7.447 -20.617  1.00  0.00    -0.394 OA
ATOM     39  H   UNL     1      35.688   7.173 -21.555  1.00  0.00     0.210 HD
ENDBRANCH  37  38
ENDBRANCH  31  37
BRANCH  32  40
ATOM     40  O   UNL     1      31.399   8.921 -21.684  1.00  0.00    -0.387 OA
ATOM     41  H   UNL     1      31.012   8.263 -22.318  1.00  0.00     0.211 HD
ENDBRANCH  32  40
ENDBRANCH   1  27
TORSDOF 12
ENDMDL
MODEL 7
REMARK VINA RESULT:    -6.126      3.352      7.165
REMARK INTER + INTRA:         -10.144
REMARK INTER:                  -8.397
REMARK INTRA:                  -1.747
REMARK UNBOUND:                -1.153
REMARK SMILES O=c1c(O[C@@H]2O[C@H](CO)[C@@H](O)[C@@H](O)[C@H]2O)c(-c2ccc(O)c(O)c2)oc2cc(O)cc(O)c12
REMARK SMILES IDX 4 1 3 2 16 3 25 4 2 5 26 6 1 7 33 8 27 9 31 10 28 11 30 12
REMARK SMILES IDX 17 13 18 14 19 15 20 16 24 17 22 18 21 19 23 21 32 23 29 25
REMARK SMILES IDX 5 27 14 28 6 29 12 30 7 31 10 32 15 33 13 35 8 37 9 38 11 40
REMARK H PARENT 21 20 23 22 32 24 29 26 15 34 13 36 9 39 11 41
REMARK Flexibility Score: inf
ROOT
ATOM      1  O   UNL     1      32.954   3.015 -19.646  1.00  0.00    -0.454 OA
ENDROOT
BRANCH   1   2
ATOM      2  C   UNL     1      33.944   3.961 -19.934  1.00  0.00     0.214 A 
ATOM      3  C   UNL     1      33.784   4.916 -20.961  1.00  0.00     0.180 A 
ATOM      4  O   UNL     1      34.784   5.743 -21.253  1.00  0.00    -0.452 OA
ATOM      5  C   UNL     1      35.128   3.962 -19.189  1.00  0.00     0.239 A 
ATOM      6  C   UNL     1      35.938   5.753 -20.595  1.00  0.00     0.146 A 
ATOM      7  O   UNL     1      35.258   3.138 -18.242  1.00  0.00    -0.285 OA
ATOM      8  C   UNL     1      36.159   4.865 -19.516  1.00  0.00     0.111 A 
ATOM      9  C   UNL     1      36.931   6.661 -20.975  1.00  0.00     0.094 A 
ATOM     10  C   UNL     1      37.394   4.913 -18.826  1.00  0.00     0.134 A 
ATOM     11  C   UNL     1      38.149   6.702 -20.290  1.00  0.00     0.123 A 
ATOM     12  C   UNL     1      38.377   5.833 -19.221  1.00  0.00     0.093 A 
BRANCH   3  13
ATOM     13  C   UNL     1      32.526   5.046 -21.729  1.00  0.00     0.025 A 
ATOM     14  C   UNL     1      32.285   4.190 -22.812  1.00  0.00     0.016 A 
ATOM     15  C   UNL     1      31.103   4.300 -23.548  1.00  0.00     0.051 A 
ATOM     16  C   UNL     1      30.149   5.271 -23.226  1.00  0.00     0.157 A 
ATOM     17  C   UNL     1      31.583   6.040 -21.419  1.00  0.00     0.062 A 
ATOM     18  C   UNL     1      30.394   6.157 -22.150  1.00  0.00     0.158 A 
BRANCH  16  19
ATOM     19  O   UNL     1      28.984   5.323 -23.995  1.00  0.00    -0.504 OA
ATOM     20  H   UNL     1      28.747   4.647 -24.706  1.00  0.00     0.293 HD
ENDBRANCH  16  19
BRANCH  18  21
ATOM     21  O   UNL     1      29.497   7.160 -21.778  1.00  0.00    -0.504 OA
ATOM     22  H   UNL     1      28.763   7.035 -21.095  1.00  0.00     0.293 HD
ENDBRANCH  18  21
ENDBRANCH   3  13
BRANCH  10  23
ATOM     23  O   UNL     1      37.652   4.056 -17.755  1.00  0.00    -0.507 OA
ATOM     24  H   UNL     1      36.986   3.927 -17.003  1.00  0.00     0.293 HD
ENDBRANCH  10  23
BRANCH  11  25
ATOM     25  O   UNL     1      39.143   7.605 -20.665  1.00  0.00    -0.508 OA
ATOM     26  H   UNL     1      40.108   7.477 -20.384  1.00  0.00     0.293 HD
ENDBRANCH  11  25
ENDBRANCH   1   2
BRANCH   1  27
ATOM     27  C   UNL     1      31.837   3.294 -18.797  1.00  0.00     0.339 C 
ATOM     28  C   UNL     1      30.503   3.097 -19.544  1.00  0.00     0.214 C 
ATOM     29  O   UNL     1      31.912   2.533 -17.598  1.00  0.00    -0.332 OA
ATOM     30  C   UNL     1      30.275   1.602 -19.812  1.00  0.00     0.180 C 
ATOM     31  C   UNL     1      31.718   1.131 -17.776  1.00  0.00     0.179 C 
ATOM     32  C   UNL     1      30.401   0.785 -18.515  1.00  0.00     0.177 C 
BRANCH  28  33
ATOM     33  O   UNL     1      29.448   3.624 -18.777  1.00  0.00    -0.384 OA
ATOM     34  H   UNL     1      29.571   4.609 -18.758  1.00  0.00     0.211 HD
ENDBRANCH  28  33
BRANCH  30  35
ATOM     35  O   UNL     1      29.046   1.369 -20.458  1.00  0.00    -0.387 OA
ATOM     36  H   UNL     1      28.322   1.768 -19.909  1.00  0.00     0.211 HD
ENDBRANCH  30  35
BRANCH  31  37
ATOM     37  C   UNL     1      32.951   0.422 -18.369  1.00  0.00     0.191 C 
BRANCH  37  38
ATOM     38  O   UNL     1      34.095   0.766 -17.636  1.00  0.00    -0.394 OA
ATOM     39  H   UNL     1      34.294  -0.013 -17.053  1.00  0.00     0.210 HD
ENDBRANCH  37  38
ENDBRANCH  31  37
BRANCH  32  40
ATOM     40  O   UNL     1      29.307   1.049 -17.671  1.00  0.00    -0.387 OA
ATOM     41  H   UNL     1      29.464   0.551 -16.828  1.00  0.00     0.211 HD
ENDBRANCH  32  40
ENDBRANCH   1  27
TORSDOF 12
ENDMDL
MODEL 8
REMARK VINA RESULT:    -6.073      2.773      7.290
REMARK INTER + INTRA:         -10.066
REMARK INTER:                  -8.295
REMARK INTRA:                  -1.771
REMARK UNBOUND:                -1.153
REMARK SMILES O=c1c(O[C@@H]2O[C@H](CO)[C@@H](O)[C@@H](O)[C@H]2O)c(-c2ccc(O)c(O)c2)oc2cc(O)cc(O)c12
REMARK SMILES IDX 4 1 3 2 16 3 25 4 2 5 26 6 1 7 33 8 27 9 31 10 28 11 30 12
REMARK SMILES IDX 17 13 18 14 19 15 20 16 24 17 22 18 21 19 23 21 32 23 29 25
REMARK SMILES IDX 5 27 14 28 6 29 12 30 7 31 10 32 15 33 13 35 8 37 9 38 11 40
REMARK H PARENT 21 20 23 22 32 24 29 26 15 34 13 36 9 39 11 41
REMARK Flexibility Score: inf
ROOT
ATOM      1  O   UNL     1      33.937   3.201 -20.319  1.00  0.00    -0.454 OA
ENDROOT
BRANCH   1   2
ATOM      2  C   UNL     1      35.107   3.856 -19.918  1.00  0.00     0.214 A 
ATOM      3  C   UNL     1      35.503   5.086 -20.486  1.00  0.00     0.180 A 
ATOM      4  O   UNL     1      36.663   5.631 -20.132  1.00  0.00    -0.452 OA
ATOM      5  C   UNL     1      35.911   3.277 -18.930  1.00  0.00     0.239 A 
ATOM      6  C   UNL     1      37.474   5.097 -19.225  1.00  0.00     0.146 A 
ATOM      7  O   UNL     1      35.539   2.200 -18.389  1.00  0.00    -0.285 OA
ATOM      8  C   UNL     1      37.126   3.894 -18.568  1.00  0.00     0.111 A 
ATOM      9  C   UNL     1      38.674   5.744 -18.919  1.00  0.00     0.094 A 
ATOM     10  C   UNL     1      38.005   3.360 -17.595  1.00  0.00     0.134 A 
ATOM     11  C   UNL     1      39.539   5.211 -17.958  1.00  0.00     0.123 A 
ATOM     12  C   UNL     1      39.203   4.026 -17.300  1.00  0.00     0.093 A 
BRANCH   3  13
ATOM     13  C   UNL     1      34.662   5.811 -21.464  1.00  0.00     0.025 A 
ATOM     14  C   UNL     1      34.562   5.335 -22.778  1.00  0.00     0.016 A 
ATOM     15  C   UNL     1      33.773   6.009 -23.713  1.00  0.00     0.051 A 
ATOM     16  C   UNL     1      33.082   7.172 -23.359  1.00  0.00     0.157 A 
ATOM     17  C   UNL     1      33.992   6.995 -21.111  1.00  0.00     0.062 A 
ATOM     18  C   UNL     1      33.197   7.675 -22.042  1.00  0.00     0.158 A 
BRANCH  16  19
ATOM     19  O   UNL     1      32.303   7.793 -24.339  1.00  0.00    -0.504 OA
ATOM     20  H   UNL     1      31.328   7.586 -24.499  1.00  0.00     0.293 HD
ENDBRANCH  16  19
BRANCH  18  21
ATOM     21  O   UNL     1      32.550   8.838 -21.618  1.00  0.00    -0.504 OA
ATOM     22  H   UNL     1      32.708   9.277 -20.722  1.00  0.00     0.293 HD
ENDBRANCH  18  21
ENDBRANCH   3  13
BRANCH  10  23
ATOM     23  O   UNL     1      37.698   2.176 -16.923  1.00  0.00    -0.507 OA
ATOM     24  H   UNL     1      37.545   2.156 -15.921  1.00  0.00     0.293 HD
ENDBRANCH  10  23
BRANCH  11  25
ATOM     25  O   UNL     1      40.737   5.853 -17.648  1.00  0.00    -0.508 OA
ATOM     26  H   UNL     1      41.547   5.336 -17.327  1.00  0.00     0.293 HD
ENDBRANCH  11  25
ENDBRANCH   1   2
BRANCH   1  27
ATOM     27  C   UNL     1      32.661   3.457 -19.724  1.00  0.00     0.339 C 
ATOM     28  C   UNL     1      31.658   3.999 -20.762  1.00  0.00     0.214 C 
ATOM     29  O   UNL     1      32.180   2.304 -19.047  1.00  0.00    -0.332 OA
ATOM     30  C   UNL     1      31.280   2.883 -21.749  1.00  0.00     0.180 C 
ATOM     31  C   UNL     1      31.819   1.223 -19.904  1.00  0.00     0.179 C 
ATOM     32  C   UNL     1      30.802   1.626 -21.002  1.00  0.00     0.177 C 
BRANCH  28  33
ATOM     33  O   UNL     1      30.512   4.481 -20.106  1.00  0.00    -0.384 OA
ATOM     34  H   UNL     1      30.540   4.126 -19.179  1.00  0.00     0.211 HD
ENDBRANCH  28  33
BRANCH  30  35
ATOM     35  O   UNL     1      30.333   3.321 -22.693  1.00  0.00    -0.387 OA
ATOM     36  H   UNL     1      29.427   3.201 -22.307  1.00  0.00     0.211 HD
ENDBRANCH  30  35
BRANCH  31  37
ATOM     37  C   UNL     1      33.037   0.458 -20.456  1.00  0.00     0.191 C 
BRANCH  37  38
ATOM     38  O   UNL     1      33.949   0.206 -19.423  1.00  0.00    -0.394 OA
ATOM     39  H   UNL     1      34.852   0.333 -19.815  1.00  0.00     0.210 HD
ENDBRANCH  37  38
ENDBRANCH  31  37
BRANCH  32  40
ATOM     40  O   UNL     1      29.547   1.865 -20.413  1.00  0.00    -0.387 OA
ATOM     41  H   UNL     1      29.629   1.635 -19.452  1.00  0.00     0.211 HD
ENDBRANCH  32  40
ENDBRANCH   1  27
TORSDOF 12
ENDMDL
MODEL 9
REMARK VINA RESULT:    -5.939      2.452      6.831
REMARK INTER + INTRA:          -9.869
REMARK INTER:                  -8.567
REMARK INTRA:                  -1.302
REMARK UNBOUND:                -1.153
REMARK SMILES O=c1c(O[C@@H]2O[C@H](CO)[C@@H](O)[C@@H](O)[C@H]2O)c(-c2ccc(O)c(O)c2)oc2cc(O)cc(O)c12
REMARK SMILES IDX 4 1 3 2 16 3 25 4 2 5 26 6 1 7 33 8 27 9 31 10 28 11 30 12
REMARK SMILES IDX 17 13 18 14 19 15 20 16 24 17 22 18 21 19 23 21 32 23 29 25
REMARK SMILES IDX 5 27 14 28 6 29 12 30 7 31 10 32 15 33 13 35 8 37 9 38 11 40
REMARK H PARENT 21 20 23 22 32 24 29 26 15 34 13 36 9 39 11 41
REMARK Flexibility Score: inf
ROOT
ATOM      1  O   UNL     1      34.589   4.134 -20.164  1.00  0.00    -0.454 OA
ENDROOT
BRANCH   1   2
ATOM      2  C   UNL     1      35.521   4.748 -21.008  1.00  0.00     0.214 A 
ATOM      3  C   UNL     1      35.178   5.851 -21.818  1.00  0.00     0.180 A 
ATOM      4  O   UNL     1      36.074   6.351 -22.664  1.00  0.00    -0.452 OA
ATOM      5  C   UNL     1      36.830   4.255 -21.056  1.00  0.00     0.239 A 
ATOM      6  C   UNL     1      37.315   5.890 -22.769  1.00  0.00     0.146 A 
ATOM      7  O   UNL     1      37.153   3.296 -20.303  1.00  0.00    -0.285 OA
ATOM      8  C   UNL     1      37.757   4.822 -21.953  1.00  0.00     0.111 A 
ATOM      9  C   UNL     1      38.186   6.481 -23.688  1.00  0.00     0.094 A 
ATOM     10  C   UNL     1      39.091   4.366 -22.079  1.00  0.00     0.134 A 
ATOM     11  C   UNL     1      39.502   6.025 -23.808  1.00  0.00     0.123 A 
ATOM     12  C   UNL     1      39.951   4.974 -23.006  1.00  0.00     0.093 A 
BRANCH   3  13
ATOM     13  C   UNL     1      33.845   6.493 -21.754  1.00  0.00     0.025 A 
ATOM     14  C   UNL     1      32.957   6.351 -22.828  1.00  0.00     0.016 A 
ATOM     15  C   UNL     1      31.696   6.951 -22.783  1.00  0.00     0.051 A 
ATOM     16  C   UNL     1      31.306   7.712 -21.677  1.00  0.00     0.157 A 
ATOM     17  C   UNL     1      33.468   7.279 -20.652  1.00  0.00     0.062 A 
ATOM     18  C   UNL     1      32.206   7.882 -20.599  1.00  0.00     0.158 A 
BRANCH  16  19
ATOM     19  O   UNL     1      30.029   8.277 -21.691  1.00  0.00    -0.504 OA
ATOM     20  H   UNL     1      29.761   9.053 -22.279  1.00  0.00     0.293 HD
ENDBRANCH  16  19
BRANCH  18  21
ATOM     21  O   UNL     1      31.894   8.639 -19.467  1.00  0.00    -0.504 OA
ATOM     22  H   UNL     1      31.540   9.584 -19.500  1.00  0.00     0.293 HD
ENDBRANCH  18  21
ENDBRANCH   3  13
BRANCH  10  23
ATOM     23  O   UNL     1      39.567   3.315 -21.293  1.00  0.00    -0.507 OA
ATOM     24  H   UNL     1      40.532   3.009 -21.339  1.00  0.00     0.293 HD
ENDBRANCH  10  23
BRANCH  11  25
ATOM     25  O   UNL     1      40.376   6.611 -24.723  1.00  0.00    -0.508 OA
ATOM     26  H   UNL     1      40.034   7.117 -25.532  1.00  0.00     0.293 HD
ENDBRANCH  11  25
ENDBRANCH   1   2
BRANCH   1  27
ATOM     27  C   UNL     1      33.405   3.495 -20.650  1.00  0.00     0.339 C 
ATOM     28  C   UNL     1      33.719   2.559 -21.834  1.00  0.00     0.214 C 
ATOM     29  O   UNL     1      32.719   2.833 -19.596  1.00  0.00    -0.332 OA
ATOM     30  C   UNL     1      34.504   1.336 -21.333  1.00  0.00     0.180 C 
ATOM     31  C   UNL     1      33.397   1.691 -19.076  1.00  0.00     0.179 C 
ATOM     32  C   UNL     1      33.772   0.654 -20.164  1.00  0.00     0.177 C 
BRANCH  28  33
ATOM     33  O   UNL     1      32.521   2.154 -22.450  1.00  0.00    -0.384 OA
ATOM     34  H   UNL     1      32.291   2.853 -23.117  1.00  0.00     0.211 HD
ENDBRANCH  28  33
BRANCH  30  35
ATOM     35  O   UNL     1      34.779   0.430 -22.376  1.00  0.00    -0.387 OA
ATOM     36  H   UNL     1      35.326   0.896 -23.060  1.00  0.00     0.211 HD
ENDBRANCH  30  35
BRANCH  31  37
ATOM     37  C   UNL     1      34.576   2.057 -18.154  1.00  0.00     0.191 C 
BRANCH  37  38
ATOM     38  O   UNL     1      34.180   3.048 -17.246  1.00  0.00    -0.394 OA
ATOM     39  H   UNL     1      34.915   3.714 -17.226  1.00  0.00     0.210 HD
ENDBRANCH  37  38
ENDBRANCH  31  37
BRANCH  32  40
ATOM     40  O   UNL     1      32.606   0.020 -20.630  1.00  0.00    -0.387 OA
ATOM     41  H   UNL     1      32.448   0.346 -21.554  1.00  0.00     0.211 HD
ENDBRANCH  32  40
ENDBRANCH   1  27
TORSDOF 12
ENDMDL
