MODEL 1
REMARK VINA RESULT:    -4.471      0.000      0.000
REMARK INTER + INTRA:          -6.129
REMARK INTER:                  -6.039
REMARK INTRA:                  -0.090
REMARK UNBOUND:                -0.090
REMARK SMILES O=C[C@@H](O)[C@H](O)[C@@H](O)CO
REMARK SMILES IDX 7 1 9 2 10 3 5 5 3 6 2 7 1 8 4 9 6 11 8 13
REMARK H PARENT 10 4 4 10 6 12 8 14
REMARK Flexibility Score: inf
ROOT
ATOM      1  C   UNL     1      44.284  11.016  33.754  1.00  0.00     0.171 C 
ENDROOT
BRANCH   1   2
ATOM      2  C   UNL     1      43.922  12.449  34.179  1.00  0.00     0.190 C 
BRANCH   2   3
ATOM      3  O   UNL     1      44.977  13.341  33.938  1.00  0.00    -0.394 OA
ATOM      4  H   UNL     1      45.551  12.922  33.244  1.00  0.00     0.210 HD
ENDBRANCH   2   3
ENDBRANCH   1   2
BRANCH   1   5
ATOM      5  C   UNL     1      43.157  10.287  32.964  1.00  0.00     0.181 C 
BRANCH   5   6
ATOM      6  C   UNL     1      42.326   9.296  33.826  1.00  0.00     0.209 C 
BRANCH   6   7
ATOM      7  C   UNL     1      42.430   7.887  33.306  1.00  0.00     0.258 C 
ATOM      8  O   UNL     1      41.743   6.999  33.786  1.00  0.00    -0.300 OA
ENDBRANCH   6   7
BRANCH   6   9
ATOM      9  O   UNL     1      42.803   9.313  35.147  1.00  0.00    -0.383 OA
ATOM     10  H   UNL     1      42.841   8.368  35.452  1.00  0.00     0.211 HD
ENDBRANCH   6   9
ENDBRANCH   5   6
BRANCH   5  11
ATOM     11  O   UNL     1      43.724   9.603  31.872  1.00  0.00    -0.387 OA
ATOM     12  H   UNL     1      44.706   9.753  31.903  1.00  0.00     0.211 HD
ENDBRANCH   5  11
ENDBRANCH   1   5
BRANCH   1  13
ATOM     13  O   UNL     1      45.447  11.073  32.965  1.00  0.00    -0.388 OA
ATOM     14  H   UNL     1      46.046  11.754  33.371  1.00  0.00     0.211 HD
ENDBRANCH   1  13
TORSDOF 8
ENDMDL
MODEL 2
REMARK VINA RESULT:    -4.439      0.941      3.766
REMARK INTER + INTRA:          -6.086
REMARK INTER:                  -5.659
REMARK INTRA:                  -0.427
REMARK UNBOUND:                -0.090
REMARK SMILES O=C[C@@H](O)[C@H](O)[C@@H](O)CO
REMARK SMILES IDX 7 1 9 2 10 3 5 5 3 6 2 7 1 8 4 9 6 11 8 13
REMARK H PARENT 10 4 4 10 6 12 8 14
REMARK Flexibility Score: inf
ROOT
ATOM      1  C   UNL     1      43.170  10.152  32.769  1.00  0.00     0.171 C 
ENDROOT
BRANCH   1   2
ATOM      2  C   UNL     1      42.501   8.998  33.533  1.00  0.00     0.190 C 
BRANCH   2   3
ATOM      3  O   UNL     1      42.902   8.969  34.877  1.00  0.00    -0.394 OA
ATOM      4  H   UNL     1      43.336   8.089  35.026  1.00  0.00     0.210 HD
ENDBRANCH   2   3
ENDBRANCH   1   2
BRANCH   1   5
ATOM      5  C   UNL     1      44.133  11.012  33.640  1.00  0.00     0.181 C 
BRANCH   5   6
ATOM      6  C   UNL     1      43.642  12.470  33.868  1.00  0.00     0.209 C 
BRANCH   6   7
ATOM      7  C   UNL     1      42.854  12.596  35.144  1.00  0.00     0.258 C 
ATOM      8  O   UNL     1      42.734  11.638  35.892  1.00  0.00    -0.300 OA
ENDBRANCH   6   7
BRANCH   6   9
ATOM      9  O   UNL     1      44.751  13.328  33.950  1.00  0.00    -0.383 OA
ATOM     10  H   UNL     1      44.730  13.904  33.141  1.00  0.00     0.211 HD
ENDBRANCH   6   9
ENDBRANCH   5   6
BRANCH   5  11
ATOM     11  O   UNL     1      45.408  11.031  33.042  1.00  0.00    -0.387 OA
ATOM     12  H   UNL     1      45.771  10.106  33.085  1.00  0.00     0.211 HD
ENDBRANCH   5  11
ENDBRANCH   1   5
BRANCH   1  13
ATOM     13  O   UNL     1      43.881   9.607  31.684  1.00  0.00    -0.388 OA
ATOM     14  H   UNL     1      44.632  10.225  31.484  1.00  0.00     0.211 HD
ENDBRANCH   1  13
TORSDOF 8
ENDMDL
MODEL 3
REMARK VINA RESULT:    -4.288      1.622      2.153
REMARK INTER + INTRA:          -5.882
REMARK INTER:                  -4.945
REMARK INTRA:                  -0.937
REMARK UNBOUND:                -0.090
REMARK SMILES O=C[C@@H](O)[C@H](O)[C@@H](O)CO
REMARK SMILES IDX 7 1 9 2 10 3 5 5 3 6 2 7 1 8 4 9 6 11 8 13
REMARK H PARENT 10 4 4 10 6 12 8 14
REMARK Flexibility Score: inf
ROOT
ATOM      1  C   UNL     1      42.597  12.546  34.704  1.00  0.00     0.171 C 
ENDROOT
BRANCH   1   2
ATOM      2  C   UNL     1      43.525  13.653  34.177  1.00  0.00     0.190 C 
BRANCH   2   3
ATOM      3  O   UNL     1      44.817  13.168  33.929  1.00  0.00    -0.394 OA
ATOM      4  H   UNL     1      45.366  13.947  33.650  1.00  0.00     0.210 HD
ENDBRANCH   2   3
ENDBRANCH   1   2
BRANCH   1   5
ATOM      5  C   UNL     1      42.388  11.368  33.706  1.00  0.00     0.181 C 
BRANCH   5   6
ATOM      6  C   UNL     1      43.196  10.090  34.063  1.00  0.00     0.209 C 
BRANCH   6   7
ATOM      7  C   UNL     1      42.655   8.876  33.355  1.00  0.00     0.258 C 
ATOM      8  O   UNL     1      42.412   8.916  32.159  1.00  0.00    -0.300 OA
ENDBRANCH   6   7
BRANCH   6   9
ATOM      9  O   UNL     1      44.535  10.262  33.678  1.00  0.00    -0.383 OA
ATOM     10  H   UNL     1      44.982   9.381  33.782  1.00  0.00     0.211 HD
ENDBRANCH   6   9
ENDBRANCH   5   6
BRANCH   5  11
ATOM     11  O   UNL     1      42.727  11.795  32.408  1.00  0.00    -0.387 OA
ATOM     12  H   UNL     1      43.323  12.585  32.500  1.00  0.00     0.211 HD
ENDBRANCH   5  11
ENDBRANCH   1   5
BRANCH   1  13
ATOM     13  O   UNL     1      43.142  12.051  35.903  1.00  0.00    -0.388 OA
ATOM     14  H   UNL     1      44.059  12.423  35.986  1.00  0.00     0.211 HD
ENDBRANCH   1  13
TORSDOF 8
ENDMDL
MODEL 4
REMARK VINA RESULT:    -4.252      1.340      1.971
REMARK INTER + INTRA:          -5.833
REMARK INTER:                  -4.849
REMARK INTRA:                  -0.984
REMARK UNBOUND:                -0.090
REMARK SMILES O=C[C@@H](O)[C@H](O)[C@@H](O)CO
REMARK SMILES IDX 7 1 9 2 10 3 5 5 3 6 2 7 1 8 4 9 6 11 8 13
REMARK H PARENT 10 4 4 10 6 12 8 14
REMARK Flexibility Score: inf
ROOT
ATOM      1  C   UNL     1      44.205  11.850  34.278  1.00  0.00     0.171 C 
ENDROOT
BRANCH   1   2
ATOM      2  C   UNL     1      43.509  13.221  34.255  1.00  0.00     0.190 C 
BRANCH   2   3
ATOM      3  O   UNL     1      42.847  13.442  33.039  1.00  0.00    -0.394 OA
ATOM      4  H   UNL     1      41.974  12.974  33.101  1.00  0.00     0.210 HD
ENDBRANCH   2   3
ENDBRANCH   1   2
BRANCH   1   5
ATOM      5  C   UNL     1      43.224  10.642  34.206  1.00  0.00     0.181 C 
BRANCH   5   6
ATOM      6  C   UNL     1      43.226   9.912  32.834  1.00  0.00     0.209 C 
BRANCH   6   7
ATOM      7  C   UNL     1      42.522   8.584  32.912  1.00  0.00     0.258 C 
ATOM      8  O   UNL     1      42.159   8.140  33.990  1.00  0.00    -0.300 OA
ENDBRANCH   6   7
BRANCH   6   9
ATOM      9  O   UNL     1      42.563  10.705  31.883  1.00  0.00    -0.383 OA
ATOM     10  H   UNL     1      41.967  11.320  32.385  1.00  0.00     0.211 HD
ENDBRANCH   6   9
ENDBRANCH   5   6
BRANCH   5  11
ATOM     11  O   UNL     1      41.921  11.085  34.505  1.00  0.00    -0.387 OA
ATOM     12  H   UNL     1      41.972  12.060  34.691  1.00  0.00     0.211 HD
ENDBRANCH   5  11
ENDBRANCH   1   5
BRANCH   1  13
ATOM     13  O   UNL     1      45.099  11.793  33.194  1.00  0.00    -0.388 OA
ATOM     14  H   UNL     1      45.699  11.017  33.347  1.00  0.00     0.211 HD
ENDBRANCH   1  13
TORSDOF 8
ENDMDL
MODEL 5
REMARK VINA RESULT:    -4.225      1.027      4.129
REMARK INTER + INTRA:          -5.797
REMARK INTER:                  -5.596
REMARK INTRA:                  -0.201
REMARK UNBOUND:                -0.090
REMARK SMILES O=C[C@@H](O)[C@H](O)[C@@H](O)CO
REMARK SMILES IDX 7 1 9 2 10 3 5 5 3 6 2 7 1 8 4 9 6 11 8 13
REMARK H PARENT 10 4 4 10 6 12 8 14
REMARK Flexibility Score: inf
ROOT
ATOM      1  C   UNL     1      43.026   9.837  32.888  1.00  0.00     0.171 C 
ENDROOT
BRANCH   1   2
ATOM      2  C   UNL     1      42.701   8.561  33.683  1.00  0.00     0.190 C 
BRANCH   2   3
ATOM      3  O   UNL     1      42.690   8.804  35.065  1.00  0.00    -0.394 OA
ATOM      4  H   UNL     1      43.178   8.052  35.490  1.00  0.00     0.210 HD
ENDBRANCH   2   3
ENDBRANCH   1   2
BRANCH   1   5
ATOM      5  C   UNL     1      43.860  10.884  33.686  1.00  0.00     0.181 C 
BRANCH   5   6
ATOM      6  C   UNL     1      43.098  12.208  33.973  1.00  0.00     0.209 C 
BRANCH   6   7
ATOM      7  C   UNL     1      43.931  13.161  34.789  1.00  0.00     0.258 C 
ATOM      8  O   UNL     1      45.148  13.076  34.784  1.00  0.00    -0.300 OA
ENDBRANCH   6   7
BRANCH   6   9
ATOM      9  O   UNL     1      42.777  12.834  32.758  1.00  0.00    -0.383 OA
ATOM     10  H   UNL     1      43.430  12.508  32.084  1.00  0.00     0.211 HD
ENDBRANCH   6   9
ENDBRANCH   5   6
BRANCH   5  11
ATOM     11  O   UNL     1      45.047  11.165  32.983  1.00  0.00    -0.387 OA
ATOM     12  H   UNL     1      44.987  12.103  32.660  1.00  0.00     0.211 HD
ENDBRANCH   5  11
ENDBRANCH   1   5
BRANCH   1  13
ATOM     13  O   UNL     1      43.728   9.465  31.728  1.00  0.00    -0.388 OA
ATOM     14  H   UNL     1      43.837  10.282  31.174  1.00  0.00     0.211 HD
ENDBRANCH   1  13
TORSDOF 8
ENDMDL
MODEL 6
REMARK VINA RESULT:    -4.198      1.831      3.409
REMARK INTER + INTRA:          -5.761
REMARK INTER:                  -5.463
REMARK INTRA:                  -0.299
REMARK UNBOUND:                -0.090
REMARK SMILES O=C[C@@H](O)[C@H](O)[C@@H](O)CO
REMARK SMILES IDX 7 1 9 2 10 3 5 5 3 6 2 7 1 8 4 9 6 11 8 13
REMARK H PARENT 10 4 4 10 6 12 8 14
REMARK Flexibility Score: inf
ROOT
ATOM      1  C   UNL     1      42.967  12.878  35.080  1.00  0.00     0.171 C 
ENDROOT
BRANCH   1   2
ATOM      2  C   UNL     1      42.814  14.339  35.535  1.00  0.00     0.190 C 
BRANCH   2   3
ATOM      3  O   UNL     1      43.622  14.620  36.647  1.00  0.00    -0.394 OA
ATOM      4  H   UNL     1      43.043  15.078  37.311  1.00  0.00     0.210 HD
ENDBRANCH   2   3
ENDBRANCH   1   2
BRANCH   1   5
ATOM      5  C   UNL     1      44.221  12.621  34.192  1.00  0.00     0.181 C 
BRANCH   5   6
ATOM      6  C   UNL     1      44.370  11.145  33.726  1.00  0.00     0.209 C 
BRANCH   6   7
ATOM      7  C   UNL     1      43.141  10.667  32.999  1.00  0.00     0.258 C 
ATOM      8  O   UNL     1      43.192   9.679  32.284  1.00  0.00    -0.300 OA
ENDBRANCH   6   7
BRANCH   6   9
ATOM      9  O   UNL     1      45.465  11.039  32.855  1.00  0.00    -0.383 OA
ATOM     10  H   UNL     1      45.652  10.070  32.742  1.00  0.00     0.211 HD
ENDBRANCH   6   9
ENDBRANCH   5   6
BRANCH   5  11
ATOM     11  O   UNL     1      45.376  13.013  34.895  1.00  0.00    -0.387 OA
ATOM     12  H   UNL     1      45.716  12.214  35.379  1.00  0.00     0.211 HD
ENDBRANCH   5  11
ENDBRANCH   1   5
BRANCH   1  13
ATOM     13  O   UNL     1      43.031  12.066  36.227  1.00  0.00    -0.388 OA
ATOM     14  H   UNL     1      43.691  11.347  36.042  1.00  0.00     0.211 HD
ENDBRANCH   1  13
TORSDOF 8
ENDMDL
MODEL 7
REMARK VINA RESULT:    -4.113      1.739      4.681
REMARK INTER + INTRA:          -5.646
REMARK INTER:                  -5.379
REMARK INTRA:                  -0.267
REMARK UNBOUND:                -0.090
REMARK SMILES O=C[C@@H](O)[C@H](O)[C@@H](O)CO
REMARK SMILES IDX 7 1 9 2 10 3 5 5 3 6 2 7 1 8 4 9 6 11 8 13
REMARK H PARENT 10 4 4 10 6 12 8 14
REMARK Flexibility Score: inf
ROOT
ATOM      1  C   UNL     1      43.835  11.354  33.416  1.00  0.00     0.171 C 
ENDROOT
BRANCH   1   2
ATOM      2  C   UNL     1      43.169  10.137  34.082  1.00  0.00     0.190 C 
BRANCH   2   3
ATOM      3  O   UNL     1      43.521   8.941  33.438  1.00  0.00    -0.394 OA
ATOM      4  H   UNL     1      43.892   9.193  32.552  1.00  0.00     0.210 HD
ENDBRANCH   2   3
ENDBRANCH   1   2
BRANCH   1   5
ATOM      5  C   UNL     1      43.896  12.616  34.327  1.00  0.00     0.181 C 
BRANCH   5   6
ATOM      6  C   UNL     1      42.766  13.647  34.049  1.00  0.00     0.209 C 
BRANCH   6   7
ATOM      7  C   UNL     1      42.555  14.567  35.222  1.00  0.00     0.258 C 
ATOM      8  O   UNL     1      43.251  14.465  36.220  1.00  0.00    -0.300 OA
ENDBRANCH   6   7
BRANCH   6   9
ATOM      9  O   UNL     1      43.110  14.428  32.934  1.00  0.00    -0.383 OA
ATOM     10  H   UNL     1      44.091  14.333  32.807  1.00  0.00     0.211 HD
ENDBRANCH   6   9
ENDBRANCH   5   6
BRANCH   5  11
ATOM     11  O   UNL     1      45.150  13.238  34.174  1.00  0.00    -0.387 OA
ATOM     12  H   UNL     1      44.997  14.112  33.726  1.00  0.00     0.211 HD
ENDBRANCH   5  11
ENDBRANCH   1   5
BRANCH   1  13
ATOM     13  O   UNL     1      45.138  10.987  33.035  1.00  0.00    -0.388 OA
ATOM     14  H   UNL     1      45.287  11.341  32.119  1.00  0.00     0.211 HD
ENDBRANCH   1  13
TORSDOF 8
ENDMDL
MODEL 8
REMARK VINA RESULT:    -4.095      1.466      4.196
REMARK INTER + INTRA:          -5.622
REMARK INTER:                  -4.703
REMARK INTRA:                  -0.919
REMARK UNBOUND:                -0.090
REMARK SMILES O=C[C@@H](O)[C@H](O)[C@@H](O)CO
REMARK SMILES IDX 7 1 9 2 10 3 5 5 3 6 2 7 1 8 4 9 6 11 8 13
REMARK H PARENT 10 4 4 10 6 12 8 14
REMARK Flexibility Score: inf
ROOT
ATOM      1  C   UNL     1      42.953  10.618  32.748  1.00  0.00     0.171 C 
ENDROOT
BRANCH   1   2
ATOM      2  C   UNL     1      42.517   9.154  32.564  1.00  0.00     0.190 C 
BRANCH   2   3
ATOM      3  O   UNL     1      43.165   8.306  33.474  1.00  0.00    -0.394 OA
ATOM      4  H   UNL     1      42.560   8.211  34.255  1.00  0.00     0.210 HD
ENDBRANCH   2   3
ENDBRANCH   1   2
BRANCH   1   5
ATOM      5  C   UNL     1      42.391  11.287  34.037  1.00  0.00     0.181 C 
BRANCH   5   6
ATOM      6  C   UNL     1      42.596  12.827  34.087  1.00  0.00     0.209 C 
BRANCH   6   7
ATOM      7  C   UNL     1      43.791  13.201  34.923  1.00  0.00     0.258 C 
ATOM      8  O   UNL     1      44.915  12.877  34.573  1.00  0.00    -0.300 OA
ENDBRANCH   6   7
BRANCH   6   9
ATOM      9  O   UNL     1      42.802  13.312  32.785  1.00  0.00    -0.383 OA
ATOM     10  H   UNL     1      41.991  13.830  32.538  1.00  0.00     0.211 HD
ENDBRANCH   6   9
ENDBRANCH   5   6
BRANCH   5  11
ATOM     11  O   UNL     1      42.988  10.694  35.166  1.00  0.00    -0.387 OA
ATOM     12  H   UNL     1      42.338  10.042  35.540  1.00  0.00     0.211 HD
ENDBRANCH   5  11
ENDBRANCH   1   5
BRANCH   1  13
ATOM     13  O   UNL     1      44.358  10.658  32.774  1.00  0.00    -0.388 OA
ATOM     14  H   UNL     1      44.624  11.608  32.884  1.00  0.00     0.211 HD
ENDBRANCH   1  13
TORSDOF 8
ENDMDL
MODEL 9
REMARK VINA RESULT:    -3.868      2.762      4.913
REMARK INTER + INTRA:          -5.315
REMARK INTER:                  -4.614
REMARK INTRA:                  -0.701
REMARK UNBOUND:                -0.090
REMARK SMILES O=C[C@@H](O)[C@H](O)[C@@H](O)CO
REMARK SMILES IDX 7 1 9 2 10 3 5 5 3 6 2 7 1 8 4 9 6 11 8 13
REMARK H PARENT 10 4 4 10 6 12 8 14
REMARK Flexibility Score: inf
ROOT
ATOM      1  C   UNL     1      44.108  12.542  34.101  1.00  0.00     0.171 C 
ENDROOT
BRANCH   1   2
ATOM      2  C   UNL     1      44.465  11.129  33.611  1.00  0.00     0.190 C 
BRANCH   2   3
ATOM      3  O   UNL     1      45.657  11.126  32.872  1.00  0.00    -0.394 OA
ATOM      4  H   UNL     1      45.398  11.094  31.914  1.00  0.00     0.210 HD
ENDBRANCH   2   3
ENDBRANCH   1   2
BRANCH   1   5
ATOM      5  C   UNL     1      42.818  12.602  34.973  1.00  0.00     0.181 C 
BRANCH   5   6
ATOM      6  C   UNL     1      42.178  14.016  35.053  1.00  0.00     0.209 C 
BRANCH   6   7
ATOM      7  C   UNL     1      42.467  14.681  36.373  1.00  0.00     0.258 C 
ATOM      8  O   UNL     1      43.606  15.013  36.660  1.00  0.00    -0.300 OA
ENDBRANCH   6   7
BRANCH   6   9
ATOM      9  O   UNL     1      42.702  14.823  34.031  1.00  0.00    -0.383 OA
ATOM     10  H   UNL     1      41.936  15.302  33.619  1.00  0.00     0.211 HD
ENDBRANCH   6   9
ENDBRANCH   5   6
BRANCH   5  11
ATOM     11  O   UNL     1      43.113  12.142  36.271  1.00  0.00    -0.387 OA
ATOM     12  H   UNL     1      43.501  11.231  36.184  1.00  0.00     0.211 HD
ENDBRANCH   5  11
ENDBRANCH   1   5
BRANCH   1  13
ATOM     13  O   UNL     1      45.196  13.038  34.841  1.00  0.00    -0.388 OA
ATOM     14  H   UNL     1      45.004  13.990  35.045  1.00  0.00     0.211 HD
ENDBRANCH   1  13
TORSDOF 8
ENDMDL
