MODEL 1
REMARK VINA RESULT:    -0.761      0.000      0.000
REMARK INTER + INTRA:          -1.030
REMARK INTER:                  -0.916
REMARK INTRA:                  -0.113
REMARK UNBOUND:                -0.113
REMARK SMILES Oc1cc(O)c2cc(O)c(-c3ccc(O)c(O)c3)[o+]c2c1
REMARK SMILES IDX 10 1 19 2 20 3 21 4 2 5 3 6 4 7 6 8 7 9 8 10 11 11 12 12
REMARK SMILES IDX 13 13 14 14 18 15 16 16 15 17 17 19 9 21 1 23 5 25
REMARK H PARENT 15 18 17 20 9 22 1 24 5 26
REMARK Flexibility Score: inf
ROOT
ATOM      1  C   UNL     1      -9.355 -34.728   1.145  1.00  0.00     0.402 A 
ATOM      2  O   UNL     1     -10.097 -34.062   2.025  1.00  0.00    -0.202 OA
ATOM      3  C   UNL     1      -9.758 -33.913   3.302  1.00  0.00     0.368 A 
ATOM      4  C   UNL     1     -10.602 -33.191   4.149  1.00  0.00     0.162 A 
ATOM      5  C   UNL     1     -10.270 -33.017   5.493  1.00  0.00     0.128 A 
ATOM      6  C   UNL     1      -9.085 -33.566   5.996  1.00  0.00     0.093 A 
ATOM      7  C   UNL     1      -8.221 -34.292   5.166  1.00  0.00     0.136 A 
ATOM      8  C   UNL     1      -8.557 -34.475   3.799  1.00  0.00     0.125 A 
ATOM      9  C   UNL     1      -7.760 -35.199   2.898  1.00  0.00     0.078 A 
ATOM     10  C   UNL     1      -8.159 -35.340   1.566  1.00  0.00     0.223 A 
ENDROOT
BRANCH   1  11
ATOM     11  C   UNL     1      -9.835 -34.816  -0.253  1.00  0.00     0.087 A 
ATOM     12  C   UNL     1     -10.052 -36.058  -0.876  1.00  0.00     0.022 A 
ATOM     13  C   UNL     1     -10.483 -36.115  -2.203  1.00  0.00     0.051 A 
ATOM     14  C   UNL     1     -10.692 -34.937  -2.932  1.00  0.00     0.157 A 
ATOM     15  C   UNL     1     -10.026 -33.638  -0.994  1.00  0.00     0.068 A 
ATOM     16  C   UNL     1     -10.458 -33.693  -2.323  1.00  0.00     0.158 A 
BRANCH  14  17
ATOM     17  O   UNL     1     -11.124 -34.999  -4.256  1.00  0.00    -0.504 OA
ATOM     18  H   UNL     1     -11.662 -34.248  -4.675  1.00  0.00     0.293 HD
ENDBRANCH  14  17
BRANCH  16  19
ATOM     19  O   UNL     1     -10.651 -32.502  -3.022  1.00  0.00    -0.504 OA
ATOM     20  H   UNL     1      -9.959 -31.761  -3.025  1.00  0.00     0.293 HD
ENDBRANCH  16  19
ENDBRANCH   1  11
BRANCH  10  21
ATOM     21  O   UNL     1      -7.392 -36.101   0.682  1.00  0.00    -0.500 OA
ATOM     22  H   UNL     1      -7.732 -36.348  -0.240  1.00  0.00     0.294 HD
ENDBRANCH  10  21
BRANCH   5  23
ATOM     23  O   UNL     1     -11.125 -32.295   6.322  1.00  0.00    -0.507 OA
ATOM     24  H   UNL     1     -12.079 -32.593   6.490  1.00  0.00     0.293 HD
ENDBRANCH   5  23
BRANCH   7  25
ATOM     25  O   UNL     1      -7.056 -34.806   5.742  1.00  0.00    -0.507 OA
ATOM     26  H   UNL     1      -6.386 -34.257   6.260  1.00  0.00     0.293 HD
ENDBRANCH   7  25
TORSDOF 6
ENDMDL
