MODEL 1
REMARK VINA RESULT:    -3.681      0.000      0.000
REMARK INTER + INTRA:          -5.355
REMARK INTER:                  -5.618
REMARK INTRA:                   0.263
REMARK UNBOUND:                 0.263
REMARK SMILES CC1=CCC[C@@H](C)C(=O)C[C@H](C(C)C)C(=O)C1
REMARK SMILES IDX 8 1 9 2 6 3 7 4 5 5 4 6 3 7 2 8 1 9 10 11 11 12 15 13 16 14
REMARK SMILES IDX 17 15 12 17 13 18 14 19
REMARK H PARENT
REMARK Flexibility Score: 70.00
ROOT
ATOM      1  C   UNL     1     -18.903   0.279  10.900  1.00  0.00     0.136 C 
ATOM      2  O   UNL     1     -18.573   1.386  11.295  1.00  0.00    -0.299 OA
ENDROOT
BRANCH   1   3
ATOM      3  C   UNL     1     -18.088  -0.926  11.337  1.00  0.00     0.053 C 
ATOM      4  C   UNL     1     -17.006  -0.519  12.346  1.00  0.00     0.016 C 
BRANCH   3   5
ATOM      5  C   UNL     1     -17.475  -1.656  10.125  1.00  0.00     0.015 C 
BRANCH   5   6
ATOM      6  C   UNL     1     -17.800  -3.163  10.136  1.00  0.00     0.028 C 
BRANCH   6   7
ATOM      7  C   UNL     1     -18.685  -3.546   8.978  1.00  0.00    -0.028 C 
ATOM      8  C   UNL     1     -20.037  -3.483   8.988  1.00  0.00    -0.070 CG0
ATOM      9  C   UNL     1     -20.776  -3.882   7.737  1.00  0.00     0.039 C 
ATOM     10  G   UNL     1     -20.843  -3.023  10.193  1.00  0.00     0.000 G0
ENDBRANCH   6   7
ENDBRANCH   5   6
ENDBRANCH   3   5
ENDBRANCH   1   3
BRANCH   1  11
ATOM     11  C   UNL     1     -20.062   0.147   9.931  1.00  0.00     0.087 C 
BRANCH  11  12
ATOM     12  C   UNL     1     -21.368  -0.437  10.529  1.00  0.00     0.066 C 
BRANCH  12  13
ATOM     13  C   UNL     1     -21.688  -1.789   9.904  1.00  0.00     0.140 C 
ATOM     14  O   UNL     1     -22.667  -1.879   9.177  1.00  0.00    -0.299 OA
BRANCH  13  15
ATOM     15  C   UNL     1     -20.865  -3.029  10.188  1.00  0.00     0.106 CG0
ATOM     16  G   UNL     1     -20.054  -3.477   8.982  1.00  0.00     0.000 G0
ENDBRANCH  13  15
ENDBRANCH  12  13
BRANCH  12  17
ATOM     17  C   UNL     1     -21.459  -0.435  12.092  1.00  0.00    -0.006 C 
ATOM     18  C   UNL     1     -21.873   0.938  12.653  1.00  0.00     0.008 C 
ATOM     19  C   UNL     1     -22.473  -1.486  12.582  1.00  0.00     0.008 C 
ENDBRANCH  12  17
ENDBRANCH  11  12
ENDBRANCH   1  11
TORSDOF 1
ENDMDL
MODEL 2
REMARK VINA RESULT:    -3.590      2.054      4.231
REMARK INTER + INTRA:          -5.216
REMARK INTER:                  -5.210
REMARK INTRA:                  -0.006
REMARK UNBOUND:                 0.263
REMARK SMILES CC1=CCC[C@@H](C)C(=O)C[C@H](C(C)C)C(=O)C1
REMARK SMILES IDX 8 1 9 2 6 3 7 4 5 5 4 6 3 7 2 8 1 9 10 11 11 12 15 13 16 14
REMARK SMILES IDX 17 15 12 17 13 18 14 19
REMARK H PARENT
REMARK Flexibility Score: 70.00
ROOT
ATOM      1  C   UNL     1     -18.696  -4.008   8.837  1.00  0.00     0.136 C 
ATOM      2  O   UNL     1     -17.717  -4.232   8.142  1.00  0.00    -0.299 OA
ENDROOT
BRANCH   1   3
ATOM      3  C   UNL     1     -20.061  -4.457   8.346  1.00  0.00     0.053 C 
ATOM      4  C   UNL     1     -20.064  -5.960   8.034  1.00  0.00     0.016 C 
BRANCH   3   5
ATOM      5  C   UNL     1     -20.515  -3.633   7.124  1.00  0.00     0.015 C 
BRANCH   5   6
ATOM      6  C   UNL     1     -21.350  -2.405   7.537  1.00  0.00     0.028 C 
BRANCH   6   7
ATOM      7  C   UNL     1     -22.456  -2.782   8.489  1.00  0.00    -0.028 C 
ATOM      8  C   UNL     1     -22.631  -2.245   9.718  1.00  0.00    -0.070 CG0
ATOM      9  C   UNL     1     -23.804  -2.717  10.538  1.00  0.00     0.039 C 
ATOM     10  G   UNL     1     -21.709  -1.189  10.308  1.00  0.00     0.000 G0
ENDBRANCH   6   7
ENDBRANCH   5   6
ENDBRANCH   3   5
ENDBRANCH   1   3
BRANCH   1  11
ATOM     11  C   UNL     1     -18.532  -3.227  10.126  1.00  0.00     0.087 C 
BRANCH  11  12
ATOM     12  C   UNL     1     -19.125  -1.794  10.117  1.00  0.00     0.066 C 
BRANCH  12  13
ATOM     13  C   UNL     1     -20.431  -1.749  10.903  1.00  0.00     0.140 C 
ATOM     14  O   UNL     1     -20.452  -2.232  12.026  1.00  0.00    -0.299 OA
BRANCH  13  15
ATOM     15  C   UNL     1     -21.705  -1.170  10.325  1.00  0.00     0.106 CG0
ATOM     16  G   UNL     1     -22.604  -2.234   9.716  1.00  0.00     0.000 G0
ENDBRANCH  13  15
ENDBRANCH  12  13
BRANCH  12  17
ATOM     17  C   UNL     1     -18.131  -0.645  10.494  1.00  0.00    -0.006 C 
ATOM     18  C   UNL     1     -18.859   0.643  10.921  1.00  0.00     0.008 C 
ATOM     19  C   UNL     1     -17.201  -1.081  11.641  1.00  0.00     0.008 C 
ENDBRANCH  12  17
ENDBRANCH  11  12
ENDBRANCH   1  11
TORSDOF 1
ENDMDL
MODEL 3
REMARK VINA RESULT:    -3.369      1.881      3.989
REMARK INTER + INTRA:          -4.879
REMARK INTER:                  -4.946
REMARK INTRA:                   0.067
REMARK UNBOUND:                 0.263
REMARK SMILES CC1=CCC[C@@H](C)C(=O)C[C@H](C(C)C)C(=O)C1
REMARK SMILES IDX 8 1 9 2 6 3 7 4 5 5 4 6 3 7 2 8 1 9 10 11 11 12 15 13 16 14
REMARK SMILES IDX 17 15 12 17 13 18 14 19
REMARK H PARENT
REMARK Flexibility Score: 70.00
ROOT
ATOM      1  C   UNL     1     -18.419  -2.192   9.942  1.00  0.00     0.136 C 
ATOM      2  O   UNL     1     -17.847  -3.253  10.138  1.00  0.00    -0.299 OA
ENDROOT
BRANCH   1   3
ATOM      3  C   UNL     1     -17.706  -0.900  10.303  1.00  0.00     0.053 C 
ATOM      4  C   UNL     1     -17.062  -0.999  11.692  1.00  0.00     0.016 C 
BRANCH   3   5
ATOM      5  C   UNL     1     -18.659   0.308  10.213  1.00  0.00     0.015 C 
BRANCH   5   6
ATOM      6  C   UNL     1     -19.261   0.669  11.585  1.00  0.00     0.028 C 
BRANCH   6   7
ATOM      7  C   UNL     1     -20.745   0.915  11.491  1.00  0.00    -0.028 C 
ATOM      8  C   UNL     1     -21.697  -0.023  11.706  1.00  0.00    -0.070 CG0
ATOM      9  C   UNL     1     -23.141   0.392  11.594  1.00  0.00     0.039 C 
ATOM     10  G   UNL     1     -21.381  -1.468  12.060  1.00  0.00     0.000 G0
ENDBRANCH   6   7
ENDBRANCH   5   6
ENDBRANCH   3   5
ENDBRANCH   1   3
BRANCH   1  11
ATOM     11  C   UNL     1     -19.842  -2.196   9.419  1.00  0.00     0.087 C 
BRANCH  11  12
ATOM     12  C   UNL     1     -20.806  -3.191  10.117  1.00  0.00     0.066 C 
BRANCH  12  13
ATOM     13  C   UNL     1     -21.816  -2.443  10.979  1.00  0.00     0.140 C 
ATOM     14  O   UNL     1     -23.007  -2.601  10.752  1.00  0.00    -0.299 OA
BRANCH  13  15
ATOM     15  C   UNL     1     -21.396  -1.482  12.072  1.00  0.00     0.106 CG0
ATOM     16  G   UNL     1     -21.700  -0.034  11.722  1.00  0.00     0.000 G0
ENDBRANCH  13  15
ENDBRANCH  12  13
BRANCH  12  17
ATOM     17  C   UNL     1     -21.457  -4.270   9.189  1.00  0.00    -0.006 C 
ATOM     18  C   UNL     1     -21.641  -3.767   7.745  1.00  0.00     0.008 C 
ATOM     19  C   UNL     1     -20.600  -5.549   9.152  1.00  0.00     0.008 C 
ENDBRANCH  12  17
ENDBRANCH  11  12
ENDBRANCH   1  11
TORSDOF 1
ENDMDL
MODEL 4
REMARK VINA RESULT:    -3.335      1.941      4.202
REMARK INTER + INTRA:          -4.827
REMARK INTER:                  -4.576
REMARK INTRA:                  -0.250
REMARK UNBOUND:                 0.263
REMARK SMILES CC1=CCC[C@@H](C)C(=O)C[C@H](C(C)C)C(=O)C1
REMARK SMILES IDX 8 1 9 2 6 3 7 4 5 5 4 6 3 7 2 8 1 9 10 11 11 12 15 13 16 14
REMARK SMILES IDX 17 15 12 17 13 18 14 19
REMARK H PARENT
REMARK Flexibility Score: 70.00
ROOT
ATOM      1  C   UNL     1     -20.120  -4.048   7.586  1.00  0.00     0.136 C 
ATOM      2  O   UNL     1     -20.637  -4.577   6.614  1.00  0.00    -0.299 OA
ENDROOT
BRANCH   1   3
ATOM      3  C   UNL     1     -18.876  -4.679   8.187  1.00  0.00     0.053 C 
ATOM      4  C   UNL     1     -19.240  -5.587   9.369  1.00  0.00     0.016 C 
BRANCH   3   5
ATOM      5  C   UNL     1     -17.849  -3.606   8.601  1.00  0.00     0.015 C 
BRANCH   5   6
ATOM      6  C   UNL     1     -17.885  -3.329  10.117  1.00  0.00     0.028 C 
BRANCH   6   7
ATOM      7  C   UNL     1     -17.996  -1.855  10.407  1.00  0.00    -0.028 C 
ATOM      8  C   UNL     1     -19.051  -1.266  11.016  1.00  0.00    -0.070 CG0
ATOM      9  C   UNL     1     -18.995   0.221  11.254  1.00  0.00     0.039 C 
ATOM     10  G   UNL     1     -20.283  -2.030  11.475  1.00  0.00     0.000 G0
ENDBRANCH   6   7
ENDBRANCH   5   6
ENDBRANCH   3   5
ENDBRANCH   1   3
BRANCH   1  11
ATOM     11  C   UNL     1     -20.773  -2.828   8.206  1.00  0.00     0.087 C 
BRANCH  11  12
ATOM     12  C   UNL     1     -21.633  -3.101   9.468  1.00  0.00     0.066 C 
BRANCH  12  13
ATOM     13  C   UNL     1     -21.431  -2.001  10.503  1.00  0.00     0.140 C 
ATOM     14  O   UNL     1     -22.198  -1.048  10.499  1.00  0.00    -0.299 OA
BRANCH  13  15
ATOM     15  C   UNL     1     -20.293  -2.026  11.502  1.00  0.00     0.106 CG0
ATOM     16  G   UNL     1     -19.066  -1.278  11.005  1.00  0.00     0.000 G0
ENDBRANCH  13  15
ENDBRANCH  12  13
BRANCH  12  17
ATOM     17  C   UNL     1     -23.137  -3.440   9.204  1.00  0.00    -0.006 C 
ATOM     18  C   UNL     1     -23.667  -2.788   7.913  1.00  0.00     0.008 C 
ATOM     19  C   UNL     1     -23.346  -4.962   9.100  1.00  0.00     0.008 C 
ENDBRANCH  12  17
ENDBRANCH  11  12
ENDBRANCH   1  11
TORSDOF 1
ENDMDL
MODEL 5
REMARK VINA RESULT:    -3.319      1.672      4.125
REMARK INTER + INTRA:          -4.802
REMARK INTER:                  -5.003
REMARK INTRA:                   0.201
REMARK UNBOUND:                 0.263
REMARK SMILES CC1=CCC[C@@H](C)C(=O)C[C@H](C(C)C)C(=O)C1
REMARK SMILES IDX 8 1 9 2 6 3 7 4 5 5 4 6 3 7 2 8 1 9 10 11 11 12 15 13 16 14
REMARK SMILES IDX 17 15 12 17 13 18 14 19
REMARK H PARENT
REMARK Flexibility Score: 70.00
ROOT
ATOM      1  C   UNL     1     -21.276  -2.640  10.078  1.00  0.00     0.136 C 
ATOM      2  O   UNL     1     -22.301  -3.304  10.065  1.00  0.00    -0.299 OA
ENDROOT
BRANCH   1   3
ATOM      3  C   UNL     1     -20.219  -2.907   9.020  1.00  0.00     0.053 C 
ATOM      4  C   UNL     1     -20.799  -3.728   7.861  1.00  0.00     0.016 C 
BRANCH   3   5
ATOM      5  C   UNL     1     -18.980  -3.594   9.628  1.00  0.00     0.015 C 
BRANCH   5   6
ATOM      6  C   UNL     1     -17.707  -2.743   9.457  1.00  0.00     0.028 C 
BRANCH   6   7
ATOM      7  C   UNL     1     -17.328  -2.050  10.741  1.00  0.00    -0.028 C 
ATOM      8  C   UNL     1     -17.717  -0.801  11.086  1.00  0.00    -0.070 CG0
ATOM      9  C   UNL     1     -17.269  -0.261  12.420  1.00  0.00     0.039 C 
ATOM     10  G   UNL     1     -18.585   0.079  10.200  1.00  0.00     0.000 G0
ENDBRANCH   6   7
ENDBRANCH   5   6
ENDBRANCH   3   5
ENDBRANCH   1   3
BRANCH   1  11
ATOM     11  C   UNL     1     -21.055  -1.629  11.186  1.00  0.00     0.087 C 
BRANCH  11  12
ATOM     12  C   UNL     1     -21.166  -0.141  10.763  1.00  0.00     0.066 C 
BRANCH  12  13
ATOM     13  C   UNL     1     -19.825   0.564  10.924  1.00  0.00     0.140 C 
ATOM     14  O   UNL     1     -19.774   1.569  11.620  1.00  0.00    -0.299 OA
BRANCH  13  15
ATOM     15  C   UNL     1     -18.570   0.091  10.220  1.00  0.00     0.106 CG0
ATOM     16  G   UNL     1     -17.716  -0.812  11.096  1.00  0.00     0.000 G0
ENDBRANCH  13  15
ENDBRANCH  12  13
BRANCH  12  17
ATOM     17  C   UNL     1     -21.847   0.122   9.379  1.00  0.00    -0.006 C 
ATOM     18  C   UNL     1     -23.366   0.339   9.505  1.00  0.00     0.008 C 
ATOM     19  C   UNL     1     -21.234   1.358   8.694  1.00  0.00     0.008 C 
ENDBRANCH  12  17
ENDBRANCH  11  12
ENDBRANCH   1  11
TORSDOF 1
ENDMDL
MODEL 6
REMARK VINA RESULT:    -3.225      2.206      4.249
REMARK INTER + INTRA:          -4.659
REMARK INTER:                  -4.358
REMARK INTRA:                  -0.301
REMARK UNBOUND:                 0.263
REMARK SMILES CC1=CCC[C@@H](C)C(=O)C[C@H](C(C)C)C(=O)C1
REMARK SMILES IDX 8 1 9 2 6 3 7 4 5 5 4 6 3 7 2 8 1 9 10 11 11 12 15 13 16 14
REMARK SMILES IDX 17 15 12 17 13 18 14 19
REMARK H PARENT
REMARK Flexibility Score: 70.00
ROOT
ATOM      1  C   UNL     1     -18.910  -3.345   9.587  1.00  0.00     0.136 C 
ATOM      2  O   UNL     1     -18.229  -4.205  10.122  1.00  0.00    -0.299 OA
ENDROOT
BRANCH   1   3
ATOM      3  C   UNL     1     -18.806  -1.914  10.088  1.00  0.00     0.053 C 
ATOM      4  C   UNL     1     -17.372  -1.388   9.949  1.00  0.00     0.016 C 
BRANCH   3   5
ATOM      5  C   UNL     1     -19.308  -1.792  11.540  1.00  0.00     0.015 C 
BRANCH   5   6
ATOM      6  C   UNL     1     -20.847  -1.798  11.620  1.00  0.00     0.028 C 
BRANCH   6   7
ATOM      7  C   UNL     1     -21.456  -0.810  10.659  1.00  0.00    -0.028 C 
ATOM      8  C   UNL     1     -22.450  -1.095   9.787  1.00  0.00    -0.070 CG0
ATOM      9  C   UNL     1     -22.964   0.015   8.907  1.00  0.00     0.039 C 
ATOM     10  G   UNL     1     -23.076  -2.475   9.656  1.00  0.00     0.000 G0
ENDBRANCH   6   7
ENDBRANCH   5   6
ENDBRANCH   3   5
ENDBRANCH   1   3
BRANCH   1  11
ATOM     11  C   UNL     1     -19.890  -3.737   8.499  1.00  0.00     0.087 C 
BRANCH  11  12
ATOM     12  C   UNL     1     -21.252  -4.290   8.994  1.00  0.00     0.066 C 
BRANCH  12  13
ATOM     13  C   UNL     1     -22.384  -3.343   8.617  1.00  0.00     0.140 C 
ATOM     14  O   UNL     1     -22.704  -3.255   7.439  1.00  0.00    -0.299 OA
BRANCH  13  15
ATOM     15  C   UNL     1     -23.093  -2.478   9.638  1.00  0.00     0.106 CG0
ATOM     16  G   UNL     1     -22.458  -1.104   9.779  1.00  0.00     0.000 G0
ENDBRANCH  13  15
ENDBRANCH  12  13
BRANCH  12  17
ATOM     17  C   UNL     1     -21.546  -5.786   8.641  1.00  0.00    -0.006 C 
ATOM     18  C   UNL     1     -20.339  -6.701   8.915  1.00  0.00     0.008 C 
ATOM     19  C   UNL     1     -22.748  -6.312   9.447  1.00  0.00     0.008 C 
ENDBRANCH  12  17
ENDBRANCH  11  12
ENDBRANCH   1  11
TORSDOF 1
ENDMDL
MODEL 7
REMARK VINA RESULT:    -3.127      2.050      3.369
REMARK INTER + INTRA:          -4.509
REMARK INTER:                  -4.621
REMARK INTRA:                   0.112
REMARK UNBOUND:                 0.263
REMARK SMILES CC1=CCC[C@@H](C)C(=O)C[C@H](C(C)C)C(=O)C1
REMARK SMILES IDX 8 1 9 2 6 3 7 4 5 5 4 6 3 7 2 8 1 9 10 11 11 12 15 13 16 14
REMARK SMILES IDX 17 15 12 17 13 18 14 19
REMARK H PARENT
REMARK Flexibility Score: 70.00
ROOT
ATOM      1  C   UNL     1     -18.364  -2.533  10.405  1.00  0.00     0.136 C 
ATOM      2  O   UNL     1     -17.209  -2.144  10.492  1.00  0.00    -0.299 OA
ENDROOT
BRANCH   1   3
ATOM      3  C   UNL     1     -18.643  -3.834   9.673  1.00  0.00     0.053 C 
ATOM      4  C   UNL     1     -17.834  -3.916   8.372  1.00  0.00     0.016 C 
BRANCH   3   5
ATOM      5  C   UNL     1     -20.151  -4.013   9.406  1.00  0.00     0.015 C 
BRANCH   5   6
ATOM      6  C   UNL     1     -20.520  -3.685   7.946  1.00  0.00     0.028 C 
BRANCH   6   7
ATOM      7  C   UNL     1     -21.980  -3.339   7.808  1.00  0.00    -0.028 C 
ATOM      8  C   UNL     1     -22.483  -2.084   7.862  1.00  0.00    -0.070 CG0
ATOM      9  C   UNL     1     -23.969  -1.906   7.683  1.00  0.00     0.039 C 
ATOM     10  G   UNL     1     -21.625  -0.849   8.089  1.00  0.00     0.000 G0
ENDBRANCH   6   7
ENDBRANCH   5   6
ENDBRANCH   3   5
ENDBRANCH   1   3
BRANCH   1  11
ATOM     11  C   UNL     1     -19.484  -1.675  10.959  1.00  0.00     0.087 C 
BRANCH  11  12
ATOM     12  C   UNL     1     -19.892  -0.462  10.083  1.00  0.00     0.066 C 
BRANCH  12  13
ATOM     13  C   UNL     1     -21.315  -0.629   9.563  1.00  0.00     0.140 C 
ATOM     14  O   UNL     1     -22.235  -0.613  10.369  1.00  0.00    -0.299 OA
BRANCH  13  15
ATOM     15  C   UNL     1     -21.622  -0.858   8.098  1.00  0.00     0.106 CG0
ATOM     16  G   UNL     1     -22.504  -2.076   7.872  1.00  0.00     0.000 G0
ENDBRANCH  13  15
ENDBRANCH  12  13
BRANCH  12  17
ATOM     17  C   UNL     1     -19.616   0.947  10.704  1.00  0.00    -0.006 C 
ATOM     18  C   UNL     1     -18.371   0.955  11.610  1.00  0.00     0.008 C 
ATOM     19  C   UNL     1     -19.422   2.004   9.601  1.00  0.00     0.008 C 
ENDBRANCH  12  17
ENDBRANCH  11  12
ENDBRANCH   1  11
TORSDOF 1
ENDMDL
MODEL 8
REMARK VINA RESULT:    -3.073      2.399      3.187
REMARK INTER + INTRA:          -4.427
REMARK INTER:                  -4.292
REMARK INTRA:                  -0.135
REMARK UNBOUND:                 0.263
REMARK SMILES CC1=CCC[C@@H](C)C(=O)C[C@H](C(C)C)C(=O)C1
REMARK SMILES IDX 8 1 9 2 6 3 7 4 5 5 4 6 3 7 2 8 1 9 10 11 11 12 15 13 16 14
REMARK SMILES IDX 17 15 12 17 13 18 14 19
REMARK H PARENT
REMARK Flexibility Score: 70.00
ROOT
ATOM      1  C   UNL     1     -19.759  -2.733  10.594  1.00  0.00     0.136 C 
ATOM      2  O   UNL     1     -19.635  -1.732  11.282  1.00  0.00    -0.299 OA
ENDROOT
BRANCH   1   3
ATOM      3  C   UNL     1     -18.514  -3.509  10.202  1.00  0.00     0.053 C 
ATOM      4  C   UNL     1     -17.500  -2.599   9.498  1.00  0.00     0.016 C 
BRANCH   3   5
ATOM      5  C   UNL     1     -18.868  -4.731   9.330  1.00  0.00     0.015 C 
BRANCH   5   6
ATOM      6  C   UNL     1     -18.508  -4.505   7.849  1.00  0.00     0.028 C 
BRANCH   6   7
ATOM      7  C   UNL     1     -19.404  -5.299   6.934  1.00  0.00    -0.028 C 
ATOM      8  C   UNL     1     -20.519  -4.818   6.339  1.00  0.00    -0.070 CG0
ATOM      9  C   UNL     1     -21.294  -5.738   5.432  1.00  0.00     0.039 C 
ATOM     10  G   UNL     1     -21.024  -3.397   6.536  1.00  0.00     0.000 G0
ENDBRANCH   6   7
ENDBRANCH   5   6
ENDBRANCH   3   5
ENDBRANCH   1   3
BRANCH   1  11
ATOM     11  C   UNL     1     -21.134  -3.127  10.091  1.00  0.00     0.087 C 
BRANCH  11  12
ATOM     12  C   UNL     1     -21.660  -2.312   8.881  1.00  0.00     0.066 C 
BRANCH  12  13
ATOM     13  C   UNL     1     -21.966  -3.233   7.706  1.00  0.00     0.140 C 
ATOM     14  O   UNL     1     -22.989  -3.903   7.741  1.00  0.00    -0.299 OA
BRANCH  13  15
ATOM     15  C   UNL     1     -21.030  -3.380   6.525  1.00  0.00     0.106 CG0
ATOM     16  G   UNL     1     -20.534  -4.807   6.349  1.00  0.00     0.000 G0
ENDBRANCH  13  15
ENDBRANCH  12  13
BRANCH  12  17
ATOM     17  C   UNL     1     -22.811  -1.298   9.194  1.00  0.00    -0.006 C 
ATOM     18  C   UNL     1     -23.582  -1.664  10.475  1.00  0.00     0.008 C 
ATOM     19  C   UNL     1     -22.254   0.129   9.353  1.00  0.00     0.008 C 
ENDBRANCH  12  17
ENDBRANCH  11  12
ENDBRANCH   1  11
TORSDOF 1
ENDMDL
MODEL 9
REMARK VINA RESULT:    -2.991      1.787      2.532
REMARK INTER + INTRA:          -4.302
REMARK INTER:                  -4.432
REMARK INTRA:                   0.130
REMARK UNBOUND:                 0.263
REMARK SMILES CC1=CCC[C@@H](C)C(=O)C[C@H](C(C)C)C(=O)C1
REMARK SMILES IDX 8 1 9 2 6 3 7 4 5 5 4 6 3 7 2 8 1 9 10 11 11 12 15 13 16 14
REMARK SMILES IDX 17 15 12 17 13 18 14 19
REMARK H PARENT
REMARK Flexibility Score: 70.00
ROOT
ATOM      1  C   UNL     1     -19.975  -1.695  11.238  1.00  0.00     0.136 C 
ATOM      2  O   UNL     1     -20.249  -2.744  11.799  1.00  0.00    -0.299 OA
ENDROOT
BRANCH   1   3
ATOM      3  C   UNL     1     -18.549  -1.177  11.312  1.00  0.00     0.053 C 
ATOM      4  C   UNL     1     -18.405   0.142  10.542  1.00  0.00     0.016 C 
BRANCH   3   5
ATOM      5  C   UNL     1     -17.544  -2.232  10.807  1.00  0.00     0.015 C 
BRANCH   5   6
ATOM      6  C   UNL     1     -17.881  -2.712   9.382  1.00  0.00     0.028 C 
BRANCH   6   7
ATOM      7  C   UNL     1     -18.548  -4.063   9.396  1.00  0.00    -0.028 C 
ATOM      8  C   UNL     1     -19.678  -4.371   8.717  1.00  0.00    -0.070 CG0
ATOM      9  C   UNL     1     -20.206  -5.779   8.819  1.00  0.00     0.039 C 
ATOM     10  G   UNL     1     -20.434  -3.372   7.856  1.00  0.00     0.000 G0
ENDBRANCH   6   7
ENDBRANCH   5   6
ENDBRANCH   3   5
ENDBRANCH   1   3
BRANCH   1  11
ATOM     11  C   UNL     1     -21.074  -0.905  10.554  1.00  0.00     0.087 C 
BRANCH  11  12
ATOM     12  C   UNL     1     -21.159  -1.077   9.015  1.00  0.00     0.066 C 
BRANCH  12  13
ATOM     13  C   UNL     1     -21.431  -2.532   8.651  1.00  0.00     0.140 C 
ATOM     14  O   UNL     1     -22.464  -3.049   9.051  1.00  0.00    -0.299 OA
BRANCH  13  15
ATOM     15  C   UNL     1     -20.449  -3.366   7.855  1.00  0.00     0.106 CG0
ATOM     16  G   UNL     1     -19.690  -4.358   8.723  1.00  0.00     0.000 G0
ENDBRANCH  13  15
ENDBRANCH  12  13
BRANCH  12  17
ATOM     17  C   UNL     1     -22.090  -0.064   8.269  1.00  0.00    -0.006 C 
ATOM     18  C   UNL     1     -23.181   0.515   9.189  1.00  0.00     0.008 C 
ATOM     19  C   UNL     1     -21.273   1.105   7.688  1.00  0.00     0.008 C 
ENDBRANCH  12  17
ENDBRANCH  11  12
ENDBRANCH   1  11
TORSDOF 1
ENDMDL
