MODEL 1
REMARK VINA RESULT:    -4.076      0.000      0.000
REMARK INTER + INTRA:          -4.559
REMARK INTER:                  -4.433
REMARK INTRA:                  -0.126
REMARK UNBOUND:                -0.126
REMARK SMILES Cc1ccc(C(C)C)cc1O
REMARK SMILES IDX 1 1 2 2 10 3 9 4 5 5 4 6 3 7 11 8 6 10 7 11 8 12
REMARK H PARENT 11 9
REMARK Flexibility Score: inf
ROOT
ATOM      1  C   UNL     1     117.204 113.731 111.952  1.00  0.00     0.048 C 
ATOM      2  C   UNL     1     116.587 115.086 112.151  1.00  0.00    -0.009 A 
ATOM      3  C   UNL     1     115.194 115.217 112.291  1.00  0.00     0.118 A 
ATOM      4  C   UNL     1     114.625 116.485 112.476  1.00  0.00     0.050 A 
ATOM      5  C   UNL     1     115.433 117.634 112.524  1.00  0.00    -0.042 A 
ATOM      6  C   UNL     1     116.825 117.493 112.383  1.00  0.00     0.004 A 
ATOM      7  C   UNL     1     117.396 116.231 112.198  1.00  0.00     0.007 A 
ENDROOT
BRANCH   3   8
ATOM      8  O   UNL     1     114.380 114.086 112.245  1.00  0.00    -0.508 OA
ATOM      9  H   UNL     1     114.381 113.400 112.991  1.00  0.00     0.293 HD
ENDBRANCH   3   8
BRANCH   5  10
ATOM     10  C   UNL     1     114.801 118.999 112.725  1.00  0.00     0.013 C 
ATOM     11  C   UNL     1     114.795 119.392 114.207  1.00  0.00     0.012 C 
ATOM     12  C   UNL     1     115.502 120.064 111.875  1.00  0.00     0.012 C 
ENDBRANCH   5  10
TORSDOF 2
ENDMDL
MODEL 2
REMARK VINA RESULT:    -4.056      2.341      4.788
REMARK INTER + INTRA:          -4.537
REMARK INTER:                  -4.412
REMARK INTRA:                  -0.125
REMARK UNBOUND:                -0.126
REMARK SMILES Cc1ccc(C(C)C)cc1O
REMARK SMILES IDX 1 1 2 2 10 3 9 4 5 5 4 6 3 7 11 8 6 10 7 11 8 12
REMARK H PARENT 11 9
REMARK Flexibility Score: inf
ROOT
ATOM      1  C   UNL     1     115.122 120.267 115.383  1.00  0.00     0.048 C 
ATOM      2  C   UNL     1     114.873 119.000 114.614  1.00  0.00    -0.009 A 
ATOM      3  C   UNL     1     114.829 119.021 113.209  1.00  0.00     0.118 A 
ATOM      4  C   UNL     1     114.597 117.836 112.498  1.00  0.00     0.050 A 
ATOM      5  C   UNL     1     114.408 116.618 113.175  1.00  0.00    -0.042 A 
ATOM      6  C   UNL     1     114.455 116.607 114.580  1.00  0.00     0.004 A 
ATOM      7  C   UNL     1     114.685 117.787 115.292  1.00  0.00     0.007 A 
ENDROOT
BRANCH   3   8
ATOM      8  O   UNL     1     115.014 120.222 112.524  1.00  0.00    -0.508 OA
ATOM      9  H   UNL     1     114.679 120.350 111.576  1.00  0.00     0.293 HD
ENDBRANCH   3   8
BRANCH   5  10
ATOM     10  C   UNL     1     114.158 115.344 112.389  1.00  0.00     0.013 C 
ATOM     11  C   UNL     1     115.478 114.687 111.969  1.00  0.00     0.012 C 
ATOM     12  C   UNL     1     113.284 114.367 113.184  1.00  0.00     0.012 C 
ENDBRANCH   5  10
TORSDOF 2
ENDMDL
MODEL 3
REMARK VINA RESULT:    -4.025      2.194      3.459
REMARK INTER + INTRA:          -4.503
REMARK INTER:                  -4.379
REMARK INTRA:                  -0.125
REMARK UNBOUND:                -0.126
REMARK SMILES Cc1ccc(C(C)C)cc1O
REMARK SMILES IDX 1 1 2 2 10 3 9 4 5 5 4 6 3 7 11 8 6 10 7 11 8 12
REMARK H PARENT 11 9
REMARK Flexibility Score: inf
ROOT
ATOM      1  C   UNL     1     119.445 116.905 111.902  1.00  0.00     0.048 C 
ATOM      2  C   UNL     1     118.078 116.346 112.181  1.00  0.00    -0.009 A 
ATOM      3  C   UNL     1     117.863 114.958 112.159  1.00  0.00     0.118 A 
ATOM      4  C   UNL     1     116.586 114.443 112.421  1.00  0.00     0.050 A 
ATOM      5  C   UNL     1     115.511 115.302 112.708  1.00  0.00    -0.042 A 
ATOM      6  C   UNL     1     115.736 116.689 112.729  1.00  0.00     0.004 A 
ATOM      7  C   UNL     1     117.008 117.206 112.468  1.00  0.00     0.007 A 
ENDROOT
BRANCH   3   8
ATOM      8  O   UNL     1     118.920 114.092 111.876  1.00  0.00    -0.508 OA
ATOM      9  H   UNL     1     118.800 113.086 111.886  1.00  0.00     0.293 HD
ENDBRANCH   3   8
BRANCH   5  10
ATOM     10  C   UNL     1     114.134 114.727 112.990  1.00  0.00     0.013 C 
ATOM     11  C   UNL     1     113.647 115.122 114.389  1.00  0.00     0.012 C 
ATOM     12  C   UNL     1     113.128 115.152 111.915  1.00  0.00     0.012 C 
ENDBRANCH   5  10
TORSDOF 2
ENDMDL
MODEL 4
REMARK VINA RESULT:    -4.017      2.096      3.315
REMARK INTER + INTRA:          -4.495
REMARK INTER:                  -4.370
REMARK INTRA:                  -0.125
REMARK UNBOUND:                -0.126
REMARK SMILES Cc1ccc(C(C)C)cc1O
REMARK SMILES IDX 1 1 2 2 10 3 9 4 5 5 4 6 3 7 11 8 6 10 7 11 8 12
REMARK H PARENT 11 9
REMARK Flexibility Score: inf
ROOT
ATOM      1  C   UNL     1     114.164 115.112 112.512  1.00  0.00     0.048 C 
ATOM      2  C   UNL     1     115.428 115.918 112.621  1.00  0.00    -0.009 A 
ATOM      3  C   UNL     1     115.421 117.290 112.316  1.00  0.00     0.118 A 
ATOM      4  C   UNL     1     116.604 118.036 112.420  1.00  0.00     0.050 A 
ATOM      5  C   UNL     1     117.803 117.427 112.829  1.00  0.00    -0.042 A 
ATOM      6  C   UNL     1     117.799 116.054 113.133  1.00  0.00     0.004 A 
ATOM      7  C   UNL     1     116.623 115.307 113.030  1.00  0.00     0.007 A 
ENDROOT
BRANCH   3   8
ATOM      8  O   UNL     1     114.239 117.908 111.909  1.00  0.00    -0.508 OA
ATOM      9  H   UNL     1     113.768 117.642 111.052  1.00  0.00     0.293 HD
ENDBRANCH   3   8
BRANCH   5  10
ATOM     10  C   UNL     1     119.074 118.250 112.936  1.00  0.00     0.013 C 
ATOM     11  C   UNL     1     119.671 118.161 114.345  1.00  0.00     0.012 C 
ATOM     12  C   UNL     1     120.096 117.827 111.876  1.00  0.00     0.012 C 
ENDBRANCH   5  10
TORSDOF 2
ENDMDL
MODEL 5
REMARK VINA RESULT:    -4.001      3.134      4.126
REMARK INTER + INTRA:          -4.477
REMARK INTER:                  -4.351
REMARK INTRA:                  -0.126
REMARK UNBOUND:                -0.126
REMARK SMILES Cc1ccc(C(C)C)cc1O
REMARK SMILES IDX 1 1 2 2 10 3 9 4 5 5 4 6 3 7 11 8 6 10 7 11 8 12
REMARK H PARENT 11 9
REMARK Flexibility Score: inf
ROOT
ATOM      1  C   UNL     1     120.374 118.127 115.188  1.00  0.00     0.048 C 
ATOM      2  C   UNL     1     119.089 118.301 114.429  1.00  0.00    -0.009 A 
ATOM      3  C   UNL     1     119.091 118.300 113.023  1.00  0.00     0.118 A 
ATOM      4  C   UNL     1     117.888 118.463 112.321  1.00  0.00     0.050 A 
ATOM      5  C   UNL     1     116.673 118.628 113.008  1.00  0.00    -0.042 A 
ATOM      6  C   UNL     1     116.681 118.628 114.414  1.00  0.00     0.004 A 
ATOM      7  C   UNL     1     117.878 118.466 115.117  1.00  0.00     0.007 A 
ENDROOT
BRANCH   3   8
ATOM      8  O   UNL     1     120.289 118.137 112.327  1.00  0.00    -0.508 OA
ATOM      9  H   UNL     1     121.186 118.190 112.795  1.00  0.00     0.293 HD
ENDBRANCH   3   8
BRANCH   5  10
ATOM     10  C   UNL     1     115.380 118.803 112.232  1.00  0.00     0.013 C 
ATOM     11  C   UNL     1     114.763 117.446 111.875  1.00  0.00     0.012 C 
ATOM     12  C   UNL     1     114.386 119.675 113.006  1.00  0.00     0.012 C 
ENDBRANCH   5  10
TORSDOF 2
ENDMDL
MODEL 6
REMARK VINA RESULT:    -3.996      2.126      4.778
REMARK INTER + INTRA:          -4.472
REMARK INTER:                  -4.347
REMARK INTRA:                  -0.125
REMARK UNBOUND:                -0.126
REMARK SMILES Cc1ccc(C(C)C)cc1O
REMARK SMILES IDX 1 1 2 2 10 3 9 4 5 5 4 6 3 7 11 8 6 10 7 11 8 12
REMARK H PARENT 11 9
REMARK Flexibility Score: inf
ROOT
ATOM      1  C   UNL     1     114.889 118.876 112.282  1.00  0.00     0.048 C 
ATOM      2  C   UNL     1     115.774 117.675 112.464  1.00  0.00    -0.009 A 
ATOM      3  C   UNL     1     117.160 117.779 112.255  1.00  0.00     0.118 A 
ATOM      4  C   UNL     1     117.980 116.655 112.426  1.00  0.00     0.050 A 
ATOM      5  C   UNL     1     117.432 115.418 112.808  1.00  0.00    -0.042 A 
ATOM      6  C   UNL     1     116.045 115.325 113.016  1.00  0.00     0.004 A 
ATOM      7  C   UNL     1     115.224 116.442 112.845  1.00  0.00     0.007 A 
ENDROOT
BRANCH   3   8
ATOM      8  O   UNL     1     117.719 118.999 111.875  1.00  0.00    -0.508 OA
ATOM      9  H   UNL     1     117.358 119.527 111.088  1.00  0.00     0.293 HD
ENDBRANCH   3   8
BRANCH   5  10
ATOM     10  C   UNL     1     118.335 114.211 112.990  1.00  0.00     0.013 C 
ATOM     11  C   UNL     1     118.167 113.602 114.387  1.00  0.00     0.012 C 
ATOM     12  C   UNL     1     118.085 113.165 111.898  1.00  0.00     0.012 C 
ENDBRANCH   5  10
TORSDOF 2
ENDMDL
MODEL 7
REMARK VINA RESULT:    -3.968      2.803      4.572
REMARK INTER + INTRA:          -4.442
REMARK INTER:                  -4.315
REMARK INTRA:                  -0.127
REMARK UNBOUND:                -0.126
REMARK SMILES Cc1ccc(C(C)C)cc1O
REMARK SMILES IDX 1 1 2 2 10 3 9 4 5 5 4 6 3 7 11 8 6 10 7 11 8 12
REMARK H PARENT 11 9
REMARK Flexibility Score: inf
ROOT
ATOM      1  C   UNL     1     115.487 120.384 112.107  1.00  0.00     0.048 C 
ATOM      2  C   UNL     1     115.106 119.060 112.705  1.00  0.00    -0.009 A 
ATOM      3  C   UNL     1     115.099 118.888 114.100  1.00  0.00     0.118 A 
ATOM      4  C   UNL     1     114.743 117.649 114.652  1.00  0.00     0.050 A 
ATOM      5  C   UNL     1     114.390 116.570 113.823  1.00  0.00    -0.042 A 
ATOM      6  C   UNL     1     114.400 116.752 112.429  1.00  0.00     0.004 A 
ATOM      7  C   UNL     1     114.754 117.984 111.876  1.00  0.00     0.007 A 
ENDROOT
BRANCH   3   8
ATOM      8  O   UNL     1     115.448 119.950 114.935  1.00  0.00    -0.508 OA
ATOM      9  H   UNL     1     115.043 120.054 115.859  1.00  0.00     0.293 HD
ENDBRANCH   3   8
BRANCH   5  10
ATOM     10  C   UNL     1     114.007 115.236 114.437  1.00  0.00     0.013 C 
ATOM     11  C   UNL     1     113.227 115.432 115.742  1.00  0.00     0.012 C 
ATOM     12  C   UNL     1     113.214 114.378 113.444  1.00  0.00     0.012 C 
ENDBRANCH   5  10
TORSDOF 2
ENDMDL
MODEL 8
REMARK VINA RESULT:    -3.944      1.570      4.220
REMARK INTER + INTRA:          -4.416
REMARK INTER:                  -4.313
REMARK INTRA:                  -0.103
REMARK UNBOUND:                -0.126
REMARK SMILES Cc1ccc(C(C)C)cc1O
REMARK SMILES IDX 1 1 2 2 10 3 9 4 5 5 4 6 3 7 11 8 6 10 7 11 8 12
REMARK H PARENT 11 9
REMARK Flexibility Score: inf
ROOT
ATOM      1  C   UNL     1     115.470 119.844 111.934  1.00  0.00     0.048 C 
ATOM      2  C   UNL     1     116.172 118.535 112.157  1.00  0.00    -0.009 A 
ATOM      3  C   UNL     1     115.448 117.330 112.134  1.00  0.00     0.118 A 
ATOM      4  C   UNL     1     116.110 116.112 112.343  1.00  0.00     0.050 A 
ATOM      5  C   UNL     1     117.496 116.079 112.575  1.00  0.00    -0.042 A 
ATOM      6  C   UNL     1     118.211 117.289 112.595  1.00  0.00     0.004 A 
ATOM      7  C   UNL     1     117.555 118.505 112.388  1.00  0.00     0.007 A 
ENDROOT
BRANCH   3   8
ATOM      8  O   UNL     1     114.072 117.347 111.905  1.00  0.00    -0.508 OA
ATOM      9  H   UNL     1     113.476 118.059 112.309  1.00  0.00     0.293 HD
ENDBRANCH   3   8
BRANCH   5  10
ATOM     10  C   UNL     1     118.197 114.751 112.799  1.00  0.00     0.013 C 
ATOM     11  C   UNL     1     118.112 114.323 114.268  1.00  0.00     0.012 C 
ATOM     12  C   UNL     1     117.632 113.666 111.875  1.00  0.00     0.012 C 
ENDBRANCH   5  10
TORSDOF 2
ENDMDL
MODEL 9
REMARK VINA RESULT:    -2.058      3.202      4.016
REMARK INTER + INTRA:          -2.364
REMARK INTER:                  -2.263
REMARK INTRA:                  -0.101
REMARK UNBOUND:                -0.126
REMARK SMILES Cc1ccc(C(C)C)cc1O
REMARK SMILES IDX 1 1 2 2 10 3 9 4 5 5 4 6 3 7 11 8 6 10 7 11 8 12
REMARK H PARENT 11 9
REMARK Flexibility Score: inf
ROOT
ATOM      1  C   UNL     1     120.392 118.054 115.599  1.00  0.00     0.048 C 
ATOM      2  C   UNL     1     119.253 118.260 114.640  1.00  0.00    -0.009 A 
ATOM      3  C   UNL     1     117.943 118.423 115.121  1.00  0.00     0.118 A 
ATOM      4  C   UNL     1     116.885 118.615 114.221  1.00  0.00     0.050 A 
ATOM      5  C   UNL     1     117.119 118.647 112.836  1.00  0.00    -0.042 A 
ATOM      6  C   UNL     1     118.434 118.484 112.364  1.00  0.00     0.004 A 
ATOM      7  C   UNL     1     119.490 118.293 113.258  1.00  0.00     0.007 A 
ENDROOT
BRANCH   3   8
ATOM      8  O   UNL     1     117.695 118.392 116.494  1.00  0.00    -0.508 OA
ATOM      9  H   UNL     1     116.896 117.901 116.878  1.00  0.00     0.293 HD
ENDBRANCH   3   8
BRANCH   5  10
ATOM     10  C   UNL     1     115.963 118.856 111.875  1.00  0.00     0.013 C 
ATOM     11  C   UNL     1     114.804 117.904 112.191  1.00  0.00     0.012 C 
ATOM     12  C   UNL     1     115.495 120.316 111.883  1.00  0.00     0.012 C 
ENDBRANCH   5  10
TORSDOF 2
ENDMDL
