MODEL 1
REMARK VINA RESULT:    -4.293      0.000      0.000
REMARK INTER + INTRA:          -4.878
REMARK INTER:                  -4.669
REMARK INTRA:                  -0.209
REMARK UNBOUND:                -0.209
REMARK SMILES O=C([O-])c1ccccc1O
REMARK SMILES IDX 4 1 9 2 5 3 8 4 6 5 7 6 2 7 1 8 3 9 10 10
REMARK H PARENT 10 11
REMARK Flexibility Score: inf
ROOT
ATOM      1  C   UNL     1      -1.045   4.051   8.982  1.00  0.00     0.039 A 
ATOM      2  C   UNL     1      -1.423   4.895   7.911  1.00  0.00     0.124 A 
ATOM      3  C   UNL     1      -1.996   3.743   9.973  1.00  0.00     0.014 A 
ATOM      4  C   UNL     1      -2.729   5.407   7.852  1.00  0.00     0.047 A 
ATOM      5  C   UNL     1      -3.293   4.260   9.902  1.00  0.00     0.001 A 
ATOM      6  C   UNL     1      -3.658   5.090   8.844  1.00  0.00     0.004 A 
ENDROOT
BRANCH   1   7
ATOM      7  C   UNL     1       0.323   3.483   9.090  1.00  0.00     0.075 C 
ATOM      8  O   UNL     1       0.745   2.641   8.254  1.00  0.00    -0.545 OA
ATOM      9  O   UNL     1       1.165   3.875  10.124  1.00  0.00    -0.545 OA
ENDBRANCH   1   7
BRANCH   2  10
ATOM     10  O   UNL     1      -0.514   5.227   6.907  1.00  0.00    -0.507 OA
ATOM     11  H   UNL     1       0.365   4.734   6.800  1.00  0.00     0.293 HD
ENDBRANCH   2  10
TORSDOF 2
ENDMDL
MODEL 2
REMARK VINA RESULT:    -4.148      1.857      3.334
REMARK INTER + INTRA:          -4.720
REMARK INTER:                  -4.549
REMARK INTRA:                  -0.171
REMARK UNBOUND:                -0.209
REMARK SMILES O=C([O-])c1ccccc1O
REMARK SMILES IDX 4 1 9 2 5 3 8 4 6 5 7 6 2 7 1 8 3 9 10 10
REMARK H PARENT 10 11
REMARK Flexibility Score: inf
ROOT
ATOM      1  C   UNL     1      -1.879   4.056   9.181  1.00  0.00     0.039 A 
ATOM      2  C   UNL     1      -0.630   3.445   8.918  1.00  0.00     0.124 A 
ATOM      3  C   UNL     1      -2.894   3.291   9.787  1.00  0.00     0.014 A 
ATOM      4  C   UNL     1      -0.422   2.100   9.261  1.00  0.00     0.047 A 
ATOM      5  C   UNL     1      -2.674   1.952  10.124  1.00  0.00     0.001 A 
ATOM      6  C   UNL     1      -1.441   1.359   9.862  1.00  0.00     0.004 A 
ENDROOT
BRANCH   1   7
ATOM      7  C   UNL     1      -2.149   5.474   8.837  1.00  0.00     0.075 C 
ATOM      8  O   UNL     1      -2.278   6.348   9.736  1.00  0.00    -0.545 OA
ATOM      9  O   UNL     1      -2.267   5.864   7.508  1.00  0.00    -0.545 OA
ENDBRANCH   1   7
BRANCH   2  10
ATOM     10  O   UNL     1       0.404   4.164   8.320  1.00  0.00    -0.507 OA
ATOM     11  H   UNL     1       1.366   3.846   8.356  1.00  0.00     0.293 HD
ENDBRANCH   2  10
TORSDOF 2
ENDMDL
MODEL 3
REMARK VINA RESULT:    -4.039     14.805     15.136
REMARK INTER + INTRA:          -4.602
REMARK INTER:                  -4.364
REMARK INTRA:                  -0.238
REMARK UNBOUND:                -0.209
REMARK SMILES O=C([O-])c1ccccc1O
REMARK SMILES IDX 4 1 9 2 5 3 8 4 6 5 7 6 2 7 1 8 3 9 10 10
REMARK H PARENT 10 11
REMARK Flexibility Score: inf
ROOT
ATOM      1  C   UNL     1       9.393  -3.408   1.462  1.00  0.00     0.039 A 
ATOM      2  C   UNL     1       8.264  -3.694   0.658  1.00  0.00     0.124 A 
ATOM      3  C   UNL     1      10.125  -2.232   1.212  1.00  0.00     0.014 A 
ATOM      4  C   UNL     1       7.893  -2.808  -0.366  1.00  0.00     0.047 A 
ATOM      5  C   UNL     1       9.745  -1.359   0.188  1.00  0.00     0.001 A 
ATOM      6  C   UNL     1       8.631  -1.647  -0.598  1.00  0.00     0.004 A 
ENDROOT
BRANCH   1   7
ATOM      7  C   UNL     1       9.827  -4.312   2.557  1.00  0.00     0.075 C 
ATOM      8  O   UNL     1      10.125  -5.515   2.327  1.00  0.00    -0.545 OA
ATOM      9  O   UNL     1       9.911  -3.843   3.862  1.00  0.00    -0.545 OA
ENDBRANCH   1   7
BRANCH   2  10
ATOM     10  O   UNL     1       7.510  -4.847   0.869  1.00  0.00    -0.507 OA
ATOM     11  H   UNL     1       7.797  -5.747   0.503  1.00  0.00     0.293 HD
ENDBRANCH   2  10
TORSDOF 2
ENDMDL
MODEL 4
REMARK VINA RESULT:    -3.789     14.872     15.671
REMARK INTER + INTRA:          -4.330
REMARK INTER:                  -4.076
REMARK INTRA:                  -0.254
REMARK UNBOUND:                -0.209
REMARK SMILES O=C([O-])c1ccccc1O
REMARK SMILES IDX 4 1 9 2 5 3 8 4 6 5 7 6 2 7 1 8 3 9 10 10
REMARK H PARENT 10 11
REMARK Flexibility Score: inf
ROOT
ATOM      1  C   UNL     1       8.684  -4.233   0.467  1.00  0.00     0.039 A 
ATOM      2  C   UNL     1       8.265  -3.163  -0.360  1.00  0.00     0.124 A 
ATOM      3  C   UNL     1       8.744  -5.530  -0.079  1.00  0.00     0.014 A 
ATOM      4  C   UNL     1       7.920  -3.408  -1.698  1.00  0.00     0.047 A 
ATOM      5  C   UNL     1       8.397  -5.759  -1.413  1.00  0.00     0.001 A 
ATOM      6  C   UNL     1       7.987  -4.700  -2.221  1.00  0.00     0.004 A 
ENDROOT
BRANCH   1   7
ATOM      7  C   UNL     1       9.059  -4.028   1.889  1.00  0.00     0.075 C 
ATOM      8  O   UNL     1       8.576  -4.753   2.799  1.00  0.00    -0.545 OA
ATOM      9  O   UNL     1       9.953  -3.023   2.241  1.00  0.00    -0.545 OA
ENDBRANCH   1   7
BRANCH   2  10
ATOM     10  O   UNL     1       8.191  -1.863   0.138  1.00  0.00    -0.507 OA
ATOM     11  H   UNL     1       8.572  -1.074  -0.372  1.00  0.00     0.293 HD
ENDBRANCH   2  10
TORSDOF 2
ENDMDL
MODEL 5
REMARK VINA RESULT:    -3.751     14.657     16.090
REMARK INTER + INTRA:          -4.289
REMARK INTER:                  -4.034
REMARK INTRA:                  -0.255
REMARK UNBOUND:                -0.209
REMARK SMILES O=C([O-])c1ccccc1O
REMARK SMILES IDX 4 1 9 2 5 3 8 4 6 5 7 6 2 7 1 8 3 9 10 10
REMARK H PARENT 10 11
REMARK Flexibility Score: inf
ROOT
ATOM      1  C   UNL     1       8.229  -3.885  -0.569  1.00  0.00     0.039 A 
ATOM      2  C   UNL     1       8.123  -5.037   0.246  1.00  0.00     0.124 A 
ATOM      3  C   UNL     1       8.228  -4.042  -1.968  1.00  0.00     0.014 A 
ATOM      4  C   UNL     1       8.018  -6.306  -0.345  1.00  0.00     0.047 A 
ATOM      5  C   UNL     1       8.123  -5.311  -2.544  1.00  0.00     0.001 A 
ATOM      6  C   UNL     1       8.018  -6.440  -1.734  1.00  0.00     0.004 A 
ENDROOT
BRANCH   1   7
ATOM      7  C   UNL     1       8.343  -2.522   0.007  1.00  0.00     0.075 C 
ATOM      8  O   UNL     1       7.626  -1.576  -0.415  1.00  0.00    -0.545 OA
ATOM      9  O   UNL     1       9.250  -2.265   1.028  1.00  0.00    -0.545 OA
ENDBRANCH   1   7
BRANCH   2  10
ATOM     10  O   UNL     1       8.120  -4.930   1.637  1.00  0.00    -0.507 OA
ATOM     11  H   UNL     1       8.264  -4.042   2.103  1.00  0.00     0.293 HD
ENDBRANCH   2  10
TORSDOF 2
ENDMDL
MODEL 6
REMARK VINA RESULT:    -3.608     17.323     18.109
REMARK INTER + INTRA:          -4.133
REMARK INTER:                  -3.892
REMARK INTRA:                  -0.241
REMARK UNBOUND:                -0.209
REMARK SMILES O=C([O-])c1ccccc1O
REMARK SMILES IDX 4 1 9 2 5 3 8 4 6 5 7 6 2 7 1 8 3 9 10 10
REMARK H PARENT 10 11
REMARK Flexibility Score: inf
ROOT
ATOM      1  C   UNL     1       4.737  -5.806  -4.631  1.00  0.00     0.039 A 
ATOM      2  C   UNL     1       6.007  -6.157  -4.116  1.00  0.00     0.124 A 
ATOM      3  C   UNL     1       4.381  -4.445  -4.691  1.00  0.00     0.014 A 
ATOM      4  C   UNL     1       6.886  -5.154  -3.677  1.00  0.00     0.047 A 
ATOM      5  C   UNL     1       5.265  -3.457  -4.250  1.00  0.00     0.001 A 
ATOM      6  C   UNL     1       6.514  -3.811  -3.744  1.00  0.00     0.004 A 
ENDROOT
BRANCH   1   7
ATOM      7  C   UNL     1       3.772  -6.829  -5.108  1.00  0.00     0.075 C 
ATOM      8  O   UNL     1       3.018  -6.601  -6.092  1.00  0.00    -0.545 OA
ATOM      9  O   UNL     1       3.684  -8.061  -4.472  1.00  0.00    -0.545 OA
ENDBRANCH   1   7
BRANCH   2  10
ATOM     10  O   UNL     1       6.402  -7.493  -4.038  1.00  0.00    -0.507 OA
ATOM     11  H   UNL     1       7.120  -7.799  -3.392  1.00  0.00     0.293 HD
ENDBRANCH   2  10
TORSDOF 2
ENDMDL
MODEL 7
REMARK VINA RESULT:    -3.606     18.025     18.788
REMARK INTER + INTRA:          -4.131
REMARK INTER:                  -3.913
REMARK INTRA:                  -0.218
REMARK UNBOUND:                -0.209
REMARK SMILES O=C([O-])c1ccccc1O
REMARK SMILES IDX 4 1 9 2 5 3 8 4 6 5 7 6 2 7 1 8 3 9 10 10
REMARK H PARENT 10 11
REMARK Flexibility Score: inf
ROOT
ATOM      1  C   UNL     1       3.570  -6.665  -5.370  1.00  0.00     0.039 A 
ATOM      2  C   UNL     1       4.513  -7.199  -4.459  1.00  0.00     0.124 A 
ATOM      3  C   UNL     1       3.651  -5.301  -5.708  1.00  0.00     0.014 A 
ATOM      4  C   UNL     1       5.505  -6.370  -3.913  1.00  0.00     0.047 A 
ATOM      5  C   UNL     1       4.643  -4.486  -5.156  1.00  0.00     0.001 A 
ATOM      6  C   UNL     1       5.568  -5.020  -4.261  1.00  0.00     0.004 A 
ENDROOT
BRANCH   1   7
ATOM      7  C   UNL     1       2.502  -7.500  -5.975  1.00  0.00     0.075 C 
ATOM      8  O   UNL     1       2.064  -8.523  -5.385  1.00  0.00    -0.545 OA
ATOM      9  O   UNL     1       1.966  -7.164  -7.213  1.00  0.00    -0.545 OA
ENDBRANCH   1   7
BRANCH   2  10
ATOM     10  O   UNL     1       4.471  -8.545  -4.095  1.00  0.00    -0.507 OA
ATOM     11  H   UNL     1       4.374  -9.281  -4.785  1.00  0.00     0.293 HD
ENDBRANCH   2  10
TORSDOF 2
ENDMDL
MODEL 8
REMARK VINA RESULT:    -3.521     14.747     16.397
REMARK INTER + INTRA:          -4.038
REMARK INTER:                  -3.800
REMARK INTRA:                  -0.238
REMARK UNBOUND:                -0.209
REMARK SMILES O=C([O-])c1ccccc1O
REMARK SMILES IDX 4 1 9 2 5 3 8 4 6 5 7 6 2 7 1 8 3 9 10 10
REMARK H PARENT 10 11
REMARK Flexibility Score: inf
ROOT
ATOM      1  C   UNL     1       8.801  -4.745  -0.593  1.00  0.00     0.039 A 
ATOM      2  C   UNL     1       8.245  -3.851   0.353  1.00  0.00     0.124 A 
ATOM      3  C   UNL     1       9.537  -4.220  -1.672  1.00  0.00     0.014 A 
ATOM      4  C   UNL     1       8.435  -2.468   0.204  1.00  0.00     0.047 A 
ATOM      5  C   UNL     1       9.717  -2.841  -1.809  1.00  0.00     0.001 A 
ATOM      6  C   UNL     1       9.168  -1.967  -0.873  1.00  0.00     0.004 A 
ENDROOT
BRANCH   1   7
ATOM      7  C   UNL     1       8.630  -6.215  -0.480  1.00  0.00     0.075 C 
ATOM      8  O   UNL     1       7.483  -6.736  -0.464  1.00  0.00    -0.545 OA
ATOM      9  O   UNL     1       9.740  -7.046  -0.386  1.00  0.00    -0.545 OA
ENDBRANCH   1   7
BRANCH   2  10
ATOM     10  O   UNL     1       7.509  -4.326   1.438  1.00  0.00    -0.507 OA
ATOM     11  H   UNL     1       6.604  -3.939   1.678  1.00  0.00     0.293 HD
ENDBRANCH   2  10
TORSDOF 2
ENDMDL
MODEL 9
REMARK VINA RESULT:    -3.463     17.358     17.885
REMARK INTER + INTRA:          -3.976
REMARK INTER:                  -3.726
REMARK INTRA:                  -0.250
REMARK UNBOUND:                -0.209
REMARK SMILES O=C([O-])c1ccccc1O
REMARK SMILES IDX 4 1 9 2 5 3 8 4 6 5 7 6 2 7 1 8 3 9 10 10
REMARK H PARENT 10 11
REMARK Flexibility Score: inf
ROOT
ATOM      1  C   UNL     1       6.152  -6.181  -3.632  1.00  0.00     0.039 A 
ATOM      2  C   UNL     1       4.829  -6.324  -4.116  1.00  0.00     0.124 A 
ATOM      3  C   UNL     1       6.800  -4.941  -3.782  1.00  0.00     0.014 A 
ATOM      4  C   UNL     1       4.190  -5.237  -4.732  1.00  0.00     0.047 A 
ATOM      5  C   UNL     1       6.151  -3.867  -4.399  1.00  0.00     0.001 A 
ATOM      6  C   UNL     1       4.849  -4.015  -4.872  1.00  0.00     0.004 A 
ENDROOT
BRANCH   1   7
ATOM      7  C   UNL     1       6.872  -7.300  -2.972  1.00  0.00     0.075 C 
ATOM      8  O   UNL     1       6.871  -8.457  -3.472  1.00  0.00    -0.545 OA
ATOM      9  O   UNL     1       7.562  -7.087  -1.785  1.00  0.00    -0.545 OA
ENDBRANCH   1   7
BRANCH   2  10
ATOM     10  O   UNL     1       4.148  -7.534  -3.988  1.00  0.00    -0.507 OA
ATOM     11  H   UNL     1       3.328  -7.624  -3.400  1.00  0.00     0.293 HD
ENDBRANCH   2  10
TORSDOF 2
ENDMDL
