MODEL 1
REMARK VINA RESULT:    -3.472      0.000      0.000
REMARK INTER + INTRA:          -5.123
REMARK INTER:                  -4.690
REMARK INTRA:                  -0.432
REMARK UNBOUND:                -0.432
REMARK SMILES CCCCCCCC(=O)[O-]
REMARK SMILES IDX 5 1 6 2 7 3 8 4 9 5 10 6 4 7 3 8 2 9 1 10
REMARK H PARENT
REMARK Flexibility Score: inf
ROOT
ATOM      1  C   UNL     1     -29.254  -8.312 -11.302  1.00  0.00     0.000 C 
ENDROOT
BRANCH   1   2
ATOM      2  C   UNL     1     -28.930  -7.028 -10.522  1.00  0.00     0.006 C 
BRANCH   2   3
ATOM      3  C   UNL     1     -29.477  -5.769 -11.207  1.00  0.00     0.053 C 
BRANCH   3   4
ATOM      4  C   UNL     1     -28.376  -5.034 -11.905  1.00  0.00     0.041 C 
ATOM      5  O   UNL     1     -28.629  -4.326 -12.915  1.00  0.00    -0.550 OA
ATOM      6  O   UNL     1     -27.065  -5.171 -11.470  1.00  0.00    -0.550 OA
ENDBRANCH   3   4
ENDBRANCH   2   3
ENDBRANCH   1   2
BRANCH   1   7
ATOM      7  C   UNL     1     -28.755  -8.261 -12.757  1.00  0.00     0.000 C 
BRANCH   7   8
ATOM      8  C   UNL     1     -29.885  -8.480 -13.776  1.00  0.00    -0.000 C 
BRANCH   8   9
ATOM      9  C   UNL     1     -30.245  -7.199 -14.541  1.00  0.00    -0.003 C 
ATOM     10  C   UNL     1     -31.596  -6.651 -14.090  1.00  0.00     0.004 C 
ENDBRANCH   8   9
ENDBRANCH   7   8
ENDBRANCH   1   7
TORSDOF 6
ENDMDL
MODEL 2
REMARK VINA RESULT:    -3.415     10.417     11.949
REMARK INTER + INTRA:          -5.045
REMARK INTER:                  -4.604
REMARK INTRA:                  -0.441
REMARK UNBOUND:                -0.432
REMARK SMILES CCCCCCCC(=O)[O-]
REMARK SMILES IDX 5 1 6 2 7 3 8 4 9 5 10 6 4 7 3 8 2 9 1 10
REMARK H PARENT
REMARK Flexibility Score: inf
ROOT
ATOM      1  C   UNL     1     -19.866 -10.183  -4.982  1.00  0.00     0.000 C 
ENDROOT
BRANCH   1   2
ATOM      2  C   UNL     1     -21.115 -11.064  -5.142  1.00  0.00     0.006 C 
BRANCH   2   3
ATOM      3  C   UNL     1     -21.442 -11.362  -6.611  1.00  0.00     0.053 C 
BRANCH   3   4
ATOM      4  C   UNL     1     -22.479 -10.412  -7.119  1.00  0.00     0.041 C 
ATOM      5  O   UNL     1     -23.484 -10.135  -6.412  1.00  0.00    -0.550 OA
ATOM      6  O   UNL     1     -22.362  -9.871  -8.392  1.00  0.00    -0.550 OA
ENDBRANCH   3   4
ENDBRANCH   2   3
ENDBRANCH   1   2
BRANCH   1   7
ATOM      7  C   UNL     1     -18.562 -11.000  -5.003  1.00  0.00     0.000 C 
BRANCH   7   8
ATOM      8  C   UNL     1     -17.469 -10.344  -5.864  1.00  0.00    -0.000 C 
BRANCH   8   9
ATOM      9  C   UNL     1     -18.025  -9.254  -6.791  1.00  0.00    -0.003 C 
ATOM     10  C   UNL     1     -18.157  -9.766  -8.222  1.00  0.00     0.004 C 
ENDBRANCH   8   9
ENDBRANCH   7   8
ENDBRANCH   1   7
TORSDOF 6
ENDMDL
MODEL 3
REMARK VINA RESULT:    -3.382      2.106      2.991
REMARK INTER + INTRA:          -5.000
REMARK INTER:                  -4.656
REMARK INTRA:                  -0.344
REMARK UNBOUND:                -0.432
REMARK SMILES CCCCCCCC(=O)[O-]
REMARK SMILES IDX 5 1 6 2 7 3 8 4 9 5 10 6 4 7 3 8 2 9 1 10
REMARK H PARENT
REMARK Flexibility Score: inf
ROOT
ATOM      1  C   UNL     1     -29.484  -5.938 -13.807  1.00  0.00     0.000 C 
ENDROOT
BRANCH   1   2
ATOM      2  C   UNL     1     -30.181  -6.244 -12.472  1.00  0.00     0.006 C 
BRANCH   2   3
ATOM      3  C   UNL     1     -29.359  -5.790 -11.260  1.00  0.00     0.053 C 
BRANCH   3   4
ATOM      4  C   UNL     1     -29.015  -6.960 -10.394  1.00  0.00     0.041 C 
ATOM      5  O   UNL     1     -28.496  -6.779  -9.261  1.00  0.00    -0.550 OA
ATOM      6  O   UNL     1     -29.222  -8.253 -10.858  1.00  0.00    -0.550 OA
ENDBRANCH   3   4
ENDBRANCH   2   3
ENDBRANCH   1   2
BRANCH   1   7
ATOM      7  C   UNL     1     -30.388  -6.213 -15.022  1.00  0.00     0.000 C 
BRANCH   7   8
ATOM      8  C   UNL     1     -31.727  -6.856 -14.628  1.00  0.00    -0.000 C 
BRANCH   8   9
ATOM      9  C   UNL     1     -31.968  -8.197 -15.337  1.00  0.00    -0.003 C 
ATOM     10  C   UNL     1     -30.896  -9.216 -14.964  1.00  0.00     0.004 C 
ENDBRANCH   8   9
ENDBRANCH   7   8
ENDBRANCH   1   7
TORSDOF 6
ENDMDL
MODEL 4
REMARK VINA RESULT:    -3.381      1.947      3.733
REMARK INTER + INTRA:          -4.999
REMARK INTER:                  -4.486
REMARK INTRA:                  -0.513
REMARK UNBOUND:                -0.432
REMARK SMILES CCCCCCCC(=O)[O-]
REMARK SMILES IDX 5 1 6 2 7 3 8 4 9 5 10 6 4 7 3 8 2 9 1 10
REMARK H PARENT
REMARK Flexibility Score: inf
ROOT
ATOM      1  C   UNL     1     -29.409  -8.216 -11.569  1.00  0.00     0.000 C 
ENDROOT
BRANCH   1   2
ATOM      2  C   UNL     1     -28.930  -8.295 -13.027  1.00  0.00     0.006 C 
BRANCH   2   3
ATOM      3  C   UNL     1     -30.088  -8.463 -14.020  1.00  0.00     0.053 C 
BRANCH   3   4
ATOM      4  C   UNL     1     -30.584  -7.126 -14.474  1.00  0.00     0.041 C 
ATOM      5  O   UNL     1     -31.708  -6.705 -14.093  1.00  0.00    -0.550 OA
ATOM      6  O   UNL     1     -29.827  -6.367 -15.356  1.00  0.00    -0.550 OA
ENDBRANCH   3   4
ENDBRANCH   2   3
ENDBRANCH   1   2
BRANCH   1   7
ATOM      7  C   UNL     1     -28.890  -6.962 -10.844  1.00  0.00     0.000 C 
BRANCH   7   8
ATOM      8  C   UNL     1     -29.544  -5.669 -11.358  1.00  0.00    -0.000 C 
BRANCH   8   9
ATOM      9  C   UNL     1     -28.596  -4.836 -12.232  1.00  0.00    -0.003 C 
ATOM     10  C   UNL     1     -27.140  -5.216 -11.978  1.00  0.00     0.004 C 
ENDBRANCH   8   9
ENDBRANCH   7   8
ENDBRANCH   1   7
TORSDOF 6
ENDMDL
MODEL 5
REMARK VINA RESULT:    -3.325      1.781      3.425
REMARK INTER + INTRA:          -4.924
REMARK INTER:                  -4.269
REMARK INTRA:                  -0.655
REMARK UNBOUND:                -0.432
REMARK SMILES CCCCCCCC(=O)[O-]
REMARK SMILES IDX 5 1 6 2 7 3 8 4 9 5 10 6 4 7 3 8 2 9 1 10
REMARK H PARENT
REMARK Flexibility Score: inf
ROOT
ATOM      1  C   UNL     1     -29.371  -5.329 -13.862  1.00  0.00     0.000 C 
ENDROOT
BRANCH   1   2
ATOM      2  C   UNL     1     -28.315  -4.369 -13.290  1.00  0.00     0.006 C 
BRANCH   2   3
ATOM      3  C   UNL     1     -26.888  -4.747 -13.707  1.00  0.00     0.053 C 
BRANCH   3   4
ATOM      4  C   UNL     1     -26.317  -5.754 -12.759  1.00  0.00     0.041 C 
ATOM      5  O   UNL     1     -26.282  -6.973 -13.074  1.00  0.00    -0.550 OA
ATOM      6  O   UNL     1     -25.868  -5.354 -11.507  1.00  0.00    -0.550 OA
ENDBRANCH   3   4
ENDBRANCH   2   3
ENDBRANCH   1   2
BRANCH   1   7
ATOM      7  C   UNL     1     -30.110  -6.115 -12.765  1.00  0.00     0.000 C 
BRANCH   7   8
ATOM      8  C   UNL     1     -29.667  -5.711 -11.349  1.00  0.00    -0.000 C 
BRANCH   8   9
ATOM      9  C   UNL     1     -29.092  -6.891 -10.552  1.00  0.00    -0.003 C 
ATOM     10  C   UNL     1     -29.101  -8.171 -11.383  1.00  0.00     0.004 C 
ENDBRANCH   8   9
ENDBRANCH   7   8
ENDBRANCH   1   7
TORSDOF 6
ENDMDL
MODEL 6
REMARK VINA RESULT:    -3.315      8.129     10.020
REMARK INTER + INTRA:          -4.910
REMARK INTER:                  -4.468
REMARK INTRA:                  -0.442
REMARK UNBOUND:                -0.432
REMARK SMILES CCCCCCCC(=O)[O-]
REMARK SMILES IDX 5 1 6 2 7 3 8 4 9 5 10 6 4 7 3 8 2 9 1 10
REMARK H PARENT
REMARK Flexibility Score: inf
ROOT
ATOM      1  C   UNL     1     -25.747  -3.798  -5.481  1.00  0.00     0.000 C 
ENDROOT
BRANCH   1   2
ATOM      2  C   UNL     1     -26.798  -4.915  -5.386  1.00  0.00     0.006 C 
BRANCH   2   3
ATOM      3  C   UNL     1     -26.747  -5.662  -4.047  1.00  0.00     0.053 C 
BRANCH   3   4
ATOM      4  C   UNL     1     -25.889  -6.882  -4.162  1.00  0.00     0.041 C 
ATOM      5  O   UNL     1     -25.646  -7.381  -5.293  1.00  0.00    -0.550 OA
ATOM      6  O   UNL     1     -25.398  -7.497  -3.019  1.00  0.00    -0.550 OA
ENDBRANCH   3   4
ENDBRANCH   2   3
ENDBRANCH   1   2
BRANCH   1   7
ATOM      7  C   UNL     1     -26.379  -2.401  -5.610  1.00  0.00     0.000 C 
BRANCH   7   8
ATOM      8  C   UNL     1     -26.022  -1.481  -4.431  1.00  0.00    -0.000 C 
BRANCH   8   9
ATOM      9  C   UNL     1     -25.095  -2.160  -3.413  1.00  0.00    -0.003 C 
ATOM     10  C   UNL     1     -25.732  -2.192  -2.027  1.00  0.00     0.004 C 
ENDBRANCH   8   9
ENDBRANCH   7   8
ENDBRANCH   1   7
TORSDOF 6
ENDMDL
MODEL 7
REMARK VINA RESULT:    -3.296      8.622     10.050
REMARK INTER + INTRA:          -4.885
REMARK INTER:                  -4.413
REMARK INTRA:                  -0.471
REMARK UNBOUND:                -0.432
REMARK SMILES CCCCCCCC(=O)[O-]
REMARK SMILES IDX 5 1 6 2 7 3 8 4 9 5 10 6 4 7 3 8 2 9 1 10
REMARK H PARENT
REMARK Flexibility Score: inf
ROOT
ATOM      1  C   UNL     1     -23.211  -8.868  -7.121  1.00  0.00     0.000 C 
ENDROOT
BRANCH   1   2
ATOM      2  C   UNL     1     -24.379  -9.397  -6.274  1.00  0.00     0.006 C 
BRANCH   2   3
ATOM      3  C   UNL     1     -24.049  -9.440  -4.776  1.00  0.00     0.053 C 
BRANCH   3   4
ATOM      4  C   UNL     1     -24.749  -8.331  -4.056  1.00  0.00     0.041 C 
ATOM      5  O   UNL     1     -25.617  -7.638  -4.650  1.00  0.00    -0.550 OA
ATOM      6  O   UNL     1     -24.408  -8.031  -2.744  1.00  0.00    -0.550 OA
ENDBRANCH   3   4
ENDBRANCH   2   3
ENDBRANCH   1   2
BRANCH   1   7
ATOM      7  C   UNL     1     -22.431  -9.994  -7.821  1.00  0.00     0.000 C 
BRANCH   7   8
ATOM      8  C   UNL     1     -20.918  -9.917  -7.557  1.00  0.00    -0.000 C 
BRANCH   8   9
ATOM      9  C   UNL     1     -20.518 -10.570  -6.227  1.00  0.00    -0.003 C 
ATOM     10  C   UNL     1     -21.333 -11.834  -5.969  1.00  0.00     0.004 C 
ENDBRANCH   8   9
ENDBRANCH   7   8
ENDBRANCH   1   7
TORSDOF 6
ENDMDL
MODEL 8
REMARK VINA RESULT:    -3.291      8.246      9.442
REMARK INTER + INTRA:          -4.877
REMARK INTER:                  -4.604
REMARK INTRA:                  -0.274
REMARK UNBOUND:                -0.432
REMARK SMILES CCCCCCCC(=O)[O-]
REMARK SMILES IDX 5 1 6 2 7 3 8 4 9 5 10 6 4 7 3 8 2 9 1 10
REMARK H PARENT
REMARK Flexibility Score: inf
ROOT
ATOM      1  C   UNL     1     -24.369  -9.194  -4.556  1.00  0.00     0.000 C 
ENDROOT
BRANCH   1   2
ATOM      2  C   UNL     1     -25.043  -7.917  -4.029  1.00  0.00     0.006 C 
BRANCH   2   3
ATOM      3  C   UNL     1     -25.667  -7.074  -5.149  1.00  0.00     0.053 C 
BRANCH   3   4
ATOM      4  C   UNL     1     -26.486  -5.964  -4.572  1.00  0.00     0.041 C 
ATOM      5  O   UNL     1     -26.231  -5.520  -3.422  1.00  0.00    -0.550 OA
ATOM      6  O   UNL     1     -27.563  -5.452  -5.284  1.00  0.00    -0.550 OA
ENDBRANCH   3   4
ENDBRANCH   2   3
ENDBRANCH   1   2
BRANCH   1   7
ATOM      7  C   UNL     1     -24.370  -9.271  -6.093  1.00  0.00     0.000 C 
BRANCH   7   8
ATOM      8  C   UNL     1     -23.122  -9.975  -6.649  1.00  0.00    -0.000 C 
BRANCH   8   9
ATOM      9  C   UNL     1     -22.131 -10.375  -5.546  1.00  0.00    -0.003 C 
ATOM     10  C   UNL     1     -21.411 -11.673  -5.901  1.00  0.00     0.004 C 
ENDBRANCH   8   9
ENDBRANCH   7   8
ENDBRANCH   1   7
TORSDOF 6
ENDMDL
MODEL 9
REMARK VINA RESULT:    -3.280      8.795      9.975
REMARK INTER + INTRA:          -4.863
REMARK INTER:                  -4.418
REMARK INTRA:                  -0.445
REMARK UNBOUND:                -0.432
REMARK SMILES CCCCCCCC(=O)[O-]
REMARK SMILES IDX 5 1 6 2 7 3 8 4 9 5 10 6 4 7 3 8 2 9 1 10
REMARK H PARENT
REMARK Flexibility Score: inf
ROOT
ATOM      1  C   UNL     1     -22.330  -9.968  -4.638  1.00  0.00     0.000 C 
ENDROOT
BRANCH   1   2
ATOM      2  C   UNL     1     -23.857  -9.884  -4.482  1.00  0.00     0.006 C 
BRANCH   2   3
ATOM      3  C   UNL     1     -24.461  -8.691  -5.234  1.00  0.00     0.053 C 
BRANCH   3   4
ATOM      4  C   UNL     1     -25.229  -7.816  -4.294  1.00  0.00     0.041 C 
ATOM      5  O   UNL     1     -26.114  -7.036  -4.735  1.00  0.00    -0.550 OA
ATOM      6  O   UNL     1     -24.935  -7.826  -2.937  1.00  0.00    -0.550 OA
ENDBRANCH   3   4
ENDBRANCH   2   3
ENDBRANCH   1   2
BRANCH   1   7
ATOM      7  C   UNL     1     -21.859 -11.363  -5.087  1.00  0.00     0.000 C 
BRANCH   7   8
ATOM      8  C   UNL     1     -21.461 -11.401  -6.572  1.00  0.00    -0.000 C 
BRANCH   8   9
ATOM      9  C   UNL     1     -21.282  -9.998  -7.170  1.00  0.00    -0.003 C 
ATOM     10  C   UNL     1     -22.311  -9.732  -8.264  1.00  0.00     0.004 C 
ENDBRANCH   8   9
ENDBRANCH   7   8
ENDBRANCH   1   7
TORSDOF 6
ENDMDL
