MODEL 1
REMARK VINA RESULT:    -2.426      0.000      0.000
REMARK INTER + INTRA:          -2.426
REMARK INTER:                  -2.426
REMARK INTRA:                   0.000
REMARK UNBOUND:                 0.000
REMARK SMILES CC(=O)[O-]
REMARK SMILES IDX 1 1 2 2 3 3 4 4
REMARK H PARENT
REMARK Flexibility Score: inf
ROOT
ATOM      1  C   UNL     1      44.649  32.313  28.217  1.00  0.00     0.063 C 
ATOM      2  C   UNL     1      45.524  33.512  28.072  1.00  0.00     0.038 C 
ATOM      3  O   UNL     1      46.549  33.463  27.344  1.00  0.00    -0.550 OA
ATOM      4  O   UNL     1      45.181  34.704  28.699  1.00  0.00    -0.550 OA
ENDROOT
TORSDOF 0
ENDMDL
MODEL 2
REMARK VINA RESULT:    -2.419      1.909      2.616
REMARK INTER + INTRA:          -2.419
REMARK INTER:                  -2.419
REMARK INTRA:                   0.000
REMARK UNBOUND:                 0.000
REMARK SMILES CC(=O)[O-]
REMARK SMILES IDX 1 1 2 2 3 3 4 4
REMARK H PARENT
REMARK Flexibility Score: inf
ROOT
ATOM      1  C   UNL     1      45.769  33.366  27.889  1.00  0.00     0.063 C 
ATOM      2  C   UNL     1      44.667  32.684  28.627  1.00  0.00     0.038 C 
ATOM      3  O   UNL     1      43.905  33.346  29.378  1.00  0.00    -0.550 OA
ATOM      4  O   UNL     1      44.445  31.324  28.446  1.00  0.00    -0.550 OA
ENDROOT
TORSDOF 0
ENDMDL
MODEL 3
REMARK VINA RESULT:    -2.389     10.933     11.166
REMARK INTER + INTRA:          -2.389
REMARK INTER:                  -2.389
REMARK INTRA:                   0.000
REMARK UNBOUND:                 0.000
REMARK SMILES CC(=O)[O-]
REMARK SMILES IDX 1 1 2 2 3 3 4 4
REMARK H PARENT
REMARK Flexibility Score: inf
ROOT
ATOM      1  C   UNL     1      48.559  33.903  17.083  1.00  0.00     0.063 C 
ATOM      2  C   UNL     1      48.891  32.561  17.640  1.00  0.00     0.038 C 
ATOM      3  O   UNL     1      50.084  32.267  17.915  1.00  0.00    -0.550 OA
ATOM      4  O   UNL     1      47.878  31.649  17.909  1.00  0.00    -0.550 OA
ENDROOT
TORSDOF 0
ENDMDL
MODEL 4
REMARK VINA RESULT:    -2.382     11.573     12.080
REMARK INTER + INTRA:          -2.382
REMARK INTER:                  -2.382
REMARK INTRA:                   0.000
REMARK UNBOUND:                 0.000
REMARK SMILES CC(=O)[O-]
REMARK SMILES IDX 1 1 2 2 3 3 4 4
REMARK H PARENT
REMARK Flexibility Score: inf
ROOT
ATOM      1  C   UNL     1      48.794  34.127  17.341  1.00  0.00     0.063 C 
ATOM      2  C   UNL     1      47.671  33.773  16.425  1.00  0.00     0.038 C 
ATOM      3  O   UNL     1      46.591  34.419  16.469  1.00  0.00    -0.550 OA
ATOM      4  O   UNL     1      47.832  32.765  15.483  1.00  0.00    -0.550 OA
ENDROOT
TORSDOF 0
ENDMDL
MODEL 5
REMARK VINA RESULT:    -2.376     10.939     11.221
REMARK INTER + INTRA:          -2.376
REMARK INTER:                  -2.376
REMARK INTRA:                   0.000
REMARK UNBOUND:                 0.000
REMARK SMILES CC(=O)[O-]
REMARK SMILES IDX 1 1 2 2 3 3 4 4
REMARK H PARENT
REMARK Flexibility Score: inf
ROOT
ATOM      1  C   UNL     1      48.559  33.963  17.104  1.00  0.00     0.063 C 
ATOM      2  C   UNL     1      48.804  32.596  17.649  1.00  0.00     0.038 C 
ATOM      3  O   UNL     1      47.845  31.798  17.812  1.00  0.00    -0.550 OA
ATOM      4  O   UNL     1      50.101  32.180  17.927  1.00  0.00    -0.550 OA
ENDROOT
TORSDOF 0
ENDMDL
MODEL 6
REMARK VINA RESULT:    -2.298     16.127     16.628
REMARK INTER + INTRA:          -2.298
REMARK INTER:                  -2.298
REMARK INTRA:                   0.000
REMARK UNBOUND:                 0.000
REMARK SMILES CC(=O)[O-]
REMARK SMILES IDX 1 1 2 2 3 3 4 4
REMARK H PARENT
REMARK Flexibility Score: inf
ROOT
ATOM      1  C   UNL     1      50.031  33.604  11.359  1.00  0.00     0.063 C 
ATOM      2  C   UNL     1      48.683  33.298  11.918  1.00  0.00     0.038 C 
ATOM      3  O   UNL     1      48.575  32.614  12.969  1.00  0.00    -0.550 OA
ATOM      4  O   UNL     1      47.545  33.812  11.310  1.00  0.00    -0.550 OA
ENDROOT
TORSDOF 0
ENDMDL
MODEL 7
REMARK VINA RESULT:    -2.269     11.484     11.774
REMARK INTER + INTRA:          -2.269
REMARK INTER:                  -2.269
REMARK INTRA:                   0.000
REMARK UNBOUND:                 0.000
REMARK SMILES CC(=O)[O-]
REMARK SMILES IDX 1 1 2 2 3 3 4 4
REMARK H PARENT
REMARK Flexibility Score: inf
ROOT
ATOM      1  C   UNL     1      48.080  32.486  15.985  1.00  0.00     0.063 C 
ATOM      2  C   UNL     1      47.885  33.797  16.668  1.00  0.00     0.038 C 
ATOM      3  O   UNL     1      46.775  34.387  16.601  1.00  0.00    -0.550 OA
ATOM      4  O   UNL     1      48.912  34.346  17.427  1.00  0.00    -0.550 OA
ENDROOT
TORSDOF 0
ENDMDL
MODEL 8
REMARK VINA RESULT:    -2.252     11.226     11.550
REMARK INTER + INTRA:          -2.252
REMARK INTER:                  -2.252
REMARK INTRA:                   0.000
REMARK UNBOUND:                 0.000
REMARK SMILES CC(=O)[O-]
REMARK SMILES IDX 1 1 2 2 3 3 4 4
REMARK H PARENT
REMARK Flexibility Score: inf
ROOT
ATOM      1  C   UNL     1      49.601  32.122  17.765  1.00  0.00     0.063 C 
ATOM      2  C   UNL     1      48.737  33.173  17.155  1.00  0.00     0.038 C 
ATOM      3  O   UNL     1      48.921  34.386  17.438  1.00  0.00    -0.550 OA
ATOM      4  O   UNL     1      47.760  32.822  16.232  1.00  0.00    -0.550 OA
ENDROOT
TORSDOF 0
ENDMDL
MODEL 9
REMARK VINA RESULT:    -2.238     16.586     17.101
REMARK INTER + INTRA:          -2.238
REMARK INTER:                  -2.238
REMARK INTRA:                   0.000
REMARK UNBOUND:                 0.000
REMARK SMILES CC(=O)[O-]
REMARK SMILES IDX 1 1 2 2 3 3 4 4
REMARK H PARENT
REMARK Flexibility Score: inf
ROOT
ATOM      1  C   UNL     1      48.068  33.515  10.293  1.00  0.00     0.063 C 
ATOM      2  C   UNL     1      48.960  33.490  11.487  1.00  0.00     0.038 C 
ATOM      3  O   UNL     1      48.546  33.015  12.576  1.00  0.00    -0.550 OA
ATOM      4  O   UNL     1      50.270  33.942  11.387  1.00  0.00    -0.550 OA
ENDROOT
TORSDOF 0
ENDMDL
