MODEL 1
REMARK VINA RESULT:    -2.862      0.000      0.000
REMARK INTER + INTRA:          -2.862
REMARK INTER:                  -2.862
REMARK INTRA:                   0.000
REMARK UNBOUND:                 0.000
REMARK SMILES CC(=O)[O-]
REMARK SMILES IDX 1 1 2 2 3 3 4 4
REMARK H PARENT
REMARK Flexibility Score: inf
ROOT
ATOM      1  C   UNL     1      11.729   8.252  45.477  1.00  0.00     0.063 C 
ATOM      2  C   UNL     1      10.530   9.139  45.487  1.00  0.00     0.038 C 
ATOM      3  O   UNL     1      10.660  10.379  45.319  1.00  0.00    -0.550 OA
ATOM      4  O   UNL     1       9.272   8.605  45.737  1.00  0.00    -0.550 OA
ENDROOT
TORSDOF 0
ENDMDL
MODEL 2
REMARK VINA RESULT:    -2.833      0.091      1.620
REMARK INTER + INTRA:          -2.833
REMARK INTER:                  -2.833
REMARK INTRA:                   0.000
REMARK UNBOUND:                 0.000
REMARK SMILES CC(=O)[O-]
REMARK SMILES IDX 1 1 2 2 3 3 4 4
REMARK H PARENT
REMARK Flexibility Score: inf
ROOT
ATOM      1  C   UNL     1      11.762   8.232  45.494  1.00  0.00     0.063 C 
ATOM      2  C   UNL     1      10.542   9.089  45.530  1.00  0.00     0.038 C 
ATOM      3  O   UNL     1       9.411   8.571  45.722  1.00  0.00    -0.550 OA
ATOM      4  O   UNL     1      10.644  10.455  45.297  1.00  0.00    -0.550 OA
ENDROOT
TORSDOF 0
ENDMDL
MODEL 3
REMARK VINA RESULT:    -2.792      9.823     10.427
REMARK INTER + INTRA:          -2.792
REMARK INTER:                  -2.792
REMARK INTRA:                   0.000
REMARK UNBOUND:                 0.000
REMARK SMILES CC(=O)[O-]
REMARK SMILES IDX 1 1 2 2 3 3 4 4
REMARK H PARENT
REMARK Flexibility Score: inf
ROOT
ATOM      1  C   UNL     1      17.634   7.991  39.506  1.00  0.00     0.063 C 
ATOM      2  C   UNL     1      18.836   8.868  39.396  1.00  0.00     0.038 C 
ATOM      3  O   UNL     1      19.971   8.361  39.194  1.00  0.00    -0.550 OA
ATOM      4  O   UNL     1      18.715  10.240  39.569  1.00  0.00    -0.550 OA
ENDROOT
TORSDOF 0
ENDMDL
MODEL 4
REMARK VINA RESULT:    -2.743      9.943     10.336
REMARK INTER + INTRA:          -2.743
REMARK INTER:                  -2.743
REMARK INTRA:                   0.000
REMARK UNBOUND:                 0.000
REMARK SMILES CC(=O)[O-]
REMARK SMILES IDX 1 1 2 2 3 3 4 4
REMARK H PARENT
REMARK Flexibility Score: inf
ROOT
ATOM      1  C   UNL     1      15.508  17.626  41.629  1.00  0.00     0.063 C 
ATOM      2  C   UNL     1      14.409  18.189  42.465  1.00  0.00     0.038 C 
ATOM      3  O   UNL     1      14.639  19.146  43.250  1.00  0.00    -0.550 OA
ATOM      4  O   UNL     1      13.141  17.624  42.420  1.00  0.00    -0.550 OA
ENDROOT
TORSDOF 0
ENDMDL
MODEL 5
REMARK VINA RESULT:    -2.704     10.353     10.825
REMARK INTER + INTRA:          -2.704
REMARK INTER:                  -2.704
REMARK INTRA:                   0.000
REMARK UNBOUND:                 0.000
REMARK SMILES CC(=O)[O-]
REMARK SMILES IDX 1 1 2 2 3 3 4 4
REMARK H PARENT
REMARK Flexibility Score: inf
ROOT
ATOM      1  C   UNL     1      13.867  17.667  42.716  1.00  0.00     0.063 C 
ATOM      2  C   UNL     1      14.969  18.146  41.833  1.00  0.00     0.038 C 
ATOM      3  O   UNL     1      14.763  19.083  41.018  1.00  0.00    -0.550 OA
ATOM      4  O   UNL     1      16.210  17.524  41.869  1.00  0.00    -0.550 OA
ENDROOT
TORSDOF 0
ENDMDL
MODEL 6
REMARK VINA RESULT:    -2.590     10.206     10.666
REMARK INTER + INTRA:          -2.590
REMARK INTER:                  -2.590
REMARK INTRA:                   0.000
REMARK UNBOUND:                 0.000
REMARK SMILES CC(=O)[O-]
REMARK SMILES IDX 1 1 2 2 3 3 4 4
REMARK H PARENT
REMARK Flexibility Score: inf
ROOT
ATOM      1  C   UNL     1      13.294  17.865  42.478  1.00  0.00     0.063 C 
ATOM      2  C   UNL     1      14.748  18.127  42.275  1.00  0.00     0.038 C 
ATOM      3  O   UNL     1      15.415  17.408  41.486  1.00  0.00    -0.550 OA
ATOM      4  O   UNL     1      15.381  19.130  42.996  1.00  0.00    -0.550 OA
ENDROOT
TORSDOF 0
ENDMDL
MODEL 7
REMARK VINA RESULT:    -2.573      1.761      2.325
REMARK INTER + INTRA:          -2.573
REMARK INTER:                  -2.573
REMARK INTRA:                   0.000
REMARK UNBOUND:                 0.000
REMARK SMILES CC(=O)[O-]
REMARK SMILES IDX 1 1 2 2 3 3 4 4
REMARK H PARENT
REMARK Flexibility Score: inf
ROOT
ATOM      1  C   UNL     1      10.212   9.965  45.258  1.00  0.00     0.063 C 
ATOM      2  C   UNL     1      10.946   8.696  44.983  1.00  0.00     0.038 C 
ATOM      3  O   UNL     1      10.495   7.875  44.142  1.00  0.00    -0.550 OA
ATOM      4  O   UNL     1      12.100   8.392  45.693  1.00  0.00    -0.550 OA
ENDROOT
TORSDOF 0
ENDMDL
MODEL 8
REMARK VINA RESULT:    -2.332     10.170     10.561
REMARK INTER + INTRA:          -2.332
REMARK INTER:                  -2.332
REMARK INTRA:                   0.000
REMARK UNBOUND:                 0.000
REMARK SMILES CC(=O)[O-]
REMARK SMILES IDX 1 1 2 2 3 3 4 4
REMARK H PARENT
REMARK Flexibility Score: inf
ROOT
ATOM      1  C   UNL     1      20.406   8.506  39.351  1.00  0.00     0.063 C 
ATOM      2  C   UNL     1      18.964   8.884  39.406  1.00  0.00     0.038 C 
ATOM      3  O   UNL     1      18.075   8.002  39.289  1.00  0.00    -0.550 OA
ATOM      4  O   UNL     1      18.599  10.218  39.534  1.00  0.00    -0.550 OA
ENDROOT
TORSDOF 0
ENDMDL
MODEL 9
REMARK VINA RESULT:    -2.133     11.967     12.468
REMARK INTER + INTRA:          -2.133
REMARK INTER:                  -2.133
REMARK INTRA:                   0.000
REMARK UNBOUND:                 0.000
REMARK SMILES CC(=O)[O-]
REMARK SMILES IDX 1 1 2 2 3 3 4 4
REMARK H PARENT
REMARK Flexibility Score: inf
ROOT
ATOM      1  C   UNL     1      19.494  14.888  42.726  1.00  0.00     0.063 C 
ATOM      2  C   UNL     1      20.247  16.006  42.089  1.00  0.00     0.038 C 
ATOM      3  O   UNL     1      19.911  17.199  42.308  1.00  0.00    -0.550 OA
ATOM      4  O   UNL     1      21.288  15.733  41.212  1.00  0.00    -0.550 OA
ENDROOT
TORSDOF 0
ENDMDL
