MODEL 1
REMARK VINA RESULT:     0.000      0.000      0.000
REMARK INTER + INTRA:          -0.335
REMARK INTER:                   0.000
REMARK INTRA:                  -0.335
REMARK UNBOUND:                -0.335
REMARK SMILES O=c1c(O)c(-c2ccc(O)c(O)c2)oc2cc(O)cc(O)c12
REMARK SMILES IDX 5 1 3 2 2 3 1 4 22 5 20 6 19 7 17 8 16 9 15 10 14 11 6 12
REMARK SMILES IDX 7 13 8 14 9 15 13 16 11 17 10 18 12 20 4 22 21 24 18 26
REMARK H PARENT 10 19 12 21 4 23 21 25 18 27
REMARK Flexibility Score: inf
ROOT
ATOM      1  C   UNL     1      19.013  67.512  28.874  1.00  0.00     0.180 A 
ATOM      2  C   UNL     1      19.738  67.803  30.043  1.00  0.00     0.208 A 
ATOM      3  C   UNL     1      21.109  68.093  29.940  1.00  0.00     0.238 A 
ATOM      4  O   UNL     1      21.740  68.406  30.983  1.00  0.00    -0.285 OA
ATOM      5  C   UNL     1      21.739  68.071  28.673  1.00  0.00     0.111 A 
ATOM      6  C   UNL     1      23.131  68.309  28.456  1.00  0.00     0.134 A 
ATOM      7  C   UNL     1      23.621  68.393  27.147  1.00  0.00     0.093 A 
ATOM      8  C   UNL     1      22.783  68.182  26.048  1.00  0.00     0.123 A 
ATOM      9  C   UNL     1      21.437  67.890  26.252  1.00  0.00     0.094 A 
ATOM     10  C   UNL     1      20.909  67.836  27.545  1.00  0.00     0.146 A 
ATOM     11  O   UNL     1      19.619  67.565  27.694  1.00  0.00    -0.452 OA
ENDROOT
BRANCH   1  12
ATOM     12  C   UNL     1      17.572  67.174  28.906  1.00  0.00     0.025 A 
ATOM     13  C   UNL     1      16.620  68.188  28.724  1.00  0.00     0.016 A 
ATOM     14  C   UNL     1      15.258  67.887  28.730  1.00  0.00     0.051 A 
ATOM     15  C   UNL     1      14.817  66.570  28.900  1.00  0.00     0.157 A 
ATOM     16  C   UNL     1      17.135  65.847  29.055  1.00  0.00     0.062 A 
ATOM     17  C   UNL     1      15.769  65.536  29.059  1.00  0.00     0.158 A 
BRANCH  15  18
ATOM     18  O   UNL     1      13.440  66.338  28.904  1.00  0.00    -0.504 OA
ATOM     19  H   UNL     1      12.748  67.040  28.683  1.00  0.00     0.293 HD
ENDBRANCH  15  18
BRANCH  17  20
ATOM     20  O   UNL     1      15.406  64.196  29.213  1.00  0.00    -0.504 OA
ATOM     21  H   UNL     1      15.082  63.795  30.082  1.00  0.00     0.293 HD
ENDBRANCH  17  20
ENDBRANCH   1  12
BRANCH   2  22
ATOM     22  O   UNL     1      19.091  67.840  31.281  1.00  0.00    -0.502 OA
ATOM     23  H   UNL     1      19.466  68.341  32.077  1.00  0.00     0.293 HD
ENDBRANCH   2  22
BRANCH   6  24
ATOM     24  O   UNL     1      24.068  68.442  29.484  1.00  0.00    -0.507 OA
ATOM     25  H   UNL     1      24.978  68.866  29.381  1.00  0.00     0.293 HD
ENDBRANCH   6  24
BRANCH   8  26
ATOM     26  O   UNL     1      23.283  68.250  24.750  1.00  0.00    -0.508 OA
ATOM     27  H   UNL     1      23.081  67.531  24.066  1.00  0.00     0.293 HD
ENDBRANCH   8  26
TORSDOF 6
ENDMDL
MODEL 2
REMARK VINA RESULT:     0.000     13.222     15.237
REMARK INTER + INTRA:          -0.335
REMARK INTER:                   0.000
REMARK INTRA:                  -0.335
REMARK UNBOUND:                -0.335
REMARK SMILES O=c1c(O)c(-c2ccc(O)c(O)c2)oc2cc(O)cc(O)c12
REMARK SMILES IDX 5 1 3 2 2 3 1 4 22 5 20 6 19 7 17 8 16 9 15 10 14 11 6 12
REMARK SMILES IDX 7 13 8 14 9 15 13 16 11 17 10 18 12 20 4 22 21 24 18 26
REMARK H PARENT 10 19 12 21 4 23 21 25 18 27
REMARK Flexibility Score: inf
ROOT
ATOM      1  C   UNL     1      29.243  56.518  26.112  1.00  0.00     0.180 A 
ATOM      2  C   UNL     1      29.936  57.006  27.233  1.00  0.00     0.208 A 
ATOM      3  C   UNL     1      30.019  58.394  27.432  1.00  0.00     0.238 A 
ATOM      4  O   UNL     1      30.593  58.824  28.466  1.00  0.00    -0.285 OA
ATOM      5  C   UNL     1      29.421  59.276  26.499  1.00  0.00     0.111 A 
ATOM      6  C   UNL     1      29.477  60.700  26.579  1.00  0.00     0.134 A 
ATOM      7  C   UNL     1      28.739  61.472  25.674  1.00  0.00     0.093 A 
ATOM      8  C   UNL     1      28.000  60.872  24.650  1.00  0.00     0.123 A 
ATOM      9  C   UNL     1      27.988  59.486  24.528  1.00  0.00     0.094 A 
ATOM     10  C   UNL     1      28.684  58.686  25.438  1.00  0.00     0.146 A 
ATOM     11  O   UNL     1      28.638  57.368  25.292  1.00  0.00    -0.452 OA
ENDROOT
BRANCH   1  12
ATOM     12  C   UNL     1      29.135  55.070  25.823  1.00  0.00     0.025 A 
ATOM     13  C   UNL     1      28.019  54.356  26.282  1.00  0.00     0.016 A 
ATOM     14  C   UNL     1      27.888  52.995  26.004  1.00  0.00     0.051 A 
ATOM     15  C   UNL     1      28.856  52.323  25.249  1.00  0.00     0.157 A 
ATOM     16  C   UNL     1      30.098  54.405  25.046  1.00  0.00     0.062 A 
ATOM     17  C   UNL     1      29.973  53.039  24.758  1.00  0.00     0.158 A 
BRANCH  15  18
ATOM     18  O   UNL     1      28.669  50.959  25.012  1.00  0.00    -0.504 OA
ATOM     19  H   UNL     1      27.970  50.586  24.385  1.00  0.00     0.293 HD
ENDBRANCH  15  18
BRANCH  17  20
ATOM     20  O   UNL     1      30.969  52.442  23.982  1.00  0.00    -0.504 OA
ATOM     21  H   UNL     1      31.927  52.330  24.281  1.00  0.00     0.293 HD
ENDBRANCH  17  20
ENDBRANCH   1  12
BRANCH   2  22
ATOM     22  O   UNL     1      30.500  56.118  28.153  1.00  0.00    -0.502 OA
ATOM     23  H   UNL     1      31.017  56.431  28.966  1.00  0.00     0.293 HD
ENDBRANCH   2  22
BRANCH   6  24
ATOM     24  O   UNL     1      30.257  61.399  27.505  1.00  0.00    -0.507 OA
ATOM     25  H   UNL     1      31.032  61.005  28.018  1.00  0.00     0.293 HD
ENDBRANCH   6  24
BRANCH   8  26
ATOM     26  O   UNL     1      27.282  61.649  23.743  1.00  0.00    -0.508 OA
ATOM     27  H   UNL     1      26.631  61.233  23.088  1.00  0.00     0.293 HD
ENDBRANCH   8  26
TORSDOF 6
ENDMDL
MODEL 3
REMARK VINA RESULT:     0.000      9.368     13.378
REMARK INTER + INTRA:          -0.335
REMARK INTER:                   0.000
REMARK INTRA:                  -0.335
REMARK UNBOUND:                -0.335
REMARK SMILES O=c1c(O)c(-c2ccc(O)c(O)c2)oc2cc(O)cc(O)c12
REMARK SMILES IDX 5 1 3 2 2 3 1 4 22 5 20 6 19 7 17 8 16 9 15 10 14 11 6 12
REMARK SMILES IDX 7 13 8 14 9 15 13 16 11 17 10 18 12 20 4 22 21 24 18 26
REMARK H PARENT 10 19 12 21 4 23 21 25 18 27
REMARK Flexibility Score: inf
ROOT
ATOM      1  C   UNL     1      25.532  61.598  19.942  1.00  0.00     0.180 A 
ATOM      2  C   UNL     1      24.562  60.602  20.149  1.00  0.00     0.208 A 
ATOM      3  C   UNL     1      23.379  60.935  20.829  1.00  0.00     0.238 A 
ATOM      4  O   UNL     1      22.491  60.053  20.964  1.00  0.00    -0.285 OA
ATOM      5  C   UNL     1      23.189  62.254  21.307  1.00  0.00     0.111 A 
ATOM      6  C   UNL     1      22.047  62.693  22.043  1.00  0.00     0.134 A 
ATOM      7  C   UNL     1      21.903  64.051  22.351  1.00  0.00     0.093 A 
ATOM      8  C   UNL     1      22.893  64.976  22.007  1.00  0.00     0.123 A 
ATOM      9  C   UNL     1      24.038  64.548  21.340  1.00  0.00     0.094 A 
ATOM     10  C   UNL     1      24.193  63.205  20.986  1.00  0.00     0.146 A 
ATOM     11  O   UNL     1      25.296  62.841  20.343  1.00  0.00    -0.452 OA
ENDROOT
BRANCH   1  12
ATOM     12  C   UNL     1      26.814  61.317  19.256  1.00  0.00     0.025 A 
ATOM     13  C   UNL     1      26.920  61.535  17.874  1.00  0.00     0.016 A 
ATOM     14  C   UNL     1      28.125  61.296  17.212  1.00  0.00     0.051 A 
ATOM     15  C   UNL     1      29.251  60.851  17.914  1.00  0.00     0.157 A 
ATOM     16  C   UNL     1      27.948  60.891  19.968  1.00  0.00     0.062 A 
ATOM     17  C   UNL     1      29.162  60.652  19.312  1.00  0.00     0.158 A 
BRANCH  15  18
ATOM     18  O   UNL     1      30.423  60.623  17.191  1.00  0.00    -0.504 OA
ATOM     19  H   UNL     1      30.647  59.748  16.738  1.00  0.00     0.293 HD
ENDBRANCH  15  18
BRANCH  17  20
ATOM     20  O   UNL     1      30.248  60.229  20.083  1.00  0.00    -0.504 OA
ATOM     21  H   UNL     1      30.163  59.822  21.003  1.00  0.00     0.293 HD
ENDBRANCH  17  20
ENDBRANCH   1  12
BRANCH   2  22
ATOM     22  O   UNL     1      24.761  59.312  19.651  1.00  0.00    -0.502 OA
ATOM     23  H   UNL     1      24.351  58.492  20.083  1.00  0.00     0.293 HD
ENDBRANCH   2  22
BRANCH   6  24
ATOM     24  O   UNL     1      21.048  61.837  22.515  1.00  0.00    -0.507 OA
ATOM     25  H   UNL     1      21.116  60.831  22.538  1.00  0.00     0.293 HD
ENDBRANCH   6  24
BRANCH   8  26
ATOM     26  O   UNL     1      22.750  66.323  22.332  1.00  0.00    -0.508 OA
ATOM     27  H   UNL     1      23.462  66.821  22.853  1.00  0.00     0.293 HD
ENDBRANCH   8  26
TORSDOF 6
ENDMDL
MODEL 4
REMARK VINA RESULT:     0.000     13.338     15.012
REMARK INTER + INTRA:          -0.335
REMARK INTER:                   0.000
REMARK INTRA:                  -0.335
REMARK UNBOUND:                -0.335
REMARK SMILES O=c1c(O)c(-c2ccc(O)c(O)c2)oc2cc(O)cc(O)c12
REMARK SMILES IDX 5 1 3 2 2 3 1 4 22 5 20 6 19 7 17 8 16 9 15 10 14 11 6 12
REMARK SMILES IDX 7 13 8 14 9 15 13 16 11 17 10 18 12 20 4 22 21 24 18 26
REMARK H PARENT 10 19 12 21 4 23 21 25 18 27
REMARK Flexibility Score: inf
ROOT
ATOM      1  C   UNL     1      26.811  59.111  19.569  1.00  0.00     0.180 A 
ATOM      2  C   UNL     1      26.266  60.395  19.742  1.00  0.00     0.208 A 
ATOM      3  C   UNL     1      26.763  61.456  18.968  1.00  0.00     0.238 A 
ATOM      4  O   UNL     1      26.234  62.592  19.089  1.00  0.00    -0.285 OA
ATOM      5  C   UNL     1      27.811  61.224  18.045  1.00  0.00     0.111 A 
ATOM      6  C   UNL     1      28.419  62.233  17.238  1.00  0.00     0.134 A 
ATOM      7  C   UNL     1      29.356  61.867  16.264  1.00  0.00     0.093 A 
ATOM      8  C   UNL     1      29.755  60.535  16.112  1.00  0.00     0.123 A 
ATOM      9  C   UNL     1      29.211  59.553  16.935  1.00  0.00     0.094 A 
ATOM     10  C   UNL     1      28.246  59.881  17.891  1.00  0.00     0.146 A 
ATOM     11  O   UNL     1      27.746  58.912  18.648  1.00  0.00    -0.452 OA
ENDROOT
BRANCH   1  12
ATOM     12  C   UNL     1      26.355  57.949  20.365  1.00  0.00     0.025 A 
ATOM     13  C   UNL     1      25.348  57.116  19.856  1.00  0.00     0.016 A 
ATOM     14  C   UNL     1      24.918  56.004  20.581  1.00  0.00     0.051 A 
ATOM     15  C   UNL     1      25.494  55.690  21.817  1.00  0.00     0.157 A 
ATOM     16  C   UNL     1      26.952  57.625  21.595  1.00  0.00     0.062 A 
ATOM     17  C   UNL     1      26.529  56.508  22.328  1.00  0.00     0.158 A 
BRANCH  15  18
ATOM     18  O   UNL     1      25.013  54.568  22.496  1.00  0.00    -0.504 OA
ATOM     19  H   UNL     1      25.383  53.635  22.378  1.00  0.00     0.293 HD
ENDBRANCH  15  18
BRANCH  17  20
ATOM     20  O   UNL     1      27.165  56.247  23.544  1.00  0.00    -0.504 OA
ATOM     21  H   UNL     1      26.831  56.575  24.438  1.00  0.00     0.293 HD
ENDBRANCH  17  20
ENDBRANCH   1  12
BRANCH   2  22
ATOM     22  O   UNL     1      25.218  60.598  20.644  1.00  0.00    -0.502 OA
ATOM     23  H   UNL     1      24.457  59.938  20.752  1.00  0.00     0.293 HD
ENDBRANCH   2  22
BRANCH   6  24
ATOM     24  O   UNL     1      28.159  63.599  17.372  1.00  0.00    -0.507 OA
ATOM     25  H   UNL     1      28.541  64.319  16.777  1.00  0.00     0.293 HD
ENDBRANCH   6  24
BRANCH   8  26
ATOM     26  O   UNL     1      30.700  60.183  15.152  1.00  0.00    -0.508 OA
ATOM     27  H   UNL     1      31.255  59.339  15.239  1.00  0.00     0.293 HD
ENDBRANCH   8  26
TORSDOF 6
ENDMDL
MODEL 5
REMARK VINA RESULT:     0.000     11.837     13.775
REMARK INTER + INTRA:          -0.335
REMARK INTER:                   0.000
REMARK INTRA:                  -0.335
REMARK UNBOUND:                -0.335
REMARK SMILES O=c1c(O)c(-c2ccc(O)c(O)c2)oc2cc(O)cc(O)c12
REMARK SMILES IDX 5 1 3 2 2 3 1 4 22 5 20 6 19 7 17 8 16 9 15 10 14 11 6 12
REMARK SMILES IDX 7 13 8 14 9 15 13 16 11 17 10 18 12 20 4 22 21 24 18 26
REMARK H PARENT 10 19 12 21 4 23 21 25 18 27
REMARK Flexibility Score: inf
ROOT
ATOM      1  C   UNL     1      26.893  64.391  18.716  1.00  0.00     0.180 A 
ATOM      2  C   UNL     1      27.967  64.087  19.570  1.00  0.00     0.208 A 
ATOM      3  C   UNL     1      28.163  62.755  19.969  1.00  0.00     0.238 A 
ATOM      4  O   UNL     1      29.158  62.480  20.689  1.00  0.00    -0.285 OA
ATOM      5  C   UNL     1      27.274  61.748  19.523  1.00  0.00     0.111 A 
ATOM      6  C   UNL     1      27.354  60.372  19.896  1.00  0.00     0.134 A 
ATOM      7  C   UNL     1      26.501  59.441  19.291  1.00  0.00     0.093 A 
ATOM      8  C   UNL     1      25.526  59.846  18.374  1.00  0.00     0.123 A 
ATOM      9  C   UNL     1      25.402  61.194  18.049  1.00  0.00     0.094 A 
ATOM     10  C   UNL     1      26.263  62.142  18.607  1.00  0.00     0.146 A 
ATOM     11  O   UNL     1      26.116  63.415  18.262  1.00  0.00    -0.452 OA
ENDROOT
BRANCH   1  12
ATOM     12  C   UNL     1      26.608  65.775  18.273  1.00  0.00     0.025 A 
ATOM     13  C   UNL     1      27.138  66.234  17.058  1.00  0.00     0.016 A 
ATOM     14  C   UNL     1      26.865  67.528  16.612  1.00  0.00     0.051 A 
ATOM     15  C   UNL     1      26.046  68.383  17.358  1.00  0.00     0.157 A 
ATOM     16  C   UNL     1      25.767  66.623  19.013  1.00  0.00     0.062 A 
ATOM     17  C   UNL     1      25.485  67.922  18.572  1.00  0.00     0.158 A 
BRANCH  15  18
ATOM     18  O   UNL     1      25.819  69.668  16.860  1.00  0.00    -0.504 OA
ATOM     19  H   UNL     1      25.329  69.861  15.997  1.00  0.00     0.293 HD
ENDBRANCH  15  18
BRANCH  17  20
ATOM     20  O   UNL     1      24.643  68.711  19.360  1.00  0.00    -0.504 OA
ATOM     21  H   UNL     1      23.694  68.947  19.110  1.00  0.00     0.293 HD
ENDBRANCH  17  20
ENDBRANCH   1  12
BRANCH   2  22
ATOM     22  O   UNL     1      28.845  65.093  19.981  1.00  0.00    -0.502 OA
ATOM     23  H   UNL     1      28.779  66.046  19.643  1.00  0.00     0.293 HD
ENDBRANCH   2  22
BRANCH   6  24
ATOM     24  O   UNL     1      28.228  59.878  20.869  1.00  0.00    -0.507 OA
ATOM     25  H   UNL     1      28.460  60.353  21.728  1.00  0.00     0.293 HD
ENDBRANCH   6  24
BRANCH   8  26
ATOM     26  O   UNL     1      24.671  58.915  17.789  1.00  0.00    -0.508 OA
ATOM     27  H   UNL     1      24.365  58.089  18.289  1.00  0.00     0.293 HD
ENDBRANCH   8  26
TORSDOF 6
ENDMDL
MODEL 6
REMARK VINA RESULT:     0.000     13.155     14.959
REMARK INTER + INTRA:          -0.335
REMARK INTER:                   0.000
REMARK INTRA:                  -0.335
REMARK UNBOUND:                -0.335
REMARK SMILES O=c1c(O)c(-c2ccc(O)c(O)c2)oc2cc(O)cc(O)c12
REMARK SMILES IDX 5 1 3 2 2 3 1 4 22 5 20 6 19 7 17 8 16 9 15 10 14 11 6 12
REMARK SMILES IDX 7 13 8 14 9 15 13 16 11 17 10 18 12 20 4 22 21 24 18 26
REMARK H PARENT 10 19 12 21 4 23 21 25 18 27
REMARK Flexibility Score: inf
ROOT
ATOM      1  C   UNL     1      30.233  61.655  21.722  1.00  0.00     0.180 A 
ATOM      2  C   UNL     1      31.511  61.419  22.258  1.00  0.00     0.208 A 
ATOM      3  C   UNL     1      31.666  60.423  23.236  1.00  0.00     0.238 A 
ATOM      4  O   UNL     1      32.821  60.179  23.672  1.00  0.00    -0.285 OA
ATOM      5  C   UNL     1      30.540  59.687  23.676  1.00  0.00     0.111 A 
ATOM      6  C   UNL     1      30.574  58.682  24.690  1.00  0.00     0.134 A 
ATOM      7  C   UNL     1      29.425  57.927  24.953  1.00  0.00     0.093 A 
ATOM      8  C   UNL     1      28.224  58.185  24.284  1.00  0.00     0.123 A 
ATOM      9  C   UNL     1      28.167  59.203  23.336  1.00  0.00     0.094 A 
ATOM     10  C   UNL     1      29.306  59.949  23.025  1.00  0.00     0.146 A 
ATOM     11  O   UNL     1      29.209  60.904  22.108  1.00  0.00    -0.452 OA
ENDROOT
BRANCH   1  12
ATOM     12  C   UNL     1      29.987  62.704  20.707  1.00  0.00     0.025 A 
ATOM     13  C   UNL     1      30.021  62.370  19.345  1.00  0.00     0.016 A 
ATOM     14  C   UNL     1      29.773  63.339  18.373  1.00  0.00     0.051 A 
ATOM     15  C   UNL     1      29.468  64.656  18.737  1.00  0.00     0.157 A 
ATOM     16  C   UNL     1      29.661  64.020  21.078  1.00  0.00     0.062 A 
ATOM     17  C   UNL     1      29.406  64.999  20.108  1.00  0.00     0.158 A 
BRANCH  15  18
ATOM     18  O   UNL     1      29.237  65.579  17.716  1.00  0.00    -0.504 OA
ATOM     19  H   UNL     1      29.501  66.553  17.764  1.00  0.00     0.293 HD
ENDBRANCH  15  18
BRANCH  17  20
ATOM     20  O   UNL     1      29.089  66.286  20.549  1.00  0.00    -0.504 OA
ATOM     21  H   UNL     1      28.277  66.509  21.106  1.00  0.00     0.293 HD
ENDBRANCH  17  20
ENDBRANCH   1  12
BRANCH   2  22
ATOM     22  O   UNL     1      32.613  62.143  21.794  1.00  0.00    -0.502 OA
ATOM     23  H   UNL     1      33.474  61.696  21.503  1.00  0.00     0.293 HD
ENDBRANCH   2  22
BRANCH   6  24
ATOM     24  O   UNL     1      31.695  58.409  25.479  1.00  0.00    -0.507 OA
ATOM     25  H   UNL     1      32.648  58.597  25.209  1.00  0.00     0.293 HD
ENDBRANCH   6  24
BRANCH   8  26
ATOM     26  O   UNL     1      27.081  57.439  24.564  1.00  0.00    -0.508 OA
ATOM     27  H   UNL     1      26.277  57.451  23.948  1.00  0.00     0.293 HD
ENDBRANCH   8  26
TORSDOF 6
ENDMDL
MODEL 7
REMARK VINA RESULT:     0.000      9.862     10.889
REMARK INTER + INTRA:          -0.335
REMARK INTER:                   0.000
REMARK INTRA:                  -0.335
REMARK UNBOUND:                -0.335
REMARK SMILES O=c1c(O)c(-c2ccc(O)c(O)c2)oc2cc(O)cc(O)c12
REMARK SMILES IDX 5 1 3 2 2 3 1 4 22 5 20 6 19 7 17 8 16 9 15 10 14 11 6 12
REMARK SMILES IDX 7 13 8 14 9 15 13 16 11 17 10 18 12 20 4 22 21 24 18 26
REMARK H PARENT 10 19 12 21 4 23 21 25 18 27
REMARK Flexibility Score: inf
ROOT
ATOM      1  C   UNL     1      25.307  60.689  23.260  1.00  0.00     0.180 A 
ATOM      2  C   UNL     1      25.256  61.818  22.425  1.00  0.00     0.208 A 
ATOM      3  C   UNL     1      26.256  62.798  22.543  1.00  0.00     0.238 A 
ATOM      4  O   UNL     1      26.235  63.780  21.756  1.00  0.00    -0.285 OA
ATOM      5  C   UNL     1      27.283  62.643  23.504  1.00  0.00     0.111 A 
ATOM      6  C   UNL     1      28.324  63.592  23.738  1.00  0.00     0.134 A 
ATOM      7  C   UNL     1      29.362  63.275  24.622  1.00  0.00     0.093 A 
ATOM      8  C   UNL     1      29.362  62.069  25.331  1.00  0.00     0.123 A 
ATOM      9  C   UNL     1      28.320  61.164  25.153  1.00  0.00     0.094 A 
ATOM     10  C   UNL     1      27.289  61.435  24.251  1.00  0.00     0.146 A 
ATOM     11  O   UNL     1      26.320  60.540  24.105  1.00  0.00    -0.452 OA
ENDROOT
BRANCH   1  12
ATOM     12  C   UNL     1      24.276  59.627  23.210  1.00  0.00     0.025 A 
ATOM     13  C   UNL     1      24.483  58.500  22.400  1.00  0.00     0.016 A 
ATOM     14  C   UNL     1      23.533  57.479  22.355  1.00  0.00     0.051 A 
ATOM     15  C   UNL     1      22.369  57.551  23.127  1.00  0.00     0.157 A 
ATOM     16  C   UNL     1      23.119  59.693  24.004  1.00  0.00     0.062 A 
ATOM     17  C   UNL     1      22.162  58.670  23.968  1.00  0.00     0.158 A 
BRANCH  15  18
ATOM     18  O   UNL     1      21.455  56.499  23.030  1.00  0.00    -0.504 OA
ATOM     19  H   UNL     1      21.073  56.008  23.826  1.00  0.00     0.293 HD
ENDBRANCH  15  18
BRANCH  17  20
ATOM     20  O   UNL     1      21.034  58.803  24.782  1.00  0.00    -0.504 OA
ATOM     21  H   UNL     1      20.861  58.240  25.602  1.00  0.00     0.293 HD
ENDBRANCH  17  20
ENDBRANCH   1  12
BRANCH   2  22
ATOM     22  O   UNL     1      24.245  61.941  21.469  1.00  0.00    -0.502 OA
ATOM     23  H   UNL     1      23.268  61.782  21.685  1.00  0.00     0.293 HD
ENDBRANCH   2  22
BRANCH   6  24
ATOM     24  O   UNL     1      28.369  64.860  23.152  1.00  0.00    -0.507 OA
ATOM     25  H   UNL     1      29.054  65.157  22.474  1.00  0.00     0.293 HD
ENDBRANCH   6  24
BRANCH   8  26
ATOM     26  O   UNL     1      30.391  61.769  26.221  1.00  0.00    -0.508 OA
ATOM     27  H   UNL     1      31.121  62.439  26.433  1.00  0.00     0.293 HD
ENDBRANCH   8  26
TORSDOF 6
ENDMDL
MODEL 8
REMARK VINA RESULT:     0.000     12.494     15.411
REMARK INTER + INTRA:          -0.335
REMARK INTER:                   0.000
REMARK INTRA:                  -0.335
REMARK UNBOUND:                -0.335
REMARK SMILES O=c1c(O)c(-c2ccc(O)c(O)c2)oc2cc(O)cc(O)c12
REMARK SMILES IDX 5 1 3 2 2 3 1 4 22 5 20 6 19 7 17 8 16 9 15 10 14 11 6 12
REMARK SMILES IDX 7 13 8 14 9 15 13 16 11 17 10 18 12 20 4 22 21 24 18 26
REMARK H PARENT 10 19 12 21 4 23 21 25 18 27
REMARK Flexibility Score: inf
ROOT
ATOM      1  C   UNL     1      25.954  62.001  16.439  1.00  0.00     0.180 A 
ATOM      2  C   UNL     1      27.024  62.742  16.968  1.00  0.00     0.208 A 
ATOM      3  C   UNL     1      28.338  62.363  16.649  1.00  0.00     0.238 A 
ATOM      4  O   UNL     1      29.291  63.063  17.082  1.00  0.00    -0.285 OA
ATOM      5  C   UNL     1      28.565  61.238  15.821  1.00  0.00     0.111 A 
ATOM      6  C   UNL     1      29.856  60.739  15.466  1.00  0.00     0.134 A 
ATOM      7  C   UNL     1      29.962  59.700  14.534  1.00  0.00     0.093 A 
ATOM      8  C   UNL     1      28.823  59.097  13.993  1.00  0.00     0.123 A 
ATOM      9  C   UNL     1      27.559  59.537  14.379  1.00  0.00     0.094 A 
ATOM     10  C   UNL     1      27.420  60.597  15.279  1.00  0.00     0.146 A 
ATOM     11  O   UNL     1      26.197  60.992  15.611  1.00  0.00    -0.452 OA
ENDROOT
BRANCH   1  12
ATOM     12  C   UNL     1      24.543  62.325  16.749  1.00  0.00     0.025 A 
ATOM     13  C   UNL     1      23.821  63.163  15.886  1.00  0.00     0.016 A 
ATOM     14  C   UNL     1      22.484  63.465  16.150  1.00  0.00     0.051 A 
ATOM     15  C   UNL     1      21.836  62.926  17.266  1.00  0.00     0.157 A 
ATOM     16  C   UNL     1      23.889  61.764  17.859  1.00  0.00     0.062 A 
ATOM     17  C   UNL     1      22.546  62.058  18.128  1.00  0.00     0.158 A 
BRANCH  15  18
ATOM     18  O   UNL     1      20.500  63.274  17.477  1.00  0.00    -0.504 OA
ATOM     19  H   UNL     1      20.093  64.153  17.191  1.00  0.00     0.293 HD
ENDBRANCH  15  18
BRANCH  17  20
ATOM     20  O   UNL     1      21.961  61.466  19.250  1.00  0.00    -0.504 OA
ATOM     21  H   UNL     1      22.252  61.647  20.200  1.00  0.00     0.293 HD
ENDBRANCH  17  20
ENDBRANCH   1  12
BRANCH   2  22
ATOM     22  O   UNL     1      26.777  63.862  17.766  1.00  0.00    -0.502 OA
ATOM     23  H   UNL     1      27.304  64.722  17.676  1.00  0.00     0.293 HD
ENDBRANCH   2  22
BRANCH   6  24
ATOM     24  O   UNL     1      31.051  61.209  16.017  1.00  0.00    -0.507 OA
ATOM     25  H   UNL     1      31.739  60.631  16.475  1.00  0.00     0.293 HD
ENDBRANCH   6  24
BRANCH   8  26
ATOM     26  O   UNL     1      28.938  58.052  13.079  1.00  0.00    -0.508 OA
ATOM     27  H   UNL     1      28.722  57.097  13.336  1.00  0.00     0.293 HD
ENDBRANCH   8  26
TORSDOF 6
ENDMDL
MODEL 9
REMARK VINA RESULT:     0.000      5.591      8.982
REMARK INTER + INTRA:          -0.335
REMARK INTER:                   0.000
REMARK INTRA:                  -0.335
REMARK UNBOUND:                -0.335
REMARK SMILES O=c1c(O)c(-c2ccc(O)c(O)c2)oc2cc(O)cc(O)c12
REMARK SMILES IDX 5 1 3 2 2 3 1 4 22 5 20 6 19 7 17 8 16 9 15 10 14 11 6 12
REMARK SMILES IDX 7 13 8 14 9 15 13 16 11 17 10 18 12 20 4 22 21 24 18 26
REMARK H PARENT 10 19 12 21 4 23 21 25 18 27
REMARK Flexibility Score: inf
ROOT
ATOM      1  C   UNL     1      19.155  65.041  23.192  1.00  0.00     0.180 A 
ATOM      2  C   UNL     1      19.591  63.851  22.586  1.00  0.00     0.208 A 
ATOM      3  C   UNL     1      18.636  62.914  22.159  1.00  0.00     0.238 A 
ATOM      4  O   UNL     1      19.030  61.875  21.568  1.00  0.00    -0.285 OA
ATOM      5  C   UNL     1      17.259  63.172  22.359  1.00  0.00     0.111 A 
ATOM      6  C   UNL     1      16.206  62.276  22.002  1.00  0.00     0.134 A 
ATOM      7  C   UNL     1      14.874  62.690  22.125  1.00  0.00     0.093 A 
ATOM      8  C   UNL     1      14.556  63.945  22.654  1.00  0.00     0.123 A 
ATOM      9  C   UNL     1      15.575  64.802  23.059  1.00  0.00     0.094 A 
ATOM     10  C   UNL     1      16.915  64.432  22.915  1.00  0.00     0.146 A 
ATOM     11  O   UNL     1      17.855  65.284  23.305  1.00  0.00    -0.452 OA
ENDROOT
BRANCH   1  12
ATOM     12  C   UNL     1      20.103  66.064  23.689  1.00  0.00     0.025 A 
ATOM     13  C   UNL     1      20.466  67.133  22.856  1.00  0.00     0.016 A 
ATOM     14  C   UNL     1      21.342  68.118  23.312  1.00  0.00     0.051 A 
ATOM     15  C   UNL     1      21.860  68.069  24.611  1.00  0.00     0.157 A 
ATOM     16  C   UNL     1      20.602  66.024  25.002  1.00  0.00     0.062 A 
ATOM     17  C   UNL     1      21.479  67.011  25.470  1.00  0.00     0.158 A 
BRANCH  15  18
ATOM     18  O   UNL     1      22.737  69.082  25.003  1.00  0.00    -0.504 OA
ATOM     19  H   UNL     1      22.554  69.728  25.758  1.00  0.00     0.293 HD
ENDBRANCH  15  18
BRANCH  17  20
ATOM     20  O   UNL     1      21.938  66.906  26.785  1.00  0.00    -0.504 OA
ATOM     21  H   UNL     1      22.773  66.406  27.053  1.00  0.00     0.293 HD
ENDBRANCH  17  20
ENDBRANCH   1  12
BRANCH   2  22
ATOM     22  O   UNL     1      20.955  63.626  22.379  1.00  0.00    -0.502 OA
ATOM     23  H   UNL     1      21.413  63.827  21.498  1.00  0.00     0.293 HD
ENDBRANCH   2  22
BRANCH   6  24
ATOM     24  O   UNL     1      16.414  60.969  21.552  1.00  0.00    -0.507 OA
ATOM     25  H   UNL     1      16.846  60.725  20.674  1.00  0.00     0.293 HD
ENDBRANCH   6  24
BRANCH   8  26
ATOM     26  O   UNL     1      13.228  64.343  22.788  1.00  0.00    -0.508 OA
ATOM     27  H   UNL     1      12.636  63.974  23.524  1.00  0.00     0.293 HD
ENDBRANCH   8  26
TORSDOF 6
ENDMDL
