MODEL 1
REMARK VINA RESULT:    -4.221      0.000      0.000
REMARK INTER + INTRA:          -8.094
REMARK INTER:                  -6.441
REMARK INTRA:                  -1.653
REMARK UNBOUND:                -1.653
REMARK SMILES OC[C@@H]1O[C@@H](O[C@@]2(CO)O[C@@H](CO)[C@H](O)[C@@H]2O)[C@@H](O)[C@H](O)[C@@H]1O
REMARK SMILES IDX 6 1 5 2 3 3 22 4 4 5 20 6 18 7 2 8 1 9 23 11 21 13 19 15
REMARK SMILES IDX 7 17 16 18 10 19 14 20 11 21 8 22 9 23 17 25 15 27 12 29
REMARK SMILES IDX 13 30
REMARK H PARENT 1 10 23 12 21 14 19 16 9 24 17 26 15 28 13 31
REMARK Flexibility Score: inf
ROOT
ATOM      1  O   UNL     1      50.008  32.155  87.676  1.00  0.00    -0.313 OA
ENDROOT
BRANCH   1   2
ATOM      2  C   UNL     1      50.472  32.825  88.843  1.00  0.00     0.285 C 
ATOM      3  C   UNL     1      52.618  33.158  87.929  1.00  0.00     0.178 C 
ATOM      4  C   UNL     1      53.313  32.216  88.940  1.00  0.00     0.177 C 
ATOM      5  O   UNL     1      51.475  33.778  88.508  1.00  0.00    -0.341 OA
ATOM      6  C   UNL     1      52.304  31.142  89.383  1.00  0.00     0.179 C 
ATOM      7  C   UNL     1      51.003  31.808  89.882  1.00  0.00     0.202 C 
BRANCH   3   8
ATOM      8  C   UNL     1      53.584  34.237  87.416  1.00  0.00     0.191 C 
BRANCH   8   9
ATOM      9  O   UNL     1      52.894  35.426  87.138  1.00  0.00    -0.394 OA
ATOM     10  H   UNL     1      51.942  35.246  87.348  1.00  0.00     0.210 HD
ENDBRANCH   8   9
ENDBRANCH   3   8
BRANCH   4  11
ATOM     11  O   UNL     1      53.763  32.955  90.049  1.00  0.00    -0.387 OA
ATOM     12  H   UNL     1      54.590  32.515  90.375  1.00  0.00     0.211 HD
ENDBRANCH   4  11
BRANCH   6  13
ATOM     13  O   UNL     1      52.858  30.290  90.356  1.00  0.00    -0.387 OA
ATOM     14  H   UNL     1      52.828  29.361  90.006  1.00  0.00     0.211 HD
ENDBRANCH   6  13
BRANCH   7  15
ATOM     15  O   UNL     1      50.023  30.853  90.203  1.00  0.00    -0.385 OA
ATOM     16  H   UNL     1      49.546  31.168  91.014  1.00  0.00     0.211 HD
ENDBRANCH   7  15
ENDBRANCH   1   2
BRANCH   1  17
ATOM     17  C   UNL     1      48.729  32.596  87.219  1.00  0.00     0.224 C 
ATOM     18  C   UNL     1      48.876  32.954  85.722  1.00  0.00     0.208 C 
ATOM     19  O   UNL     1      48.295  33.768  87.904  1.00  0.00    -0.337 OA
ATOM     20  C   UNL     1      49.097  34.442  85.778  1.00  0.00     0.180 C 
ATOM     21  C   UNL     1      48.247  34.829  86.978  1.00  0.00     0.179 C 
BRANCH  17  22
ATOM     22  C   UNL     1      47.696  31.470  87.461  1.00  0.00     0.225 C 
BRANCH  22  23
ATOM     23  O   UNL     1      47.247  31.469  88.790  1.00  0.00    -0.391 OA
ATOM     24  H   UNL     1      46.796  32.339  88.943  1.00  0.00     0.210 HD
ENDBRANCH  22  23
ENDBRANCH  17  22
BRANCH  18  25
ATOM     25  O   UNL     1      47.699  32.678  84.996  1.00  0.00    -0.385 OA
ATOM     26  H   UNL     1      47.358  31.803  85.316  1.00  0.00     0.211 HD
ENDBRANCH  18  25
BRANCH  20  27
ATOM     27  O   UNL     1      48.662  35.076  84.603  1.00  0.00    -0.387 OA
ATOM     28  H   UNL     1      48.625  36.046  84.802  1.00  0.00     0.211 HD
ENDBRANCH  20  27
BRANCH  21  29
ATOM     29  C   UNL     1      48.723  36.124  87.640  1.00  0.00     0.191 C 
BRANCH  29  30
ATOM     30  O   UNL     1      50.118  36.106  87.757  1.00  0.00    -0.394 OA
ATOM     31  H   UNL     1      50.438  36.960  87.364  1.00  0.00     0.210 HD
ENDBRANCH  29  30
ENDBRANCH  21  29
ENDBRANCH   1  17
TORSDOF 13
ENDMDL
MODEL 2
REMARK VINA RESULT:    -4.202      2.462      5.840
REMARK INTER + INTRA:          -8.066
REMARK INTER:                  -6.717
REMARK INTRA:                  -1.349
REMARK UNBOUND:                -1.653
REMARK SMILES OC[C@@H]1O[C@@H](O[C@@]2(CO)O[C@@H](CO)[C@H](O)[C@@H]2O)[C@@H](O)[C@H](O)[C@@H]1O
REMARK SMILES IDX 6 1 5 2 3 3 22 4 4 5 20 6 18 7 2 8 1 9 23 11 21 13 19 15
REMARK SMILES IDX 7 17 16 18 10 19 14 20 11 21 8 22 9 23 17 25 15 27 12 29
REMARK SMILES IDX 13 30
REMARK H PARENT 1 10 23 12 21 14 19 16 9 24 17 26 15 28 13 31
REMARK Flexibility Score: inf
ROOT
ATOM      1  O   UNL     1      50.390  34.616  85.684  1.00  0.00    -0.313 OA
ENDROOT
BRANCH   1   2
ATOM      2  C   UNL     1      50.314  33.313  85.116  1.00  0.00     0.285 C 
ATOM      3  C   UNL     1      50.590  34.135  82.925  1.00  0.00     0.178 C 
ATOM      4  C   UNL     1      49.161  33.743  82.483  1.00  0.00     0.177 C 
ATOM      5  O   UNL     1      51.082  33.243  83.920  1.00  0.00    -0.341 OA
ATOM      6  C   UNL     1      48.240  33.774  83.716  1.00  0.00     0.179 C 
ATOM      7  C   UNL     1      48.843  32.918  84.851  1.00  0.00     0.202 C 
BRANCH   3   8
ATOM      8  C   UNL     1      51.557  34.160  81.732  1.00  0.00     0.191 C 
BRANCH   8   9
ATOM      9  O   UNL     1      50.900  34.593  80.572  1.00  0.00    -0.394 OA
ATOM     10  H   UNL     1      50.766  35.570  80.680  1.00  0.00     0.210 HD
ENDBRANCH   8   9
ENDBRANCH   3   8
BRANCH   4  11
ATOM     11  O   UNL     1      49.174  32.457  81.912  1.00  0.00    -0.387 OA
ATOM     12  H   UNL     1      50.126  32.204  81.788  1.00  0.00     0.211 HD
ENDBRANCH   4  11
BRANCH   6  13
ATOM     13  O   UNL     1      46.935  33.361  83.390  1.00  0.00    -0.387 OA
ATOM     14  H   UNL     1      46.296  33.981  83.829  1.00  0.00     0.211 HD
ENDBRANCH   6  13
BRANCH   7  15
ATOM     15  O   UNL     1      48.075  33.002  86.026  1.00  0.00    -0.385 OA
ATOM     16  H   UNL     1      48.172  33.921  86.386  1.00  0.00     0.211 HD
ENDBRANCH   7  15
ENDBRANCH   1   2
BRANCH   1  17
ATOM     17  C   UNL     1      50.786  34.633  87.057  1.00  0.00     0.224 C 
ATOM     18  C   UNL     1      52.148  35.360  87.133  1.00  0.00     0.208 C 
ATOM     19  O   UNL     1      50.967  33.318  87.574  1.00  0.00    -0.337 OA
ATOM     20  C   UNL     1      53.116  34.208  87.122  1.00  0.00     0.180 C 
ATOM     21  C   UNL     1      52.332  33.147  87.877  1.00  0.00     0.179 C 
BRANCH  17  22
ATOM     22  C   UNL     1      49.687  35.343  87.884  1.00  0.00     0.225 C 
BRANCH  22  23
ATOM     23  O   UNL     1      48.659  35.822  87.058  1.00  0.00    -0.391 OA
ATOM     24  H   UNL     1      48.820  36.792  86.930  1.00  0.00     0.210 HD
ENDBRANCH  22  23
ENDBRANCH  17  22
BRANCH  18  25
ATOM     25  O   UNL     1      52.292  36.088  88.332  1.00  0.00    -0.385 OA
ATOM     26  H   UNL     1      52.587  37.002  88.084  1.00  0.00     0.211 HD
ENDBRANCH  18  25
BRANCH  20  27
ATOM     27  O   UNL     1      54.317  34.533  87.773  1.00  0.00    -0.387 OA
ATOM     28  H   UNL     1      54.549  35.456  87.493  1.00  0.00     0.211 HD
ENDBRANCH  20  27
BRANCH  21  29
ATOM     29  C   UNL     1      52.774  31.726  87.521  1.00  0.00     0.191 C 
BRANCH  29  30
ATOM     30  O   UNL     1      53.437  31.736  86.288  1.00  0.00    -0.394 OA
ATOM     31  H   UNL     1      53.871  30.847  86.201  1.00  0.00     0.210 HD
ENDBRANCH  29  30
ENDBRANCH  21  29
ENDBRANCH   1  17
TORSDOF 13
ENDMDL
MODEL 3
REMARK VINA RESULT:    -4.121      1.699      3.787
REMARK INTER + INTRA:          -7.942
REMARK INTER:                  -6.505
REMARK INTRA:                  -1.436
REMARK UNBOUND:                -1.653
REMARK SMILES OC[C@@H]1O[C@@H](O[C@@]2(CO)O[C@@H](CO)[C@H](O)[C@@H]2O)[C@@H](O)[C@H](O)[C@@H]1O
REMARK SMILES IDX 6 1 5 2 3 3 22 4 4 5 20 6 18 7 2 8 1 9 23 11 21 13 19 15
REMARK SMILES IDX 7 17 16 18 10 19 14 20 11 21 8 22 9 23 17 25 15 27 12 29
REMARK SMILES IDX 13 30
REMARK H PARENT 1 10 23 12 21 14 19 16 9 24 17 26 15 28 13 31
REMARK Flexibility Score: inf
ROOT
ATOM      1  O   UNL     1      52.146  32.548  88.356  1.00  0.00    -0.313 OA
ENDROOT
BRANCH   1   2
ATOM      2  C   UNL     1      51.721  32.800  89.691  1.00  0.00     0.285 C 
ATOM      3  C   UNL     1      53.651  31.808  90.608  1.00  0.00     0.178 C 
ATOM      4  C   UNL     1      52.876  30.627  91.237  1.00  0.00     0.177 C 
ATOM      5  O   UNL     1      52.843  32.978  90.549  1.00  0.00    -0.341 OA
ATOM      6  C   UNL     1      51.622  30.354  90.387  1.00  0.00     0.179 C 
ATOM      7  C   UNL     1      50.813  31.657  90.201  1.00  0.00     0.202 C 
BRANCH   3   8
ATOM      8  C   UNL     1      54.939  32.111  91.389  1.00  0.00     0.191 C 
BRANCH   8   9
ATOM      9  O   UNL     1      55.388  33.410  91.117  1.00  0.00    -0.394 OA
ATOM     10  H   UNL     1      55.579  33.436  90.144  1.00  0.00     0.210 HD
ENDBRANCH   8   9
ENDBRANCH   3   8
BRANCH   4  11
ATOM     11  O   UNL     1      52.513  30.945  92.559  1.00  0.00    -0.387 OA
ATOM     12  H   UNL     1      52.857  30.216  93.138  1.00  0.00     0.211 HD
ENDBRANCH   4  11
BRANCH   6  13
ATOM     13  O   UNL     1      50.837  29.330  90.947  1.00  0.00    -0.387 OA
ATOM     14  H   UNL     1      49.907  29.440  90.619  1.00  0.00     0.211 HD
ENDBRANCH   6  13
BRANCH   7  15
ATOM     15  O   UNL     1      49.712  31.464  89.348  1.00  0.00    -0.385 OA
ATOM     16  H   UNL     1      49.565  30.488  89.257  1.00  0.00     0.211 HD
ENDBRANCH   7  15
ENDBRANCH   1   2
BRANCH   1  17
ATOM     17  C   UNL     1      52.218  33.714  87.535  1.00  0.00     0.224 C 
ATOM     18  C   UNL     1      51.375  34.812  88.223  1.00  0.00     0.208 C 
ATOM     19  O   UNL     1      51.664  33.489  86.242  1.00  0.00    -0.337 OA
ATOM     20  C   UNL     1      50.057  34.687  87.507  1.00  0.00     0.180 C 
ATOM     21  C   UNL     1      50.508  34.285  86.112  1.00  0.00     0.179 C 
BRANCH  17  22
ATOM     22  C   UNL     1      53.703  34.120  87.373  1.00  0.00     0.225 C 
BRANCH  22  23
ATOM     23  O   UNL     1      54.219  34.645  88.566  1.00  0.00    -0.391 OA
ATOM     24  H   UNL     1      53.750  34.186  89.311  1.00  0.00     0.210 HD
ENDBRANCH  22  23
ENDBRANCH  17  22
BRANCH  18  25
ATOM     25  O   UNL     1      51.909  36.099  88.010  1.00  0.00    -0.385 OA
ATOM     26  H   UNL     1      52.184  36.146  87.057  1.00  0.00     0.211 HD
ENDBRANCH  18  25
BRANCH  20  27
ATOM     27  O   UNL     1      49.354  35.902  87.499  1.00  0.00    -0.387 OA
ATOM     28  H   UNL     1      50.027  36.619  87.621  1.00  0.00     0.211 HD
ENDBRANCH  20  27
BRANCH  21  29
ATOM     29  C   UNL     1      49.428  33.520  85.343  1.00  0.00     0.191 C 
BRANCH  29  30
ATOM     30  O   UNL     1      48.163  33.967  85.744  1.00  0.00    -0.394 OA
ATOM     31  H   UNL     1      47.857  33.333  86.445  1.00  0.00     0.210 HD
ENDBRANCH  29  30
ENDBRANCH  21  29
ENDBRANCH   1  17
TORSDOF 13
ENDMDL
MODEL 4
REMARK VINA RESULT:    -4.094      2.446      5.489
REMARK INTER + INTRA:          -7.901
REMARK INTER:                  -6.533
REMARK INTRA:                  -1.369
REMARK UNBOUND:                -1.653
REMARK SMILES OC[C@@H]1O[C@@H](O[C@@]2(CO)O[C@@H](CO)[C@H](O)[C@@H]2O)[C@@H](O)[C@H](O)[C@@H]1O
REMARK SMILES IDX 6 1 5 2 3 3 22 4 4 5 20 6 18 7 2 8 1 9 23 11 21 13 19 15
REMARK SMILES IDX 7 17 16 18 10 19 14 20 11 21 8 22 9 23 17 25 15 27 12 29
REMARK SMILES IDX 13 30
REMARK H PARENT 1 10 23 12 21 14 19 16 9 24 17 26 15 28 13 31
REMARK Flexibility Score: inf
ROOT
ATOM      1  O   UNL     1      51.177  33.031  86.605  1.00  0.00    -0.313 OA
ENDROOT
BRANCH   1   2
ATOM      2  C   UNL     1      51.726  33.684  85.465  1.00  0.00     0.285 C 
ATOM      3  C   UNL     1      49.746  33.409  84.218  1.00  0.00     0.178 C 
ATOM      4  C   UNL     1      50.391  32.434  83.207  1.00  0.00     0.177 C 
ATOM      5  O   UNL     1      50.704  34.335  84.720  1.00  0.00    -0.341 OA
ATOM      6  C   UNL     1      51.531  31.677  83.912  1.00  0.00     0.179 C 
ATOM      7  C   UNL     1      52.499  32.679  84.579  1.00  0.00     0.202 C 
BRANCH   3   8
ATOM      8  C   UNL     1      48.571  34.173  83.588  1.00  0.00     0.191 C 
BRANCH   8   9
ATOM      9  O   UNL     1      48.057  35.118  84.487  1.00  0.00    -0.394 OA
ATOM     10  H   UNL     1      47.971  34.650  85.358  1.00  0.00     0.210 HD
ENDBRANCH   8   9
ENDBRANCH   3   8
BRANCH   4  11
ATOM     11  O   UNL     1      50.886  33.151  82.102  1.00  0.00    -0.387 OA
ATOM     12  H   UNL     1      50.774  34.115  82.307  1.00  0.00     0.211 HD
ENDBRANCH   4  11
BRANCH   6  13
ATOM     13  O   UNL     1      52.202  30.819  83.022  1.00  0.00    -0.387 OA
ATOM     14  H   UNL     1      51.523  30.364  82.460  1.00  0.00     0.211 HD
ENDBRANCH   6  13
BRANCH   7  15
ATOM     15  O   UNL     1      53.499  32.019  85.315  1.00  0.00    -0.385 OA
ATOM     16  H   UNL     1      54.363  32.464  85.119  1.00  0.00     0.211 HD
ENDBRANCH   7  15
ENDBRANCH   1   2
BRANCH   1  17
ATOM     17  C   UNL     1      51.158  33.835  87.786  1.00  0.00     0.224 C 
ATOM     18  C   UNL     1      52.259  34.908  87.628  1.00  0.00     0.208 C 
ATOM     19  O   UNL     1      51.460  33.073  88.951  1.00  0.00    -0.337 OA
ATOM     20  C   UNL     1      53.411  34.282  88.366  1.00  0.00     0.180 C 
ATOM     21  C   UNL     1      52.689  33.526  89.469  1.00  0.00     0.179 C 
BRANCH  17  22
ATOM     22  C   UNL     1      49.748  34.450  87.948  1.00  0.00     0.225 C 
BRANCH  22  23
ATOM     23  O   UNL     1      49.551  35.514  87.055  1.00  0.00    -0.391 OA
ATOM     24  H   UNL     1      50.154  36.247  87.343  1.00  0.00     0.210 HD
ENDBRANCH  22  23
ENDBRANCH  17  22
BRANCH  18  25
ATOM     25  O   UNL     1      51.904  36.124  88.248  1.00  0.00    -0.385 OA
ATOM     26  H   UNL     1      52.745  36.553  88.551  1.00  0.00     0.211 HD
ENDBRANCH  18  25
BRANCH  20  27
ATOM     27  O   UNL     1      54.285  35.253  88.883  1.00  0.00    -0.387 OA
ATOM     28  H   UNL     1      53.789  36.112  88.875  1.00  0.00     0.211 HD
ENDBRANCH  20  27
BRANCH  21  29
ATOM     29  C   UNL     1      53.503  32.343  90.000  1.00  0.00     0.191 C 
BRANCH  29  30
ATOM     30  O   UNL     1      54.482  32.808  90.887  1.00  0.00    -0.394 OA
ATOM     31  H   UNL     1      54.712  33.726  90.585  1.00  0.00     0.210 HD
ENDBRANCH  29  30
ENDBRANCH  21  29
ENDBRANCH   1  17
TORSDOF 13
ENDMDL
MODEL 5
REMARK VINA RESULT:    -4.073     15.673     18.237
REMARK INTER + INTRA:          -7.869
REMARK INTER:                  -6.202
REMARK INTRA:                  -1.668
REMARK UNBOUND:                -1.653
REMARK SMILES OC[C@@H]1O[C@@H](O[C@@]2(CO)O[C@@H](CO)[C@H](O)[C@@H]2O)[C@@H](O)[C@H](O)[C@@H]1O
REMARK SMILES IDX 6 1 5 2 3 3 22 4 4 5 20 6 18 7 2 8 1 9 23 11 21 13 19 15
REMARK SMILES IDX 7 17 16 18 10 19 14 20 11 21 8 22 9 23 17 25 15 27 12 29
REMARK SMILES IDX 13 30
REMARK H PARENT 1 10 23 12 21 14 19 16 9 24 17 26 15 28 13 31
REMARK Flexibility Score: inf
ROOT
ATOM      1  O   UNL     1      44.499  20.487  75.784  1.00  0.00    -0.313 OA
ENDROOT
BRANCH   1   2
ATOM      2  C   UNL     1      44.499  21.757  76.428  1.00  0.00     0.285 C 
ATOM      3  C   UNL     1      42.927  21.060  78.040  1.00  0.00     0.178 C 
ATOM      4  C   UNL     1      41.819  22.007  77.525  1.00  0.00     0.177 C 
ATOM      5  O   UNL     1      44.220  21.614  77.816  1.00  0.00    -0.341 OA
ATOM      6  C   UNL     1      42.034  22.242  76.019  1.00  0.00     0.179 C 
ATOM      7  C   UNL     1      43.482  22.710  75.756  1.00  0.00     0.202 C 
BRANCH   3   8
ATOM      8  C   UNL     1      42.751  20.753  79.534  1.00  0.00     0.191 C 
BRANCH   8   9
ATOM      9  O   UNL     1      43.647  21.507  80.304  1.00  0.00    -0.394 OA
ATOM     10  H   UNL     1      43.102  22.200  80.759  1.00  0.00     0.210 HD
ENDBRANCH   8   9
ENDBRANCH   3   8
BRANCH   4  11
ATOM     11  O   UNL     1      41.870  23.227  78.225  1.00  0.00    -0.387 OA
ATOM     12  H   UNL     1      42.415  23.852  77.680  1.00  0.00     0.211 HD
ENDBRANCH   4  11
BRANCH   6  13
ATOM     13  O   UNL     1      41.092  23.152  75.503  1.00  0.00    -0.387 OA
ATOM     14  H   UNL     1      41.482  23.574  74.694  1.00  0.00     0.211 HD
ENDBRANCH   6  13
BRANCH   7  15
ATOM     15  O   UNL     1      43.742  22.841  74.381  1.00  0.00    -0.385 OA
ATOM     16  H   UNL     1      43.474  23.755  74.107  1.00  0.00     0.211 HD
ENDBRANCH   7  15
ENDBRANCH   1   2
BRANCH   1  17
ATOM     17  C   UNL     1      45.778  19.852  75.744  1.00  0.00     0.224 C 
ATOM     18  C   UNL     1      45.658  18.531  76.538  1.00  0.00     0.208 C 
ATOM     19  O   UNL     1      46.784  20.644  76.370  1.00  0.00    -0.337 OA
ATOM     20  C   UNL     1      46.173  18.935  77.893  1.00  0.00     0.180 C 
ATOM     21  C   UNL     1      47.227  19.965  77.522  1.00  0.00     0.179 C 
BRANCH  17  22
ATOM     22  C   UNL     1      46.175  19.623  74.267  1.00  0.00     0.225 C 
BRANCH  22  23
ATOM     23  O   UNL     1      47.567  19.681  74.099  1.00  0.00    -0.391 OA
ATOM     24  H   UNL     1      47.864  18.771  73.837  1.00  0.00     0.210 HD
ENDBRANCH  22  23
ENDBRANCH  17  22
BRANCH  18  25
ATOM     25  O   UNL     1      46.480  17.518  76.003  1.00  0.00    -0.385 OA
ATOM     26  H   UNL     1      46.483  16.771  76.655  1.00  0.00     0.211 HD
ENDBRANCH  18  25
BRANCH  20  27
ATOM     27  O   UNL     1      46.727  17.845  78.584  1.00  0.00    -0.387 OA
ATOM     28  H   UNL     1      46.641  18.049  79.550  1.00  0.00     0.211 HD
ENDBRANCH  20  27
BRANCH  21  29
ATOM     29  C   UNL     1      47.494  20.965  78.650  1.00  0.00     0.191 C 
BRANCH  29  30
ATOM     30  O   UNL     1      46.505  20.837  79.633  1.00  0.00    -0.394 OA
ATOM     31  H   UNL     1      46.697  21.540  80.308  1.00  0.00     0.210 HD
ENDBRANCH  29  30
ENDBRANCH  21  29
ENDBRANCH   1  17
TORSDOF 13
ENDMDL
MODEL 6
REMARK VINA RESULT:    -4.066     15.772     18.527
REMARK INTER + INTRA:          -7.858
REMARK INTER:                  -6.693
REMARK INTRA:                  -1.165
REMARK UNBOUND:                -1.653
REMARK SMILES OC[C@@H]1O[C@@H](O[C@@]2(CO)O[C@@H](CO)[C@H](O)[C@@H]2O)[C@@H](O)[C@H](O)[C@@H]1O
REMARK SMILES IDX 6 1 5 2 3 3 22 4 4 5 20 6 18 7 2 8 1 9 23 11 21 13 19 15
REMARK SMILES IDX 7 17 16 18 10 19 14 20 11 21 8 22 9 23 17 25 15 27 12 29
REMARK SMILES IDX 13 30
REMARK H PARENT 1 10 23 12 21 14 19 16 9 24 17 26 15 28 13 31
REMARK Flexibility Score: inf
ROOT
ATOM      1  O   UNL     1      43.599  20.441  77.897  1.00  0.00    -0.313 OA
ENDROOT
BRANCH   1   2
ATOM      2  C   UNL     1      43.084  21.462  78.745  1.00  0.00     0.285 C 
ATOM      3  C   UNL     1      41.117  20.245  79.197  1.00  0.00     0.178 C 
ATOM      4  C   UNL     1      40.200  21.247  78.460  1.00  0.00     0.177 C 
ATOM      5  O   UNL     1      42.251  20.902  79.754  1.00  0.00    -0.341 OA
ATOM      6  C   UNL     1      41.011  21.927  77.343  1.00  0.00     0.179 C 
ATOM      7  C   UNL     1      42.315  22.521  77.921  1.00  0.00     0.202 C 
BRANCH   3   8
ATOM      8  C   UNL     1      40.357  19.501  80.305  1.00  0.00     0.191 C 
BRANCH   8   9
ATOM      9  O   UNL     1      39.388  18.650  79.755  1.00  0.00    -0.394 OA
ATOM     10  H   UNL     1      38.686  18.549  80.449  1.00  0.00     0.210 HD
ENDBRANCH   8   9
ENDBRANCH   3   8
BRANCH   4  11
ATOM     11  O   UNL     1      39.714  22.206  79.368  1.00  0.00    -0.387 OA
ATOM     12  H   UNL     1      40.394  22.299  80.085  1.00  0.00     0.211 HD
ENDBRANCH   4  11
BRANCH   6  13
ATOM     13  O   UNL     1      40.247  22.902  76.676  1.00  0.00    -0.387 OA
ATOM     14  H   UNL     1      39.313  22.842  77.007  1.00  0.00     0.211 HD
ENDBRANCH   6  13
BRANCH   7  15
ATOM     15  O   UNL     1      43.128  23.065  76.911  1.00  0.00    -0.385 OA
ATOM     16  H   UNL     1      43.229  22.380  76.201  1.00  0.00     0.211 HD
ENDBRANCH   7  15
ENDBRANCH   1   2
BRANCH   1  17
ATOM     17  C   UNL     1      45.016  20.276  77.974  1.00  0.00     0.224 C 
ATOM     18  C   UNL     1      45.593  20.618  76.581  1.00  0.00     0.208 C 
ATOM     19  O   UNL     1      45.378  18.931  78.275  1.00  0.00    -0.337 OA
ATOM     20  C   UNL     1      45.714  19.256  75.952  1.00  0.00     0.180 C 
ATOM     21  C   UNL     1      46.049  18.394  77.159  1.00  0.00     0.179 C 
BRANCH  17  22
ATOM     22  C   UNL     1      45.565  21.199  79.088  1.00  0.00     0.225 C 
BRANCH  22  23
ATOM     23  O   UNL     1      46.774  20.708  79.604  1.00  0.00    -0.391 OA
ATOM     24  H   UNL     1      47.482  21.350  79.339  1.00  0.00     0.210 HD
ENDBRANCH  22  23
ENDBRANCH  17  22
BRANCH  18  25
ATOM     25  O   UNL     1      46.868  21.213  76.671  1.00  0.00    -0.385 OA
ATOM     26  H   UNL     1      46.861  22.008  76.077  1.00  0.00     0.211 HD
ENDBRANCH  18  25
BRANCH  20  27
ATOM     27  O   UNL     1      46.732  19.221  74.985  1.00  0.00    -0.387 OA
ATOM     28  H   UNL     1      46.429  18.595  74.279  1.00  0.00     0.211 HD
ENDBRANCH  20  27
BRANCH  21  29
ATOM     29  C   UNL     1      45.650  16.929  76.962  1.00  0.00     0.191 C 
BRANCH  29  30
ATOM     30  O   UNL     1      46.354  16.394  75.877  1.00  0.00    -0.394 OA
ATOM     31  H   UNL     1      45.684  15.909  75.327  1.00  0.00     0.210 HD
ENDBRANCH  29  30
ENDBRANCH  21  29
ENDBRANCH   1  17
TORSDOF 13
ENDMDL
MODEL 7
REMARK VINA RESULT:    -4.012      1.880      5.352
REMARK INTER + INTRA:          -7.775
REMARK INTER:                  -6.140
REMARK INTRA:                  -1.635
REMARK UNBOUND:                -1.653
REMARK SMILES OC[C@@H]1O[C@@H](O[C@@]2(CO)O[C@@H](CO)[C@H](O)[C@@H]2O)[C@@H](O)[C@H](O)[C@@H]1O
REMARK SMILES IDX 6 1 5 2 3 3 22 4 4 5 20 6 18 7 2 8 1 9 23 11 21 13 19 15
REMARK SMILES IDX 7 17 16 18 10 19 14 20 11 21 8 22 9 23 17 25 15 27 12 29
REMARK SMILES IDX 13 30
REMARK H PARENT 1 10 23 12 21 14 19 16 9 24 17 26 15 28 13 31
REMARK Flexibility Score: inf
ROOT
ATOM      1  O   UNL     1      50.637  32.327  89.722  1.00  0.00    -0.313 OA
ENDROOT
BRANCH   1   2
ATOM      2  C   UNL     1      50.752  32.342  88.304  1.00  0.00     0.285 C 
ATOM      3  C   UNL     1      52.403  34.023  88.348  1.00  0.00     0.178 C 
ATOM      4  C   UNL     1      51.498  35.079  87.671  1.00  0.00     0.177 C 
ATOM      5  O   UNL     1      52.071  32.709  87.913  1.00  0.00    -0.341 OA
ATOM      6  C   UNL     1      50.032  34.767  88.021  1.00  0.00     0.179 C 
ATOM      7  C   UNL     1      49.707  33.296  87.680  1.00  0.00     0.202 C 
BRANCH   3   8
ATOM      8  C   UNL     1      53.888  34.298  88.069  1.00  0.00     0.191 C 
BRANCH   8   9
ATOM      9  O   UNL     1      54.157  35.673  88.132  1.00  0.00    -0.394 OA
ATOM     10  H   UNL     1      54.981  35.816  87.600  1.00  0.00     0.210 HD
ENDBRANCH   8   9
ENDBRANCH   3   8
BRANCH   4  11
ATOM     11  O   UNL     1      51.688  35.047  86.278  1.00  0.00    -0.387 OA
ATOM     12  H   UNL     1      52.563  34.610  86.113  1.00  0.00     0.211 HD
ENDBRANCH   4  11
BRANCH   6  13
ATOM     13  O   UNL     1      49.152  35.657  87.379  1.00  0.00    -0.387 OA
ATOM     14  H   UNL     1      49.591  35.982  86.551  1.00  0.00     0.211 HD
ENDBRANCH   6  13
BRANCH   7  15
ATOM     15  O   UNL     1      48.403  32.949  88.077  1.00  0.00    -0.385 OA
ATOM     16  H   UNL     1      47.807  33.713  87.864  1.00  0.00     0.211 HD
ENDBRANCH   7  15
ENDBRANCH   1   2
BRANCH   1  17
ATOM     17  C   UNL     1      50.753  31.028  90.305  1.00  0.00     0.224 C 
ATOM     18  C   UNL     1      51.243  31.219  91.758  1.00  0.00     0.208 C 
ATOM     19  O   UNL     1      51.714  30.225  89.625  1.00  0.00    -0.337 OA
ATOM     20  C   UNL     1      52.728  31.020  91.614  1.00  0.00     0.180 C 
ATOM     21  C   UNL     1      52.787  29.982  90.505  1.00  0.00     0.179 C 
BRANCH  17  22
ATOM     22  C   UNL     1      49.377  30.323  90.230  1.00  0.00     0.225 C 
BRANCH  22  23
ATOM     23  O   UNL     1      48.352  31.158  90.699  1.00  0.00    -0.391 OA
ATOM     24  H   UNL     1      48.784  31.988  91.028  1.00  0.00     0.210 HD
ENDBRANCH  22  23
ENDBRANCH  17  22
BRANCH  18  25
ATOM     25  O   UNL     1      50.716  30.241  92.626  1.00  0.00    -0.385 OA
ATOM     26  H   UNL     1      50.224  29.588  92.064  1.00  0.00     0.211 HD
ENDBRANCH  18  25
BRANCH  20  27
ATOM     27  O   UNL     1      53.306  30.548  92.804  1.00  0.00    -0.387 OA
ATOM     28  H   UNL     1      53.621  31.345  93.301  1.00  0.00     0.211 HD
ENDBRANCH  20  27
BRANCH  21  29
ATOM     29  C   UNL     1      54.112  30.018  89.739  1.00  0.00     0.191 C 
BRANCH  29  30
ATOM     30  O   UNL     1      53.897  30.536  88.456  1.00  0.00    -0.394 OA
ATOM     31  H   UNL     1      53.037  31.031  88.500  1.00  0.00     0.210 HD
ENDBRANCH  29  30
ENDBRANCH  21  29
ENDBRANCH   1  17
TORSDOF 13
ENDMDL
MODEL 8
REMARK VINA RESULT:    -3.964      2.081      6.390
REMARK INTER + INTRA:          -7.703
REMARK INTER:                  -6.213
REMARK INTRA:                  -1.490
REMARK UNBOUND:                -1.653
REMARK SMILES OC[C@@H]1O[C@@H](O[C@@]2(CO)O[C@@H](CO)[C@H](O)[C@@H]2O)[C@@H](O)[C@H](O)[C@@H]1O
REMARK SMILES IDX 6 1 5 2 3 3 22 4 4 5 20 6 18 7 2 8 1 9 23 11 21 13 19 15
REMARK SMILES IDX 7 17 16 18 10 19 14 20 11 21 8 22 9 23 17 25 15 27 12 29
REMARK SMILES IDX 13 30
REMARK H PARENT 1 10 23 12 21 14 19 16 9 24 17 26 15 28 13 31
REMARK Flexibility Score: inf
ROOT
ATOM      1  O   UNL     1      53.033  32.747  89.224  1.00  0.00    -0.313 OA
ENDROOT
BRANCH   1   2
ATOM      2  C   UNL     1      52.355  33.962  88.920  1.00  0.00     0.285 C 
ATOM      3  C   UNL     1      50.800  32.871  87.526  1.00  0.00     0.178 C 
ATOM      4  C   UNL     1      51.315  33.552  86.237  1.00  0.00     0.177 C 
ATOM      5  O   UNL     1      50.978  33.715  88.658  1.00  0.00    -0.341 OA
ATOM      6  C   UNL     1      52.808  33.877  86.416  1.00  0.00     0.179 C 
ATOM      7  C   UNL     1      53.024  34.675  87.721  1.00  0.00     0.202 C 
BRANCH   3   8
ATOM      8  C   UNL     1      49.318  32.484  87.401  1.00  0.00     0.191 C 
BRANCH   8   9
ATOM      9  O   UNL     1      48.495  33.563  87.750  1.00  0.00    -0.394 OA
ATOM     10  H   UNL     1      47.619  33.391  87.318  1.00  0.00     0.210 HD
ENDBRANCH   8   9
ENDBRANCH   3   8
BRANCH   4  11
ATOM     11  O   UNL     1      50.582  34.728  85.993  1.00  0.00    -0.387 OA
ATOM     12  H   UNL     1      50.858  35.063  85.101  1.00  0.00     0.211 HD
ENDBRANCH   4  11
BRANCH   6  13
ATOM     13  O   UNL     1      53.321  34.560  85.298  1.00  0.00    -0.387 OA
ATOM     14  H   UNL     1      52.747  35.352  85.130  1.00  0.00     0.211 HD
ENDBRANCH   6  13
BRANCH   7  15
ATOM     15  O   UNL     1      54.390  34.906  87.966  1.00  0.00    -0.385 OA
ATOM     16  H   UNL     1      54.882  34.741  87.121  1.00  0.00     0.211 HD
ENDBRANCH   7  15
ENDBRANCH   1   2
BRANCH   1  17
ATOM     17  C   UNL     1      53.324  32.573  90.612  1.00  0.00     0.224 C 
ATOM     18  C   UNL     1      54.238  31.332  90.735  1.00  0.00     0.208 C 
ATOM     19  O   UNL     1      52.148  32.322  91.375  1.00  0.00    -0.337 OA
ATOM     20  C   UNL     1      53.247  30.247  91.057  1.00  0.00     0.180 C 
ATOM     21  C   UNL     1      52.221  31.009  91.881  1.00  0.00     0.179 C 
BRANCH  17  22
ATOM     22  C   UNL     1      53.996  33.860  91.146  1.00  0.00     0.225 C 
BRANCH  22  23
ATOM     23  O   UNL     1      55.324  33.961  90.708  1.00  0.00    -0.391 OA
ATOM     24  H   UNL     1      55.497  33.174  90.129  1.00  0.00     0.210 HD
ENDBRANCH  22  23
ENDBRANCH  17  22
BRANCH  18  25
ATOM     25  O   UNL     1      55.161  31.460  91.794  1.00  0.00    -0.385 OA
ATOM     26  H   UNL     1      55.244  30.567  92.217  1.00  0.00     0.211 HD
ENDBRANCH  18  25
BRANCH  20  27
ATOM     27  O   UNL     1      53.838  29.206  91.792  1.00  0.00    -0.387 OA
ATOM     28  H   UNL     1      53.503  28.359  91.402  1.00  0.00     0.211 HD
ENDBRANCH  20  27
BRANCH  21  29
ATOM     29  C   UNL     1      50.837  30.355  91.845  1.00  0.00     0.191 C 
BRANCH  29  30
ATOM     30  O   UNL     1      50.844  29.200  92.637  1.00  0.00    -0.394 OA
ATOM     31  H   UNL     1      50.542  29.484  93.540  1.00  0.00     0.210 HD
ENDBRANCH  29  30
ENDBRANCH  21  29
ENDBRANCH   1  17
TORSDOF 13
ENDMDL
MODEL 9
REMARK VINA RESULT:    -3.939      2.041      3.187
REMARK INTER + INTRA:          -7.665
REMARK INTER:                  -6.052
REMARK INTRA:                  -1.613
REMARK UNBOUND:                -1.653
REMARK SMILES OC[C@@H]1O[C@@H](O[C@@]2(CO)O[C@@H](CO)[C@H](O)[C@@H]2O)[C@@H](O)[C@H](O)[C@@H]1O
REMARK SMILES IDX 6 1 5 2 3 3 22 4 4 5 20 6 18 7 2 8 1 9 23 11 21 13 19 15
REMARK SMILES IDX 7 17 16 18 10 19 14 20 11 21 8 22 9 23 17 25 15 27 12 29
REMARK SMILES IDX 13 30
REMARK H PARENT 1 10 23 12 21 14 19 16 9 24 17 26 15 28 13 31
REMARK Flexibility Score: inf
ROOT
ATOM      1  O   UNL     1      51.576  31.989  88.578  1.00  0.00    -0.313 OA
ENDROOT
BRANCH   1   2
ATOM      2  C   UNL     1      51.257  32.171  89.954  1.00  0.00     0.285 C 
ATOM      3  C   UNL     1      53.490  31.838  90.627  1.00  0.00     0.178 C 
ATOM      4  C   UNL     1      53.183  30.514  91.364  1.00  0.00     0.177 C 
ATOM      5  O   UNL     1      52.368  32.714  90.658  1.00  0.00    -0.341 OA
ATOM      6  C   UNL     1      51.976  29.842  90.686  1.00  0.00     0.179 C 
ATOM      7  C   UNL     1      50.799  30.838  90.590  1.00  0.00     0.202 C 
BRANCH   3   8
ATOM      8  C   UNL     1      54.712  32.545  91.232  1.00  0.00     0.191 C 
BRANCH   8   9
ATOM      9  O   UNL     1      54.799  33.865  90.768  1.00  0.00    -0.394 OA
ATOM     10  H   UNL     1      53.870  34.211  90.750  1.00  0.00     0.210 HD
ENDBRANCH   8   9
ENDBRANCH   3   8
BRANCH   4  11
ATOM     11  O   UNL     1      52.903  30.776  92.718  1.00  0.00    -0.387 OA
ATOM     12  H   UNL     1      52.509  29.949  93.099  1.00  0.00     0.211 HD
ENDBRANCH   4  11
BRANCH   6  13
ATOM     13  O   UNL     1      51.605  28.661  91.355  1.00  0.00    -0.387 OA
ATOM     14  H   UNL     1      51.348  27.988  90.672  1.00  0.00     0.211 HD
ENDBRANCH   6  13
BRANCH   7  15
ATOM     15  O   UNL     1      49.712  30.287  89.888  1.00  0.00    -0.385 OA
ATOM     16  H   UNL     1      49.812  29.301  89.899  1.00  0.00     0.211 HD
ENDBRANCH   7  15
ENDBRANCH   1   2
BRANCH   1  17
ATOM     17  C   UNL     1      51.069  33.012  87.720  1.00  0.00     0.224 C 
ATOM     18  C   UNL     1      51.918  32.989  86.428  1.00  0.00     0.208 C 
ATOM     19  O   UNL     1      51.200  34.306  88.302  1.00  0.00    -0.337 OA
ATOM     20  C   UNL     1      52.935  34.064  86.705  1.00  0.00     0.180 C 
ATOM     21  C   UNL     1      52.119  35.046  87.531  1.00  0.00     0.179 C 
BRANCH  17  22
ATOM     22  C   UNL     1      49.570  32.740  87.450  1.00  0.00     0.225 C 
BRANCH  22  23
ATOM     23  O   UNL     1      49.359  31.416  87.038  1.00  0.00    -0.391 OA
ATOM     24  H   UNL     1      48.559  31.420  86.452  1.00  0.00     0.210 HD
ENDBRANCH  22  23
ENDBRANCH  17  22
BRANCH  18  25
ATOM     25  O   UNL     1      51.159  33.336  85.292  1.00  0.00    -0.385 OA
ATOM     26  H   UNL     1      50.309  33.730  85.619  1.00  0.00     0.211 HD
ENDBRANCH  18  25
BRANCH  20  27
ATOM     27  O   UNL     1      53.409  34.646  85.519  1.00  0.00    -0.387 OA
ATOM     28  H   UNL     1      53.988  35.404  85.788  1.00  0.00     0.211 HD
ENDBRANCH  20  27
BRANCH  21  29
ATOM     29  C   UNL     1      52.992  35.911  88.443  1.00  0.00     0.191 C 
BRANCH  29  30
ATOM     30  O   UNL     1      54.338  35.567  88.269  1.00  0.00    -0.394 OA
ATOM     31  H   UNL     1      54.778  35.726  89.146  1.00  0.00     0.210 HD
ENDBRANCH  29  30
ENDBRANCH  21  29
ENDBRANCH   1  17
TORSDOF 13
ENDMDL
