MODEL 1
REMARK VINA RESULT:     2.345      0.000      0.000
REMARK INTER + INTRA:           2.345
REMARK INTER:                   2.345
REMARK INTRA:                   0.000
REMARK UNBOUND:                 0.000
REMARK SMILES CC1=CC[C@@]2(C)CCCC(C)(C)[C@]23C[C@H]13
REMARK SMILES IDX 1 1 2 2 3 3 4 4 5 5 7 6 8 7 9 8 10 9 13 10 15 11 14 12 11 13
REMARK SMILES IDX 12 14 6 15
REMARK H PARENT
REMARK Flexibility Score: inf
ROOT
ATOM      1  C   UNL     1     134.877 137.869 158.657  1.00  0.00     0.039 C 
ATOM      2  C   UNL     1     135.246 137.126 159.913  1.00  0.00    -0.074 C 
ATOM      3  C   UNL     1     135.032 135.805 159.964  1.00  0.00    -0.027 C 
ATOM      4  C   UNL     1     135.220 135.020 161.220  1.00  0.00     0.034 C 
ATOM      5  C   UNL     1     136.430 135.478 162.092  1.00  0.00    -0.022 C 
ATOM      6  C   UNL     1     137.723 134.876 161.483  1.00  0.00     0.008 C 
ATOM      7  C   UNL     1     139.008 135.353 162.173  1.00  0.00     0.001 C 
ATOM      8  C   UNL     1     139.143 136.879 162.139  1.00  0.00     0.007 C 
ATOM      9  C   UNL     1     137.941 137.649 162.755  1.00  0.00    -0.029 C 
ATOM     10  C   UNL     1     136.589 137.052 162.164  1.00  0.00    -0.012 C 
ATOM     11  C   UNL     1     135.938 137.875 161.027  1.00  0.00     0.022 C 
ATOM     12  C   UNL     1     135.282 137.825 162.406  1.00  0.00     0.017 C 
ATOM     13  C   UNL     1     138.183 139.154 162.430  1.00  0.00     0.012 C 
ATOM     14  C   UNL     1     137.958 137.535 164.301  1.00  0.00     0.012 C 
ATOM     15  C   UNL     1     136.173 134.875 163.501  1.00  0.00     0.012 C 
ENDROOT
TORSDOF 0
ENDMDL
MODEL 2
REMARK VINA RESULT:     2.354     14.529     15.895
REMARK INTER + INTRA:           2.354
REMARK INTER:                   2.354
REMARK INTRA:                   0.000
REMARK UNBOUND:                 0.000
REMARK SMILES CC1=CC[C@@]2(C)CCCC(C)(C)[C@]23C[C@H]13
REMARK SMILES IDX 1 1 2 2 3 3 4 4 5 5 7 6 8 7 9 8 10 9 13 10 15 11 14 12 11 13
REMARK SMILES IDX 12 14 6 15
REMARK H PARENT
REMARK Flexibility Score: inf
ROOT
ATOM      1  C   UNL     1     151.897 137.466 157.721  1.00  0.00     0.039 C 
ATOM      2  C   UNL     1     151.826 136.856 159.095  1.00  0.00    -0.074 C 
ATOM      3  C   UNL     1     151.627 135.537 159.203  1.00  0.00    -0.027 C 
ATOM      4  C   UNL     1     151.386 134.877 160.521  1.00  0.00     0.034 C 
ATOM      5  C   UNL     1     152.221 135.468 161.700  1.00  0.00    -0.022 C 
ATOM      6  C   UNL     1     153.652 134.875 161.626  1.00  0.00     0.008 C 
ATOM      7  C   UNL     1     154.618 135.473 162.659  1.00  0.00     0.001 C 
ATOM      8  C   UNL     1     154.735 136.994 162.519  1.00  0.00     0.007 C 
ATOM      9  C   UNL     1     153.385 137.758 162.613  1.00  0.00    -0.029 C 
ATOM     10  C   UNL     1     152.323 137.048 161.663  1.00  0.00    -0.012 C 
ATOM     11  C   UNL     1     152.087 137.734 160.297  1.00  0.00     0.022 C 
ATOM     12  C   UNL     1     151.001 137.777 161.371  1.00  0.00     0.017 C 
ATOM     13  C   UNL     1     153.701 139.238 162.240  1.00  0.00     0.012 C 
ATOM     14  C   UNL     1     152.875 137.784 164.077  1.00  0.00     0.012 C 
ATOM     15  C   UNL     1     151.508 134.982 162.992  1.00  0.00     0.012 C 
ENDROOT
TORSDOF 0
ENDMDL
MODEL 3
REMARK VINA RESULT:     3.457     14.933     16.925
REMARK INTER + INTRA:           3.457
REMARK INTER:                   3.457
REMARK INTRA:                   0.000
REMARK UNBOUND:                 0.000
REMARK SMILES CC1=CC[C@@]2(C)CCCC(C)(C)[C@]23C[C@H]13
REMARK SMILES IDX 1 1 2 2 3 3 4 4 5 5 7 6 8 7 9 8 10 9 13 10 15 11 14 12 11 13
REMARK SMILES IDX 12 14 6 15
REMARK H PARENT
REMARK Flexibility Score: inf
ROOT
ATOM      1  C   UNL     1     137.136 151.188 165.494  1.00  0.00     0.039 C 
ATOM      2  C   UNL     1     136.922 152.103 164.318  1.00  0.00    -0.074 C 
ATOM      3  C   UNL     1     136.342 153.292 164.526  1.00  0.00    -0.027 C 
ATOM      4  C   UNL     1     135.950 154.190 163.399  1.00  0.00     0.034 C 
ATOM      5  C   UNL     1     136.952 154.199 162.203  1.00  0.00    -0.022 C 
ATOM      6  C   UNL     1     138.140 155.125 162.572  1.00  0.00     0.008 C 
ATOM      7  C   UNL     1     139.266 155.125 161.529  1.00  0.00     0.001 C 
ATOM      8  C   UNL     1     139.826 153.719 161.292  1.00  0.00     0.007 C 
ATOM      9  C   UNL     1     138.767 152.663 160.869  1.00  0.00    -0.029 C 
ATOM     10  C   UNL     1     137.519 152.762 161.852  1.00  0.00    -0.012 C 
ATOM     11  C   UNL     1     137.463 151.693 162.968  1.00  0.00     0.022 C 
ATOM     12  C   UNL     1     136.466 151.642 161.811  1.00  0.00     0.017 C 
ATOM     13  C   UNL     1     139.499 151.287 160.888  1.00  0.00     0.012 C 
ATOM     14  C   UNL     1     138.326 152.894 159.400  1.00  0.00     0.012 C 
ATOM     15  C   UNL     1     136.160 154.798 161.008  1.00  0.00     0.012 C 
ENDROOT
TORSDOF 0
ENDMDL
MODEL 4
REMARK VINA RESULT:     4.854     14.407     17.085
REMARK INTER + INTRA:           4.854
REMARK INTER:                   4.854
REMARK INTRA:                   0.000
REMARK UNBOUND:                 0.000
REMARK SMILES CC1=CC[C@@]2(C)CCCC(C)(C)[C@]23C[C@H]13
REMARK SMILES IDX 1 1 2 2 3 3 4 4 5 5 7 6 8 7 9 8 10 9 13 10 15 11 14 12 11 13
REMARK SMILES IDX 12 14 6 15
REMARK H PARENT
REMARK Flexibility Score: inf
ROOT
ATOM      1  C   UNL     1     138.624 153.171 158.066  1.00  0.00     0.039 C 
ATOM      2  C   UNL     1     138.637 153.500 159.534  1.00  0.00    -0.074 C 
ATOM      3  C   UNL     1     138.931 154.752 159.910  1.00  0.00    -0.027 C 
ATOM      4  C   UNL     1     139.120 155.125 161.343  1.00  0.00     0.034 C 
ATOM      5  C   UNL     1     138.153 154.400 162.331  1.00  0.00    -0.022 C 
ATOM      6  C   UNL     1     136.783 155.125 162.289  1.00  0.00     0.008 C 
ATOM      7  C   UNL     1     135.696 154.434 163.124  1.00  0.00     0.001 C 
ATOM      8  C   UNL     1     135.471 152.984 162.683  1.00  0.00     0.007 C 
ATOM      9  C   UNL     1     136.746 152.095 162.707  1.00  0.00    -0.029 C 
ATOM     10  C   UNL     1     137.930 152.872 161.980  1.00  0.00    -0.012 C 
ATOM     11  C   UNL     1     138.216 152.438 160.524  1.00  0.00     0.022 C 
ATOM     12  C   UNL     1     139.210 152.094 161.632  1.00  0.00     0.017 C 
ATOM     13  C   UNL     1     136.345 150.749 162.034  1.00  0.00     0.012 C 
ATOM     14  C   UNL     1     137.138 151.745 164.166  1.00  0.00     0.012 C 
ATOM     15  C   UNL     1     138.801 154.565 163.734  1.00  0.00     0.012 C 
ENDROOT
TORSDOF 0
ENDMDL
