MODEL 1
REMARK VINA RESULT:    -4.159      0.000      0.000
REMARK INTER + INTRA:          -4.280
REMARK INTER:                  -4.280
REMARK INTRA:                   0.000
REMARK UNBOUND:                 0.000
REMARK SMILES Cc1ccccc1O
REMARK SMILES IDX 1 1 2 2 3 3 4 4 5 5 6 6 7 7 8 8
REMARK H PARENT 8 9
REMARK Flexibility Score: inf
ROOT
ATOM      1  C   UNL     1     177.357 177.940 179.957  1.00  0.00     0.048 C 
ATOM      2  C   UNL     1     176.991 176.968 181.044  1.00  0.00    -0.009 A 
ATOM      3  C   UNL     1     176.697 177.430 182.338  1.00  0.00     0.007 A 
ATOM      4  C   UNL     1     176.358 176.527 183.349  1.00  0.00     0.001 A 
ATOM      5  C   UNL     1     176.309 175.158 183.079  1.00  0.00     0.004 A 
ATOM      6  C   UNL     1     176.600 174.689 181.795  1.00  0.00     0.046 A 
ATOM      7  C   UNL     1     176.941 175.587 180.773  1.00  0.00     0.118 A 
ENDROOT
BRANCH   7   8
ATOM      8  O   UNL     1     177.230 175.114 179.494  1.00  0.00    -0.508 OA
ATOM      9  H   UNL     1     177.187 174.126 179.272  1.00  0.00     0.293 HD
ENDBRANCH   7   8
TORSDOF 1
ENDMDL
MODEL 2
REMARK VINA RESULT:    -4.128      0.733      2.536
REMARK INTER + INTRA:          -4.248
REMARK INTER:                  -4.248
REMARK INTRA:                   0.000
REMARK UNBOUND:                 0.000
REMARK SMILES Cc1ccccc1O
REMARK SMILES IDX 1 1 2 2 3 3 4 4 5 5 6 6 7 7 8 8
REMARK H PARENT 8 9
REMARK Flexibility Score: inf
ROOT
ATOM      1  C   UNL     1     176.817 173.042 181.519  1.00  0.00     0.048 C 
ATOM      2  C   UNL     1     176.807 174.542 181.615  1.00  0.00    -0.009 A 
ATOM      3  C   UNL     1     176.611 175.171 182.856  1.00  0.00     0.007 A 
ATOM      4  C   UNL     1     176.601 176.565 182.946  1.00  0.00     0.001 A 
ATOM      5  C   UNL     1     176.786 177.343 181.801  1.00  0.00     0.004 A 
ATOM      6  C   UNL     1     176.982 176.727 180.562  1.00  0.00     0.046 A 
ATOM      7  C   UNL     1     176.993 175.328 180.461  1.00  0.00     0.118 A 
ENDROOT
BRANCH   7   8
ATOM      8  O   UNL     1     177.190 174.717 179.223  1.00  0.00    -0.508 OA
ATOM      9  H   UNL     1     177.704 175.176 178.481  1.00  0.00     0.293 HD
ENDBRANCH   7   8
TORSDOF 1
ENDMDL
MODEL 3
REMARK VINA RESULT:    -3.714      1.904      2.207
REMARK INTER + INTRA:          -3.823
REMARK INTER:                  -3.823
REMARK INTRA:                   0.000
REMARK UNBOUND:                 0.000
REMARK SMILES Cc1ccccc1O
REMARK SMILES IDX 1 1 2 2 3 3 4 4 5 5 6 6 7 7 8 8
REMARK H PARENT 8 9
REMARK Flexibility Score: inf
ROOT
ATOM      1  C   UNL     1     174.709 177.349 178.887  1.00  0.00     0.048 C 
ATOM      2  C   UNL     1     175.229 177.148 180.283  1.00  0.00    -0.009 A 
ATOM      3  C   UNL     1     174.341 176.880 181.339  1.00  0.00     0.007 A 
ATOM      4  C   UNL     1     174.823 176.694 182.637  1.00  0.00     0.001 A 
ATOM      5  C   UNL     1     176.194 176.773 182.893  1.00  0.00     0.004 A 
ATOM      6  C   UNL     1     177.086 177.039 181.850  1.00  0.00     0.046 A 
ATOM      7  C   UNL     1     176.611 177.228 180.544  1.00  0.00     0.118 A 
ENDROOT
BRANCH   7   8
ATOM      8  O   UNL     1     177.504 177.492 179.507  1.00  0.00    -0.508 OA
ATOM      9  H   UNL     1     177.258 177.324 178.539  1.00  0.00     0.293 HD
ENDBRANCH   7   8
TORSDOF 1
ENDMDL
MODEL 4
REMARK VINA RESULT:    -3.622      2.410      3.318
REMARK INTER + INTRA:          -3.728
REMARK INTER:                  -3.728
REMARK INTRA:                   0.000
REMARK UNBOUND:                 0.000
REMARK SMILES Cc1ccccc1O
REMARK SMILES IDX 1 1 2 2 3 3 4 4 5 5 6 6 7 7 8 8
REMARK H PARENT 8 9
REMARK Flexibility Score: inf
ROOT
ATOM      1  C   UNL     1     173.274 176.762 182.489  1.00  0.00     0.048 C 
ATOM      2  C   UNL     1     174.572 176.958 181.757  1.00  0.00    -0.009 A 
ATOM      3  C   UNL     1     175.793 176.887 182.447  1.00  0.00     0.007 A 
ATOM      4  C   UNL     1     177.000 177.071 181.766  1.00  0.00     0.001 A 
ATOM      5  C   UNL     1     176.998 177.327 180.393  1.00  0.00     0.004 A 
ATOM      6  C   UNL     1     175.789 177.399 179.697  1.00  0.00     0.046 A 
ATOM      7  C   UNL     1     174.572 177.216 180.372  1.00  0.00     0.118 A 
ENDROOT
BRANCH   7   8
ATOM      8  O   UNL     1     173.368 177.289 179.673  1.00  0.00    -0.508 OA
ATOM      9  H   UNL     1     172.830 178.147 179.630  1.00  0.00     0.293 HD
ENDBRANCH   7   8
TORSDOF 1
ENDMDL
MODEL 5
REMARK VINA RESULT:    -3.620      1.865      1.960
REMARK INTER + INTRA:          -3.726
REMARK INTER:                  -3.726
REMARK INTRA:                   0.000
REMARK UNBOUND:                 0.000
REMARK SMILES Cc1ccccc1O
REMARK SMILES IDX 1 1 2 2 3 3 4 4 5 5 6 6 7 7 8 8
REMARK H PARENT 8 9
REMARK Flexibility Score: inf
ROOT
ATOM      1  C   UNL     1     177.384 178.120 180.244  1.00  0.00     0.048 C 
ATOM      2  C   UNL     1     176.479 177.326 181.145  1.00  0.00    -0.009 A 
ATOM      3  C   UNL     1     176.967 176.801 182.354  1.00  0.00     0.007 A 
ATOM      4  C   UNL     1     176.127 176.062 183.191  1.00  0.00     0.001 A 
ATOM      5  C   UNL     1     174.796 175.841 182.831  1.00  0.00     0.004 A 
ATOM      6  C   UNL     1     174.301 176.359 181.631  1.00  0.00     0.046 A 
ATOM      7  C   UNL     1     175.137 177.102 180.783  1.00  0.00     0.118 A 
ENDROOT
BRANCH   7   8
ATOM      8  O   UNL     1     174.639 177.618 179.587  1.00  0.00    -0.508 OA
ATOM      9  H   UNL     1     173.777 178.149 179.557  1.00  0.00     0.293 HD
ENDBRANCH   7   8
TORSDOF 1
ENDMDL
MODEL 6
REMARK VINA RESULT:    -3.611      1.650      2.720
REMARK INTER + INTRA:          -3.716
REMARK INTER:                  -3.716
REMARK INTRA:                   0.000
REMARK UNBOUND:                 0.000
REMARK SMILES Cc1ccccc1O
REMARK SMILES IDX 1 1 2 2 3 3 4 4 5 5 6 6 7 7 8 8
REMARK H PARENT 8 9
REMARK Flexibility Score: inf
ROOT
ATOM      1  C   UNL     1     177.440 178.125 182.900  1.00  0.00     0.048 C 
ATOM      2  C   UNL     1     177.133 177.244 181.721  1.00  0.00    -0.009 A 
ATOM      3  C   UNL     1     177.123 177.777 180.421  1.00  0.00     0.007 A 
ATOM      4  C   UNL     1     176.836 176.959 179.326  1.00  0.00     0.001 A 
ATOM      5  C   UNL     1     176.558 175.604 179.517  1.00  0.00     0.004 A 
ATOM      6  C   UNL     1     176.565 175.064 180.806  1.00  0.00     0.046 A 
ATOM      7  C   UNL     1     176.851 175.877 181.912  1.00  0.00     0.118 A 
ENDROOT
BRANCH   7   8
ATOM      8  O   UNL     1     176.857 175.334 183.196  1.00  0.00    -0.508 OA
ATOM      9  H   UNL     1     177.572 175.577 183.871  1.00  0.00     0.293 HD
ENDBRANCH   7   8
TORSDOF 1
ENDMDL
MODEL 7
REMARK VINA RESULT:    -3.469      2.546      2.882
REMARK INTER + INTRA:          -3.570
REMARK INTER:                  -3.570
REMARK INTRA:                   0.000
REMARK UNBOUND:                 0.000
REMARK SMILES Cc1ccccc1O
REMARK SMILES IDX 1 1 2 2 3 3 4 4 5 5 6 6 7 7 8 8
REMARK H PARENT 8 9
REMARK Flexibility Score: inf
ROOT
ATOM      1  C   UNL     1     174.783 177.430 178.820  1.00  0.00     0.048 C 
ATOM      2  C   UNL     1     175.162 177.154 180.248  1.00  0.00    -0.009 A 
ATOM      3  C   UNL     1     176.504 176.923 180.594  1.00  0.00     0.007 A 
ATOM      4  C   UNL     1     176.857 176.665 181.921  1.00  0.00     0.001 A 
ATOM      5  C   UNL     1     175.875 176.636 182.914  1.00  0.00     0.004 A 
ATOM      6  C   UNL     1     174.537 176.864 182.581  1.00  0.00     0.046 A 
ATOM      7  C   UNL     1     174.173 177.123 181.251  1.00  0.00     0.118 A 
ENDROOT
BRANCH   7   8
ATOM      8  O   UNL     1     172.837 177.351 180.924  1.00  0.00    -0.508 OA
ATOM      9  H   UNL     1     172.306 176.687 180.373  1.00  0.00     0.293 HD
ENDBRANCH   7   8
TORSDOF 1
ENDMDL
MODEL 8
REMARK VINA RESULT:    -3.399     13.296     14.407
REMARK INTER + INTRA:          -3.498
REMARK INTER:                  -3.498
REMARK INTRA:                   0.000
REMARK UNBOUND:                 0.000
REMARK SMILES Cc1ccccc1O
REMARK SMILES IDX 1 1 2 2 3 3 4 4 5 5 6 6 7 7 8 8
REMARK H PARENT 8 9
REMARK Flexibility Score: inf
ROOT
ATOM      1  C   UNL     1     174.492 174.304 166.236  1.00  0.00     0.048 C 
ATOM      2  C   UNL     1     175.482 175.154 166.981  1.00  0.00    -0.009 A 
ATOM      3  C   UNL     1     175.047 176.028 167.993  1.00  0.00     0.007 A 
ATOM      4  C   UNL     1     175.968 176.819 168.684  1.00  0.00     0.001 A 
ATOM      5  C   UNL     1     177.327 176.747 168.375  1.00  0.00     0.004 A 
ATOM      6  C   UNL     1     177.770 175.882 167.370  1.00  0.00     0.046 A 
ATOM      7  C   UNL     1     176.854 175.083 166.670  1.00  0.00     0.118 A 
ENDROOT
BRANCH   7   8
ATOM      8  O   UNL     1     177.300 174.221 165.669  1.00  0.00    -0.508 OA
ATOM      9  H   UNL     1     177.775 174.567 164.843  1.00  0.00     0.293 HD
ENDBRANCH   7   8
TORSDOF 1
ENDMDL
MODEL 9
REMARK VINA RESULT:    -3.325     13.068     14.381
REMARK INTER + INTRA:          -3.422
REMARK INTER:                  -3.422
REMARK INTRA:                   0.000
REMARK UNBOUND:                 0.000
REMARK SMILES Cc1ccccc1O
REMARK SMILES IDX 1 1 2 2 3 3 4 4 5 5 6 6 7 7 8 8
REMARK H PARENT 8 9
REMARK Flexibility Score: inf
ROOT
ATOM      1  C   UNL     1     173.882 161.351 181.024  1.00  0.00     0.048 C 
ATOM      2  C   UNL     1     175.096 161.925 181.700  1.00  0.00    -0.009 A 
ATOM      3  C   UNL     1     175.105 163.266 182.121  1.00  0.00     0.007 A 
ATOM      4  C   UNL     1     176.234 163.800 182.749  1.00  0.00     0.001 A 
ATOM      5  C   UNL     1     177.361 163.003 182.962  1.00  0.00     0.004 A 
ATOM      6  C   UNL     1     177.361 161.669 182.547  1.00  0.00     0.046 A 
ATOM      7  C   UNL     1     176.234 161.123 181.916  1.00  0.00     0.118 A 
ENDROOT
BRANCH   7   8
ATOM      8  O   UNL     1     176.239 159.791 181.504  1.00  0.00    -0.508 OA
ATOM      9  H   UNL     1     175.479 159.162 181.734  1.00  0.00     0.293 HD
ENDBRANCH   7   8
TORSDOF 1
ENDMDL
