MODEL 1
REMARK VINA RESULT:    -4.873      0.000      0.000
REMARK INTER + INTRA:          -9.139
REMARK INTER:                  -8.292
REMARK INTRA:                  -0.847
REMARK UNBOUND:                -0.847
REMARK SMILES CCCCCCCCCCCCCC(=O)[O-]
REMARK SMILES IDX 8 1 9 2 10 3 11 4 12 5 13 6 14 7 15 8 16 9 7 10 6 11 5 12
REMARK SMILES IDX 4 13 3 14 2 15 1 16
REMARK H PARENT
REMARK Flexibility Score: inf
ROOT
ATOM      1  C   UNL     1      28.468   4.189  31.842  1.00  0.00     0.000 C 
ENDROOT
BRANCH   1   2
ATOM      2  C   UNL     1      27.597   5.349  31.327  1.00  0.00     0.000 C 
BRANCH   2   3
ATOM      3  C   UNL     1      28.035   5.940  29.972  1.00  0.00     0.000 C 
BRANCH   3   4
ATOM      4  C   UNL     1      28.001   7.479  29.889  1.00  0.00     0.000 C 
BRANCH   4   5
ATOM      5  C   UNL     1      26.939   8.157  30.778  1.00  0.00     0.006 C 
BRANCH   5   6
ATOM      6  C   UNL     1      26.521   9.559  30.307  1.00  0.00     0.053 C 
BRANCH   6   7
ATOM      7  C   UNL     1      27.683  10.503  30.259  1.00  0.00     0.041 C 
ATOM      8  O   UNL     1      28.027  11.029  29.167  1.00  0.00    -0.550 OA
ATOM      9  O   UNL     1      28.364  10.827  31.425  1.00  0.00    -0.550 OA
ENDBRANCH   6   7
ENDBRANCH   5   6
ENDBRANCH   4   5
ENDBRANCH   3   4
ENDBRANCH   2   3
ENDBRANCH   1   2
BRANCH   1  10
ATOM     10  C   UNL     1      28.213   2.872  31.093  1.00  0.00     0.000 C 
BRANCH  10  11
ATOM     11  C   UNL     1      29.100   1.747  31.647  1.00  0.00    -0.000 C 
BRANCH  11  12
ATOM     12  C   UNL     1      29.763   0.913  30.534  1.00  0.00    -0.000 C 
BRANCH  12  13
ATOM     13  C   UNL     1      29.090   1.075  29.157  1.00  0.00    -0.000 C 
BRANCH  13  14
ATOM     14  C   UNL     1      28.133  -0.088  28.808  1.00  0.00    -0.000 C 
BRANCH  14  15
ATOM     15  C   UNL     1      26.650   0.320  28.809  1.00  0.00    -0.003 C 
ATOM     16  C   UNL     1      25.963   0.057  30.147  1.00  0.00     0.004 C 
ENDBRANCH  14  15
ENDBRANCH  13  14
ENDBRANCH  12  13
ENDBRANCH  11  12
ENDBRANCH  10  11
ENDBRANCH   1  10
TORSDOF 12
ENDMDL
MODEL 2
REMARK VINA RESULT:    -4.849      4.101      6.289
REMARK INTER + INTRA:          -9.097
REMARK INTER:                  -8.124
REMARK INTRA:                  -0.973
REMARK UNBOUND:                -0.847
REMARK SMILES CCCCCCCCCCCCCC(=O)[O-]
REMARK SMILES IDX 8 1 9 2 10 3 11 4 12 5 13 6 14 7 15 8 16 9 7 10 6 11 5 12
REMARK SMILES IDX 4 13 3 14 2 15 1 16
REMARK H PARENT
REMARK Flexibility Score: inf
ROOT
ATOM      1  C   UNL     1      26.905  -0.147  29.080  1.00  0.00     0.000 C 
ENDROOT
BRANCH   1   2
ATOM      2  C   UNL     1      28.406  -0.244  28.750  1.00  0.00     0.000 C 
BRANCH   2   3
ATOM      3  C   UNL     1      29.242   0.986  29.157  1.00  0.00     0.000 C 
BRANCH   3   4
ATOM      4  C   UNL     1      29.911   0.891  30.543  1.00  0.00     0.000 C 
BRANCH   4   5
ATOM      5  C   UNL     1      29.188   1.657  31.670  1.00  0.00     0.006 C 
BRANCH   5   6
ATOM      6  C   UNL     1      28.163   2.691  31.177  1.00  0.00     0.053 C 
BRANCH   6   7
ATOM      7  C   UNL     1      28.378   4.034  31.804  1.00  0.00     0.041 C 
ATOM      8  O   UNL     1      27.555   4.966  31.604  1.00  0.00    -0.550 OA
ATOM      9  O   UNL     1      29.470   4.245  32.637  1.00  0.00    -0.550 OA
ENDBRANCH   6   7
ENDBRANCH   5   6
ENDBRANCH   4   5
ENDBRANCH   3   4
ENDBRANCH   2   3
ENDBRANCH   1   2
BRANCH   1  10
ATOM     10  C   UNL     1      26.538  -0.842  30.400  1.00  0.00     0.000 C 
BRANCH  10  11
ATOM     11  C   UNL     1      27.529  -1.973  30.717  1.00  0.00    -0.000 C 
BRANCH  11  12
ATOM     12  C   UNL     1      26.840  -3.344  30.848  1.00  0.00    -0.000 C 
BRANCH  12  13
ATOM     13  C   UNL     1      27.818  -4.502  31.125  1.00  0.00    -0.000 C 
BRANCH  13  14
ATOM     14  C   UNL     1      27.783  -5.602  30.038  1.00  0.00    -0.000 C 
BRANCH  14  15
ATOM     15  C   UNL     1      28.410  -6.930  30.493  1.00  0.00    -0.003 C 
ATOM     16  C   UNL     1      28.970  -7.751  29.333  1.00  0.00     0.004 C 
ENDBRANCH  14  15
ENDBRANCH  13  14
ENDBRANCH  12  13
ENDBRANCH  11  12
ENDBRANCH  10  11
ENDBRANCH   1  10
TORSDOF 12
ENDMDL
MODEL 3
REMARK VINA RESULT:    -4.770      1.378      2.028
REMARK INTER + INTRA:          -8.964
REMARK INTER:                  -8.013
REMARK INTRA:                  -0.951
REMARK UNBOUND:                -0.847
REMARK SMILES CCCCCCCCCCCCCC(=O)[O-]
REMARK SMILES IDX 8 1 9 2 10 3 11 4 12 5 13 6 14 7 15 8 16 9 7 10 6 11 5 12
REMARK SMILES IDX 4 13 3 14 2 15 1 16
REMARK H PARENT
REMARK Flexibility Score: inf
ROOT
ATOM      1  C   UNL     1      28.250   3.026  30.991  1.00  0.00     0.000 C 
ENDROOT
BRANCH   1   2
ATOM      2  C   UNL     1      28.251   4.353  31.771  1.00  0.00     0.000 C 
BRANCH   2   3
ATOM      3  C   UNL     1      27.244   5.405  31.267  1.00  0.00     0.000 C 
BRANCH   3   4
ATOM      4  C   UNL     1      27.754   6.305  30.125  1.00  0.00     0.000 C 
BRANCH   4   5
ATOM      5  C   UNL     1      28.125   7.743  30.542  1.00  0.00     0.006 C 
BRANCH   5   6
ATOM      6  C   UNL     1      27.190   8.826  29.980  1.00  0.00     0.053 C 
BRANCH   6   7
ATOM      7  C   UNL     1      26.292   9.392  31.036  1.00  0.00     0.041 C 
ATOM      8  O   UNL     1      26.177   8.813  32.149  1.00  0.00    -0.550 OA
ATOM      9  O   UNL     1      25.607  10.578  30.804  1.00  0.00    -0.550 OA
ENDBRANCH   6   7
ENDBRANCH   5   6
ENDBRANCH   4   5
ENDBRANCH   3   4
ENDBRANCH   2   3
ENDBRANCH   1   2
BRANCH   1  10
ATOM     10  C   UNL     1      29.100   1.937  31.664  1.00  0.00     0.000 C 
BRANCH  10  11
ATOM     11  C   UNL     1      29.748   1.022  30.614  1.00  0.00    -0.000 C 
BRANCH  11  12
ATOM     12  C   UNL     1      29.259  -0.435  30.715  1.00  0.00    -0.000 C 
BRANCH  12  13
ATOM     13  C   UNL     1      27.926  -0.587  31.473  1.00  0.00    -0.000 C 
BRANCH  13  14
ATOM     14  C   UNL     1      26.744  -0.973  30.554  1.00  0.00    -0.000 C 
BRANCH  14  15
ATOM     15  C   UNL     1      25.976   0.241  30.005  1.00  0.00    -0.003 C 
ATOM     16  C   UNL     1      26.449   0.665  28.616  1.00  0.00     0.004 C 
ENDBRANCH  14  15
ENDBRANCH  13  14
ENDBRANCH  12  13
ENDBRANCH  11  12
ENDBRANCH  10  11
ENDBRANCH   1  10
TORSDOF 12
ENDMDL
MODEL 4
REMARK VINA RESULT:    -4.764      7.940     11.254
REMARK INTER + INTRA:          -8.953
REMARK INTER:                  -7.780
REMARK INTRA:                  -1.173
REMARK UNBOUND:                -0.847
REMARK SMILES CCCCCCCCCCCCCC(=O)[O-]
REMARK SMILES IDX 8 1 9 2 10 3 11 4 12 5 13 6 14 7 15 8 16 9 7 10 6 11 5 12
REMARK SMILES IDX 4 13 3 14 2 15 1 16
REMARK H PARENT
REMARK Flexibility Score: inf
ROOT
ATOM      1  C   UNL     1      29.097  -2.145  29.932  1.00  0.00     0.000 C 
ENDROOT
BRANCH   1   2
ATOM      2  C   UNL     1      27.904  -2.430  30.861  1.00  0.00     0.000 C 
BRANCH   2   3
ATOM      3  C   UNL     1      27.216  -3.792  30.637  1.00  0.00     0.000 C 
BRANCH   3   4
ATOM      4  C   UNL     1      28.071  -5.023  30.994  1.00  0.00     0.000 C 
BRANCH   4   5
ATOM      5  C   UNL     1      28.431  -5.935  29.804  1.00  0.00     0.006 C 
BRANCH   5   6
ATOM      6  C   UNL     1      28.126  -7.424  30.031  1.00  0.00     0.053 C 
BRANCH   6   7
ATOM      7  C   UNL     1      29.132  -8.310  29.364  1.00  0.00     0.041 C 
ATOM      8  O   UNL     1      29.850  -9.084  30.051  1.00  0.00    -0.550 OA
ATOM      9  O   UNL     1      29.255  -8.304  27.981  1.00  0.00    -0.550 OA
ENDBRANCH   6   7
ENDBRANCH   5   6
ENDBRANCH   4   5
ENDBRANCH   3   4
ENDBRANCH   2   3
ENDBRANCH   1   2
BRANCH   1  10
ATOM     10  C   UNL     1      29.874  -0.881  30.330  1.00  0.00     0.000 C 
BRANCH  10  11
ATOM     11  C   UNL     1      29.154  -0.128  31.459  1.00  0.00    -0.000 C 
BRANCH  11  12
ATOM     12  C   UNL     1      29.154   1.398  31.248  1.00  0.00    -0.000 C 
BRANCH  12  13
ATOM     13  C   UNL     1      27.801   1.954  30.763  1.00  0.00    -0.000 C 
BRANCH  13  14
ATOM     14  C   UNL     1      27.573   1.762  29.246  1.00  0.00    -0.000 C 
BRANCH  14  15
ATOM     15  C   UNL     1      26.556   0.656  28.915  1.00  0.00    -0.003 C 
ATOM     16  C   UNL     1      25.726   0.232  30.125  1.00  0.00     0.004 C 
ENDBRANCH  14  15
ENDBRANCH  13  14
ENDBRANCH  12  13
ENDBRANCH  11  12
ENDBRANCH  10  11
ENDBRANCH   1  10
TORSDOF 12
ENDMDL
MODEL 5
REMARK VINA RESULT:    -4.759      1.350      2.721
REMARK INTER + INTRA:          -8.945
REMARK INTER:                  -7.945
REMARK INTRA:                  -1.000
REMARK UNBOUND:                -0.847
REMARK SMILES CCCCCCCCCCCCCC(=O)[O-]
REMARK SMILES IDX 8 1 9 2 10 3 11 4 12 5 13 6 14 7 15 8 16 9 7 10 6 11 5 12
REMARK SMILES IDX 4 13 3 14 2 15 1 16
REMARK H PARENT
REMARK Flexibility Score: inf
ROOT
ATOM      1  C   UNL     1      26.875   3.808  28.461  1.00  0.00     0.000 C 
ENDROOT
BRANCH   1   2
ATOM      2  C   UNL     1      26.787   5.121  29.261  1.00  0.00     0.000 C 
BRANCH   2   3
ATOM      3  C   UNL     1      27.671   5.175  30.523  1.00  0.00     0.000 C 
BRANCH   3   4
ATOM      4  C   UNL     1      28.394   6.516  30.758  1.00  0.00     0.000 C 
BRANCH   4   5
ATOM      5  C   UNL     1      28.012   7.643  29.778  1.00  0.00     0.006 C 
BRANCH   5   6
ATOM      6  C   UNL     1      27.259   8.817  30.425  1.00  0.00     0.053 C 
BRANCH   6   7
ATOM      7  C   UNL     1      27.953  10.124  30.190  1.00  0.00     0.041 C 
ATOM      8  O   UNL     1      28.368  10.805  31.164  1.00  0.00    -0.550 OA
ATOM      9  O   UNL     1      28.169  10.572  28.893  1.00  0.00    -0.550 OA
ENDBRANCH   6   7
ENDBRANCH   5   6
ENDBRANCH   4   5
ENDBRANCH   3   4
ENDBRANCH   2   3
ENDBRANCH   1   2
BRANCH   1  10
ATOM     10  C   UNL     1      27.570   2.681  29.239  1.00  0.00     0.000 C 
BRANCH  10  11
ATOM     11  C   UNL     1      26.977   1.313  28.867  1.00  0.00    -0.000 C 
BRANCH  11  12
ATOM     12  C   UNL     1      26.483   0.527  30.096  1.00  0.00    -0.000 C 
BRANCH  12  13
ATOM     13  C   UNL     1      27.171   0.942  31.411  1.00  0.00    -0.000 C 
BRANCH  13  14
ATOM     14  C   UNL     1      28.314  -0.013  31.828  1.00  0.00    -0.000 C 
BRANCH  14  15
ATOM     15  C   UNL     1      29.714   0.600  31.657  1.00  0.00    -0.003 C 
ATOM     16  C   UNL     1      30.334   0.295  30.295  1.00  0.00     0.004 C 
ENDBRANCH  14  15
ENDBRANCH  13  14
ENDBRANCH  12  13
ENDBRANCH  11  12
ENDBRANCH  10  11
ENDBRANCH   1  10
TORSDOF 12
ENDMDL
MODEL 6
REMARK VINA RESULT:    -4.743      7.580     10.955
REMARK INTER + INTRA:          -8.916
REMARK INTER:                  -7.923
REMARK INTRA:                  -0.993
REMARK UNBOUND:                -0.847
REMARK SMILES CCCCCCCCCCCCCC(=O)[O-]
REMARK SMILES IDX 8 1 9 2 10 3 11 4 12 5 13 6 14 7 15 8 16 9 7 10 6 11 5 12
REMARK SMILES IDX 4 13 3 14 2 15 1 16
REMARK H PARENT
REMARK Flexibility Score: inf
ROOT
ATOM      1  C   UNL     1      26.227  -0.723  30.327  1.00  0.00     0.000 C 
ENDROOT
BRANCH   1   2
ATOM      2  C   UNL     1      27.229  -1.814  30.745  1.00  0.00     0.000 C 
BRANCH   2   3
ATOM      3  C   UNL     1      26.689  -3.256  30.674  1.00  0.00     0.000 C 
BRANCH   3   4
ATOM      4  C   UNL     1      27.658  -4.343  31.179  1.00  0.00     0.000 C 
BRANCH   4   5
ATOM      5  C   UNL     1      28.107  -5.363  30.112  1.00  0.00     0.006 C 
BRANCH   5   6
ATOM      6  C   UNL     1      29.251  -6.286  30.561  1.00  0.00     0.053 C 
BRANCH   6   7
ATOM      7  C   UNL     1      28.928  -7.730  30.326  1.00  0.00     0.041 C 
ATOM      8  O   UNL     1      27.817  -8.060  29.834  1.00  0.00    -0.550 OA
ATOM      9  O   UNL     1      29.869  -8.709  30.620  1.00  0.00    -0.550 OA
ENDBRANCH   6   7
ENDBRANCH   5   6
ENDBRANCH   4   5
ENDBRANCH   3   4
ENDBRANCH   2   3
ENDBRANCH   1   2
BRANCH   1  10
ATOM     10  C   UNL     1      26.713   0.106  29.128  1.00  0.00     0.000 C 
BRANCH  10  11
ATOM     11  C   UNL     1      28.191  -0.182  28.826  1.00  0.00    -0.000 C 
BRANCH  11  12
ATOM     12  C   UNL     1      29.098   1.034  29.092  1.00  0.00    -0.000 C 
BRANCH  12  13
ATOM     13  C   UNL     1      29.895   0.934  30.408  1.00  0.00    -0.000 C 
BRANCH  13  14
ATOM     14  C   UNL     1      29.144   1.529  31.621  1.00  0.00    -0.000 C 
BRANCH  14  15
ATOM     15  C   UNL     1      28.192   2.678  31.246  1.00  0.00    -0.003 C 
ATOM     16  C   UNL     1      28.563   3.999  31.917  1.00  0.00     0.004 C 
ENDBRANCH  14  15
ENDBRANCH  13  14
ENDBRANCH  12  13
ENDBRANCH  11  12
ENDBRANCH  10  11
ENDBRANCH   1  10
TORSDOF 12
ENDMDL
MODEL 7
REMARK VINA RESULT:    -4.726      4.051      8.170
REMARK INTER + INTRA:          -8.889
REMARK INTER:                  -8.162
REMARK INTRA:                  -0.726
REMARK UNBOUND:                -0.847
REMARK SMILES CCCCCCCCCCCCCC(=O)[O-]
REMARK SMILES IDX 8 1 9 2 10 3 11 4 12 5 13 6 14 7 15 8 16 9 7 10 6 11 5 12
REMARK SMILES IDX 4 13 3 14 2 15 1 16
REMARK H PARENT
REMARK Flexibility Score: inf
ROOT
ATOM      1  C   UNL     1      28.033   4.190  31.575  1.00  0.00     0.000 C 
ENDROOT
BRANCH   1   2
ATOM      2  C   UNL     1      28.010   2.700  31.188  1.00  0.00     0.000 C 
BRANCH   2   3
ATOM      3  C   UNL     1      29.208   1.876  31.699  1.00  0.00     0.000 C 
BRANCH   3   4
ATOM      4  C   UNL     1      29.826   0.912  30.667  1.00  0.00     0.000 C 
BRANCH   4   5
ATOM      5  C   UNL     1      29.256   1.031  29.240  1.00  0.00     0.006 C 
BRANCH   5   6
ATOM      6  C   UNL     1      28.496  -0.213  28.755  1.00  0.00     0.053 C 
BRANCH   6   7
ATOM      7  C   UNL     1      27.026  -0.112  29.026  1.00  0.00     0.041 C 
ATOM      8  O   UNL     1      26.534  -0.641  30.058  1.00  0.00    -0.550 OA
ATOM      9  O   UNL     1      26.206   0.595  28.156  1.00  0.00    -0.550 OA
ENDBRANCH   6   7
ENDBRANCH   5   6
ENDBRANCH   4   5
ENDBRANCH   3   4
ENDBRANCH   2   3
ENDBRANCH   1   2
BRANCH   1  10
ATOM     10  C   UNL     1      27.831   5.122  30.370  1.00  0.00     0.000 C 
BRANCH  10  11
ATOM     11  C   UNL     1      27.483   6.546  30.832  1.00  0.00    -0.000 C 
BRANCH  11  12
ATOM     12  C   UNL     1      27.909   7.620  29.813  1.00  0.00    -0.000 C 
BRANCH  12  13
ATOM     13  C   UNL     1      28.194   8.995  30.449  1.00  0.00    -0.000 C 
BRANCH  13  14
ATOM     14  C   UNL     1      27.129  10.059  30.099  1.00  0.00    -0.000 C 
BRANCH  14  15
ATOM     15  C   UNL     1      25.927  10.059  31.059  1.00  0.00    -0.003 C 
ATOM     16  C   UNL     1      26.340  10.076  32.529  1.00  0.00     0.004 C 
ENDBRANCH  14  15
ENDBRANCH  13  14
ENDBRANCH  12  13
ENDBRANCH  11  12
ENDBRANCH  10  11
ENDBRANCH   1  10
TORSDOF 12
ENDMDL
MODEL 8
REMARK VINA RESULT:    -4.657      2.787      4.763
REMARK INTER + INTRA:          -8.771
REMARK INTER:                  -7.585
REMARK INTRA:                  -1.186
REMARK UNBOUND:                -0.847
REMARK SMILES CCCCCCCCCCCCCC(=O)[O-]
REMARK SMILES IDX 8 1 9 2 10 3 11 4 12 5 13 6 14 7 15 8 16 9 7 10 6 11 5 12
REMARK SMILES IDX 4 13 3 14 2 15 1 16
REMARK H PARENT
REMARK Flexibility Score: inf
ROOT
ATOM      1  C   UNL     1      29.106   1.018  29.126  1.00  0.00     0.000 C 
ENDROOT
BRANCH   1   2
ATOM      2  C   UNL     1      29.981   0.828  30.379  1.00  0.00     0.000 C 
BRANCH   2   3
ATOM      3  C   UNL     1      29.403   1.434  31.673  1.00  0.00     0.000 C 
BRANCH   3   4
ATOM      4  C   UNL     1      28.273   2.462  31.467  1.00  0.00     0.000 C 
BRANCH   4   5
ATOM      5  C   UNL     1      28.680   3.933  31.691  1.00  0.00     0.006 C 
BRANCH   5   6
ATOM      6  C   UNL     1      27.544   4.945  31.478  1.00  0.00     0.053 C 
BRANCH   6   7
ATOM      7  C   UNL     1      27.539   5.496  30.086  1.00  0.00     0.041 C 
ATOM      8  O   UNL     1      27.276   6.712  29.886  1.00  0.00    -0.550 OA
ATOM      9  O   UNL     1      27.857   4.674  29.012  1.00  0.00    -0.550 OA
ENDBRANCH   6   7
ENDBRANCH   5   6
ENDBRANCH   4   5
ENDBRANCH   3   4
ENDBRANCH   2   3
ENDBRANCH   1   2
BRANCH   1  10
ATOM     10  C   UNL     1      28.269  -0.225  28.789  1.00  0.00     0.000 C 
BRANCH  10  11
ATOM     11  C   UNL     1      26.821  -0.059  29.277  1.00  0.00    -0.000 C 
BRANCH  11  12
ATOM     12  C   UNL     1      26.431  -1.102  30.341  1.00  0.00    -0.000 C 
BRANCH  12  13
ATOM     13  C   UNL     1      27.599  -2.013  30.769  1.00  0.00    -0.000 C 
BRANCH  13  14
ATOM     14  C   UNL     1      27.178  -3.487  30.972  1.00  0.00    -0.000 C 
BRANCH  14  15
ATOM     15  C   UNL     1      28.217  -4.495  30.454  1.00  0.00    -0.003 C 
ATOM     16  C   UNL     1      29.415  -3.823  29.785  1.00  0.00     0.004 C 
ENDBRANCH  14  15
ENDBRANCH  13  14
ENDBRANCH  12  13
ENDBRANCH  11  12
ENDBRANCH  10  11
ENDBRANCH   1  10
TORSDOF 12
ENDMDL
MODEL 9
REMARK VINA RESULT:    -4.636      4.003      8.302
REMARK INTER + INTRA:          -8.734
REMARK INTER:                  -8.134
REMARK INTRA:                  -0.601
REMARK UNBOUND:                -0.847
REMARK SMILES CCCCCCCCCCCCCC(=O)[O-]
REMARK SMILES IDX 8 1 9 2 10 3 11 4 12 5 13 6 14 7 15 8 16 9 7 10 6 11 5 12
REMARK SMILES IDX 4 13 3 14 2 15 1 16
REMARK H PARENT
REMARK Flexibility Score: inf
ROOT
ATOM      1  C   UNL     1      27.174   4.059  28.825  1.00  0.00     0.000 C 
ENDROOT
BRANCH   1   2
ATOM      2  C   UNL     1      27.638   2.714  29.415  1.00  0.00     0.000 C 
BRANCH   2   3
ATOM      3  C   UNL     1      26.862   1.481  28.912  1.00  0.00     0.000 C 
BRANCH   3   4
ATOM      4  C   UNL     1      26.273   0.584  30.019  1.00  0.00     0.000 C 
BRANCH   4   5
ATOM      5  C   UNL     1      27.152  -0.617  30.423  1.00  0.00     0.006 C 
BRANCH   5   6
ATOM      6  C   UNL     1      27.944  -0.412  31.724  1.00  0.00     0.053 C 
BRANCH   6   7
ATOM      7  C   UNL     1      29.325   0.104  31.464  1.00  0.00     0.041 C 
ATOM      8  O   UNL     1      29.848  -0.030  30.325  1.00  0.00    -0.550 OA
ATOM      9  O   UNL     1      30.023   0.761  32.469  1.00  0.00    -0.550 OA
ENDBRANCH   6   7
ENDBRANCH   5   6
ENDBRANCH   4   5
ENDBRANCH   3   4
ENDBRANCH   2   3
ENDBRANCH   1   2
BRANCH   1  10
ATOM     10  C   UNL     1      27.975   5.254  29.363  1.00  0.00     0.000 C 
BRANCH  10  11
ATOM     11  C   UNL     1      27.056   6.243  30.096  1.00  0.00    -0.000 C 
BRANCH  11  12
ATOM     12  C   UNL     1      27.734   7.602  30.355  1.00  0.00    -0.000 C 
BRANCH  12  13
ATOM     13  C   UNL     1      26.738   8.766  30.524  1.00  0.00    -0.000 C 
BRANCH  13  14
ATOM     14  C   UNL     1      27.421  10.153  30.538  1.00  0.00    -0.000 C 
BRANCH  14  15
ATOM     15  C   UNL     1      28.647  10.240  29.614  1.00  0.00    -0.003 C 
ATOM     16  C   UNL     1      28.286  10.627  28.182  1.00  0.00     0.004 C 
ENDBRANCH  14  15
ENDBRANCH  13  14
ENDBRANCH  12  13
ENDBRANCH  11  12
ENDBRANCH  10  11
ENDBRANCH   1  10
TORSDOF 12
ENDMDL
