MODEL 1
REMARK VINA RESULT:    -6.111      0.000      0.000
REMARK INTER + INTRA:          -7.644
REMARK INTER:                  -7.361
REMARK INTRA:                  -0.284
REMARK UNBOUND:                -0.284
REMARK SMILES O=c1c(O)c(-c2ccc(O)c(O)c2)oc2cc(O)cc(O)c12
REMARK SMILES IDX 5 1 3 2 2 3 1 4 22 5 20 6 19 7 17 8 16 9 15 10 14 11 6 12
REMARK SMILES IDX 7 13 8 14 9 15 13 16 11 17 10 18 12 20 4 22 21 24 18 26
REMARK H PARENT 10 19 12 21 4 23 21 25 18 27
REMARK Flexibility Score: inf
ROOT
ATOM      1  C   UNL     1      45.612  38.025  48.027  1.00  0.00     0.180 A 
ATOM      2  C   UNL     1      45.363  37.065  49.023  1.00  0.00     0.208 A 
ATOM      3  C   UNL     1      45.645  35.716  48.754  1.00  0.00     0.238 A 
ATOM      4  O   UNL     1      45.350  34.854  49.622  1.00  0.00    -0.285 OA
ATOM      5  C   UNL     1      46.223  35.350  47.514  1.00  0.00     0.111 A 
ATOM      6  C   UNL     1      46.592  34.019  47.151  1.00  0.00     0.134 A 
ATOM      7  C   UNL     1      47.058  33.760  45.856  1.00  0.00     0.093 A 
ATOM      8  C   UNL     1      47.230  34.790  44.933  1.00  0.00     0.123 A 
ATOM      9  C   UNL     1      46.925  36.102  45.295  1.00  0.00     0.094 A 
ATOM     10  C   UNL     1      46.421  36.388  46.567  1.00  0.00     0.146 A 
ATOM     11  O   UNL     1      46.125  37.647  46.862  1.00  0.00    -0.452 OA
ENDROOT
BRANCH   1  12
ATOM     12  C   UNL     1      45.328  39.464  48.230  1.00  0.00     0.025 A 
ATOM     13  C   UNL     1      44.148  40.014  47.707  1.00  0.00     0.016 A 
ATOM     14  C   UNL     1      43.848  41.364  47.904  1.00  0.00     0.051 A 
ATOM     15  C   UNL     1      44.714  42.181  48.639  1.00  0.00     0.157 A 
ATOM     16  C   UNL     1      46.187  40.281  48.986  1.00  0.00     0.062 A 
ATOM     17  C   UNL     1      45.887  41.636  49.187  1.00  0.00     0.158 A 
BRANCH  15  18
ATOM     18  O   UNL     1      44.390  43.525  48.817  1.00  0.00    -0.504 OA
ATOM     19  H   UNL     1      44.224  44.147  48.034  1.00  0.00     0.293 HD
ENDBRANCH  15  18
BRANCH  17  20
ATOM     20  O   UNL     1      46.748  42.441  49.932  1.00  0.00    -0.504 OA
ATOM     21  H   UNL     1      46.503  42.760  50.863  1.00  0.00     0.293 HD
ENDBRANCH  17  20
ENDBRANCH   1  12
BRANCH   2  22
ATOM     22  O   UNL     1      44.864  37.456  50.268  1.00  0.00    -0.502 OA
ATOM     23  H   UNL     1      44.831  38.424  50.562  1.00  0.00     0.293 HD
ENDBRANCH   2  22
BRANCH   6  24
ATOM     24  O   UNL     1      46.543  32.926  48.023  1.00  0.00    -0.507 OA
ATOM     25  H   UNL     1      46.924  32.013  47.827  1.00  0.00     0.293 HD
ENDBRANCH   6  24
BRANCH   8  26
ATOM     26  O   UNL     1      47.713  34.498  43.659  1.00  0.00    -0.508 OA
ATOM     27  H   UNL     1      48.419  33.786  43.511  1.00  0.00     0.293 HD
ENDBRANCH   8  26
TORSDOF 6
ENDMDL
MODEL 2
REMARK VINA RESULT:    -5.558      1.619      6.328
REMARK INTER + INTRA:          -6.979
REMARK INTER:                  -6.874
REMARK INTRA:                  -0.105
REMARK UNBOUND:                -0.284
REMARK SMILES O=c1c(O)c(-c2ccc(O)c(O)c2)oc2cc(O)cc(O)c12
REMARK SMILES IDX 5 1 3 2 2 3 1 4 22 5 20 6 19 7 17 8 16 9 15 10 14 11 6 12
REMARK SMILES IDX 7 13 8 14 9 15 13 16 11 17 10 18 12 20 4 22 21 24 18 26
REMARK H PARENT 10 19 12 21 4 23 21 25 18 27
REMARK Flexibility Score: inf
ROOT
ATOM      1  C   UNL     1      46.043  36.839  47.130  1.00  0.00     0.180 A 
ATOM      2  C   UNL     1      45.671  36.061  48.240  1.00  0.00     0.208 A 
ATOM      3  C   UNL     1      44.864  36.637  49.235  1.00  0.00     0.238 A 
ATOM      4  O   UNL     1      44.598  35.959  50.261  1.00  0.00    -0.285 OA
ATOM      5  C   UNL     1      44.394  37.964  49.082  1.00  0.00     0.111 A 
ATOM      6  C   UNL     1      43.535  38.633  50.005  1.00  0.00     0.134 A 
ATOM      7  C   UNL     1      43.220  39.983  49.803  1.00  0.00     0.093 A 
ATOM      8  C   UNL     1      43.679  40.668  48.679  1.00  0.00     0.123 A 
ATOM      9  C   UNL     1      44.474  40.009  47.742  1.00  0.00     0.094 A 
ATOM     10  C   UNL     1      44.838  38.674  47.935  1.00  0.00     0.146 A 
ATOM     11  O   UNL     1      45.613  38.091  47.029  1.00  0.00    -0.452 OA
ENDROOT
BRANCH   1  12
ATOM     12  C   UNL     1      46.902  36.308  46.047  1.00  0.00     0.025 A 
ATOM     13  C   UNL     1      46.459  35.213  45.290  1.00  0.00     0.016 A 
ATOM     14  C   UNL     1      47.244  34.708  44.250  1.00  0.00     0.051 A 
ATOM     15  C   UNL     1      48.474  35.297  43.941  1.00  0.00     0.157 A 
ATOM     16  C   UNL     1      48.130  36.912  45.723  1.00  0.00     0.062 A 
ATOM     17  C   UNL     1      48.918  36.408  44.677  1.00  0.00     0.158 A 
BRANCH  15  18
ATOM     18  O   UNL     1      49.236  34.770  42.900  1.00  0.00    -0.504 OA
ATOM     19  H   UNL     1      48.841  34.145  42.207  1.00  0.00     0.293 HD
ENDBRANCH  15  18
BRANCH  17  20
ATOM     20  O   UNL     1      50.137  37.010  44.366  1.00  0.00    -0.504 OA
ATOM     21  H   UNL     1      50.891  37.061  45.041  1.00  0.00     0.293 HD
ENDBRANCH  17  20
ENDBRANCH   1  12
BRANCH   2  22
ATOM     22  O   UNL     1      46.082  34.729  48.335  1.00  0.00    -0.502 OA
ATOM     23  H   UNL     1      45.612  34.056  48.927  1.00  0.00     0.293 HD
ENDBRANCH   2  22
BRANCH   6  24
ATOM     24  O   UNL     1      42.948  38.018  51.116  1.00  0.00    -0.507 OA
ATOM     25  H   UNL     1      42.937  37.024  51.288  1.00  0.00     0.293 HD
ENDBRANCH   6  24
BRANCH   8  26
ATOM     26  O   UNL     1      43.331  42.006  48.501  1.00  0.00    -0.508 OA
ATOM     27  H   UNL     1      42.542  42.417  48.987  1.00  0.00     0.293 HD
ENDBRANCH   8  26
TORSDOF 6
ENDMDL
MODEL 3
REMARK VINA RESULT:    -5.523      4.006      6.880
REMARK INTER + INTRA:          -6.936
REMARK INTER:                  -6.605
REMARK INTRA:                  -0.332
REMARK UNBOUND:                -0.284
REMARK SMILES O=c1c(O)c(-c2ccc(O)c(O)c2)oc2cc(O)cc(O)c12
REMARK SMILES IDX 5 1 3 2 2 3 1 4 22 5 20 6 19 7 17 8 16 9 15 10 14 11 6 12
REMARK SMILES IDX 7 13 8 14 9 15 13 16 11 17 10 18 12 20 4 22 21 24 18 26
REMARK H PARENT 10 19 12 21 4 23 21 25 18 27
REMARK Flexibility Score: inf
ROOT
ATOM      1  C   UNL     1      45.082  42.106  51.851  1.00  0.00     0.180 A 
ATOM      2  C   UNL     1      45.373  42.977  50.787  1.00  0.00     0.208 A 
ATOM      3  C   UNL     1      45.161  42.539  49.470  1.00  0.00     0.238 A 
ATOM      4  O   UNL     1      45.495  43.296  48.522  1.00  0.00    -0.285 OA
ATOM      5  C   UNL     1      44.609  41.256  49.234  1.00  0.00     0.111 A 
ATOM      6  C   UNL     1      44.310  40.726  47.943  1.00  0.00     0.134 A 
ATOM      7  C   UNL     1      43.864  39.403  47.826  1.00  0.00     0.093 A 
ATOM      8  C   UNL     1      43.645  38.615  48.954  1.00  0.00     0.123 A 
ATOM      9  C   UNL     1      43.881  39.141  50.224  1.00  0.00     0.094 A 
ATOM     10  C   UNL     1      44.363  40.444  50.372  1.00  0.00     0.146 A 
ATOM     11  O   UNL     1      44.594  40.897  51.597  1.00  0.00    -0.452 OA
ENDROOT
BRANCH   1  12
ATOM     12  C   UNL     1      45.292  42.491  53.265  1.00  0.00     0.025 A 
ATOM     13  C   UNL     1      44.216  43.001  54.008  1.00  0.00     0.016 A 
ATOM     14  C   UNL     1      44.386  43.351  55.350  1.00  0.00     0.051 A 
ATOM     15  C   UNL     1      45.627  43.183  55.974  1.00  0.00     0.157 A 
ATOM     16  C   UNL     1      46.533  42.304  53.899  1.00  0.00     0.062 A 
ATOM     17  C   UNL     1      46.705  42.652  55.247  1.00  0.00     0.158 A 
BRANCH  15  18
ATOM     18  O   UNL     1      45.767  43.543  57.313  1.00  0.00    -0.504 OA
ATOM     19  H   UNL     1      46.453  43.109  57.918  1.00  0.00     0.293 HD
ENDBRANCH  15  18
BRANCH  17  20
ATOM     20  O   UNL     1      47.941  42.469  55.866  1.00  0.00    -0.504 OA
ATOM     21  H   UNL     1      48.017  42.324  56.866  1.00  0.00     0.293 HD
ENDBRANCH  17  20
ENDBRANCH   1  12
BRANCH   2  22
ATOM     22  O   UNL     1      45.846  44.267  51.043  1.00  0.00    -0.502 OA
ATOM     23  H   UNL     1      45.935  44.638  51.981  1.00  0.00     0.293 HD
ENDBRANCH   2  22
BRANCH   6  24
ATOM     24  O   UNL     1      44.408  41.455  46.754  1.00  0.00    -0.507 OA
ATOM     25  H   UNL     1      45.254  41.571  46.215  1.00  0.00     0.293 HD
ENDBRANCH   6  24
BRANCH   8  26
ATOM     26  O   UNL     1      43.183  37.309  48.800  1.00  0.00    -0.508 OA
ATOM     27  H   UNL     1      43.398  36.587  49.479  1.00  0.00     0.293 HD
ENDBRANCH   8  26
TORSDOF 6
ENDMDL
MODEL 4
REMARK VINA RESULT:    -5.431      1.624      6.877
REMARK INTER + INTRA:          -6.826
REMARK INTER:                  -6.542
REMARK INTRA:                  -0.284
REMARK UNBOUND:                -0.284
REMARK SMILES O=c1c(O)c(-c2ccc(O)c(O)c2)oc2cc(O)cc(O)c12
REMARK SMILES IDX 5 1 3 2 2 3 1 4 22 5 20 6 19 7 17 8 16 9 15 10 14 11 6 12
REMARK SMILES IDX 7 13 8 14 9 15 13 16 11 17 10 18 12 20 4 22 21 24 18 26
REMARK H PARENT 10 19 12 21 4 23 21 25 18 27
REMARK Flexibility Score: inf
ROOT
ATOM      1  C   UNL     1      45.875  37.117  47.901  1.00  0.00     0.180 A 
ATOM      2  C   UNL     1      44.542  37.425  48.222  1.00  0.00     0.208 A 
ATOM      3  C   UNL     1      44.260  38.640  48.867  1.00  0.00     0.238 A 
ATOM      4  O   UNL     1      43.075  38.875  49.219  1.00  0.00    -0.285 OA
ATOM      5  C   UNL     1      45.307  39.557  49.133  1.00  0.00     0.111 A 
ATOM      6  C   UNL     1      45.131  40.836  49.742  1.00  0.00     0.134 A 
ATOM      7  C   UNL     1      46.254  41.614  50.053  1.00  0.00     0.093 A 
ATOM      8  C   UNL     1      47.539  41.188  49.719  1.00  0.00     0.123 A 
ATOM      9  C   UNL     1      47.718  39.964  49.075  1.00  0.00     0.094 A 
ATOM     10  C   UNL     1      46.621  39.148  48.787  1.00  0.00     0.146 A 
ATOM     11  O   UNL     1      46.839  37.982  48.192  1.00  0.00    -0.452 OA
ENDROOT
BRANCH   1  12
ATOM     12  C   UNL     1      46.252  35.850  47.234  1.00  0.00     0.025 A 
ATOM     13  C   UNL     1      46.318  34.667  47.987  1.00  0.00     0.016 A 
ATOM     14  C   UNL     1      46.652  33.457  47.375  1.00  0.00     0.051 A 
ATOM     15  C   UNL     1      46.910  33.405  46.002  1.00  0.00     0.157 A 
ATOM     16  C   UNL     1      46.492  35.793  45.850  1.00  0.00     0.062 A 
ATOM     17  C   UNL     1      46.825  34.578  45.233  1.00  0.00     0.158 A 
BRANCH  15  18
ATOM     18  O   UNL     1      47.243  32.183  45.419  1.00  0.00    -0.504 OA
ATOM     19  H   UNL     1      47.295  32.063  44.415  1.00  0.00     0.293 HD
ENDBRANCH  15  18
BRANCH  17  20
ATOM     20  O   UNL     1      47.067  34.532  43.861  1.00  0.00    -0.504 OA
ATOM     21  H   UNL     1      47.720  33.869  43.459  1.00  0.00     0.293 HD
ENDBRANCH  17  20
ENDBRANCH   1  12
BRANCH   2  22
ATOM     22  O   UNL     1      43.514  36.541  47.883  1.00  0.00    -0.502 OA
ATOM     23  H   UNL     1      43.136  35.870  48.539  1.00  0.00     0.293 HD
ENDBRANCH   2  22
BRANCH   6  24
ATOM     24  O   UNL     1      43.885  41.399  50.038  1.00  0.00    -0.507 OA
ATOM     25  H   UNL     1      43.647  42.371  49.916  1.00  0.00     0.293 HD
ENDBRANCH   6  24
BRANCH   8  26
ATOM     26  O   UNL     1      48.631  41.996  50.028  1.00  0.00    -0.508 OA
ATOM     27  H   UNL     1      49.335  42.223  49.335  1.00  0.00     0.293 HD
ENDBRANCH   8  26
TORSDOF 6
ENDMDL
MODEL 5
REMARK VINA RESULT:    -5.422     10.438     13.078
REMARK INTER + INTRA:          -6.815
REMARK INTER:                  -6.485
REMARK INTRA:                  -0.330
REMARK UNBOUND:                -0.284
REMARK SMILES O=c1c(O)c(-c2ccc(O)c(O)c2)oc2cc(O)cc(O)c12
REMARK SMILES IDX 5 1 3 2 2 3 1 4 22 5 20 6 19 7 17 8 16 9 15 10 14 11 6 12
REMARK SMILES IDX 7 13 8 14 9 15 13 16 11 17 10 18 12 20 4 22 21 24 18 26
REMARK H PARENT 10 19 12 21 4 23 21 25 18 27
REMARK Flexibility Score: inf
ROOT
ATOM      1  C   UNL     1      47.560  34.028  58.428  1.00  0.00     0.180 A 
ATOM      2  C   UNL     1      47.089  32.980  59.238  1.00  0.00     0.208 A 
ATOM      3  C   UNL     1      46.257  33.283  60.328  1.00  0.00     0.238 A 
ATOM      4  O   UNL     1      45.902  32.349  61.093  1.00  0.00    -0.285 OA
ATOM      5  C   UNL     1      45.860  34.623  60.561  1.00  0.00     0.111 A 
ATOM      6  C   UNL     1      44.984  35.039  61.609  1.00  0.00     0.134 A 
ATOM      7  C   UNL     1      44.746  36.405  61.808  1.00  0.00     0.093 A 
ATOM      8  C   UNL     1      45.299  37.363  60.961  1.00  0.00     0.123 A 
ATOM      9  C   UNL     1      46.112  36.964  59.900  1.00  0.00     0.094 A 
ATOM     10  C   UNL     1      46.400  35.612  59.699  1.00  0.00     0.146 A 
ATOM     11  O   UNL     1      47.196  35.278  58.691  1.00  0.00    -0.452 OA
ENDROOT
BRANCH   1  12
ATOM     12  C   UNL     1      48.452  33.790  57.270  1.00  0.00     0.025 A 
ATOM     13  C   UNL     1      47.893  33.586  55.999  1.00  0.00     0.016 A 
ATOM     14  C   UNL     1      48.715  33.381  54.889  1.00  0.00     0.051 A 
ATOM     15  C   UNL     1      50.107  33.391  55.028  1.00  0.00     0.157 A 
ATOM     16  C   UNL     1      49.851  33.820  57.405  1.00  0.00     0.062 A 
ATOM     17  C   UNL     1      50.679  33.616  56.291  1.00  0.00     0.158 A 
BRANCH  15  18
ATOM     18  O   UNL     1      50.902  33.180  53.903  1.00  0.00    -0.504 OA
ATOM     19  H   UNL     1      50.989  32.269  53.468  1.00  0.00     0.293 HD
ENDBRANCH  15  18
BRANCH  17  20
ATOM     20  O   UNL     1      52.065  33.641  56.435  1.00  0.00    -0.504 OA
ATOM     21  H   UNL     1      52.672  33.107  55.823  1.00  0.00     0.293 HD
ENDBRANCH  17  20
ENDBRANCH   1  12
BRANCH   2  22
ATOM     22  O   UNL     1      47.431  31.657  58.946  1.00  0.00    -0.502 OA
ATOM     23  H   UNL     1      48.140  31.416  58.266  1.00  0.00     0.293 HD
ENDBRANCH   2  22
BRANCH   6  24
ATOM     24  O   UNL     1      44.307  34.160  62.460  1.00  0.00    -0.507 OA
ATOM     25  H   UNL     1      44.713  33.342  62.888  1.00  0.00     0.293 HD
ENDBRANCH   6  24
BRANCH   8  26
ATOM     26  O   UNL     1      45.025  38.712  61.179  1.00  0.00    -0.508 OA
ATOM     27  H   UNL     1      45.559  39.442  60.720  1.00  0.00     0.293 HD
ENDBRANCH   8  26
TORSDOF 6
ENDMDL
MODEL 6
REMARK VINA RESULT:    -5.299      2.656      7.971
REMARK INTER + INTRA:          -6.667
REMARK INTER:                  -6.354
REMARK INTRA:                  -0.314
REMARK UNBOUND:                -0.284
REMARK SMILES O=c1c(O)c(-c2ccc(O)c(O)c2)oc2cc(O)cc(O)c12
REMARK SMILES IDX 5 1 3 2 2 3 1 4 22 5 20 6 19 7 17 8 16 9 15 10 14 11 6 12
REMARK SMILES IDX 7 13 8 14 9 15 13 16 11 17 10 18 12 20 4 22 21 24 18 26
REMARK H PARENT 10 19 12 21 4 23 21 25 18 27
REMARK Flexibility Score: inf
ROOT
ATOM      1  C   UNL     1      45.494  40.285  49.624  1.00  0.00     0.180 A 
ATOM      2  C   UNL     1      45.004  41.463  49.033  1.00  0.00     0.208 A 
ATOM      3  C   UNL     1      45.018  42.654  49.777  1.00  0.00     0.238 A 
ATOM      4  O   UNL     1      44.509  43.687  49.269  1.00  0.00    -0.285 OA
ATOM      5  C   UNL     1      45.572  42.665  51.080  1.00  0.00     0.111 A 
ATOM      6  C   UNL     1      45.679  43.824  51.907  1.00  0.00     0.134 A 
ATOM      7  C   UNL     1      46.148  43.695  53.221  1.00  0.00     0.093 A 
ATOM      8  C   UNL     1      46.574  42.463  53.715  1.00  0.00     0.123 A 
ATOM      9  C   UNL     1      46.526  41.334  52.897  1.00  0.00     0.094 A 
ATOM     10  C   UNL     1      46.026  41.423  51.596  1.00  0.00     0.146 A 
ATOM     11  O   UNL     1      45.978  40.320  50.860  1.00  0.00    -0.452 OA
ENDROOT
BRANCH   1  12
ATOM     12  C   UNL     1      45.500  38.988  48.909  1.00  0.00     0.025 A 
ATOM     13  C   UNL     1      46.695  38.518  48.343  1.00  0.00     0.016 A 
ATOM     14  C   UNL     1      46.728  37.288  47.682  1.00  0.00     0.051 A 
ATOM     15  C   UNL     1      45.575  36.502  47.590  1.00  0.00     0.157 A 
ATOM     16  C   UNL     1      44.346  38.188  48.833  1.00  0.00     0.062 A 
ATOM     17  C   UNL     1      44.379  36.951  48.173  1.00  0.00     0.158 A 
BRANCH  15  18
ATOM     18  O   UNL     1      45.639  35.280  46.922  1.00  0.00    -0.504 OA
ATOM     19  H   UNL     1      46.461  34.991  46.407  1.00  0.00     0.293 HD
ENDBRANCH  15  18
BRANCH  17  20
ATOM     20  O   UNL     1      43.228  36.167  48.097  1.00  0.00    -0.504 OA
ATOM     21  H   UNL     1      42.466  36.278  48.755  1.00  0.00     0.293 HD
ENDBRANCH  17  20
ENDBRANCH   1  12
BRANCH   2  22
ATOM     22  O   UNL     1      44.532  41.447  47.718  1.00  0.00    -0.502 OA
ATOM     23  H   UNL     1      44.853  42.102  47.017  1.00  0.00     0.293 HD
ENDBRANCH   2  22
BRANCH   6  24
ATOM     24  O   UNL     1      45.364  45.120  51.485  1.00  0.00    -0.507 OA
ATOM     25  H   UNL     1      44.428  45.474  51.356  1.00  0.00     0.293 HD
ENDBRANCH   6  24
BRANCH   8  26
ATOM     26  O   UNL     1      47.052  42.376  55.021  1.00  0.00    -0.508 OA
ATOM     27  H   UNL     1      47.367  43.196  55.526  1.00  0.00     0.293 HD
ENDBRANCH   8  26
TORSDOF 6
ENDMDL
MODEL 7
REMARK VINA RESULT:    -5.196      3.547      7.805
REMARK INTER + INTRA:          -6.542
REMARK INTER:                  -6.327
REMARK INTRA:                  -0.216
REMARK UNBOUND:                -0.284
REMARK SMILES O=c1c(O)c(-c2ccc(O)c(O)c2)oc2cc(O)cc(O)c12
REMARK SMILES IDX 5 1 3 2 2 3 1 4 22 5 20 6 19 7 17 8 16 9 15 10 14 11 6 12
REMARK SMILES IDX 7 13 8 14 9 15 13 16 11 17 10 18 12 20 4 22 21 24 18 26
REMARK H PARENT 10 19 12 21 4 23 21 25 18 27
REMARK Flexibility Score: inf
ROOT
ATOM      1  C   UNL     1      45.264  41.051  50.657  1.00  0.00     0.180 A 
ATOM      2  C   UNL     1      44.873  41.476  51.938  1.00  0.00     0.208 A 
ATOM      3  C   UNL     1      45.523  42.578  52.518  1.00  0.00     0.238 A 
ATOM      4  O   UNL     1      45.221  42.905  53.695  1.00  0.00    -0.285 OA
ATOM      5  C   UNL     1      46.516  43.276  51.787  1.00  0.00     0.111 A 
ATOM      6  C   UNL     1      47.208  44.432  52.257  1.00  0.00     0.134 A 
ATOM      7  C   UNL     1      48.246  44.976  51.490  1.00  0.00     0.093 A 
ATOM      8  C   UNL     1      48.573  44.446  50.243  1.00  0.00     0.123 A 
ATOM      9  C   UNL     1      47.867  43.349  49.749  1.00  0.00     0.094 A 
ATOM     10  C   UNL     1      46.852  42.760  50.508  1.00  0.00     0.146 A 
ATOM     11  O   UNL     1      46.220  41.706  50.009  1.00  0.00    -0.452 OA
ENDROOT
BRANCH   1  12
ATOM     12  C   UNL     1      44.636  39.890  49.986  1.00  0.00     0.025 A 
ATOM     13  C   UNL     1      43.900  40.089  48.808  1.00  0.00     0.016 A 
ATOM     14  C   UNL     1      43.317  39.005  48.147  1.00  0.00     0.051 A 
ATOM     15  C   UNL     1      43.472  37.707  48.642  1.00  0.00     0.157 A 
ATOM     16  C   UNL     1      44.808  38.581  50.472  1.00  0.00     0.062 A 
ATOM     17  C   UNL     1      44.225  37.492  49.808  1.00  0.00     0.158 A 
BRANCH  15  18
ATOM     18  O   UNL     1      42.876  36.645  47.962  1.00  0.00    -0.504 OA
ATOM     19  H   UNL     1      43.419  35.970  47.438  1.00  0.00     0.293 HD
ENDBRANCH  15  18
BRANCH  17  20
ATOM     20  O   UNL     1      44.395  36.199  50.301  1.00  0.00    -0.504 OA
ATOM     21  H   UNL     1      45.251  35.679  50.143  1.00  0.00     0.293 HD
ENDBRANCH  17  20
ENDBRANCH   1  12
BRANCH   2  22
ATOM     22  O   UNL     1      43.839  40.821  52.612  1.00  0.00    -0.502 OA
ATOM     23  H   UNL     1      44.008  40.191  53.386  1.00  0.00     0.293 HD
ENDBRANCH   2  22
BRANCH   6  24
ATOM     24  O   UNL     1      46.903  45.097  53.450  1.00  0.00    -0.507 OA
ATOM     25  H   UNL     1      46.588  44.650  54.297  1.00  0.00     0.293 HD
ENDBRANCH   6  24
BRANCH   8  26
ATOM     26  O   UNL     1      49.600  45.024  49.500  1.00  0.00    -0.508 OA
ATOM     27  H   UNL     1      49.948  44.592  48.651  1.00  0.00     0.293 HD
ENDBRANCH   8  26
TORSDOF 6
ENDMDL
MODEL 8
REMARK VINA RESULT:    -5.129      3.543      6.354
REMARK INTER + INTRA:          -6.462
REMARK INTER:                  -6.178
REMARK INTRA:                  -0.284
REMARK UNBOUND:                -0.284
REMARK SMILES O=c1c(O)c(-c2ccc(O)c(O)c2)oc2cc(O)cc(O)c12
REMARK SMILES IDX 5 1 3 2 2 3 1 4 22 5 20 6 19 7 17 8 16 9 15 10 14 11 6 12
REMARK SMILES IDX 7 13 8 14 9 15 13 16 11 17 10 18 12 20 4 22 21 24 18 26
REMARK H PARENT 10 19 12 21 4 23 21 25 18 27
REMARK Flexibility Score: inf
ROOT
ATOM      1  C   UNL     1      47.466  40.586  50.490  1.00  0.00     0.180 A 
ATOM      2  C   UNL     1      47.099  41.759  49.808  1.00  0.00     0.208 A 
ATOM      3  C   UNL     1      46.037  41.709  48.890  1.00  0.00     0.238 A 
ATOM      4  O   UNL     1      45.765  42.744  48.228  1.00  0.00    -0.285 OA
ATOM      5  C   UNL     1      45.318  40.503  48.709  1.00  0.00     0.111 A 
ATOM      6  C   UNL     1      44.196  40.349  47.839  1.00  0.00     0.134 A 
ATOM      7  C   UNL     1      43.630  39.081  47.660  1.00  0.00     0.093 A 
ATOM      8  C   UNL     1      44.101  37.976  48.365  1.00  0.00     0.123 A 
ATOM      9  C   UNL     1      45.162  38.125  49.259  1.00  0.00     0.094 A 
ATOM     10  C   UNL     1      45.774  39.369  49.431  1.00  0.00     0.146 A 
ATOM     11  O   UNL     1      46.793  39.462  50.275  1.00  0.00    -0.452 OA
ENDROOT
BRANCH   1  12
ATOM     12  C   UNL     1      48.583  40.555  51.461  1.00  0.00     0.025 A 
ATOM     13  C   UNL     1      49.905  40.514  50.990  1.00  0.00     0.016 A 
ATOM     14  C   UNL     1      50.976  40.506  51.887  1.00  0.00     0.051 A 
ATOM     15  C   UNL     1      50.745  40.553  53.266  1.00  0.00     0.157 A 
ATOM     16  C   UNL     1      48.353  40.624  52.847  1.00  0.00     0.062 A 
ATOM     17  C   UNL     1      49.427  40.618  53.749  1.00  0.00     0.158 A 
BRANCH  15  18
ATOM     18  O   UNL     1      51.833  40.541  54.137  1.00  0.00    -0.504 OA
ATOM     19  H   UNL     1      51.730  40.337  55.124  1.00  0.00     0.293 HD
ENDBRANCH  15  18
BRANCH  17  20
ATOM     20  O   UNL     1      49.189  40.680  55.121  1.00  0.00    -0.504 OA
ATOM     21  H   UNL     1      48.902  39.863  55.647  1.00  0.00     0.293 HD
ENDBRANCH  17  20
ENDBRANCH   1  12
BRANCH   2  22
ATOM     22  O   UNL     1      47.772  42.958  50.057  1.00  0.00    -0.502 OA
ATOM     23  H   UNL     1      47.353  43.719  50.578  1.00  0.00     0.293 HD
ENDBRANCH   2  22
BRANCH   6  24
ATOM     24  O   UNL     1      43.587  41.404  47.151  1.00  0.00    -0.507 OA
ATOM     25  H   UNL     1      43.250  42.254  47.578  1.00  0.00     0.293 HD
ENDBRANCH   6  24
BRANCH   8  26
ATOM     26  O   UNL     1      43.501  36.732  48.175  1.00  0.00    -0.508 OA
ATOM     27  H   UNL     1      44.050  35.881  48.128  1.00  0.00     0.293 HD
ENDBRANCH   8  26
TORSDOF 6
ENDMDL
MODEL 9
REMARK VINA RESULT:    -5.125      5.771     10.163
REMARK INTER + INTRA:          -6.458
REMARK INTER:                  -6.155
REMARK INTRA:                  -0.303
REMARK UNBOUND:                -0.284
REMARK SMILES O=c1c(O)c(-c2ccc(O)c(O)c2)oc2cc(O)cc(O)c12
REMARK SMILES IDX 5 1 3 2 2 3 1 4 22 5 20 6 19 7 17 8 16 9 15 10 14 11 6 12
REMARK SMILES IDX 7 13 8 14 9 15 13 16 11 17 10 18 12 20 4 22 21 24 18 26
REMARK H PARENT 10 19 12 21 4 23 21 25 18 27
REMARK Flexibility Score: inf
ROOT
ATOM      1  C   UNL     1      45.882  42.778  53.349  1.00  0.00     0.180 A 
ATOM      2  C   UNL     1      47.233  42.807  53.735  1.00  0.00     0.208 A 
ATOM      3  C   UNL     1      47.561  43.210  55.039  1.00  0.00     0.238 A 
ATOM      4  O   UNL     1      48.776  43.306  55.353  1.00  0.00    -0.285 OA
ATOM      5  C   UNL     1      46.532  43.527  55.959  1.00  0.00     0.111 A 
ATOM      6  C   UNL     1      46.746  43.904  57.319  1.00  0.00     0.134 A 
ATOM      7  C   UNL     1      45.656  44.298  58.107  1.00  0.00     0.093 A 
ATOM      8  C   UNL     1      44.356  44.265  57.605  1.00  0.00     0.123 A 
ATOM      9  C   UNL     1      44.130  43.845  56.294  1.00  0.00     0.094 A 
ATOM     10  C   UNL     1      45.199  43.484  55.471  1.00  0.00     0.146 A 
ATOM     11  O   UNL     1      44.940  43.111  54.224  1.00  0.00    -0.452 OA
ENDROOT
BRANCH   1  12
ATOM     12  C   UNL     1      45.459  42.378  51.988  1.00  0.00     0.025 A 
ATOM     13  C   UNL     1      44.908  41.104  51.784  1.00  0.00     0.016 A 
ATOM     14  C   UNL     1      44.482  40.712  50.512  1.00  0.00     0.051 A 
ATOM     15  C   UNL     1      44.586  41.591  49.429  1.00  0.00     0.157 A 
ATOM     16  C   UNL     1      45.544  43.268  50.902  1.00  0.00     0.062 A 
ATOM     17  C   UNL     1      45.115  42.878  49.625  1.00  0.00     0.158 A 
BRANCH  15  18
ATOM     18  O   UNL     1      44.155  41.171  48.172  1.00  0.00    -0.504 OA
ATOM     19  H   UNL     1      44.662  40.480  47.633  1.00  0.00     0.293 HD
ENDBRANCH  15  18
BRANCH  17  20
ATOM     20  O   UNL     1      45.208  43.764  48.553  1.00  0.00    -0.504 OA
ATOM     21  H   UNL     1      45.831  44.563  48.578  1.00  0.00     0.293 HD
ENDBRANCH  17  20
ENDBRANCH   1  12
BRANCH   2  22
ATOM     22  O   UNL     1      48.230  42.418  52.836  1.00  0.00    -0.502 OA
ATOM     23  H   UNL     1      48.166  42.598  51.841  1.00  0.00     0.293 HD
ENDBRANCH   2  22
BRANCH   6  24
ATOM     24  O   UNL     1      47.994  43.888  57.950  1.00  0.00    -0.507 OA
ATOM     25  H   UNL     1      48.548  44.705  58.156  1.00  0.00     0.293 HD
ENDBRANCH   6  24
BRANCH   8  26
ATOM     26  O   UNL     1      43.295  44.647  58.423  1.00  0.00    -0.508 OA
ATOM     27  H   UNL     1      43.129  44.201  59.318  1.00  0.00     0.293 HD
ENDBRANCH   8  26
TORSDOF 6
ENDMDL
