MODEL 1
REMARK VINA RESULT:    13.273      0.000      0.000
REMARK INTER + INTRA:          23.272
REMARK INTER:                  24.135
REMARK INTRA:                  -0.863
REMARK UNBOUND:                -0.863
REMARK SMILES CCCCCCCCCCCCCC[C@H](C)C(=O)[O-]
REMARK SMILES IDX 9 1 10 2 11 3 12 4 13 5 14 6 15 7 16 8 17 9 18 10 19 11 8 12
REMARK SMILES IDX 7 13 6 14 5 15 4 16 3 17 2 18 1 19
REMARK H PARENT
REMARK Flexibility Score: inf
ROOT
ATOM      1  C   UNL     1      17.811 -60.439  -3.184  1.00  0.00     0.000 C 
ENDROOT
BRANCH   1   2
ATOM      2  C   UNL     1      16.649 -59.911  -2.327  1.00  0.00     0.000 C 
BRANCH   2   3
ATOM      3  C   UNL     1      15.770 -58.900  -3.081  1.00  0.00     0.000 C 
BRANCH   3   4
ATOM      4  C   UNL     1      15.168 -59.478  -4.374  1.00  0.00     0.000 C 
BRANCH   4   5
ATOM      5  C   UNL     1      14.033 -58.597  -4.932  1.00  0.00     0.001 C 
BRANCH   5   6
ATOM      6  C   UNL     1      13.617 -57.436  -4.006  1.00  0.00     0.009 C 
BRANCH   6   7
ATOM      7  C   UNL     1      12.083 -57.252  -3.863  1.00  0.00     0.032 C 
ATOM      8  C   UNL     1      11.666 -55.777  -3.962  1.00  0.00     0.014 C 
BRANCH   7   9
ATOM      9  C   UNL     1      11.613 -57.800  -2.541  1.00  0.00     0.044 C 
ATOM     10  O   UNL     1      11.638 -57.077  -1.511  1.00  0.00    -0.550 OA
ATOM     11  O   UNL     1      11.157 -59.110  -2.448  1.00  0.00    -0.550 OA
ENDBRANCH   7   9
ENDBRANCH   6   7
ENDBRANCH   5   6
ENDBRANCH   4   5
ENDBRANCH   3   4
ENDBRANCH   2   3
ENDBRANCH   1   2
BRANCH   1  12
ATOM     12  C   UNL     1      19.124 -59.666  -2.957  1.00  0.00     0.000 C 
BRANCH  12  13
ATOM     13  C   UNL     1      18.989 -58.132  -2.952  1.00  0.00    -0.000 C 
BRANCH  13  14
ATOM     14  C   UNL     1      18.962 -57.536  -1.537  1.00  0.00    -0.000 C 
BRANCH  14  15
ATOM     15  C   UNL     1      17.673 -56.740  -1.300  1.00  0.00    -0.000 C 
BRANCH  15  16
ATOM     16  C   UNL     1      17.143 -56.148  -2.614  1.00  0.00    -0.000 C 
BRANCH  16  17
ATOM     17  C   UNL     1      17.510 -54.665  -2.794  1.00  0.00    -0.000 C 
BRANCH  17  18
ATOM     18  C   UNL     1      17.605 -54.193  -4.256  1.00  0.00    -0.003 C 
ATOM     19  C   UNL     1      17.702 -55.349  -5.251  1.00  0.00     0.004 C 
ENDBRANCH  17  18
ENDBRANCH  16  17
ENDBRANCH  15  16
ENDBRANCH  14  15
ENDBRANCH  13  14
ENDBRANCH  12  13
ENDBRANCH   1  12
TORSDOF 14
ENDMDL
MODEL 2
REMARK VINA RESULT:    13.303      4.185      7.604
REMARK INTER + INTRA:          23.328
REMARK INTER:                  23.986
REMARK INTRA:                  -0.658
REMARK UNBOUND:                -0.863
REMARK SMILES CCCCCCCCCCCCCC[C@H](C)C(=O)[O-]
REMARK SMILES IDX 9 1 10 2 11 3 12 4 13 5 14 6 15 7 16 8 17 9 18 10 19 11 8 12
REMARK SMILES IDX 7 13 6 14 5 15 4 16 3 17 2 18 1 19
REMARK H PARENT
REMARK Flexibility Score: inf
ROOT
ATOM      1  C   UNL     1      11.846 -55.571  -3.756  1.00  0.00     0.000 C 
ENDROOT
BRANCH   1   2
ATOM      2  C   UNL     1      11.423 -57.032  -3.529  1.00  0.00     0.000 C 
BRANCH   2   3
ATOM      3  C   UNL     1      12.592 -57.922  -3.075  1.00  0.00     0.000 C 
BRANCH   3   4
ATOM      4  C   UNL     1      13.863 -57.716  -3.919  1.00  0.00     0.000 C 
BRANCH   4   5
ATOM      5  C   UNL     1      15.025 -58.613  -3.450  1.00  0.00     0.001 C 
BRANCH   5   6
ATOM      6  C   UNL     1      16.408 -57.934  -3.495  1.00  0.00     0.009 C 
BRANCH   6   7
ATOM      7  C   UNL     1      16.598 -56.799  -2.454  1.00  0.00     0.032 C 
ATOM      8  C   UNL     1      16.898 -55.449  -3.119  1.00  0.00     0.014 C 
BRANCH   7   9
ATOM      9  C   UNL     1      17.724 -57.137  -1.513  1.00  0.00     0.044 C 
ATOM     10  O   UNL     1      17.583 -56.975  -0.272  1.00  0.00    -0.550 OA
ATOM     11  O   UNL     1      18.930 -57.620  -2.008  1.00  0.00    -0.550 OA
ENDBRANCH   7   9
ENDBRANCH   6   7
ENDBRANCH   5   6
ENDBRANCH   4   5
ENDBRANCH   3   4
ENDBRANCH   2   3
ENDBRANCH   1   2
BRANCH   1  12
ATOM     12  C   UNL     1      10.781 -54.747  -4.502  1.00  0.00     0.000 C 
BRANCH  12  13
ATOM     13  C   UNL     1      10.439 -53.387  -3.867  1.00  0.00    -0.000 C 
BRANCH  13  14
ATOM     14  C   UNL     1       8.928 -53.152  -3.726  1.00  0.00    -0.000 C 
BRANCH  14  15
ATOM     15  C   UNL     1       8.635 -52.055  -2.695  1.00  0.00    -0.000 C 
BRANCH  15  16
ATOM     16  C   UNL     1       9.166 -50.696  -3.172  1.00  0.00    -0.000 C 
BRANCH  16  17
ATOM     17  C   UNL     1       9.367 -49.694  -2.021  1.00  0.00    -0.000 C 
BRANCH  17  18
ATOM     18  C   UNL     1      10.256 -48.485  -2.361  1.00  0.00    -0.003 C 
ATOM     19  C   UNL     1      11.748 -48.815  -2.335  1.00  0.00     0.004 C 
ENDBRANCH  17  18
ENDBRANCH  16  17
ENDBRANCH  15  16
ENDBRANCH  14  15
ENDBRANCH  13  14
ENDBRANCH  12  13
ENDBRANCH   1  12
TORSDOF 14
ENDMDL
MODEL 3
REMARK VINA RESULT:    13.382      2.001      5.420
REMARK INTER + INTRA:          23.472
REMARK INTER:                  24.723
REMARK INTRA:                  -1.251
REMARK UNBOUND:                -0.863
REMARK SMILES CCCCCCCCCCCCCC[C@H](C)C(=O)[O-]
REMARK SMILES IDX 9 1 10 2 11 3 12 4 13 5 14 6 15 7 16 8 17 9 18 10 19 11 8 12
REMARK SMILES IDX 7 13 6 14 5 15 4 16 3 17 2 18 1 19
REMARK H PARENT
REMARK Flexibility Score: inf
ROOT
ATOM      1  C   UNL     1      15.341 -59.983  -3.010  1.00  0.00     0.000 C 
ENDROOT
BRANCH   1   2
ATOM      2  C   UNL     1      16.737 -60.077  -2.372  1.00  0.00     0.000 C 
BRANCH   2   3
ATOM      3  C   UNL     1      17.821 -60.496  -3.378  1.00  0.00     0.000 C 
BRANCH   3   4
ATOM      4  C   UNL     1      19.120 -59.683  -3.230  1.00  0.00     0.000 C 
BRANCH   4   5
ATOM      5  C   UNL     1      19.037 -58.657  -2.084  1.00  0.00     0.001 C 
BRANCH   5   6
ATOM      6  C   UNL     1      19.062 -57.186  -2.546  1.00  0.00     0.009 C 
BRANCH   6   7
ATOM      7  C   UNL     1      18.110 -56.250  -1.754  1.00  0.00     0.032 C 
ATOM      8  C   UNL     1      17.408 -56.982  -0.602  1.00  0.00     0.014 C 
BRANCH   7   9
ATOM      9  C   UNL     1      17.063 -55.674  -2.671  1.00  0.00     0.044 C 
ATOM     10  O   UNL     1      17.350 -55.400  -3.866  1.00  0.00    -0.550 OA
ATOM     11  O   UNL     1      15.777 -55.433  -2.202  1.00  0.00    -0.550 OA
ENDBRANCH   7   9
ENDBRANCH   6   7
ENDBRANCH   5   6
ENDBRANCH   4   5
ENDBRANCH   3   4
ENDBRANCH   2   3
ENDBRANCH   1   2
BRANCH   1  12
ATOM     12  C   UNL     1      15.384 -59.542  -4.485  1.00  0.00     0.000 C 
BRANCH  12  13
ATOM     13  C   UNL     1      14.477 -58.349  -4.839  1.00  0.00    -0.000 C 
BRANCH  13  14
ATOM     14  C   UNL     1      13.774 -57.744  -3.615  1.00  0.00    -0.000 C 
BRANCH  14  15
ATOM     15  C   UNL     1      12.427 -58.430  -3.360  1.00  0.00    -0.000 C 
BRANCH  15  16
ATOM     16  C   UNL     1      11.338 -57.399  -3.032  1.00  0.00    -0.000 C 
BRANCH  16  17
ATOM     17  C   UNL     1      11.792 -55.949  -3.278  1.00  0.00    -0.000 C 
BRANCH  17  18
ATOM     18  C   UNL     1      11.066 -55.229  -4.428  1.00  0.00    -0.003 C 
ATOM     19  C   UNL     1      11.228 -53.710  -4.379  1.00  0.00     0.004 C 
ENDBRANCH  17  18
ENDBRANCH  16  17
ENDBRANCH  15  16
ENDBRANCH  14  15
ENDBRANCH  13  14
ENDBRANCH  12  13
ENDBRANCH   1  12
TORSDOF 14
ENDMDL
MODEL 4
REMARK VINA RESULT:    13.477      2.151      5.412
REMARK INTER + INTRA:          23.645
REMARK INTER:                  24.529
REMARK INTRA:                  -0.884
REMARK UNBOUND:                -0.863
REMARK SMILES CCCCCCCCCCCCCC[C@H](C)C(=O)[O-]
REMARK SMILES IDX 9 1 10 2 11 3 12 4 13 5 14 6 15 7 16 8 17 9 18 10 19 11 8 12
REMARK SMILES IDX 7 13 6 14 5 15 4 16 3 17 2 18 1 19
REMARK H PARENT
REMARK Flexibility Score: inf
ROOT
ATOM      1  C   UNL     1      15.304 -59.990  -3.393  1.00  0.00     0.000 C 
ENDROOT
BRANCH   1   2
ATOM      2  C   UNL     1      16.594 -59.948  -2.557  1.00  0.00     0.000 C 
BRANCH   2   3
ATOM      3  C   UNL     1      17.754 -60.706  -3.223  1.00  0.00     0.000 C 
BRANCH   3   4
ATOM      4  C   UNL     1      19.122 -60.045  -2.970  1.00  0.00     0.000 C 
BRANCH   4   5
ATOM      5  C   UNL     1      19.125 -58.550  -3.344  1.00  0.00     0.001 C 
BRANCH   5   6
ATOM      6  C   UNL     1      18.952 -57.596  -2.146  1.00  0.00     0.009 C 
BRANCH   6   7
ATOM      7  C   UNL     1      17.502 -57.082  -1.941  1.00  0.00     0.032 C 
ATOM      8  C   UNL     1      17.221 -55.807  -2.748  1.00  0.00     0.014 C 
BRANCH   7   9
ATOM      9  C   UNL     1      17.251 -56.798  -0.483  1.00  0.00     0.044 C 
ATOM     10  O   UNL     1      17.953 -57.356   0.401  1.00  0.00    -0.550 OA
ATOM     11  O   UNL     1      16.236 -55.926  -0.104  1.00  0.00    -0.550 OA
ENDBRANCH   7   9
ENDBRANCH   6   7
ENDBRANCH   5   6
ENDBRANCH   4   5
ENDBRANCH   3   4
ENDBRANCH   2   3
ENDBRANCH   1   2
BRANCH   1  12
ATOM     12  C   UNL     1      15.167 -58.789  -4.346  1.00  0.00     0.000 C 
BRANCH  12  13
ATOM     13  C   UNL     1      13.895 -57.943  -4.157  1.00  0.00    -0.000 C 
BRANCH  13  14
ATOM     14  C   UNL     1      13.033 -58.410  -2.974  1.00  0.00    -0.000 C 
BRANCH  14  15
ATOM     15  C   UNL     1      11.633 -57.787  -3.035  1.00  0.00    -0.000 C 
BRANCH  15  16
ATOM     16  C   UNL     1      11.552 -56.721  -4.137  1.00  0.00    -0.000 C 
BRANCH  16  17
ATOM     17  C   UNL     1      11.548 -55.285  -3.583  1.00  0.00    -0.000 C 
BRANCH  17  18
ATOM     18  C   UNL     1      11.074 -54.209  -4.576  1.00  0.00    -0.003 C 
ATOM     19  C   UNL     1      11.950 -52.957  -4.564  1.00  0.00     0.004 C 
ENDBRANCH  17  18
ENDBRANCH  16  17
ENDBRANCH  15  16
ENDBRANCH  14  15
ENDBRANCH  13  14
ENDBRANCH  12  13
ENDBRANCH   1  12
TORSDOF 14
ENDMDL
MODEL 5
REMARK VINA RESULT:    13.592      2.603      5.474
REMARK INTER + INTRA:          23.854
REMARK INTER:                  24.508
REMARK INTRA:                  -0.654
REMARK UNBOUND:                -0.863
REMARK SMILES CCCCCCCCCCCCCC[C@H](C)C(=O)[O-]
REMARK SMILES IDX 9 1 10 2 11 3 12 4 13 5 14 6 15 7 16 8 17 9 18 10 19 11 8 12
REMARK SMILES IDX 7 13 6 14 5 15 4 16 3 17 2 18 1 19
REMARK H PARENT
REMARK Flexibility Score: inf
ROOT
ATOM      1  C   UNL     1      16.746 -60.029  -2.732  1.00  0.00     0.000 C 
ENDROOT
BRANCH   1   2
ATOM      2  C   UNL     1      18.249 -60.177  -3.026  1.00  0.00     0.000 C 
BRANCH   2   3
ATOM      3  C   UNL     1      18.997 -58.835  -2.969  1.00  0.00     0.000 C 
BRANCH   3   4
ATOM      4  C   UNL     1      19.125 -58.283  -1.538  1.00  0.00     0.000 C 
BRANCH   4   5
ATOM      5  C   UNL     1      18.243 -57.038  -1.313  1.00  0.00     0.001 C 
BRANCH   5   6
ATOM      6  C   UNL     1      17.314 -56.697  -2.496  1.00  0.00     0.009 C 
BRANCH   6   7
ATOM      7  C   UNL     1      17.188 -55.179  -2.793  1.00  0.00     0.032 C 
ATOM      8  C   UNL     1      15.764 -54.660  -2.555  1.00  0.00     0.014 C 
BRANCH   7   9
ATOM      9  C   UNL     1      17.577 -54.893  -4.220  1.00  0.00     0.044 C 
ATOM     10  O   UNL     1      17.927 -55.833  -4.981  1.00  0.00    -0.550 OA
ATOM     11  O   UNL     1      17.559 -53.590  -4.703  1.00  0.00    -0.550 OA
ENDBRANCH   7   9
ENDBRANCH   6   7
ENDBRANCH   5   6
ENDBRANCH   4   5
ENDBRANCH   3   4
ENDBRANCH   2   3
ENDBRANCH   1   2
BRANCH   1  12
ATOM     12  C   UNL     1      16.048 -59.023  -3.666  1.00  0.00     0.000 C 
BRANCH  12  13
ATOM     13  C   UNL     1      14.527 -59.209  -3.810  1.00  0.00    -0.000 C 
BRANCH  13  14
ATOM     14  C   UNL     1      13.756 -57.880  -3.811  1.00  0.00    -0.000 C 
BRANCH  14  15
ATOM     15  C   UNL     1      12.420 -58.018  -3.072  1.00  0.00    -0.000 C 
BRANCH  15  16
ATOM     16  C   UNL     1      11.365 -57.072  -3.662  1.00  0.00    -0.000 C 
BRANCH  16  17
ATOM     17  C   UNL     1      11.727 -55.587  -3.487  1.00  0.00    -0.000 C 
BRANCH  17  18
ATOM     18  C   UNL     1      10.993 -54.624  -4.438  1.00  0.00    -0.003 C 
ATOM     19  C   UNL     1      11.717 -53.290  -4.614  1.00  0.00     0.004 C 
ENDBRANCH  17  18
ENDBRANCH  16  17
ENDBRANCH  15  16
ENDBRANCH  14  15
ENDBRANCH  13  14
ENDBRANCH  12  13
ENDBRANCH   1  12
TORSDOF 14
ENDMDL
MODEL 6
REMARK VINA RESULT:    13.617      2.532      5.378
REMARK INTER + INTRA:          23.899
REMARK INTER:                  22.665
REMARK INTRA:                   1.234
REMARK UNBOUND:                -0.863
REMARK SMILES CCCCCCCCCCCCCC[C@H](C)C(=O)[O-]
REMARK SMILES IDX 9 1 10 2 11 3 12 4 13 5 14 6 15 7 16 8 17 9 18 10 19 11 8 12
REMARK SMILES IDX 7 13 6 14 5 15 4 16 3 17 2 18 1 19
REMARK H PARENT
REMARK Flexibility Score: inf
ROOT
ATOM      1  C   UNL     1      18.889 -59.312  -3.005  1.00  0.00     0.000 C 
ENDROOT
BRANCH   1   2
ATOM      2  C   UNL     1      18.844 -58.208  -1.935  1.00  0.00     0.000 C 
BRANCH   2   3
ATOM      3  C   UNL     1      17.584 -58.285  -1.058  1.00  0.00     0.000 C 
BRANCH   3   4
ATOM      4  C   UNL     1      17.545 -57.196   0.029  1.00  0.00     0.000 C 
BRANCH   4   5
ATOM      5  C   UNL     1      18.161 -55.868  -0.454  1.00  0.00     0.001 C 
BRANCH   5   6
ATOM      6  C   UNL     1      18.307 -55.756  -1.985  1.00  0.00     0.009 C 
BRANCH   6   7
ATOM      7  C   UNL     1      17.220 -54.885  -2.669  1.00  0.00     0.032 C 
ATOM      8  C   UNL     1      15.806 -55.430  -2.426  1.00  0.00     0.014 C 
BRANCH   7   9
ATOM      9  C   UNL     1      17.465 -54.817  -4.154  1.00  0.00     0.044 C 
ATOM     10  O   UNL     1      17.325 -55.845  -4.866  1.00  0.00    -0.550 OA
ATOM     11  O   UNL     1      17.857 -53.621  -4.744  1.00  0.00    -0.550 OA
ENDBRANCH   7   9
ENDBRANCH   6   7
ENDBRANCH   5   6
ENDBRANCH   4   5
ENDBRANCH   3   4
ENDBRANCH   2   3
ENDBRANCH   1   2
BRANCH   1  12
ATOM     12  C   UNL     1      17.593 -60.141  -3.065  1.00  0.00     0.000 C 
BRANCH  12  13
ATOM     13  C   UNL     1      16.290 -59.334  -2.912  1.00  0.00    -0.000 C 
BRANCH  13  14
ATOM     14  C   UNL     1      15.158 -59.842  -3.818  1.00  0.00    -0.000 C 
BRANCH  14  15
ATOM     15  C   UNL     1      14.595 -58.707  -4.682  1.00  0.00    -0.000 C 
BRANCH  15  16
ATOM     16  C   UNL     1      13.872 -57.664  -3.817  1.00  0.00    -0.000 C 
BRANCH  16  17
ATOM     17  C   UNL     1      12.694 -58.257  -3.024  1.00  0.00    -0.000 C 
BRANCH  17  18
ATOM     18  C   UNL     1      11.363 -57.501  -3.180  1.00  0.00    -0.003 C 
ATOM     19  C   UNL     1      11.531 -56.115  -3.802  1.00  0.00     0.004 C 
ENDBRANCH  17  18
ENDBRANCH  16  17
ENDBRANCH  15  16
ENDBRANCH  14  15
ENDBRANCH  13  14
ENDBRANCH  12  13
ENDBRANCH   1  12
TORSDOF 14
ENDMDL
MODEL 7
REMARK VINA RESULT:    13.941      4.029      7.655
REMARK INTER + INTRA:          24.489
REMARK INTER:                  25.001
REMARK INTRA:                  -0.512
REMARK UNBOUND:                -0.863
REMARK SMILES CCCCCCCCCCCCCC[C@H](C)C(=O)[O-]
REMARK SMILES IDX 9 1 10 2 11 3 12 4 13 5 14 6 15 7 16 8 17 9 18 10 19 11 8 12
REMARK SMILES IDX 7 13 6 14 5 15 4 16 3 17 2 18 1 19
REMARK H PARENT
REMARK Flexibility Score: inf
ROOT
ATOM      1  C   UNL     1      11.317 -56.265  -4.133  1.00  0.00     0.000 C 
ENDROOT
BRANCH   1   2
ATOM      2  C   UNL     1      12.253 -56.978  -3.141  1.00  0.00     0.000 C 
BRANCH   2   3
ATOM      3  C   UNL     1      13.056 -58.112  -3.797  1.00  0.00     0.000 C 
BRANCH   3   4
ATOM      4  C   UNL     1      14.575 -57.865  -3.764  1.00  0.00     0.000 C 
BRANCH   4   5
ATOM      5  C   UNL     1      15.375 -59.173  -3.615  1.00  0.00     0.001 C 
BRANCH   5   6
ATOM      6  C   UNL     1      16.502 -59.111  -2.564  1.00  0.00     0.009 C 
BRANCH   6   7
ATOM      7  C   UNL     1      17.658 -58.141  -2.922  1.00  0.00     0.032 C 
ATOM      8  C   UNL     1      19.037 -58.780  -2.708  1.00  0.00     0.014 C 
BRANCH   7   9
ATOM      9  C   UNL     1      17.568 -56.891  -2.086  1.00  0.00     0.044 C 
ATOM     10  O   UNL     1      17.327 -55.781  -2.630  1.00  0.00    -0.550 OA
ATOM     11  O   UNL     1      17.760 -56.954  -0.710  1.00  0.00    -0.550 OA
ENDBRANCH   7   9
ENDBRANCH   6   7
ENDBRANCH   5   6
ENDBRANCH   4   5
ENDBRANCH   3   4
ENDBRANCH   2   3
ENDBRANCH   1   2
BRANCH   1  12
ATOM     12  C   UNL     1      11.248 -54.744  -3.905  1.00  0.00     0.000 C 
BRANCH  12  13
ATOM     13  C   UNL     1       9.990 -54.054  -4.463  1.00  0.00    -0.000 C 
BRANCH  13  14
ATOM     14  C   UNL     1       9.191 -53.301  -3.389  1.00  0.00    -0.000 C 
BRANCH  14  15
ATOM     15  C   UNL     1       9.581 -51.818  -3.352  1.00  0.00    -0.000 C 
BRANCH  15  16
ATOM     16  C   UNL     1       8.604 -51.014  -2.483  1.00  0.00    -0.000 C 
BRANCH  16  17
ATOM     17  C   UNL     1       8.968 -49.521  -2.397  1.00  0.00    -0.000 C 
BRANCH  17  18
ATOM     18  C   UNL     1      10.399 -49.229  -1.912  1.00  0.00    -0.003 C 
ATOM     19  C   UNL     1      11.211 -48.402  -2.909  1.00  0.00     0.004 C 
ENDBRANCH  17  18
ENDBRANCH  16  17
ENDBRANCH  15  16
ENDBRANCH  14  15
ENDBRANCH  13  14
ENDBRANCH  12  13
ENDBRANCH   1  12
TORSDOF 14
ENDMDL
MODEL 8
REMARK VINA RESULT:    14.226      0.972      1.455
REMARK INTER + INTRA:          25.007
REMARK INTER:                  25.303
REMARK INTRA:                  -0.296
REMARK UNBOUND:                -0.863
REMARK SMILES CCCCCCCCCCCCCC[C@H](C)C(=O)[O-]
REMARK SMILES IDX 9 1 10 2 11 3 12 4 13 5 14 6 15 7 16 8 17 9 18 10 19 11 8 12
REMARK SMILES IDX 7 13 6 14 5 15 4 16 3 17 2 18 1 19
REMARK H PARENT
REMARK Flexibility Score: inf
ROOT
ATOM      1  C   UNL     1      19.122 -59.485  -3.099  1.00  0.00     0.000 C 
ENDROOT
BRANCH   1   2
ATOM      2  C   UNL     1      17.878 -60.362  -3.320  1.00  0.00     0.000 C 
BRANCH   2   3
ATOM      3  C   UNL     1      16.638 -59.824  -2.589  1.00  0.00     0.000 C 
BRANCH   3   4
ATOM      4  C   UNL     1      15.417 -59.672  -3.514  1.00  0.00     0.000 C 
BRANCH   4   5
ATOM      5  C   UNL     1      15.018 -58.197  -3.715  1.00  0.00     0.001 C 
BRANCH   5   6
ATOM      6  C   UNL     1      13.619 -57.997  -4.332  1.00  0.00     0.009 C 
BRANCH   6   7
ATOM      7  C   UNL     1      12.680 -57.080  -3.505  1.00  0.00     0.032 C 
ATOM      8  C   UNL     1      13.400 -56.445  -2.307  1.00  0.00     0.014 C 
BRANCH   7   9
ATOM      9  C   UNL     1      11.497 -57.864  -2.999  1.00  0.00     0.044 C 
ATOM     10  O   UNL     1      11.664 -58.792  -2.164  1.00  0.00    -0.550 OA
ATOM     11  O   UNL     1      10.217 -57.575  -3.457  1.00  0.00    -0.550 OA
ENDBRANCH   7   9
ENDBRANCH   6   7
ENDBRANCH   5   6
ENDBRANCH   4   5
ENDBRANCH   3   4
ENDBRANCH   2   3
ENDBRANCH   1   2
BRANCH   1  12
ATOM     12  C   UNL     1      18.773 -58.027  -2.749  1.00  0.00     0.000 C 
BRANCH  12  13
ATOM     13  C   UNL     1      18.977 -57.640  -1.273  1.00  0.00    -0.000 C 
BRANCH  13  14
ATOM     14  C   UNL     1      17.657 -57.402  -0.526  1.00  0.00    -0.000 C 
BRANCH  14  15
ATOM     15  C   UNL     1      17.321 -55.907  -0.465  1.00  0.00    -0.000 C 
BRANCH  15  16
ATOM     16  C   UNL     1      16.352 -55.515  -1.590  1.00  0.00    -0.000 C 
BRANCH  16  17
ATOM     17  C   UNL     1      16.906 -55.824  -2.993  1.00  0.00    -0.000 C 
BRANCH  17  18
ATOM     18  C   UNL     1      17.328 -54.590  -3.809  1.00  0.00    -0.003 C 
ATOM     19  C   UNL     1      17.776 -54.937  -5.228  1.00  0.00     0.004 C 
ENDBRANCH  17  18
ENDBRANCH  16  17
ENDBRANCH  15  16
ENDBRANCH  14  15
ENDBRANCH  13  14
ENDBRANCH  12  13
ENDBRANCH   1  12
TORSDOF 14
ENDMDL
MODEL 9
REMARK VINA RESULT:    14.609      2.996      6.819
REMARK INTER + INTRA:          25.702
REMARK INTER:                  26.513
REMARK INTRA:                  -0.811
REMARK UNBOUND:                -0.863
REMARK SMILES CCCCCCCCCCCCCC[C@H](C)C(=O)[O-]
REMARK SMILES IDX 9 1 10 2 11 3 12 4 13 5 14 6 15 7 16 8 17 9 18 10 19 11 8 12
REMARK SMILES IDX 7 13 6 14 5 15 4 16 3 17 2 18 1 19
REMARK H PARENT
REMARK Flexibility Score: inf
ROOT
ATOM      1  C   UNL     1      13.478 -57.387  -3.786  1.00  0.00     0.000 C 
ENDROOT
BRANCH   1   2
ATOM      2  C   UNL     1      14.183 -58.719  -4.093  1.00  0.00     0.000 C 
BRANCH   2   3
ATOM      3  C   UNL     1      15.695 -58.664  -3.821  1.00  0.00     0.000 C 
BRANCH   3   4
ATOM      4  C   UNL     1      16.140 -59.644  -2.720  1.00  0.00     0.000 C 
BRANCH   4   5
ATOM      5  C   UNL     1      17.510 -59.268  -2.124  1.00  0.00     0.001 C 
BRANCH   5   6
ATOM      6  C   UNL     1      18.192 -58.067  -2.811  1.00  0.00     0.009 C 
BRANCH   6   7
ATOM      7  C   UNL     1      18.074 -56.732  -2.029  1.00  0.00     0.032 C 
ATOM      8  C   UNL     1      17.572 -56.944  -0.594  1.00  0.00     0.014 C 
BRANCH   7   9
ATOM      9  C   UNL     1      17.131 -55.794  -2.738  1.00  0.00     0.044 C 
ATOM     10  O   UNL     1      16.016 -55.511  -2.226  1.00  0.00    -0.550 OA
ATOM     11  O   UNL     1      17.482 -55.244  -3.965  1.00  0.00    -0.550 OA
ENDBRANCH   7   9
ENDBRANCH   6   7
ENDBRANCH   5   6
ENDBRANCH   4   5
ENDBRANCH   3   4
ENDBRANCH   2   3
ENDBRANCH   1   2
BRANCH   1  12
ATOM     12  C   UNL     1      12.011 -57.570  -3.355  1.00  0.00     0.000 C 
BRANCH  12  13
ATOM     13  C   UNL     1      11.216 -56.265  -3.165  1.00  0.00    -0.000 C 
BRANCH  13  14
ATOM     14  C   UNL     1      11.221 -55.371  -4.414  1.00  0.00    -0.000 C 
BRANCH  14  15
ATOM     15  C   UNL     1      10.832 -53.930  -4.060  1.00  0.00    -0.000 C 
BRANCH  15  16
ATOM     16  C   UNL     1       9.307 -53.752  -4.080  1.00  0.00    -0.000 C 
BRANCH  16  17
ATOM     17  C   UNL     1       8.794 -52.846  -2.947  1.00  0.00    -0.000 C 
BRANCH  17  18
ATOM     18  C   UNL     1       8.501 -51.393  -3.361  1.00  0.00    -0.003 C 
ATOM     19  C   UNL     1       9.353 -50.373  -2.605  1.00  0.00     0.004 C 
ENDBRANCH  17  18
ENDBRANCH  16  17
ENDBRANCH  15  16
ENDBRANCH  14  15
ENDBRANCH  13  14
ENDBRANCH  12  13
ENDBRANCH   1  12
TORSDOF 14
ENDMDL
