MODEL 1
REMARK VINA RESULT:    -3.627      0.000      0.000
REMARK INTER + INTRA:          -6.033
REMARK INTER:                  -5.535
REMARK INTRA:                  -0.498
REMARK UNBOUND:                -0.498
REMARK SMILES CCCCCCCCCCC(=O)[O-]
REMARK SMILES IDX 7 1 8 2 9 3 10 4 11 5 12 6 13 7 6 8 5 9 4 10 3 11 2 12 1 13
REMARK H PARENT
REMARK Flexibility Score: inf
ROOT
ATOM      1  C   UNL     1      47.404  47.316  41.839  1.00  0.00     0.000 C 
ENDROOT
BRANCH   1   2
ATOM      2  C   UNL     1      46.397  46.169  41.659  1.00  0.00     0.000 C 
BRANCH   2   3
ATOM      3  C   UNL     1      44.964  46.677  41.423  1.00  0.00     0.006 C 
BRANCH   3   4
ATOM      4  C   UNL     1      44.911  48.201  41.251  1.00  0.00     0.053 C 
BRANCH   4   5
ATOM      5  C   UNL     1      43.748  48.799  41.981  1.00  0.00     0.041 C 
ATOM      6  O   UNL     1      43.917  49.794  42.736  1.00  0.00    -0.550 OA
ATOM      7  O   UNL     1      42.484  48.239  41.853  1.00  0.00    -0.550 OA
ENDBRANCH   4   5
ENDBRANCH   3   4
ENDBRANCH   2   3
ENDBRANCH   1   2
BRANCH   1   8
ATOM      8  C   UNL     1      48.311  47.119  43.067  1.00  0.00     0.000 C 
BRANCH   8   9
ATOM      9  C   UNL     1      48.814  45.666  43.195  1.00  0.00    -0.000 C 
BRANCH   9  10
ATOM     10  C   UNL     1      50.346  45.547  43.299  1.00  0.00    -0.000 C 
BRANCH  10  11
ATOM     11  C   UNL     1      51.040  46.731  43.995  1.00  0.00    -0.000 C 
BRANCH  11  12
ATOM     12  C   UNL     1      51.681  46.338  45.335  1.00  0.00    -0.003 C 
ATOM     13  C   UNL     1      51.190  47.243  46.461  1.00  0.00     0.004 C 
ENDBRANCH  11  12
ENDBRANCH  10  11
ENDBRANCH   9  10
ENDBRANCH   8   9
ENDBRANCH   1   8
TORSDOF 9
ENDMDL
MODEL 2
REMARK VINA RESULT:    -3.574      3.323      6.925
REMARK INTER + INTRA:          -5.952
REMARK INTER:                  -5.565
REMARK INTRA:                  -0.387
REMARK UNBOUND:                -0.498
REMARK SMILES CCCCCCCCCCC(=O)[O-]
REMARK SMILES IDX 7 1 8 2 9 3 10 4 11 5 12 6 13 7 6 8 5 9 4 10 3 11 2 12 1 13
REMARK H PARENT
REMARK Flexibility Score: inf
ROOT
ATOM      1  C   UNL     1      48.288  47.122  42.989  1.00  0.00     0.000 C 
ENDROOT
BRANCH   1   2
ATOM      2  C   UNL     1      49.466  46.136  43.032  1.00  0.00     0.000 C 
BRANCH   2   3
ATOM      3  C   UNL     1      50.769  46.798  43.513  1.00  0.00     0.006 C 
BRANCH   3   4
ATOM      4  C   UNL     1      51.318  46.138  44.784  1.00  0.00     0.053 C 
BRANCH   4   5
ATOM      5  C   UNL     1      50.889  46.871  46.017  1.00  0.00     0.041 C 
ATOM      6  O   UNL     1      49.667  46.945  46.319  1.00  0.00    -0.550 OA
ATOM      7  O   UNL     1      51.834  47.502  46.817  1.00  0.00    -0.550 OA
ENDBRANCH   4   5
ENDBRANCH   3   4
ENDBRANCH   2   3
ENDBRANCH   1   2
BRANCH   1   8
ATOM      8  C   UNL     1      47.574  47.131  41.626  1.00  0.00     0.000 C 
BRANCH   8   9
ATOM      9  C   UNL     1      46.279  46.292  41.639  1.00  0.00    -0.000 C 
BRANCH   9  10
ATOM     10  C   UNL     1      45.026  47.077  41.204  1.00  0.00    -0.000 C 
BRANCH  10  11
ATOM     11  C   UNL     1      44.987  48.542  41.675  1.00  0.00    -0.000 C 
BRANCH  11  12
ATOM     12  C   UNL     1      43.556  49.082  41.812  1.00  0.00    -0.003 C 
ATOM     13  C   UNL     1      42.532  47.959  41.670  1.00  0.00     0.004 C 
ENDBRANCH  11  12
ENDBRANCH  10  11
ENDBRANCH   9  10
ENDBRANCH   8   9
ENDBRANCH   1   8
TORSDOF 9
ENDMDL
MODEL 3
REMARK VINA RESULT:    -3.346      2.578      3.876
REMARK INTER + INTRA:          -5.604
REMARK INTER:                  -4.809
REMARK INTRA:                  -0.795
REMARK UNBOUND:                -0.498
REMARK SMILES CCCCCCCCCCC(=O)[O-]
REMARK SMILES IDX 7 1 8 2 9 3 10 4 11 5 12 6 13 7 6 8 5 9 4 10 3 11 2 12 1 13
REMARK H PARENT
REMARK Flexibility Score: inf
ROOT
ATOM      1  C   UNL     1      52.175  47.575  41.570  1.00  0.00     0.000 C 
ENDROOT
BRANCH   1   2
ATOM      2  C   UNL     1      50.802  47.015  41.164  1.00  0.00     0.000 C 
BRANCH   2   3
ATOM      3  C   UNL     1      49.638  47.794  41.798  1.00  0.00     0.006 C 
BRANCH   3   4
ATOM      4  C   UNL     1      48.332  47.627  41.011  1.00  0.00     0.053 C 
BRANCH   4   5
ATOM      5  C   UNL     1      47.318  46.839  41.782  1.00  0.00     0.041 C 
ATOM      6  O   UNL     1      47.645  45.756  42.337  1.00  0.00    -0.550 OA
ATOM      7  O   UNL     1      46.005  47.283  41.860  1.00  0.00    -0.550 OA
ENDBRANCH   4   5
ENDBRANCH   3   4
ENDBRANCH   2   3
ENDBRANCH   1   2
BRANCH   1   8
ATOM      8  C   UNL     1      53.276  46.500  41.569  1.00  0.00     0.000 C 
BRANCH   8   9
ATOM      9  C   UNL     1      52.956  45.335  42.529  1.00  0.00    -0.000 C 
BRANCH   9  10
ATOM     10  C   UNL     1      53.087  45.704  44.018  1.00  0.00    -0.000 C 
BRANCH  10  11
ATOM     11  C   UNL     1      51.797  45.537  44.841  1.00  0.00    -0.000 C 
BRANCH  11  12
ATOM     12  C   UNL     1      51.113  46.877  45.149  1.00  0.00    -0.003 C 
ATOM     13  C   UNL     1      51.266  47.243  46.623  1.00  0.00     0.004 C 
ENDBRANCH  11  12
ENDBRANCH  10  11
ENDBRANCH   9  10
ENDBRANCH   8   9
ENDBRANCH   1   8
TORSDOF 9
ENDMDL
MODEL 4
REMARK VINA RESULT:    -3.296      1.963      3.386
REMARK INTER + INTRA:          -5.527
REMARK INTER:                  -4.622
REMARK INTRA:                  -0.905
REMARK UNBOUND:                -0.498
REMARK SMILES CCCCCCCCCCC(=O)[O-]
REMARK SMILES IDX 7 1 8 2 9 3 10 4 11 5 12 6 13 7 6 8 5 9 4 10 3 11 2 12 1 13
REMARK H PARENT
REMARK Flexibility Score: inf
ROOT
ATOM      1  C   UNL     1      49.468  46.709  44.204  1.00  0.00     0.000 C 
ENDROOT
BRANCH   1   2
ATOM      2  C   UNL     1      48.909  45.425  43.573  1.00  0.00     0.000 C 
BRANCH   2   3
ATOM      3  C   UNL     1      48.140  45.698  42.268  1.00  0.00     0.006 C 
BRANCH   3   4
ATOM      4  C   UNL     1      47.559  47.117  42.225  1.00  0.00     0.053 C 
BRANCH   4   5
ATOM      5  C   UNL     1      46.216  47.145  41.563  1.00  0.00     0.041 C 
ATOM      6  O   UNL     1      45.507  46.104  41.523  1.00  0.00    -0.550 OA
ATOM      7  O   UNL     1      45.761  48.311  40.961  1.00  0.00    -0.550 OA
ENDBRANCH   4   5
ENDBRANCH   3   4
ENDBRANCH   2   3
ENDBRANCH   1   2
BRANCH   1   8
ATOM      8  C   UNL     1      50.127  46.459  45.572  1.00  0.00     0.000 C 
BRANCH   8   9
ATOM      9  C   UNL     1      51.667  46.518  45.499  1.00  0.00    -0.000 C 
BRANCH   9  10
ATOM     10  C   UNL     1      52.295  45.366  44.692  1.00  0.00    -0.000 C 
BRANCH  10  11
ATOM     11  C   UNL     1      53.216  45.810  43.542  1.00  0.00    -0.000 C 
BRANCH  11  12
ATOM     12  C   UNL     1      52.501  45.827  42.183  1.00  0.00    -0.003 C 
ATOM     13  C   UNL     1      52.111  47.250  41.790  1.00  0.00     0.004 C 
ENDBRANCH  11  12
ENDBRANCH  10  11
ENDBRANCH   9  10
ENDBRANCH   8   9
ENDBRANCH   1   8
TORSDOF 9
ENDMDL
MODEL 5
REMARK VINA RESULT:    -3.284     21.236     23.013
REMARK INTER + INTRA:          -5.510
REMARK INTER:                  -4.997
REMARK INTRA:                  -0.513
REMARK UNBOUND:                -0.498
REMARK SMILES CCCCCCCCCCC(=O)[O-]
REMARK SMILES IDX 7 1 8 2 9 3 10 4 11 5 12 6 13 7 6 8 5 9 4 10 3 11 2 12 1 13
REMARK H PARENT
REMARK Flexibility Score: inf
ROOT
ATOM      1  C   UNL     1      46.476  63.583  59.288  1.00  0.00     0.000 C 
ENDROOT
BRANCH   1   2
ATOM      2  C   UNL     1      45.354  64.631  59.344  1.00  0.00     0.000 C 
BRANCH   2   3
ATOM      3  C   UNL     1      44.626  64.785  57.997  1.00  0.00     0.006 C 
BRANCH   3   4
ATOM      4  C   UNL     1      45.042  63.707  56.988  1.00  0.00     0.053 C 
BRANCH   4   5
ATOM      5  C   UNL     1      43.986  63.483  55.951  1.00  0.00     0.041 C 
ATOM      6  O   UNL     1      42.780  63.748  56.205  1.00  0.00    -0.550 OA
ATOM      7  O   UNL     1      44.326  62.950  54.714  1.00  0.00    -0.550 OA
ENDBRANCH   4   5
ENDBRANCH   3   4
ENDBRANCH   2   3
ENDBRANCH   1   2
BRANCH   1   8
ATOM      8  C   UNL     1      46.735  62.919  60.652  1.00  0.00     0.000 C 
BRANCH   8   9
ATOM      9  C   UNL     1      48.218  62.998  61.069  1.00  0.00    -0.000 C 
BRANCH   9  10
ATOM     10  C   UNL     1      48.771  64.434  61.125  1.00  0.00    -0.000 C 
BRANCH  10  11
ATOM     11  C   UNL     1      50.248  64.574  60.717  1.00  0.00    -0.000 C 
BRANCH  11  12
ATOM     12  C   UNL     1      50.678  63.529  59.677  1.00  0.00    -0.003 C 
ATOM     13  C   UNL     1      51.944  63.971  58.949  1.00  0.00     0.004 C 
ENDBRANCH  11  12
ENDBRANCH  10  11
ENDBRANCH   9  10
ENDBRANCH   8   9
ENDBRANCH   1   8
TORSDOF 9
ENDMDL
MODEL 6
REMARK VINA RESULT:    -3.283      1.305      2.151
REMARK INTER + INTRA:          -5.508
REMARK INTER:                  -4.972
REMARK INTRA:                  -0.536
REMARK UNBOUND:                -0.498
REMARK SMILES CCCCCCCCCCC(=O)[O-]
REMARK SMILES IDX 7 1 8 2 9 3 10 4 11 5 12 6 13 7 6 8 5 9 4 10 3 11 2 12 1 13
REMARK H PARENT
REMARK Flexibility Score: inf
ROOT
ATOM      1  C   UNL     1      49.452  47.377  42.474  1.00  0.00     0.000 C 
ENDROOT
BRANCH   1   2
ATOM      2  C   UNL     1      48.303  47.366  41.453  1.00  0.00     0.000 C 
BRANCH   2   3
ATOM      3  C   UNL     1      46.941  47.070  42.104  1.00  0.00     0.006 C 
BRANCH   3   4
ATOM      4  C   UNL     1      45.800  47.061  41.079  1.00  0.00     0.053 C 
BRANCH   4   5
ATOM      5  C   UNL     1      44.509  47.517  41.685  1.00  0.00     0.041 C 
ATOM      6  O   UNL     1      43.573  46.696  41.878  1.00  0.00    -0.550 OA
ATOM      7  O   UNL     1      44.326  48.857  42.005  1.00  0.00    -0.550 OA
ENDBRANCH   4   5
ENDBRANCH   3   4
ENDBRANCH   2   3
ENDBRANCH   1   2
BRANCH   1   8
ATOM      8  C   UNL     1      50.519  46.309  42.176  1.00  0.00     0.000 C 
BRANCH   8   9
ATOM      9  C   UNL     1      51.943  46.793  42.522  1.00  0.00    -0.000 C 
BRANCH   9  10
ATOM     10  C   UNL     1      52.665  45.907  43.555  1.00  0.00    -0.000 C 
BRANCH  10  11
ATOM     11  C   UNL     1      51.841  45.576  44.811  1.00  0.00    -0.000 C 
BRANCH  11  12
ATOM     12  C   UNL     1      51.795  46.739  45.813  1.00  0.00    -0.003 C 
ATOM     13  C   UNL     1      50.363  47.017  46.262  1.00  0.00     0.004 C 
ENDBRANCH  11  12
ENDBRANCH  10  11
ENDBRANCH   9  10
ENDBRANCH   8   9
ENDBRANCH   1   8
TORSDOF 9
ENDMDL
MODEL 7
REMARK VINA RESULT:    -3.257     13.338     15.251
REMARK INTER + INTRA:          -5.468
REMARK INTER:                  -4.449
REMARK INTRA:                  -1.020
REMARK UNBOUND:                -0.498
REMARK SMILES CCCCCCCCCCC(=O)[O-]
REMARK SMILES IDX 7 1 8 2 9 3 10 4 11 5 12 6 13 7 6 8 5 9 4 10 3 11 2 12 1 13
REMARK H PARENT
REMARK Flexibility Score: inf
ROOT
ATOM      1  C   UNL     1      49.592  46.349  56.041  1.00  0.00     0.000 C 
ENDROOT
BRANCH   1   2
ATOM      2  C   UNL     1      48.728  46.281  57.310  1.00  0.00     0.000 C 
BRANCH   2   3
ATOM      3  C   UNL     1      48.774  44.896  57.979  1.00  0.00     0.006 C 
BRANCH   3   4
ATOM      4  C   UNL     1      48.940  44.995  59.501  1.00  0.00     0.053 C 
BRANCH   4   5
ATOM      5  C   UNL     1      47.785  45.703  60.138  1.00  0.00     0.041 C 
ATOM      6  O   UNL     1      47.954  46.825  60.688  1.00  0.00    -0.550 OA
ATOM      7  O   UNL     1      46.529  45.111  60.155  1.00  0.00    -0.550 OA
ENDBRANCH   4   5
ENDBRANCH   3   4
ENDBRANCH   2   3
ENDBRANCH   1   2
BRANCH   1   8
ATOM      8  C   UNL     1      49.728  44.984  55.343  1.00  0.00     0.000 C 
BRANCH   8   9
ATOM      9  C   UNL     1      50.814  44.994  54.246  1.00  0.00    -0.000 C 
BRANCH   9  10
ATOM     10  C   UNL     1      52.138  45.644  54.691  1.00  0.00    -0.000 C 
BRANCH  10  11
ATOM     11  C   UNL     1      52.894  44.882  55.793  1.00  0.00    -0.000 C 
BRANCH  11  12
ATOM     12  C   UNL     1      53.025  45.691  57.091  1.00  0.00    -0.003 C 
ATOM     13  C   UNL     1      52.531  44.885  58.289  1.00  0.00     0.004 C 
ENDBRANCH  11  12
ENDBRANCH  10  11
ENDBRANCH   9  10
ENDBRANCH   8   9
ENDBRANCH   1   8
TORSDOF 9
ENDMDL
MODEL 8
REMARK VINA RESULT:    -3.096      4.471      7.759
REMARK INTER + INTRA:          -5.223
REMARK INTER:                  -5.026
REMARK INTRA:                  -0.196
REMARK UNBOUND:                -0.498
REMARK SMILES CCCCCCCCCCC(=O)[O-]
REMARK SMILES IDX 7 1 8 2 9 3 10 4 11 5 12 6 13 7 6 8 5 9 4 10 3 11 2 12 1 13
REMARK H PARENT
REMARK Flexibility Score: inf
ROOT
ATOM      1  C   UNL     1      48.908  47.102  42.980  1.00  0.00     0.000 C 
ENDROOT
BRANCH   1   2
ATOM      2  C   UNL     1      50.238  46.417  42.630  1.00  0.00     0.000 C 
BRANCH   2   3
ATOM      3  C   UNL     1      51.326  46.671  43.688  1.00  0.00     0.006 C 
BRANCH   3   4
ATOM      4  C   UNL     1      52.281  45.479  43.833  1.00  0.00     0.053 C 
BRANCH   4   5
ATOM      5  C   UNL     1      53.558  45.700  43.082  1.00  0.00     0.041 C 
ATOM      6  O   UNL     1      54.573  44.998  43.336  1.00  0.00    -0.550 OA
ATOM      7  O   UNL     1      53.638  46.703  42.125  1.00  0.00    -0.550 OA
ENDBRANCH   4   5
ENDBRANCH   3   4
ENDBRANCH   2   3
ENDBRANCH   1   2
BRANCH   1   8
ATOM      8  C   UNL     1      47.703  46.446  42.282  1.00  0.00     0.000 C 
BRANCH   8   9
ATOM      9  C   UNL     1      46.965  47.426  41.346  1.00  0.00    -0.000 C 
BRANCH   9  10
ATOM     10  C   UNL     1      45.443  47.477  41.576  1.00  0.00    -0.000 C 
BRANCH  10  11
ATOM     11  C   UNL     1      44.797  48.850  41.323  1.00  0.00    -0.000 C 
BRANCH  11  12
ATOM     12  C   UNL     1      43.486  49.041  42.099  1.00  0.00    -0.003 C 
ATOM     13  C   UNL     1      42.425  48.047  41.632  1.00  0.00     0.004 C 
ENDBRANCH  11  12
ENDBRANCH  10  11
ENDBRANCH   9  10
ENDBRANCH   8   9
ENDBRANCH   1   8
TORSDOF 9
ENDMDL
