MODEL 1
REMARK VINA RESULT:    -3.708      0.000      0.000
REMARK INTER + INTRA:          -5.977
REMARK INTER:                  -5.659
REMARK INTRA:                  -0.318
REMARK UNBOUND:                -0.318
REMARK SMILES O=C([O-])CCCCCCCCC(=O)[O-]
REMARK SMILES IDX 7 1 6 2 5 3 4 4 2 5 1 6 3 7 8 8 9 9 10 10 11 11 12 12 13 13
REMARK SMILES IDX 14 14
REMARK H PARENT
REMARK Flexibility Score: inf
ROOT
ATOM      1  C   UNL     1      42.919  21.475  78.692  1.00  0.00     0.000 C 
ENDROOT
BRANCH   1   2
ATOM      2  C   UNL     1      44.209  21.000  78.000  1.00  0.00     0.000 C 
BRANCH   2   3
ATOM      3  C   UNL     1      44.590  19.554  78.370  1.00  0.00     0.006 C 
BRANCH   3   4
ATOM      4  C   UNL     1      45.962  19.112  77.832  1.00  0.00     0.053 C 
BRANCH   4   5
ATOM      5  C   UNL     1      45.854  18.131  76.705  1.00  0.00     0.041 C 
ATOM      6  O   UNL     1      45.987  18.517  75.513  1.00  0.00    -0.550 OA
ATOM      7  O   UNL     1      45.617  16.789  76.972  1.00  0.00    -0.550 OA
ENDBRANCH   4   5
ENDBRANCH   3   4
ENDBRANCH   2   3
ENDBRANCH   1   2
BRANCH   1   8
ATOM      8  C   UNL     1      42.187  20.336  79.420  1.00  0.00     0.000 C 
BRANCH   8   9
ATOM      9  C   UNL     1      40.724  20.189  78.972  1.00  0.00     0.000 C 
BRANCH   9  10
ATOM     10  C   UNL     1      39.877  19.533  80.070  1.00  0.00     0.006 C 
BRANCH  10  11
ATOM     11  C   UNL     1      38.580  20.315  80.304  1.00  0.00     0.053 C 
BRANCH  11  12
ATOM     12  C   UNL     1      37.494  19.398  80.772  1.00  0.00     0.041 C 
ATOM     13  O   UNL     1      36.693  19.771  81.668  1.00  0.00    -0.550 OA
ATOM     14  O   UNL     1      37.337  18.149  80.185  1.00  0.00    -0.550 OA
ENDBRANCH  11  12
ENDBRANCH  10  11
ENDBRANCH   9  10
ENDBRANCH   8   9
ENDBRANCH   1   8
TORSDOF 9
ENDMDL
MODEL 2
REMARK VINA RESULT:    -3.597      0.829      7.161
REMARK INTER + INTRA:          -5.808
REMARK INTER:                  -5.356
REMARK INTRA:                  -0.452
REMARK UNBOUND:                -0.318
REMARK SMILES O=C([O-])CCCCCCCCC(=O)[O-]
REMARK SMILES IDX 7 1 6 2 5 3 4 4 2 5 1 6 3 7 8 8 9 9 10 10 11 11 12 12 13 13
REMARK SMILES IDX 14 14
REMARK H PARENT
REMARK Flexibility Score: inf
ROOT
ATOM      1  C   UNL     1      42.271  20.754  79.806  1.00  0.00     0.000 C 
ENDROOT
BRANCH   1   2
ATOM      2  C   UNL     1      41.231  21.020  78.704  1.00  0.00     0.000 C 
BRANCH   2   3
ATOM      3  C   UNL     1      39.866  20.370  78.999  1.00  0.00     0.006 C 
BRANCH   3   4
ATOM      4  C   UNL     1      39.882  19.397  80.191  1.00  0.00     0.053 C 
BRANCH   4   5
ATOM      5  C   UNL     1      38.517  18.888  80.540  1.00  0.00     0.041 C 
ATOM      6  O   UNL     1      38.080  17.829  80.014  1.00  0.00    -0.550 OA
ATOM      7  O   UNL     1      37.731  19.577  81.456  1.00  0.00    -0.550 OA
ENDBRANCH   4   5
ENDBRANCH   3   4
ENDBRANCH   2   3
ENDBRANCH   1   2
BRANCH   1   8
ATOM      8  C   UNL     1      43.716  20.932  79.309  1.00  0.00     0.000 C 
BRANCH   8   9
ATOM      9  C   UNL     1      43.818  20.950  77.776  1.00  0.00     0.000 C 
BRANCH   9  10
ATOM     10  C   UNL     1      45.148  20.346  77.307  1.00  0.00     0.006 C 
BRANCH  10  11
ATOM     11  C   UNL     1      45.353  18.947  77.898  1.00  0.00     0.053 C 
BRANCH  11  12
ATOM     12  C   UNL     1      45.720  17.974  76.822  1.00  0.00     0.041 C 
ATOM     13  O   UNL     1      45.757  16.740  77.069  1.00  0.00    -0.550 OA
ATOM     14  O   UNL     1      45.975  18.425  75.533  1.00  0.00    -0.550 OA
ENDBRANCH  11  12
ENDBRANCH  10  11
ENDBRANCH   9  10
ENDBRANCH   8   9
ENDBRANCH   1   8
TORSDOF 9
ENDMDL
MODEL 3
REMARK VINA RESULT:    -3.464     17.120     17.961
REMARK INTER + INTRA:          -5.604
REMARK INTER:                  -5.230
REMARK INTRA:                  -0.374
REMARK UNBOUND:                -0.318
REMARK SMILES O=C([O-])CCCCCCCCC(=O)[O-]
REMARK SMILES IDX 7 1 6 2 5 3 4 4 2 5 1 6 3 7 8 8 9 9 10 10 11 11 12 12 13 13
REMARK SMILES IDX 14 14
REMARK H PARENT
REMARK Flexibility Score: inf
ROOT
ATOM      1  C   UNL     1      47.272  31.280  88.715  1.00  0.00     0.000 C 
ENDROOT
BRANCH   1   2
ATOM      2  C   UNL     1      47.818  32.700  88.481  1.00  0.00     0.000 C 
BRANCH   2   3
ATOM      3  C   UNL     1      48.392  32.895  87.065  1.00  0.00     0.006 C 
BRANCH   3   4
ATOM      4  C   UNL     1      48.549  34.368  86.651  1.00  0.00     0.053 C 
BRANCH   4   5
ATOM      5  C   UNL     1      49.705  35.039  87.328  1.00  0.00     0.041 C 
ATOM      6  O   UNL     1      49.518  36.063  88.039  1.00  0.00    -0.550 OA
ATOM      7  O   UNL     1      50.989  34.528  87.182  1.00  0.00    -0.550 OA
ENDBRANCH   4   5
ENDBRANCH   3   4
ENDBRANCH   2   3
ENDBRANCH   1   2
BRANCH   1   8
ATOM      8  C   UNL     1      47.874  30.615  89.964  1.00  0.00     0.000 C 
BRANCH   8   9
ATOM      9  C   UNL     1      46.813  30.259  91.017  1.00  0.00     0.000 C 
BRANCH   9  10
ATOM     10  C   UNL     1      45.828  31.417  91.216  1.00  0.00     0.006 C 
BRANCH  10  11
ATOM     11  C   UNL     1      44.406  30.895  91.447  1.00  0.00     0.053 C 
BRANCH  11  12
ATOM     12  C   UNL     1      44.116  30.797  92.912  1.00  0.00     0.041 C 
ATOM     13  O   UNL     1      43.942  31.840  93.594  1.00  0.00    -0.550 OA
ATOM     14  O   UNL     1      43.989  29.551  93.514  1.00  0.00    -0.550 OA
ENDBRANCH  11  12
ENDBRANCH  10  11
ENDBRANCH   9  10
ENDBRANCH   8   9
ENDBRANCH   1   8
TORSDOF 9
ENDMDL
MODEL 4
REMARK VINA RESULT:    -3.452     17.073     19.189
REMARK INTER + INTRA:          -5.586
REMARK INTER:                  -5.181
REMARK INTRA:                  -0.405
REMARK UNBOUND:                -0.318
REMARK SMILES O=C([O-])CCCCCCCCC(=O)[O-]
REMARK SMILES IDX 7 1 6 2 5 3 4 4 2 5 1 6 3 7 8 8 9 9 10 10 11 11 12 12 13 13
REMARK SMILES IDX 14 14
REMARK H PARENT
REMARK Flexibility Score: inf
ROOT
ATOM      1  C   UNL     1      48.116  31.075  89.771  1.00  0.00     0.000 C 
ENDROOT
BRANCH   1   2
ATOM      2  C   UNL     1      47.208  30.802  90.982  1.00  0.00     0.000 C 
BRANCH   2   3
ATOM      3  C   UNL     1      45.833  31.488  90.868  1.00  0.00     0.006 C 
BRANCH   3   4
ATOM      4  C   UNL     1      44.651  30.592  91.274  1.00  0.00     0.053 C 
BRANCH   4   5
ATOM      5  C   UNL     1      44.114  30.922  92.633  1.00  0.00     0.041 C 
ATOM      6  O   UNL     1      43.572  30.027  93.336  1.00  0.00    -0.550 OA
ATOM      7  O   UNL     1      44.224  32.215  93.129  1.00  0.00    -0.550 OA
ENDBRANCH   4   5
ENDBRANCH   3   4
ENDBRANCH   2   3
ENDBRANCH   1   2
BRANCH   1   8
ATOM      8  C   UNL     1      47.454  31.998  88.733  1.00  0.00     0.000 C 
BRANCH   8   9
ATOM      9  C   UNL     1      48.288  32.141  87.450  1.00  0.00     0.000 C 
BRANCH   9  10
ATOM     10  C   UNL     1      48.370  33.609  87.011  1.00  0.00     0.006 C 
BRANCH  10  11
ATOM     11  C   UNL     1      49.227  34.426  87.984  1.00  0.00     0.053 C 
BRANCH  11  12
ATOM     12  C   UNL     1      50.494  34.868  87.322  1.00  0.00     0.041 C 
ATOM     13  O   UNL     1      51.326  35.572  87.952  1.00  0.00    -0.550 OA
ATOM     14  O   UNL     1      50.778  34.462  86.024  1.00  0.00    -0.550 OA
ENDBRANCH  11  12
ENDBRANCH  10  11
ENDBRANCH   9  10
ENDBRANCH   8   9
ENDBRANCH   1   8
TORSDOF 9
ENDMDL
MODEL 5
REMARK VINA RESULT:    -3.429     18.115     19.301
REMARK INTER + INTRA:          -5.551
REMARK INTER:                  -4.837
REMARK INTRA:                  -0.714
REMARK UNBOUND:                -0.318
REMARK SMILES O=C([O-])CCCCCCCCC(=O)[O-]
REMARK SMILES IDX 7 1 6 2 5 3 4 4 2 5 1 6 3 7 8 8 9 9 10 10 11 11 12 12 13 13
REMARK SMILES IDX 14 14
REMARK H PARENT
REMARK Flexibility Score: inf
ROOT
ATOM      1  C   UNL     1      47.224  30.884  88.573  1.00  0.00     0.000 C 
ENDROOT
BRANCH   1   2
ATOM      2  C   UNL     1      47.506  32.384  88.762  1.00  0.00     0.000 C 
BRANCH   2   3
ATOM      3  C   UNL     1      48.229  33.014  87.556  1.00  0.00     0.006 C 
BRANCH   3   4
ATOM      4  C   UNL     1      49.661  33.488  87.863  1.00  0.00     0.053 C 
BRANCH   4   5
ATOM      5  C   UNL     1      49.792  34.980  87.851  1.00  0.00     0.041 C 
ATOM      6  O   UNL     1      48.768  35.706  87.741  1.00  0.00    -0.550 OA
ATOM      7  O   UNL     1      51.044  35.569  87.973  1.00  0.00    -0.550 OA
ENDBRANCH   4   5
ENDBRANCH   3   4
ENDBRANCH   2   3
ENDBRANCH   1   2
BRANCH   1   8
ATOM      8  C   UNL     1      47.317  30.096  89.890  1.00  0.00     0.000 C 
BRANCH   8   9
ATOM      9  C   UNL     1      48.033  30.879  91.001  1.00  0.00     0.000 C 
BRANCH   9  10
ATOM     10  C   UNL     1      49.415  30.279  91.291  1.00  0.00     0.006 C 
BRANCH  10  11
ATOM     11  C   UNL     1      50.519  31.324  91.094  1.00  0.00     0.053 C 
BRANCH  11  12
ATOM     12  C   UNL     1      51.187  31.631  92.398  1.00  0.00     0.041 C 
ATOM     13  O   UNL     1      52.400  31.344  92.571  1.00  0.00    -0.550 OA
ATOM     14  O   UNL     1      50.482  32.279  93.405  1.00  0.00    -0.550 OA
ENDBRANCH  11  12
ENDBRANCH  10  11
ENDBRANCH   9  10
ENDBRANCH   8   9
ENDBRANCH   1   8
TORSDOF 9
ENDMDL
MODEL 6
REMARK VINA RESULT:    -3.418     17.451     18.235
REMARK INTER + INTRA:          -5.534
REMARK INTER:                  -5.022
REMARK INTRA:                  -0.512
REMARK UNBOUND:                -0.318
REMARK SMILES O=C([O-])CCCCCCCCC(=O)[O-]
REMARK SMILES IDX 7 1 6 2 5 3 4 4 2 5 1 6 3 7 8 8 9 9 10 10 11 11 12 12 13 13
REMARK SMILES IDX 14 14
REMARK H PARENT
REMARK Flexibility Score: inf
ROOT
ATOM      1  C   UNL     1      46.907  29.961  90.056  1.00  0.00     0.000 C 
ENDROOT
BRANCH   1   2
ATOM      2  C   UNL     1      47.980  29.806  91.148  1.00  0.00     0.000 C 
BRANCH   2   3
ATOM      3  C   UNL     1      49.101  30.857  91.041  1.00  0.00     0.006 C 
BRANCH   3   4
ATOM      4  C   UNL     1      50.386  30.481  91.799  1.00  0.00     0.053 C 
BRANCH   4   5
ATOM      5  C   UNL     1      51.054  31.665  92.428  1.00  0.00     0.041 C 
ATOM      6  O   UNL     1      52.165  32.072  91.995  1.00  0.00    -0.550 OA
ATOM      7  O   UNL     1      50.444  32.326  93.487  1.00  0.00    -0.550 OA
ENDBRANCH   4   5
ENDBRANCH   3   4
ENDBRANCH   2   3
ENDBRANCH   1   2
BRANCH   1   8
ATOM      8  C   UNL     1      46.209  31.330  90.106  1.00  0.00     0.000 C 
BRANCH   8   9
ATOM      9  C   UNL     1      45.540  31.606  91.461  1.00  0.00     0.000 C 
BRANCH   9  10
ATOM     10  C   UNL     1      44.191  30.882  91.564  1.00  0.00     0.006 C 
BRANCH  10  11
ATOM     11  C   UNL     1      43.835  30.590  93.026  1.00  0.00     0.053 C 
BRANCH  11  12
ATOM     12  C   UNL     1      43.976  29.128  93.316  1.00  0.00     0.041 C 
ATOM     13  O   UNL     1      45.001  28.503  92.938  1.00  0.00    -0.550 OA
ATOM     14  O   UNL     1      42.998  28.467  94.048  1.00  0.00    -0.550 OA
ENDBRANCH  11  12
ENDBRANCH  10  11
ENDBRANCH   9  10
ENDBRANCH   8   9
ENDBRANCH   1   8
TORSDOF 9
ENDMDL
MODEL 7
REMARK VINA RESULT:    -3.405     17.515     18.860
REMARK INTER + INTRA:          -5.515
REMARK INTER:                  -4.650
REMARK INTRA:                  -0.865
REMARK UNBOUND:                -0.318
REMARK SMILES O=C([O-])CCCCCCCCC(=O)[O-]
REMARK SMILES IDX 7 1 6 2 5 3 4 4 2 5 1 6 3 7 8 8 9 9 10 10 11 11 12 12 13 13
REMARK SMILES IDX 14 14
REMARK H PARENT
REMARK Flexibility Score: inf
ROOT
ATOM      1  C   UNL     1      53.061  32.975  85.445  1.00  0.00     0.000 C 
ENDROOT
BRANCH   1   2
ATOM      2  C   UNL     1      52.958  34.031  84.331  1.00  0.00     0.000 C 
BRANCH   2   3
ATOM      3  C   UNL     1      51.714  33.845  83.442  1.00  0.00     0.006 C 
BRANCH   3   4
ATOM      4  C   UNL     1      50.390  34.211  84.134  1.00  0.00     0.053 C 
BRANCH   4   5
ATOM      5  C   UNL     1      49.247  34.330  83.173  1.00  0.00     0.041 C 
ATOM      6  O   UNL     1      49.455  34.684  81.981  1.00  0.00    -0.550 OA
ATOM      7  O   UNL     1      47.954  34.039  83.590  1.00  0.00    -0.550 OA
ENDBRANCH   4   5
ENDBRANCH   3   4
ENDBRANCH   2   3
ENDBRANCH   1   2
BRANCH   1   8
ATOM      8  C   UNL     1      53.321  33.597  86.827  1.00  0.00     0.000 C 
BRANCH   8   9
ATOM      9  C   UNL     1      52.723  35.006  86.966  1.00  0.00     0.000 C 
BRANCH   9  10
ATOM     10  C   UNL     1      51.754  35.075  88.153  1.00  0.00     0.006 C 
BRANCH  10  11
ATOM     11  C   UNL     1      50.310  35.263  87.673  1.00  0.00     0.053 C 
BRANCH  11  12
ATOM     12  C   UNL     1      49.559  33.971  87.759  1.00  0.00     0.041 C 
ATOM     13  O   UNL     1      50.074  32.975  88.330  1.00  0.00    -0.550 OA
ATOM     14  O   UNL     1      48.269  33.883  87.249  1.00  0.00    -0.550 OA
ENDBRANCH  11  12
ENDBRANCH  10  11
ENDBRANCH   9  10
ENDBRANCH   8   9
ENDBRANCH   1   8
TORSDOF 9
ENDMDL
MODEL 8
REMARK VINA RESULT:    -3.398     16.948     18.857
REMARK INTER + INTRA:          -5.504
REMARK INTER:                  -4.765
REMARK INTRA:                  -0.739
REMARK UNBOUND:                -0.318
REMARK SMILES O=C([O-])CCCCCCCCC(=O)[O-]
REMARK SMILES IDX 7 1 6 2 5 3 4 4 2 5 1 6 3 7 8 8 9 9 10 10 11 11 12 12 13 13
REMARK SMILES IDX 14 14
REMARK H PARENT
REMARK Flexibility Score: inf
ROOT
ATOM      1  C   UNL     1      46.272  30.925  88.625  1.00  0.00     0.000 C 
ENDROOT
BRANCH   1   2
ATOM      2  C   UNL     1      45.042  30.841  89.547  1.00  0.00     0.000 C 
BRANCH   2   3
ATOM      3  C   UNL     1      45.357  31.231  91.003  1.00  0.00     0.006 C 
BRANCH   3   4
ATOM      4  C   UNL     1      44.984  30.153  92.035  1.00  0.00     0.053 C 
BRANCH   4   5
ATOM      5  C   UNL     1      43.747  30.494  92.808  1.00  0.00     0.041 C 
ATOM      6  O   UNL     1      43.768  31.421  93.661  1.00  0.00    -0.550 OA
ATOM      7  O   UNL     1      42.568  29.796  92.579  1.00  0.00    -0.550 OA
ENDBRANCH   4   5
ENDBRANCH   3   4
ENDBRANCH   2   3
ENDBRANCH   1   2
BRANCH   1   8
ATOM      8  C   UNL     1      47.351  31.878  89.166  1.00  0.00     0.000 C 
BRANCH   8   9
ATOM      9  C   UNL     1      48.777  31.377  88.891  1.00  0.00     0.000 C 
BRANCH   9  10
ATOM     10  C   UNL     1      49.205  30.339  89.936  1.00  0.00     0.006 C 
BRANCH  10  11
ATOM     11  C   UNL     1      49.054  30.894  91.356  1.00  0.00     0.053 C 
BRANCH  11  12
ATOM     12  C   UNL     1      50.386  31.303  91.902  1.00  0.00     0.041 C 
ATOM     13  O   UNL     1      51.437  31.072  91.250  1.00  0.00    -0.550 OA
ATOM     14  O   UNL     1      50.462  31.984  93.111  1.00  0.00    -0.550 OA
ENDBRANCH  11  12
ENDBRANCH  10  11
ENDBRANCH   9  10
ENDBRANCH   8   9
ENDBRANCH   1   8
TORSDOF 9
ENDMDL
MODEL 9
REMARK VINA RESULT:    -3.339     17.375     19.451
REMARK INTER + INTRA:          -5.413
REMARK INTER:                  -4.944
REMARK INTRA:                  -0.469
REMARK UNBOUND:                -0.318
REMARK SMILES O=C([O-])CCCCCCCCC(=O)[O-]
REMARK SMILES IDX 7 1 6 2 5 3 4 4 2 5 1 6 3 7 8 8 9 9 10 10 11 11 12 12 13 13
REMARK SMILES IDX 14 14
REMARK H PARENT
REMARK Flexibility Score: inf
ROOT
ATOM      1  C   UNL     1      47.886  32.106  87.245  1.00  0.00     0.000 C 
ENDROOT
BRANCH   1   2
ATOM      2  C   UNL     1      48.031  31.951  88.769  1.00  0.00     0.000 C 
BRANCH   2   3
ATOM      3  C   UNL     1      46.692  31.655  89.470  1.00  0.00     0.006 C 
BRANCH   3   4
ATOM      4  C   UNL     1      46.837  31.220  90.939  1.00  0.00     0.053 C 
BRANCH   4   5
ATOM      5  C   UNL     1      45.586  30.607  91.488  1.00  0.00     0.041 C 
ATOM      6  O   UNL     1      45.561  29.387  91.803  1.00  0.00    -0.550 OA
ATOM      7  O   UNL     1      44.449  31.387  91.664  1.00  0.00    -0.550 OA
ENDBRANCH   4   5
ENDBRANCH   3   4
ENDBRANCH   2   3
ENDBRANCH   1   2
BRANCH   1   8
ATOM      8  C   UNL     1      48.671  33.309  86.697  1.00  0.00     0.000 C 
BRANCH   8   9
ATOM      9  C   UNL     1      48.516  34.565  87.570  1.00  0.00     0.000 C 
BRANCH   9  10
ATOM     10  C   UNL     1      49.865  35.271  87.759  1.00  0.00     0.006 C 
BRANCH  10  11
ATOM     11  C   UNL     1      50.977  34.259  88.053  1.00  0.00     0.053 C 
BRANCH  11  12
ATOM     12  C   UNL     1      52.321  34.894  87.883  1.00  0.00     0.041 C 
ATOM     13  O   UNL     1      52.576  35.996  88.435  1.00  0.00    -0.550 OA
ATOM     14  O   UNL     1      53.310  34.246  87.153  1.00  0.00    -0.550 OA
ENDBRANCH  11  12
ENDBRANCH  10  11
ENDBRANCH   9  10
ENDBRANCH   8   9
ENDBRANCH   1   8
TORSDOF 9
ENDMDL
