MODEL 1
REMARK VINA RESULT:    -5.309      0.000      0.000
REMARK INTER + INTRA:          -6.716
REMARK INTER:                  -6.395
REMARK INTRA:                  -0.321
REMARK UNBOUND:                -0.321
REMARK SMILES O=c1c(O)c(-c2ccc(O)c(O)c2)oc2cc(O)cc(O)c12
REMARK SMILES IDX 5 1 3 2 2 3 1 4 22 5 20 6 19 7 17 8 16 9 15 10 14 11 6 12
REMARK SMILES IDX 7 13 8 14 9 15 13 16 11 17 10 18 12 20 4 22 21 24 18 26
REMARK H PARENT 10 19 12 21 4 23 21 25 18 27
REMARK Flexibility Score: inf
ROOT
ATOM      1  C   UNL     1      -7.021   5.526 -26.434  1.00  0.00     0.180 A 
ATOM      2  C   UNL     1      -6.777   4.791 -27.606  1.00  0.00     0.208 A 
ATOM      3  C   UNL     1      -5.866   5.295 -28.550  1.00  0.00     0.238 A 
ATOM      4  O   UNL     1      -5.610   4.606 -29.571  1.00  0.00    -0.285 OA
ATOM      5  C   UNL     1      -5.224   6.535 -28.316  1.00  0.00     0.111 A 
ATOM      6  C   UNL     1      -4.315   7.160 -29.222  1.00  0.00     0.134 A 
ATOM      7  C   UNL     1      -3.638   8.322 -28.829  1.00  0.00     0.093 A 
ATOM      8  C   UNL     1      -3.888   8.918 -27.594  1.00  0.00     0.123 A 
ATOM      9  C   UNL     1      -4.820   8.348 -26.725  1.00  0.00     0.094 A 
ATOM     10  C   UNL     1      -5.483   7.168 -27.073  1.00  0.00     0.146 A 
ATOM     11  O   UNL     1      -6.354   6.654 -26.214  1.00  0.00    -0.452 OA
ENDROOT
BRANCH   1  12
ATOM     12  C   UNL     1      -7.985   5.073 -25.406  1.00  0.00     0.025 A 
ATOM     13  C   UNL     1      -9.328   5.473 -25.495  1.00  0.00     0.016 A 
ATOM     14  C   UNL     1     -10.260   5.041 -24.546  1.00  0.00     0.051 A 
ATOM     15  C   UNL     1      -9.864   4.191 -23.506  1.00  0.00     0.157 A 
ATOM     16  C   UNL     1      -7.597   4.203 -24.372  1.00  0.00     0.062 A 
ATOM     17  C   UNL     1      -8.532   3.767 -23.421  1.00  0.00     0.158 A 
BRANCH  15  18
ATOM     18  O   UNL     1     -10.789   3.758 -22.557  1.00  0.00    -0.504 OA
ATOM     19  H   UNL     1     -11.782   3.735 -22.758  1.00  0.00     0.293 HD
ENDBRANCH  15  18
BRANCH  17  20
ATOM     20  O   UNL     1      -8.144   2.911 -22.392  1.00  0.00    -0.504 OA
ATOM     21  H   UNL     1      -7.770   1.989 -22.582  1.00  0.00     0.293 HD
ENDBRANCH  17  20
ENDBRANCH   1  12
BRANCH   2  22
ATOM     22  O   UNL     1      -7.404   3.559 -27.807  1.00  0.00    -0.502 OA
ATOM     23  H   UNL     1      -7.477   2.859 -27.078  1.00  0.00     0.293 HD
ENDBRANCH   2  22
BRANCH   6  24
ATOM     24  O   UNL     1      -4.061   6.698 -30.517  1.00  0.00    -0.507 OA
ATOM     25  H   UNL     1      -3.285   6.108 -30.775  1.00  0.00     0.293 HD
ENDBRANCH   6  24
BRANCH   8  26
ATOM     26  O   UNL     1      -3.209  10.083 -27.243  1.00  0.00    -0.508 OA
ATOM     27  H   UNL     1      -2.891  10.742 -27.944  1.00  0.00     0.293 HD
ENDBRANCH   8  26
TORSDOF 6
ENDMDL
MODEL 2
REMARK VINA RESULT:    -5.271     13.483     15.714
REMARK INTER + INTRA:          -6.672
REMARK INTER:                  -6.385
REMARK INTRA:                  -0.287
REMARK UNBOUND:                -0.321
REMARK SMILES O=c1c(O)c(-c2ccc(O)c(O)c2)oc2cc(O)cc(O)c12
REMARK SMILES IDX 5 1 3 2 2 3 1 4 22 5 20 6 19 7 17 8 16 9 15 10 14 11 6 12
REMARK SMILES IDX 7 13 8 14 9 15 13 16 11 17 10 18 12 20 4 22 21 24 18 26
REMARK H PARENT 10 19 12 21 4 23 21 25 18 27
REMARK Flexibility Score: inf
ROOT
ATOM      1  C   UNL     1     -17.987   5.775 -34.943  1.00  0.00     0.180 A 
ATOM      2  C   UNL     1     -18.210   4.974 -33.811  1.00  0.00     0.208 A 
ATOM      3  C   UNL     1     -19.131   5.405 -32.842  1.00  0.00     0.238 A 
ATOM      4  O   UNL     1     -19.367   4.657 -31.858  1.00  0.00    -0.285 OA
ATOM      5  C   UNL     1     -19.805   6.638 -33.009  1.00  0.00     0.111 A 
ATOM      6  C   UNL     1     -20.727   7.192 -32.071  1.00  0.00     0.134 A 
ATOM      7  C   UNL     1     -21.433   8.356 -32.401  1.00  0.00     0.093 A 
ATOM      8  C   UNL     1     -21.200   9.022 -33.604  1.00  0.00     0.123 A 
ATOM      9  C   UNL     1     -20.257   8.522 -34.503  1.00  0.00     0.094 A 
ATOM     10  C   UNL     1     -19.564   7.343 -34.218  1.00  0.00     0.146 A 
ATOM     11  O   UNL     1     -18.682   6.896 -35.103  1.00  0.00    -0.452 OA
ENDROOT
BRANCH   1  12
ATOM     12  C   UNL     1     -17.014   5.401 -35.995  1.00  0.00     0.025 A 
ATOM     13  C   UNL     1     -15.733   5.976 -35.987  1.00  0.00     0.016 A 
ATOM     14  C   UNL     1     -14.792   5.622 -36.958  1.00  0.00     0.051 A 
ATOM     15  C   UNL     1     -15.114   4.677 -37.940  1.00  0.00     0.157 A 
ATOM     16  C   UNL     1     -17.326   4.437 -36.971  1.00  0.00     0.062 A 
ATOM     17  C   UNL     1     -16.381   4.081 -37.944  1.00  0.00     0.158 A 
BRANCH  15  18
ATOM     18  O   UNL     1     -14.179   4.322 -38.911  1.00  0.00    -0.504 OA
ATOM     19  H   UNL     1     -13.344   4.874 -39.069  1.00  0.00     0.293 HD
ENDBRANCH  15  18
BRANCH  17  20
ATOM     20  O   UNL     1     -16.693   3.131 -38.915  1.00  0.00    -0.504 OA
ATOM     21  H   UNL     1     -17.600   2.679 -38.943  1.00  0.00     0.293 HD
ENDBRANCH  17  20
ENDBRANCH   1  12
BRANCH   2  22
ATOM     22  O   UNL     1     -17.552   3.748 -33.676  1.00  0.00    -0.502 OA
ATOM     23  H   UNL     1     -16.558   3.643 -33.839  1.00  0.00     0.293 HD
ENDBRANCH   2  22
BRANCH   6  24
ATOM     24  O   UNL     1     -20.966   6.657 -30.802  1.00  0.00    -0.507 OA
ATOM     25  H   UNL     1     -21.448   7.137 -30.057  1.00  0.00     0.293 HD
ENDBRANCH   6  24
BRANCH   8  26
ATOM     26  O   UNL     1     -21.909  10.186 -33.893  1.00  0.00    -0.508 OA
ATOM     27  H   UNL     1     -22.914  10.239 -33.770  1.00  0.00     0.293 HD
ENDBRANCH   8  26
TORSDOF 6
ENDMDL
MODEL 3
REMARK VINA RESULT:    -5.226     13.582     15.425
REMARK INTER + INTRA:          -6.617
REMARK INTER:                  -6.371
REMARK INTRA:                  -0.246
REMARK UNBOUND:                -0.321
REMARK SMILES O=c1c(O)c(-c2ccc(O)c(O)c2)oc2cc(O)cc(O)c12
REMARK SMILES IDX 5 1 3 2 2 3 1 4 22 5 20 6 19 7 17 8 16 9 15 10 14 11 6 12
REMARK SMILES IDX 7 13 8 14 9 15 13 16 11 17 10 18 12 20 4 22 21 24 18 26
REMARK H PARENT 10 19 12 21 4 23 21 25 18 27
REMARK Flexibility Score: inf
ROOT
ATOM      1  C   UNL     1      -9.794  -4.427 -36.395  1.00  0.00     0.180 A 
ATOM      2  C   UNL     1      -9.282  -3.120 -36.344  1.00  0.00     0.208 A 
ATOM      3  C   UNL     1      -9.736  -2.174 -37.278  1.00  0.00     0.238 A 
ATOM      4  O   UNL     1      -9.315  -0.991 -37.193  1.00  0.00    -0.285 OA
ATOM      5  C   UNL     1     -10.683  -2.551 -38.260  1.00  0.00     0.111 A 
ATOM      6  C   UNL     1     -11.180  -1.686 -39.280  1.00  0.00     0.134 A 
ATOM      7  C   UNL     1     -12.212  -2.129 -40.118  1.00  0.00     0.093 A 
ATOM      8  C   UNL     1     -12.716  -3.425 -40.016  1.00  0.00     0.123 A 
ATOM      9  C   UNL     1     -12.195  -4.299 -39.062  1.00  0.00     0.094 A 
ATOM     10  C   UNL     1     -11.191  -3.875 -38.187  1.00  0.00     0.146 A 
ATOM     11  O   UNL     1     -10.729  -4.733 -37.287  1.00  0.00    -0.452 OA
ENDROOT
BRANCH   1  12
ATOM     12  C   UNL     1      -9.346  -5.486 -35.462  1.00  0.00     0.025 A 
ATOM     13  C   UNL     1      -8.458  -6.475 -35.913  1.00  0.00     0.016 A 
ATOM     14  C   UNL     1      -8.006  -7.472 -35.044  1.00  0.00     0.051 A 
ATOM     15  C   UNL     1      -8.425  -7.484 -33.708  1.00  0.00     0.157 A 
ATOM     16  C   UNL     1      -9.747  -5.491 -34.113  1.00  0.00     0.062 A 
ATOM     17  C   UNL     1      -9.293  -6.490 -33.240  1.00  0.00     0.158 A 
BRANCH  15  18
ATOM     18  O   UNL     1      -7.978  -8.478 -32.837  1.00  0.00    -0.504 OA
ATOM     19  H   UNL     1      -8.361  -9.416 -32.864  1.00  0.00     0.293 HD
ENDBRANCH  15  18
BRANCH  17  20
ATOM     20  O   UNL     1      -9.697  -6.498 -31.906  1.00  0.00    -0.504 OA
ATOM     21  H   UNL     1      -9.656  -7.340 -31.345  1.00  0.00     0.293 HD
ENDBRANCH  17  20
ENDBRANCH   1  12
BRANCH   2  22
ATOM     22  O   UNL     1      -8.365  -2.761 -35.352  1.00  0.00    -0.502 OA
ATOM     23  H   UNL     1      -8.650  -2.374 -34.461  1.00  0.00     0.293 HD
ENDBRANCH   2  22
BRANCH   6  24
ATOM     24  O   UNL     1     -10.683  -0.403 -39.528  1.00  0.00    -0.507 OA
ATOM     25  H   UNL     1     -10.096   0.117 -38.894  1.00  0.00     0.293 HD
ENDBRANCH   6  24
BRANCH   8  26
ATOM     26  O   UNL     1     -13.732  -3.837 -40.877  1.00  0.00    -0.508 OA
ATOM     27  H   UNL     1     -13.761  -3.535 -41.844  1.00  0.00     0.293 HD
ENDBRANCH   8  26
TORSDOF 6
ENDMDL
MODEL 4
REMARK VINA RESULT:    -5.174     12.429     13.684
REMARK INTER + INTRA:          -6.555
REMARK INTER:                  -6.304
REMARK INTRA:                  -0.251
REMARK UNBOUND:                -0.321
REMARK SMILES O=c1c(O)c(-c2ccc(O)c(O)c2)oc2cc(O)cc(O)c12
REMARK SMILES IDX 5 1 3 2 2 3 1 4 22 5 20 6 19 7 17 8 16 9 15 10 14 11 6 12
REMARK SMILES IDX 7 13 8 14 9 15 13 16 11 17 10 18 12 20 4 22 21 24 18 26
REMARK H PARENT 10 19 12 21 4 23 21 25 18 27
REMARK Flexibility Score: inf
ROOT
ATOM      1  C   UNL     1     -13.850   6.209 -37.576  1.00  0.00     0.180 A 
ATOM      2  C   UNL     1     -12.742   5.911 -36.766  1.00  0.00     0.208 A 
ATOM      3  C   UNL     1     -11.546   6.621 -36.959  1.00  0.00     0.238 A 
ATOM      4  O   UNL     1     -10.574   6.389 -36.195  1.00  0.00    -0.285 OA
ATOM      5  C   UNL     1     -11.468   7.609 -37.971  1.00  0.00     0.111 A 
ATOM      6  C   UNL     1     -10.295   8.360 -38.282  1.00  0.00     0.134 A 
ATOM      7  C   UNL     1     -10.370   9.402 -39.215  1.00  0.00     0.093 A 
ATOM      8  C   UNL     1     -11.556   9.676 -39.895  1.00  0.00     0.123 A 
ATOM      9  C   UNL     1     -12.694   8.908 -39.643  1.00  0.00     0.094 A 
ATOM     10  C   UNL     1     -12.660   7.885 -38.691  1.00  0.00     0.146 A 
ATOM     11  O   UNL     1     -13.766   7.185 -38.473  1.00  0.00    -0.452 OA
ENDROOT
BRANCH   1  12
ATOM     12  C   UNL     1     -15.136   5.486 -37.449  1.00  0.00     0.025 A 
ATOM     13  C   UNL     1     -15.991   5.780 -36.375  1.00  0.00     0.016 A 
ATOM     14  C   UNL     1     -17.220   5.125 -36.247  1.00  0.00     0.051 A 
ATOM     15  C   UNL     1     -17.615   4.178 -37.200  1.00  0.00     0.157 A 
ATOM     16  C   UNL     1     -15.548   4.550 -38.415  1.00  0.00     0.062 A 
ATOM     17  C   UNL     1     -16.781   3.893 -38.288  1.00  0.00     0.158 A 
BRANCH  15  18
ATOM     18  O   UNL     1     -18.839   3.521 -37.076  1.00  0.00    -0.504 OA
ATOM     19  H   UNL     1     -19.413   3.623 -36.247  1.00  0.00     0.293 HD
ENDBRANCH  15  18
BRANCH  17  20
ATOM     20  O   UNL     1     -17.184   2.960 -39.241  1.00  0.00    -0.504 OA
ATOM     21  H   UNL     1     -18.131   2.599 -39.263  1.00  0.00     0.293 HD
ENDBRANCH  17  20
ENDBRANCH   1  12
BRANCH   2  22
ATOM     22  O   UNL     1     -12.846   4.949 -35.758  1.00  0.00    -0.502 OA
ATOM     23  H   UNL     1     -12.572   5.131 -34.800  1.00  0.00     0.293 HD
ENDBRANCH   2  22
BRANCH   6  24
ATOM     24  O   UNL     1      -9.037   8.109 -37.727  1.00  0.00    -0.507 OA
ATOM     25  H   UNL     1      -8.377   8.821 -37.454  1.00  0.00     0.293 HD
ENDBRANCH   6  24
BRANCH   8  26
ATOM     26  O   UNL     1     -11.590  10.710 -40.828  1.00  0.00    -0.508 OA
ATOM     27  H   UNL     1     -12.331  10.779 -41.516  1.00  0.00     0.293 HD
ENDBRANCH   8  26
TORSDOF 6
ENDMDL
MODEL 5
REMARK VINA RESULT:    -5.170     12.429     13.489
REMARK INTER + INTRA:          -6.549
REMARK INTER:                  -6.254
REMARK INTRA:                  -0.296
REMARK UNBOUND:                -0.321
REMARK SMILES O=c1c(O)c(-c2ccc(O)c(O)c2)oc2cc(O)cc(O)c12
REMARK SMILES IDX 5 1 3 2 2 3 1 4 22 5 20 6 19 7 17 8 16 9 15 10 14 11 6 12
REMARK SMILES IDX 7 13 8 14 9 15 13 16 11 17 10 18 12 20 4 22 21 24 18 26
REMARK H PARENT 10 19 12 21 4 23 21 25 18 27
REMARK Flexibility Score: inf
ROOT
ATOM      1  C   UNL     1     -14.761   5.777 -37.491  1.00  0.00     0.180 A 
ATOM      2  C   UNL     1     -14.829   5.893 -38.889  1.00  0.00     0.208 A 
ATOM      3  C   UNL     1     -13.684   6.297 -39.596  1.00  0.00     0.238 A 
ATOM      4  O   UNL     1     -13.735   6.345 -40.853  1.00  0.00    -0.285 OA
ATOM      5  C   UNL     1     -12.492   6.596 -38.895  1.00  0.00     0.111 A 
ATOM      6  C   UNL     1     -11.285   7.054 -39.505  1.00  0.00     0.134 A 
ATOM      7  C   UNL     1     -10.128   7.193 -38.728  1.00  0.00     0.093 A 
ATOM      8  C   UNL     1     -10.151   6.956 -37.354  1.00  0.00     0.123 A 
ATOM      9  C   UNL     1     -11.340   6.567 -36.737  1.00  0.00     0.094 A 
ATOM     10  C   UNL     1     -12.502   6.383 -37.491  1.00  0.00     0.146 A 
ATOM     11  O   UNL     1     -13.610   6.003 -36.868  1.00  0.00    -0.452 OA
ENDROOT
BRANCH   1  12
ATOM     12  C   UNL     1     -15.931   5.382 -36.675  1.00  0.00     0.025 A 
ATOM     13  C   UNL     1     -16.258   4.022 -36.549  1.00  0.00     0.016 A 
ATOM     14  C   UNL     1     -17.347   3.625 -35.767  1.00  0.00     0.051 A 
ATOM     15  C   UNL     1     -18.113   4.581 -35.088  1.00  0.00     0.157 A 
ATOM     16  C   UNL     1     -16.691   6.336 -35.974  1.00  0.00     0.062 A 
ATOM     17  C   UNL     1     -17.781   5.938 -35.187  1.00  0.00     0.158 A 
BRANCH  15  18
ATOM     18  O   UNL     1     -19.200   4.189 -34.308  1.00  0.00    -0.504 OA
ATOM     19  H   UNL     1     -19.216   3.295 -33.833  1.00  0.00     0.293 HD
ENDBRANCH  15  18
BRANCH  17  20
ATOM     20  O   UNL     1     -18.538   6.885 -34.499  1.00  0.00    -0.504 OA
ATOM     21  H   UNL     1     -19.513   7.048 -34.721  1.00  0.00     0.293 HD
ENDBRANCH  17  20
ENDBRANCH   1  12
BRANCH   2  22
ATOM     22  O   UNL     1     -16.009   5.571 -39.565  1.00  0.00    -0.502 OA
ATOM     23  H   UNL     1     -16.419   4.645 -39.535  1.00  0.00     0.293 HD
ENDBRANCH   2  22
BRANCH   6  24
ATOM     24  O   UNL     1     -11.177   7.406 -40.853  1.00  0.00    -0.507 OA
ATOM     25  H   UNL     1     -10.595   6.932 -41.526  1.00  0.00     0.293 HD
ENDBRANCH   6  24
BRANCH   8  26
ATOM     26  O   UNL     1      -8.984   7.121 -36.609  1.00  0.00    -0.508 OA
ATOM     27  H   UNL     1      -9.010   7.436 -35.646  1.00  0.00     0.293 HD
ENDBRANCH   8  26
TORSDOF 6
ENDMDL
MODEL 6
REMARK VINA RESULT:    -5.163     13.890     16.453
REMARK INTER + INTRA:          -6.541
REMARK INTER:                  -6.614
REMARK INTRA:                   0.073
REMARK UNBOUND:                -0.321
REMARK SMILES O=c1c(O)c(-c2ccc(O)c(O)c2)oc2cc(O)cc(O)c12
REMARK SMILES IDX 5 1 3 2 2 3 1 4 22 5 20 6 19 7 17 8 16 9 15 10 14 11 6 12
REMARK SMILES IDX 7 13 8 14 9 15 13 16 11 17 10 18 12 20 4 22 21 24 18 26
REMARK H PARENT 10 19 12 21 4 23 21 25 18 27
REMARK Flexibility Score: inf
ROOT
ATOM      1  C   UNL     1     -10.737  -4.103 -37.035  1.00  0.00     0.180 A 
ATOM      2  C   UNL     1     -10.689  -3.663 -35.701  1.00  0.00     0.208 A 
ATOM      3  C   UNL     1     -10.028  -4.453 -34.747  1.00  0.00     0.238 A 
ATOM      4  O   UNL     1      -9.941  -4.028 -33.566  1.00  0.00    -0.285 OA
ATOM      5  C   UNL     1      -9.437  -5.680 -35.135  1.00  0.00     0.111 A 
ATOM      6  C   UNL     1      -8.777  -6.579 -34.244  1.00  0.00     0.134 A 
ATOM      7  C   UNL     1      -8.116  -7.701 -34.761  1.00  0.00     0.093 A 
ATOM      8  C   UNL     1      -8.147  -7.991 -36.124  1.00  0.00     0.123 A 
ATOM      9  C   UNL     1      -8.840  -7.150 -36.996  1.00  0.00     0.094 A 
ATOM     10  C   UNL     1      -9.478  -6.004 -36.516  1.00  0.00     0.146 A 
ATOM     11  O   UNL     1     -10.118  -5.226 -37.380  1.00  0.00    -0.452 OA
ENDROOT
BRANCH   1  12
ATOM     12  C   UNL     1     -11.438  -3.338 -38.092  1.00  0.00     0.025 A 
ATOM     13  C   UNL     1     -11.191  -1.963 -38.228  1.00  0.00     0.016 A 
ATOM     14  C   UNL     1     -11.826  -1.225 -39.232  1.00  0.00     0.051 A 
ATOM     15  C   UNL     1     -12.703  -1.857 -40.123  1.00  0.00     0.157 A 
ATOM     16  C   UNL     1     -12.303  -3.972 -39.002  1.00  0.00     0.062 A 
ATOM     17  C   UNL     1     -12.938  -3.233 -40.011  1.00  0.00     0.158 A 
BRANCH  15  18
ATOM     18  O   UNL     1     -13.339  -1.126 -41.125  1.00  0.00    -0.504 OA
ATOM     19  H   UNL     1     -12.859  -0.390 -41.630  1.00  0.00     0.293 HD
ENDBRANCH  15  18
BRANCH  17  20
ATOM     20  O   UNL     1     -13.801  -3.861 -40.908  1.00  0.00    -0.504 OA
ATOM     21  H   UNL     1     -14.389  -4.635 -40.624  1.00  0.00     0.293 HD
ENDBRANCH  17  20
ENDBRANCH   1  12
BRANCH   2  22
ATOM     22  O   UNL     1     -11.259  -2.439 -35.343  1.00  0.00    -0.502 OA
ATOM     23  H   UNL     1     -10.735  -1.710 -34.874  1.00  0.00     0.293 HD
ENDBRANCH   2  22
BRANCH   6  24
ATOM     24  O   UNL     1      -8.764  -6.432 -32.854  1.00  0.00    -0.507 OA
ATOM     25  H   UNL     1      -9.033  -5.593 -32.363  1.00  0.00     0.293 HD
ENDBRANCH   6  24
BRANCH   8  26
ATOM     26  O   UNL     1      -7.490  -9.124 -36.600  1.00  0.00    -0.508 OA
ATOM     27  H   UNL     1      -7.961 -10.020 -36.668  1.00  0.00     0.293 HD
ENDBRANCH   8  26
TORSDOF 6
ENDMDL
MODEL 7
REMARK VINA RESULT:    -5.114     12.334     15.112
REMARK INTER + INTRA:          -6.482
REMARK INTER:                  -6.181
REMARK INTRA:                  -0.301
REMARK UNBOUND:                -0.321
REMARK SMILES O=c1c(O)c(-c2ccc(O)c(O)c2)oc2cc(O)cc(O)c12
REMARK SMILES IDX 5 1 3 2 2 3 1 4 22 5 20 6 19 7 17 8 16 9 15 10 14 11 6 12
REMARK SMILES IDX 7 13 8 14 9 15 13 16 11 17 10 18 12 20 4 22 21 24 18 26
REMARK H PARENT 10 19 12 21 4 23 21 25 18 27
REMARK Flexibility Score: inf
ROOT
ATOM      1  C   UNL     1     -12.867   7.134 -38.085  1.00  0.00     0.180 A 
ATOM      2  C   UNL     1     -12.623   6.898 -36.722  1.00  0.00     0.208 A 
ATOM      3  C   UNL     1     -13.491   6.054 -36.010  1.00  0.00     0.238 A 
ATOM      4  O   UNL     1     -13.236   5.803 -34.804  1.00  0.00    -0.285 OA
ATOM      5  C   UNL     1     -14.600   5.468 -36.667  1.00  0.00     0.111 A 
ATOM      6  C   UNL     1     -15.567   4.630 -36.034  1.00  0.00     0.134 A 
ATOM      7  C   UNL     1     -16.549   4.001 -36.810  1.00  0.00     0.093 A 
ATOM      8  C   UNL     1     -16.640   4.232 -38.182  1.00  0.00     0.123 A 
ATOM      9  C   UNL     1     -15.737   5.098 -38.801  1.00  0.00     0.094 A 
ATOM     10  C   UNL     1     -14.723   5.711 -38.060  1.00  0.00     0.146 A 
ATOM     11  O   UNL     1     -13.879   6.519 -38.688  1.00  0.00    -0.452 OA
ENDROOT
BRANCH   1  12
ATOM     12  C   UNL     1     -12.013   8.032 -38.895  1.00  0.00     0.025 A 
ATOM     13  C   UNL     1     -12.396   9.370 -39.079  1.00  0.00     0.016 A 
ATOM     14  C   UNL     1     -11.594  10.240 -39.823  1.00  0.00     0.051 A 
ATOM     15  C   UNL     1     -10.391   9.787 -40.381  1.00  0.00     0.157 A 
ATOM     16  C   UNL     1     -10.794   7.587 -39.439  1.00  0.00     0.062 A 
ATOM     17  C   UNL     1      -9.988   8.461 -40.185  1.00  0.00     0.158 A 
BRANCH  15  18
ATOM     18  O   UNL     1      -9.589  10.652 -41.125  1.00  0.00    -0.504 OA
ATOM     19  H   UNL     1      -8.599  10.749 -40.937  1.00  0.00     0.293 HD
ENDBRANCH  15  18
BRANCH  17  20
ATOM     20  O   UNL     1      -8.784   8.017 -40.730  1.00  0.00    -0.504 OA
ATOM     21  H   UNL     1      -8.742   7.203 -41.330  1.00  0.00     0.293 HD
ENDBRANCH  17  20
ENDBRANCH   1  12
BRANCH   2  22
ATOM     22  O   UNL     1     -11.510   7.467 -36.098  1.00  0.00    -0.502 OA
ATOM     23  H   UNL     1     -10.667   7.709 -36.604  1.00  0.00     0.293 HD
ENDBRANCH   2  22
BRANCH   6  24
ATOM     24  O   UNL     1     -15.622   4.405 -34.655  1.00  0.00    -0.507 OA
ATOM     25  H   UNL     1     -15.472   3.510 -34.213  1.00  0.00     0.293 HD
ENDBRANCH   6  24
BRANCH   8  26
ATOM     26  O   UNL     1     -17.640   3.602 -38.920  1.00  0.00    -0.508 OA
ATOM     27  H   UNL     1     -18.311   4.132 -39.465  1.00  0.00     0.293 HD
ENDBRANCH   8  26
TORSDOF 6
ENDMDL
MODEL 8
REMARK VINA RESULT:    -5.100     13.571     16.067
REMARK INTER + INTRA:          -6.465
REMARK INTER:                  -6.265
REMARK INTRA:                  -0.201
REMARK UNBOUND:                -0.321
REMARK SMILES O=c1c(O)c(-c2ccc(O)c(O)c2)oc2cc(O)cc(O)c12
REMARK SMILES IDX 5 1 3 2 2 3 1 4 22 5 20 6 19 7 17 8 16 9 15 10 14 11 6 12
REMARK SMILES IDX 7 13 8 14 9 15 13 16 11 17 10 18 12 20 4 22 21 24 18 26
REMARK H PARENT 10 19 12 21 4 23 21 25 18 27
REMARK Flexibility Score: inf
ROOT
ATOM      1  C   UNL     1     -10.374  -4.507 -36.939  1.00  0.00     0.180 A 
ATOM      2  C   UNL     1      -9.421  -5.470 -37.312  1.00  0.00     0.208 A 
ATOM      3  C   UNL     1      -8.792  -6.228 -36.311  1.00  0.00     0.238 A 
ATOM      4  O   UNL     1      -7.980  -7.126 -36.654  1.00  0.00    -0.285 OA
ATOM      5  C   UNL     1      -9.111  -6.003 -34.951  1.00  0.00     0.111 A 
ATOM      6  C   UNL     1      -8.504  -6.684 -33.852  1.00  0.00     0.134 A 
ATOM      7  C   UNL     1      -8.992  -6.473 -32.556  1.00  0.00     0.093 A 
ATOM      8  C   UNL     1     -10.015  -5.559 -32.311  1.00  0.00     0.123 A 
ATOM      9  C   UNL     1     -10.574  -4.843 -33.370  1.00  0.00     0.094 A 
ATOM     10  C   UNL     1     -10.135  -5.058 -34.679  1.00  0.00     0.146 A 
ATOM     11  O   UNL     1     -10.699  -4.364 -35.659  1.00  0.00    -0.452 OA
ENDROOT
BRANCH   1  12
ATOM     12  C   UNL     1     -11.062  -3.652 -37.934  1.00  0.00     0.025 A 
ATOM     13  C   UNL     1     -10.744  -2.287 -38.008  1.00  0.00     0.016 A 
ATOM     14  C   UNL     1     -11.366  -1.465 -38.953  1.00  0.00     0.051 A 
ATOM     15  C   UNL     1     -12.302  -2.001 -39.846  1.00  0.00     0.157 A 
ATOM     16  C   UNL     1     -11.988  -4.190 -38.846  1.00  0.00     0.062 A 
ATOM     17  C   UNL     1     -12.610  -3.366 -39.795  1.00  0.00     0.158 A 
BRANCH  15  18
ATOM     18  O   UNL     1     -12.926  -1.185 -40.788  1.00  0.00    -0.504 OA
ATOM     19  H   UNL     1     -13.148  -0.217 -40.587  1.00  0.00     0.293 HD
ENDBRANCH  15  18
BRANCH  17  20
ATOM     20  O   UNL     1     -13.533  -3.899 -40.694  1.00  0.00    -0.504 OA
ATOM     21  H   UNL     1     -14.457  -4.190 -40.396  1.00  0.00     0.293 HD
ENDBRANCH  17  20
ENDBRANCH   1  12
BRANCH   2  22
ATOM     22  O   UNL     1      -9.137  -5.692 -38.662  1.00  0.00    -0.502 OA
ATOM     23  H   UNL     1      -9.402  -6.544 -39.141  1.00  0.00     0.293 HD
ENDBRANCH   2  22
BRANCH   6  24
ATOM     24  O   UNL     1      -7.414  -7.550 -33.977  1.00  0.00    -0.507 OA
ATOM     25  H   UNL     1      -7.229  -8.331 -33.366  1.00  0.00     0.293 HD
ENDBRANCH   6  24
BRANCH   8  26
ATOM     26  O   UNL     1     -10.464  -5.364 -31.006  1.00  0.00    -0.508 OA
ATOM     27  H   UNL     1     -11.439  -5.483 -30.757  1.00  0.00     0.293 HD
ENDBRANCH   8  26
TORSDOF 6
ENDMDL
MODEL 9
REMARK VINA RESULT:    -4.941     14.474     16.333
REMARK INTER + INTRA:          -6.273
REMARK INTER:                  -5.951
REMARK INTRA:                  -0.322
REMARK UNBOUND:                -0.321
REMARK SMILES O=c1c(O)c(-c2ccc(O)c(O)c2)oc2cc(O)cc(O)c12
REMARK SMILES IDX 5 1 3 2 2 3 1 4 22 5 20 6 19 7 17 8 16 9 15 10 14 11 6 12
REMARK SMILES IDX 7 13 8 14 9 15 13 16 11 17 10 18 12 20 4 22 21 24 18 26
REMARK H PARENT 10 19 12 21 4 23 21 25 18 27
REMARK Flexibility Score: inf
ROOT
ATOM      1  C   UNL     1     -10.583  -3.624 -38.045  1.00  0.00     0.180 A 
ATOM      2  C   UNL     1     -10.031  -2.355 -38.282  1.00  0.00     0.208 A 
ATOM      3  C   UNL     1     -10.717  -1.458 -39.117  1.00  0.00     0.238 A 
ATOM      4  O   UNL     1     -10.245  -0.303 -39.282  1.00  0.00    -0.285 OA
ATOM      5  C   UNL     1     -11.938  -1.848 -39.717  1.00  0.00     0.111 A 
ATOM      6  C   UNL     1     -12.697  -1.036 -40.612  1.00  0.00     0.134 A 
ATOM      7  C   UNL     1     -13.956  -1.473 -41.043  1.00  0.00     0.093 A 
ATOM      8  C   UNL     1     -14.453  -2.720 -40.665  1.00  0.00     0.123 A 
ATOM      9  C   UNL     1     -13.693  -3.548 -39.838  1.00  0.00     0.094 A 
ATOM     10  C   UNL     1     -12.450  -3.124 -39.362  1.00  0.00     0.146 A 
ATOM     11  O   UNL     1     -11.762  -3.937 -38.570  1.00  0.00    -0.452 OA
ENDROOT
BRANCH   1  12
ATOM     12  C   UNL     1      -9.907  -4.633 -37.197  1.00  0.00     0.025 A 
ATOM     13  C   UNL     1      -8.947  -5.484 -37.768  1.00  0.00     0.016 A 
ATOM     14  C   UNL     1      -8.282  -6.430 -36.982  1.00  0.00     0.051 A 
ATOM     15  C   UNL     1      -8.557  -6.526 -35.613  1.00  0.00     0.157 A 
ATOM     16  C   UNL     1     -10.164  -4.720 -35.817  1.00  0.00     0.062 A 
ATOM     17  C   UNL     1      -9.495  -5.667 -35.028  1.00  0.00     0.158 A 
BRANCH  15  18
ATOM     18  O   UNL     1      -7.897  -7.469 -34.826  1.00  0.00    -0.504 OA
ATOM     19  H   UNL     1      -8.346  -8.332 -34.545  1.00  0.00     0.293 HD
ENDBRANCH  15  18
BRANCH  17  20
ATOM     20  O   UNL     1      -9.756  -5.757 -33.662  1.00  0.00    -0.504 OA
ATOM     21  H   UNL     1      -9.052  -6.075 -33.007  1.00  0.00     0.293 HD
ENDBRANCH  17  20
ENDBRANCH   1  12
BRANCH   2  22
ATOM     22  O   UNL     1      -8.835  -1.981 -37.662  1.00  0.00    -0.502 OA
ATOM     23  H   UNL     1      -8.052  -2.615 -37.561  1.00  0.00     0.293 HD
ENDBRANCH   2  22
BRANCH   6  24
ATOM     24  O   UNL     1     -12.252   0.187 -41.125  1.00  0.00    -0.507 OA
ATOM     25  H   UNL     1     -12.722   1.070 -40.993  1.00  0.00     0.293 HD
ENDBRANCH   6  24
BRANCH   8  26
ATOM     26  O   UNL     1     -15.703  -3.130 -41.125  1.00  0.00    -0.508 OA
ATOM     27  H   UNL     1     -15.805  -3.655 -41.986  1.00  0.00     0.293 HD
ENDBRANCH   8  26
TORSDOF 6
ENDMDL
