MODEL 1
REMARK VINA RESULT:    -3.505      0.000      0.000
REMARK INTER + INTRA:          -4.446
REMARK INTER:                  -4.222
REMARK INTRA:                  -0.224
REMARK UNBOUND:                -0.224
REMARK SMILES OCC(O)CO
REMARK SMILES IDX 3 1 5 2 6 3 2 5 1 6 4 8
REMARK H PARENT 6 4 1 7 4 9
REMARK Flexibility Score: inf
ROOT
ATOM      1  C   UNL     1       4.649  -5.388 -23.410  1.00  0.00     0.165 C 
ENDROOT
BRANCH   1   2
ATOM      2  C   UNL     1       4.007  -6.723 -23.807  1.00  0.00     0.190 C 
BRANCH   2   3
ATOM      3  O   UNL     1       3.352  -7.296 -22.708  1.00  0.00    -0.394 OA
ATOM      4  H   UNL     1       2.599  -6.692 -22.476  1.00  0.00     0.210 HD
ENDBRANCH   2   3
ENDBRANCH   1   2
BRANCH   1   5
ATOM      5  C   UNL     1       4.305  -5.038 -21.954  1.00  0.00     0.190 C 
BRANCH   5   6
ATOM      6  O   UNL     1       5.180  -5.685 -21.070  1.00  0.00    -0.394 OA
ATOM      7  H   UNL     1       4.846  -5.502 -20.153  1.00  0.00     0.210 HD
ENDBRANCH   5   6
ENDBRANCH   1   5
BRANCH   1   8
ATOM      8  O   UNL     1       4.183  -4.377 -24.266  1.00  0.00    -0.388 OA
ATOM      9  H   UNL     1       4.076  -4.784 -25.165  1.00  0.00     0.211 HD
ENDBRANCH   1   8
TORSDOF 5
ENDMDL
MODEL 2
REMARK VINA RESULT:    -3.468      4.547      5.497
REMARK INTER + INTRA:          -4.401
REMARK INTER:                  -4.191
REMARK INTRA:                  -0.210
REMARK UNBOUND:                -0.224
REMARK SMILES OCC(O)CO
REMARK SMILES IDX 3 1 5 2 6 3 2 5 1 6 4 8
REMARK H PARENT 6 4 1 7 4 9
REMARK Flexibility Score: inf
ROOT
ATOM      1  C   UNL     1       1.356  -1.464 -22.101  1.00  0.00     0.165 C 
ENDROOT
BRANCH   1   2
ATOM      2  C   UNL     1       2.467  -2.519 -22.155  1.00  0.00     0.190 C 
BRANCH   2   3
ATOM      3  O   UNL     1       2.964  -2.641 -23.461  1.00  0.00    -0.394 OA
ATOM      4  H   UNL     1       2.276  -3.131 -23.984  1.00  0.00     0.210 HD
ENDBRANCH   2   3
ENDBRANCH   1   2
BRANCH   1   5
ATOM      5  C   UNL     1       1.953  -0.065 -21.877  1.00  0.00     0.190 C 
BRANCH   5   6
ATOM      6  O   UNL     1       2.627   0.375 -23.025  1.00  0.00    -0.394 OA
ATOM      7  H   UNL     1       2.973  -0.437 -23.480  1.00  0.00     0.210 HD
ENDBRANCH   5   6
ENDBRANCH   1   5
BRANCH   1   8
ATOM      8  O   UNL     1       0.470  -1.776 -21.058  1.00  0.00    -0.388 OA
ATOM      9  H   UNL     1      -0.386  -2.054 -21.477  1.00  0.00     0.211 HD
ENDBRANCH   1   8
TORSDOF 5
ENDMDL
MODEL 3
REMARK VINA RESULT:    -3.436      5.690      6.421
REMARK INTER + INTRA:          -4.362
REMARK INTER:                  -4.194
REMARK INTRA:                  -0.168
REMARK UNBOUND:                -0.224
REMARK SMILES OCC(O)CO
REMARK SMILES IDX 3 1 5 2 6 3 2 5 1 6 4 8
REMARK H PARENT 6 4 1 7 4 9
REMARK Flexibility Score: inf
ROOT
ATOM      1  C   UNL     1       1.934  -0.470 -22.159  1.00  0.00     0.165 C 
ENDROOT
BRANCH   1   2
ATOM      2  C   UNL     1       0.800   0.249 -22.901  1.00  0.00     0.190 C 
BRANCH   2   3
ATOM      3  O   UNL     1      -0.428   0.003 -22.271  1.00  0.00    -0.394 OA
ATOM      4  H   UNL     1      -1.108  -0.077 -22.990  1.00  0.00     0.210 HD
ENDBRANCH   2   3
ENDBRANCH   1   2
BRANCH   1   5
ATOM      5  C   UNL     1       1.575  -1.946 -21.930  1.00  0.00     0.190 C 
BRANCH   5   6
ATOM      6  O   UNL     1       0.617  -2.070 -20.913  1.00  0.00    -0.394 OA
ATOM      7  H   UNL     1       1.068  -2.519 -20.150  1.00  0.00     0.210 HD
ENDBRANCH   5   6
ENDBRANCH   1   5
BRANCH   1   8
ATOM      8  O   UNL     1       2.156   0.163 -20.925  1.00  0.00    -0.388 OA
ATOM      9  H   UNL     1       2.897  -0.323 -20.479  1.00  0.00     0.211 HD
ENDBRANCH   1   8
TORSDOF 5
ENDMDL
MODEL 4
REMARK VINA RESULT:    -3.407      4.775      5.625
REMARK INTER + INTRA:          -4.328
REMARK INTER:                  -4.152
REMARK INTRA:                  -0.175
REMARK UNBOUND:                -0.224
REMARK SMILES OCC(O)CO
REMARK SMILES IDX 3 1 5 2 6 3 2 5 1 6 4 8
REMARK H PARENT 6 4 1 7 4 9
REMARK Flexibility Score: inf
ROOT
ATOM      1  C   UNL     1       2.490  -1.613 -22.310  1.00  0.00     0.165 C 
ENDROOT
BRANCH   1   2
ATOM      2  C   UNL     1       1.225  -2.061 -21.566  1.00  0.00     0.190 C 
BRANCH   2   3
ATOM      3  O   UNL     1       0.217  -1.094 -21.690  1.00  0.00    -0.394 OA
ATOM      4  H   UNL     1      -0.319  -1.131 -20.855  1.00  0.00     0.210 HD
ENDBRANCH   2   3
ENDBRANCH   1   2
BRANCH   1   5
ATOM      5  C   UNL     1       2.269  -0.240 -22.966  1.00  0.00     0.190 C 
BRANCH   5   6
ATOM      6  O   UNL     1       2.152   0.761 -21.991  1.00  0.00    -0.394 OA
ATOM      7  H   UNL     1       2.083   0.298 -21.115  1.00  0.00     0.210 HD
ENDBRANCH   5   6
ENDBRANCH   1   5
BRANCH   1   8
ATOM      8  O   UNL     1       2.811  -2.563 -23.292  1.00  0.00    -0.388 OA
ATOM      9  H   UNL     1       3.782  -2.752 -23.206  1.00  0.00     0.211 HD
ENDBRANCH   1   8
TORSDOF 5
ENDMDL
MODEL 5
REMARK VINA RESULT:    -3.393      4.355      5.551
REMARK INTER + INTRA:          -4.311
REMARK INTER:                  -4.131
REMARK INTRA:                  -0.181
REMARK UNBOUND:                -0.224
REMARK SMILES OCC(O)CO
REMARK SMILES IDX 3 1 5 2 6 3 2 5 1 6 4 8
REMARK H PARENT 6 4 1 7 4 9
REMARK Flexibility Score: inf
ROOT
ATOM      1  C   UNL     1       1.812  -1.305 -21.820  1.00  0.00     0.165 C 
ENDROOT
BRANCH   1   2
ATOM      2  C   UNL     1       1.881  -0.373 -23.037  1.00  0.00     0.190 C 
BRANCH   2   3
ATOM      3  O   UNL     1       3.213  -0.037 -23.320  1.00  0.00    -0.394 OA
ATOM      4  H   UNL     1       3.476   0.665 -22.669  1.00  0.00     0.210 HD
ENDBRANCH   2   3
ENDBRANCH   1   2
BRANCH   1   5
ATOM      5  C   UNL     1       2.470  -2.656 -22.141  1.00  0.00     0.190 C 
BRANCH   5   6
ATOM      6  O   UNL     1       2.855  -2.712 -23.488  1.00  0.00    -0.394 OA
ATOM      7  H   UNL     1       2.061  -3.023 -23.998  1.00  0.00     0.210 HD
ENDBRANCH   5   6
ENDBRANCH   1   5
BRANCH   1   8
ATOM      8  O   UNL     1       0.468  -1.502 -21.464  1.00  0.00    -0.388 OA
ATOM      9  H   UNL     1      -0.077  -0.921 -22.056  1.00  0.00     0.211 HD
ENDBRANCH   1   8
TORSDOF 5
ENDMDL
MODEL 6
REMARK VINA RESULT:    -3.331      5.539      6.389
REMARK INTER + INTRA:          -4.236
REMARK INTER:                  -4.233
REMARK INTRA:                  -0.003
REMARK UNBOUND:                -0.224
REMARK SMILES OCC(O)CO
REMARK SMILES IDX 3 1 5 2 6 3 2 5 1 6 4 8
REMARK H PARENT 6 4 1 7 4 9
REMARK Flexibility Score: inf
ROOT
ATOM      1  C   UNL     1       1.666  -0.189 -22.513  1.00  0.00     0.165 C 
ENDROOT
BRANCH   1   2
ATOM      2  C   UNL     1       1.639  -1.637 -22.009  1.00  0.00     0.190 C 
BRANCH   2   3
ATOM      3  O   UNL     1       0.499  -1.860 -21.223  1.00  0.00    -0.394 OA
ATOM      4  H   UNL     1       0.818  -2.033 -20.299  1.00  0.00     0.210 HD
ENDBRANCH   2   3
ENDBRANCH   1   2
BRANCH   1   5
ATOM      5  C   UNL     1       2.681  -0.036 -23.657  1.00  0.00     0.190 C 
BRANCH   5   6
ATOM      6  O   UNL     1       2.332   1.039 -24.487  1.00  0.00    -0.394 OA
ATOM      7  H   UNL     1       3.181   1.416 -24.836  1.00  0.00     0.210 HD
ENDBRANCH   5   6
ENDBRANCH   1   5
BRANCH   1   8
ATOM      8  O   UNL     1       2.013   0.664 -21.453  1.00  0.00    -0.388 OA
ATOM      9  H   UNL     1       2.397   1.486 -21.856  1.00  0.00     0.211 HD
ENDBRANCH   1   8
TORSDOF 5
ENDMDL
MODEL 7
REMARK VINA RESULT:    -3.317      4.699      5.481
REMARK INTER + INTRA:          -4.220
REMARK INTER:                  -4.207
REMARK INTRA:                  -0.012
REMARK UNBOUND:                -0.224
REMARK SMILES OCC(O)CO
REMARK SMILES IDX 3 1 5 2 6 3 2 5 1 6 4 8
REMARK H PARENT 6 4 1 7 4 9
REMARK Flexibility Score: inf
ROOT
ATOM      1  C   UNL     1       2.241  -0.755 -22.452  1.00  0.00     0.165 C 
ENDROOT
BRANCH   1   2
ATOM      2  C   UNL     1       1.997  -2.238 -22.145  1.00  0.00     0.190 C 
BRANCH   2   3
ATOM      3  O   UNL     1       2.864  -3.042 -22.899  1.00  0.00    -0.394 OA
ATOM      4  H   UNL     1       2.386  -3.895 -23.072  1.00  0.00     0.210 HD
ENDBRANCH   2   3
ENDBRANCH   1   2
BRANCH   1   5
ATOM      5  C   UNL     1       0.904  -0.004 -22.570  1.00  0.00     0.190 C 
BRANCH   5   6
ATOM      6  O   UNL     1      -0.101  -0.670 -21.855  1.00  0.00    -0.394 OA
ATOM      7  H   UNL     1      -0.508  -0.000 -21.246  1.00  0.00     0.210 HD
ENDBRANCH   5   6
ENDBRANCH   1   5
BRANCH   1   8
ATOM      8  O   UNL     1       2.957  -0.642 -23.654  1.00  0.00    -0.388 OA
ATOM      9  H   UNL     1       2.292  -0.659 -24.391  1.00  0.00     0.211 HD
ENDBRANCH   1   8
TORSDOF 5
ENDMDL
MODEL 8
REMARK VINA RESULT:    -3.299      1.036      2.920
REMARK INTER + INTRA:          -4.198
REMARK INTER:                  -4.183
REMARK INTRA:                  -0.015
REMARK UNBOUND:                -0.224
REMARK SMILES OCC(O)CO
REMARK SMILES IDX 3 1 5 2 6 3 2 5 1 6 4 8
REMARK H PARENT 6 4 1 7 4 9
REMARK Flexibility Score: inf
ROOT
ATOM      1  C   UNL     1       4.625  -5.033 -22.227  1.00  0.00     0.165 C 
ENDROOT
BRANCH   1   2
ATOM      2  C   UNL     1       3.531  -4.014 -21.882  1.00  0.00     0.190 C 
BRANCH   2   3
ATOM      3  O   UNL     1       3.109  -3.340 -23.037  1.00  0.00    -0.394 OA
ATOM      4  H   UNL     1       2.854  -4.036 -23.697  1.00  0.00     0.210 HD
ENDBRANCH   2   3
ENDBRANCH   1   2
BRANCH   1   5
ATOM      5  C   UNL     1       4.089  -6.082 -23.215  1.00  0.00     0.190 C 
BRANCH   5   6
ATOM      6  O   UNL     1       3.537  -7.172 -22.527  1.00  0.00    -0.394 OA
ATOM      7  H   UNL     1       3.375  -6.868 -21.596  1.00  0.00     0.210 HD
ENDBRANCH   5   6
ENDBRANCH   1   5
BRANCH   1   8
ATOM      8  O   UNL     1       5.057  -5.665 -21.050  1.00  0.00    -0.388 OA
ATOM      9  H   UNL     1       5.979  -5.994 -21.219  1.00  0.00     0.211 HD
ENDBRANCH   1   8
TORSDOF 5
ENDMDL
MODEL 9
REMARK VINA RESULT:    -3.209      0.688      2.149
REMARK INTER + INTRA:          -4.090
REMARK INTER:                  -4.082
REMARK INTRA:                  -0.008
REMARK UNBOUND:                -0.224
REMARK SMILES OCC(O)CO
REMARK SMILES IDX 3 1 5 2 6 3 2 5 1 6 4 8
REMARK H PARENT 6 4 1 7 4 9
REMARK Flexibility Score: inf
ROOT
ATOM      1  C   UNL     1       3.786  -5.852 -22.877  1.00  0.00     0.165 C 
ENDROOT
BRANCH   1   2
ATOM      2  C   UNL     1       4.518  -5.648 -24.209  1.00  0.00     0.190 C 
BRANCH   2   3
ATOM      3  O   UNL     1       4.361  -4.328 -24.656  1.00  0.00    -0.394 OA
ATOM      4  H   UNL     1       3.782  -4.366 -25.462  1.00  0.00     0.210 HD
ENDBRANCH   2   3
ENDBRANCH   1   2
BRANCH   1   5
ATOM      5  C   UNL     1       4.435  -5.003 -21.772  1.00  0.00     0.190 C 
BRANCH   5   6
ATOM      6  O   UNL     1       5.312  -5.781 -21.003  1.00  0.00    -0.394 OA
ATOM      7  H   UNL     1       5.031  -6.726 -21.119  1.00  0.00     0.210 HD
ENDBRANCH   5   6
ENDBRANCH   1   5
BRANCH   1   8
ATOM      8  O   UNL     1       3.834  -7.210 -22.524  1.00  0.00    -0.388 OA
ATOM      9  H   UNL     1       4.020  -7.719 -23.356  1.00  0.00     0.211 HD
ENDBRANCH   1   8
TORSDOF 5
ENDMDL
