MODEL 1
REMARK VINA RESULT:    -1.815      0.000      0.000
REMARK INTER + INTRA:          -2.629
REMARK INTER:                  -2.451
REMARK INTRA:                  -0.178
REMARK UNBOUND:                -0.178
REMARK SMILES CCCCCCCC(=O)[O-]
REMARK SMILES IDX 5 1 6 2 7 3 8 4 9 5 10 6 4 7 3 8 2 9 1 10
REMARK H PARENT
REMARK Flexibility Score: inf
ROOT
ATOM      1  C   UNL     1     -19.978   4.014 -15.495  1.00  0.00     0.000 C 
ENDROOT
BRANCH   1   2
ATOM      2  C   UNL     1     -19.927   5.552 -15.385  1.00  0.00     0.006 C 
BRANCH   2   3
ATOM      3  C   UNL     1     -19.976   6.266 -16.746  1.00  0.00     0.053 C 
BRANCH   3   4
ATOM      4  C   UNL     1     -18.656   6.238 -17.452  1.00  0.00     0.041 C 
ATOM      5  O   UNL     1     -18.508   5.538 -18.489  1.00  0.00    -0.550 OA
ATOM      6  O   UNL     1     -17.583   6.961 -16.950  1.00  0.00    -0.550 OA
ENDBRANCH   3   4
ENDBRANCH   2   3
ENDBRANCH   1   2
BRANCH   1   7
ATOM      7  C   UNL     1     -19.385   3.318 -14.257  1.00  0.00     0.000 C 
BRANCH   7   8
ATOM      8  C   UNL     1     -19.961   1.909 -14.028  1.00  0.00    -0.000 C 
BRANCH   8   9
ATOM      9  C   UNL     1     -18.974   0.757 -14.287  1.00  0.00    -0.003 C 
ATOM     10  C   UNL     1     -19.622  -0.442 -14.978  1.00  0.00     0.004 C 
ENDBRANCH   8   9
ENDBRANCH   7   8
ENDBRANCH   1   7
TORSDOF 6
ENDMDL
MODEL 2
REMARK VINA RESULT:    -0.601      1.433      1.666
REMARK INTER + INTRA:          -0.990
REMARK INTER:                  -0.803
REMARK INTRA:                  -0.187
REMARK UNBOUND:                -0.178
REMARK SMILES CCCCCCCC(=O)[O-]
REMARK SMILES IDX 5 1 6 2 7 3 8 4 9 5 10 6 4 7 3 8 2 9 1 10
REMARK H PARENT
REMARK Flexibility Score: inf
ROOT
ATOM      1  C   UNL     1     -20.026   2.462 -17.144  1.00  0.00     0.000 C 
ENDROOT
BRANCH   1   2
ATOM      2  C   UNL     1     -20.125   3.883 -16.552  1.00  0.00     0.006 C 
BRANCH   2   3
ATOM      3  C   UNL     1     -19.778   4.992 -17.559  1.00  0.00     0.053 C 
BRANCH   3   4
ATOM      4  C   UNL     1     -18.808   5.985 -17.001  1.00  0.00     0.041 C 
ATOM      5  O   UNL     1     -17.621   6.015 -17.420  1.00  0.00    -0.550 OA
ATOM      6  O   UNL     1     -19.206   6.859 -15.998  1.00  0.00    -0.550 OA
ENDBRANCH   3   4
ENDBRANCH   2   3
ENDBRANCH   1   2
BRANCH   1   7
ATOM      7  C   UNL     1     -20.125   1.369 -16.065  1.00  0.00     0.000 C 
BRANCH   7   8
ATOM      8  C   UNL     1     -19.329   1.712 -14.791  1.00  0.00    -0.000 C 
BRANCH   8   9
ATOM      9  C   UNL     1     -18.600   0.520 -14.146  1.00  0.00    -0.003 C 
ATOM     10  C   UNL     1     -19.520  -0.670 -13.878  1.00  0.00     0.004 C 
ENDBRANCH   8   9
ENDBRANCH   7   8
ENDBRANCH   1   7
TORSDOF 6
ENDMDL
MODEL 3
REMARK VINA RESULT:    -0.147      1.941      2.656
REMARK INTER + INTRA:          -0.376
REMARK INTER:                  -0.180
REMARK INTRA:                  -0.195
REMARK UNBOUND:                -0.178
REMARK SMILES CCCCCCCC(=O)[O-]
REMARK SMILES IDX 5 1 6 2 7 3 8 4 9 5 10 6 4 7 3 8 2 9 1 10
REMARK H PARENT
REMARK Flexibility Score: inf
ROOT
ATOM      1  C   UNL     1     -18.444   2.253 -13.882  1.00  0.00     0.000 C 
ENDROOT
BRANCH   1   2
ATOM      2  C   UNL     1     -19.227   3.470 -14.416  1.00  0.00     0.006 C 
BRANCH   2   3
ATOM      3  C   UNL     1     -18.715   4.815 -13.875  1.00  0.00     0.053 C 
BRANCH   3   4
ATOM      4  C   UNL     1     -17.673   5.425 -14.759  1.00  0.00     0.041 C 
ATOM      5  O   UNL     1     -17.969   5.790 -15.928  1.00  0.00    -0.550 OA
ATOM      6  O   UNL     1     -16.369   5.563 -14.304  1.00  0.00    -0.550 OA
ENDBRANCH   3   4
ENDBRANCH   2   3
ENDBRANCH   1   2
BRANCH   1   7
ATOM      7  C   UNL     1     -19.291   0.968 -13.875  1.00  0.00     0.000 C 
BRANCH   7   8
ATOM      8  C   UNL     1     -19.879   0.631 -15.258  1.00  0.00    -0.000 C 
BRANCH   8   9
ATOM      9  C   UNL     1     -19.094  -0.426 -16.054  1.00  0.00    -0.003 C 
ATOM     10  C   UNL     1     -19.935  -1.110 -17.131  1.00  0.00     0.004 C 
ENDBRANCH   8   9
ENDBRANCH   7   8
ENDBRANCH   1   7
TORSDOF 6
ENDMDL
MODEL 4
REMARK VINA RESULT:    -0.124      1.165      1.797
REMARK INTER + INTRA:          -0.346
REMARK INTER:                  -0.139
REMARK INTRA:                  -0.207
REMARK UNBOUND:                -0.178
REMARK SMILES CCCCCCCC(=O)[O-]
REMARK SMILES IDX 5 1 6 2 7 3 8 4 9 5 10 6 4 7 3 8 2 9 1 10
REMARK H PARENT
REMARK Flexibility Score: inf
ROOT
ATOM      1  C   UNL     1     -19.068   3.533 -14.377  1.00  0.00     0.000 C 
ENDROOT
BRANCH   1   2
ATOM      2  C   UNL     1     -19.909   4.816 -14.220  1.00  0.00     0.006 C 
BRANCH   2   3
ATOM      3  C   UNL     1     -19.942   5.688 -15.487  1.00  0.00     0.053 C 
BRANCH   3   4
ATOM      4  C   UNL     1     -18.639   6.380 -15.735  1.00  0.00     0.041 C 
ATOM      5  O   UNL     1     -17.936   6.775 -14.767  1.00  0.00    -0.550 OA
ATOM      6  O   UNL     1     -18.213   6.615 -17.036  1.00  0.00    -0.550 OA
ENDBRANCH   3   4
ENDBRANCH   2   3
ENDBRANCH   1   2
BRANCH   1   7
ATOM      7  C   UNL     1     -19.824   2.276 -13.912  1.00  0.00     0.000 C 
BRANCH   7   8
ATOM      8  C   UNL     1     -20.125   1.298 -15.063  1.00  0.00    -0.000 C 
BRANCH   8   9
ATOM      9  C   UNL     1     -19.923  -0.188 -14.718  1.00  0.00    -0.003 C 
ATOM     10  C   UNL     1     -18.672  -0.442 -13.879  1.00  0.00     0.004 C 
ENDBRANCH   8   9
ENDBRANCH   7   8
ENDBRANCH   1   7
TORSDOF 6
ENDMDL
MODEL 5
REMARK VINA RESULT:     0.130      1.623      2.191
REMARK INTER + INTRA:          -0.002
REMARK INTER:                   0.022
REMARK INTRA:                  -0.023
REMARK UNBOUND:                -0.178
REMARK SMILES CCCCCCCC(=O)[O-]
REMARK SMILES IDX 5 1 6 2 7 3 8 4 9 5 10 6 4 7 3 8 2 9 1 10
REMARK H PARENT
REMARK Flexibility Score: inf
ROOT
ATOM      1  C   UNL     1     -18.878   2.874 -15.268  1.00  0.00     0.000 C 
ENDROOT
BRANCH   1   2
ATOM      2  C   UNL     1     -18.513   3.610 -13.962  1.00  0.00     0.006 C 
BRANCH   2   3
ATOM      3  C   UNL     1     -19.094   5.031 -13.876  1.00  0.00     0.053 C 
BRANCH   3   4
ATOM      4  C   UNL     1     -19.085   5.731 -15.199  1.00  0.00     0.041 C 
ATOM      5  O   UNL     1     -20.069   5.627 -15.978  1.00  0.00    -0.550 OA
ATOM      6  O   UNL     1     -17.978   6.476 -15.584  1.00  0.00    -0.550 OA
ENDBRANCH   3   4
ENDBRANCH   2   3
ENDBRANCH   1   2
BRANCH   1   7
ATOM      7  C   UNL     1     -20.125   1.986 -15.111  1.00  0.00     0.000 C 
BRANCH   7   8
ATOM      8  C   UNL     1     -19.830   0.663 -14.380  1.00  0.00    -0.000 C 
BRANCH   8   9
ATOM      9  C   UNL     1     -19.790  -0.580 -15.286  1.00  0.00    -0.003 C 
ATOM     10  C   UNL     1     -19.923  -1.890 -14.510  1.00  0.00     0.004 C 
ENDBRANCH   8   9
ENDBRANCH   7   8
ENDBRANCH   1   7
TORSDOF 6
ENDMDL
