MODEL 1
REMARK VINA RESULT:    -4.067      0.000      0.000
REMARK INTER + INTRA:          -7.198
REMARK INTER:                  -6.207
REMARK INTRA:                  -0.991
REMARK UNBOUND:                -0.991
REMARK SMILES O=C([O-])CCCCCCCCC(=O)[O-]
REMARK SMILES IDX 7 1 6 2 5 3 4 4 2 5 1 6 3 7 8 8 9 9 10 10 11 11 12 12 13 13
REMARK SMILES IDX 14 14
REMARK H PARENT
REMARK Flexibility Score: inf
ROOT
ATOM      1  C   UNL     1     -32.981  11.860  14.644  1.00  0.00     0.000 C 
ENDROOT
BRANCH   1   2
ATOM      2  C   UNL     1     -33.173  11.242  13.248  1.00  0.00     0.000 C 
BRANCH   2   3
ATOM      3  C   UNL     1     -32.033  10.319  12.782  1.00  0.00     0.006 C 
BRANCH   3   4
ATOM      4  C   UNL     1     -30.721  10.561  13.541  1.00  0.00     0.053 C 
BRANCH   4   5
ATOM      5  C   UNL     1     -29.585  10.726  12.581  1.00  0.00     0.041 C 
ATOM      6  O   UNL     1     -29.607  10.141  11.466  1.00  0.00    -0.550 OA
ATOM      7  O   UNL     1     -28.525  11.567  12.896  1.00  0.00    -0.550 OA
ENDBRANCH   4   5
ENDBRANCH   3   4
ENDBRANCH   2   3
ENDBRANCH   1   2
BRANCH   1   8
ATOM      8  C   UNL     1     -33.146  13.387  14.650  1.00  0.00     0.000 C 
BRANCH   8   9
ATOM      9  C   UNL     1     -32.786  13.985  13.284  1.00  0.00     0.000 C 
BRANCH   9  10
ATOM     10  C   UNL     1     -31.282  14.262  13.183  1.00  0.00     0.006 C 
BRANCH  10  11
ATOM     11  C   UNL     1     -30.777  15.017  14.416  1.00  0.00     0.053 C 
BRANCH  11  12
ATOM     12  C   UNL     1     -29.546  14.366  14.961  1.00  0.00     0.041 C 
ATOM     13  O   UNL     1     -28.416  14.886  14.768  1.00  0.00    -0.550 OA
ATOM     14  O   UNL     1     -29.641  13.159  15.642  1.00  0.00    -0.550 OA
ENDBRANCH  11  12
ENDBRANCH  10  11
ENDBRANCH   9  10
ENDBRANCH   8   9
ENDBRANCH   1   8
TORSDOF 9
ENDMDL
MODEL 2
REMARK VINA RESULT:    -4.028      1.650      4.799
REMARK INTER + INTRA:          -7.138
REMARK INTER:                  -6.522
REMARK INTRA:                  -0.617
REMARK UNBOUND:                -0.991
REMARK SMILES O=C([O-])CCCCCCCCC(=O)[O-]
REMARK SMILES IDX 7 1 6 2 5 3 4 4 2 5 1 6 3 7 8 8 9 9 10 10 11 11 12 12 13 13
REMARK SMILES IDX 14 14
REMARK H PARENT
REMARK Flexibility Score: inf
ROOT
ATOM      1  C   UNL     1     -31.182  14.963  14.068  1.00  0.00     0.000 C 
ENDROOT
BRANCH   1   2
ATOM      2  C   UNL     1     -31.124  14.723  15.587  1.00  0.00     0.000 C 
BRANCH   2   3
ATOM      3  C   UNL     1     -29.737  14.918  16.225  1.00  0.00     0.006 C 
BRANCH   3   4
ATOM      4  C   UNL     1     -28.605  14.971  15.190  1.00  0.00     0.053 C 
BRANCH   4   5
ATOM      5  C   UNL     1     -27.315  15.349  15.845  1.00  0.00     0.041 C 
ATOM      6  O   UNL     1     -26.284  15.548  15.147  1.00  0.00    -0.550 OA
ATOM      7  O   UNL     1     -27.260  15.533  17.220  1.00  0.00    -0.550 OA
ENDBRANCH   4   5
ENDBRANCH   3   4
ENDBRANCH   2   3
ENDBRANCH   1   2
BRANCH   1   8
ATOM      8  C   UNL     1     -32.467  14.421  13.425  1.00  0.00     0.000 C 
BRANCH   8   9
ATOM      9  C   UNL     1     -32.340  12.924  13.120  1.00  0.00     0.000 C 
BRANCH   9  10
ATOM     10  C   UNL     1     -30.924  12.576  12.646  1.00  0.00     0.006 C 
BRANCH  10  11
ATOM     11  C   UNL     1     -30.433  11.276  13.290  1.00  0.00     0.053 C 
BRANCH  11  12
ATOM     12  C   UNL     1     -29.458  10.583  12.392  1.00  0.00     0.041 C 
ATOM     13  O   UNL     1     -28.228  10.846  12.468  1.00  0.00    -0.550 OA
ATOM     14  O   UNL     1     -29.911   9.682  11.437  1.00  0.00    -0.550 OA
ENDBRANCH  11  12
ENDBRANCH  10  11
ENDBRANCH   9  10
ENDBRANCH   8   9
ENDBRANCH   1   8
TORSDOF 9
ENDMDL
MODEL 3
REMARK VINA RESULT:    -4.017      1.397      2.022
REMARK INTER + INTRA:          -7.122
REMARK INTER:                  -6.228
REMARK INTRA:                  -0.894
REMARK UNBOUND:                -0.991
REMARK SMILES O=C([O-])CCCCCCCCC(=O)[O-]
REMARK SMILES IDX 7 1 6 2 5 3 4 4 2 5 1 6 3 7 8 8 9 9 10 10 11 11 12 12 13 13
REMARK SMILES IDX 14 14
REMARK H PARENT
REMARK Flexibility Score: inf
ROOT
ATOM      1  C   UNL     1     -33.460  10.399  13.563  1.00  0.00     0.000 C 
ENDROOT
BRANCH   1   2
ATOM      2  C   UNL     1     -32.531   9.601  12.631  1.00  0.00     0.000 C 
BRANCH   2   3
ATOM      3  C   UNL     1     -31.126  10.199  12.443  1.00  0.00     0.006 C 
BRANCH   3   4
ATOM      4  C   UNL     1     -30.387  10.417  13.770  1.00  0.00     0.053 C 
BRANCH   4   5
ATOM      5  C   UNL     1     -28.907  10.412  13.552  1.00  0.00     0.041 C 
ATOM      6  O   UNL     1     -28.141   9.894  14.408  1.00  0.00    -0.550 OA
ATOM      7  O   UNL     1     -28.375  10.933  12.379  1.00  0.00    -0.550 OA
ENDBRANCH   4   5
ENDBRANCH   3   4
ENDBRANCH   2   3
ENDBRANCH   1   2
BRANCH   1   8
ATOM      8  C   UNL     1     -33.972  11.700  12.927  1.00  0.00     0.000 C 
BRANCH   8   9
ATOM      9  C   UNL     1     -33.930  12.858  13.932  1.00  0.00     0.000 C 
BRANCH   9  10
ATOM     10  C   UNL     1     -33.163  14.056  13.363  1.00  0.00     0.006 C 
BRANCH  10  11
ATOM     11  C   UNL     1     -31.893  14.332  14.173  1.00  0.00     0.053 C 
BRANCH  11  12
ATOM     12  C   UNL     1     -30.675  14.050  13.352  1.00  0.00     0.041 C 
ATOM     13  O   UNL     1     -29.528  14.229  13.839  1.00  0.00    -0.550 OA
ATOM     14  O   UNL     1     -30.807  13.637  12.032  1.00  0.00    -0.550 OA
ENDBRANCH  11  12
ENDBRANCH  10  11
ENDBRANCH   9  10
ENDBRANCH   8   9
ENDBRANCH   1   8
TORSDOF 9
ENDMDL
MODEL 4
REMARK VINA RESULT:    -3.980      0.911      3.907
REMARK INTER + INTRA:          -7.065
REMARK INTER:                  -6.168
REMARK INTRA:                  -0.897
REMARK UNBOUND:                -0.991
REMARK SMILES O=C([O-])CCCCCCCCC(=O)[O-]
REMARK SMILES IDX 7 1 6 2 5 3 4 4 2 5 1 6 3 7 8 8 9 9 10 10 11 11 12 12 13 13
REMARK SMILES IDX 14 14
REMARK H PARENT
REMARK Flexibility Score: inf
ROOT
ATOM      1  C   UNL     1     -33.283  13.074  14.247  1.00  0.00     0.000 C 
ENDROOT
BRANCH   1   2
ATOM      2  C   UNL     1     -32.745  14.161  13.300  1.00  0.00     0.000 C 
BRANCH   2   3
ATOM      3  C   UNL     1     -31.222  14.375  13.353  1.00  0.00     0.006 C 
BRANCH   3   4
ATOM      4  C   UNL     1     -30.759  15.059  14.646  1.00  0.00     0.053 C 
BRANCH   4   5
ATOM      5  C   UNL     1     -29.489  14.440  15.139  1.00  0.00     0.041 C 
ATOM      6  O   UNL     1     -28.376  14.930  14.811  1.00  0.00    -0.550 OA
ATOM      7  O   UNL     1     -29.535  13.353  16.003  1.00  0.00    -0.550 OA
ENDBRANCH   4   5
ENDBRANCH   3   4
ENDBRANCH   2   3
ENDBRANCH   1   2
BRANCH   1   8
ATOM      8  C   UNL     1     -32.358  11.851  14.341  1.00  0.00     0.000 C 
BRANCH   8   9
ATOM      9  C   UNL     1     -32.456  10.990  13.076  1.00  0.00     0.000 C 
BRANCH   9  10
ATOM     10  C   UNL     1     -31.088  10.412  12.696  1.00  0.00     0.006 C 
BRANCH  10  11
ATOM     11  C   UNL     1     -30.133  10.426  13.893  1.00  0.00     0.053 C 
BRANCH  11  12
ATOM     12  C   UNL     1     -28.760  10.835  13.464  1.00  0.00     0.041 C 
ATOM     13  O   UNL     1     -28.553  11.999  13.027  1.00  0.00    -0.550 OA
ATOM     14  O   UNL     1     -27.718   9.917  13.499  1.00  0.00    -0.550 OA
ENDBRANCH  11  12
ENDBRANCH  10  11
ENDBRANCH   9  10
ENDBRANCH   8   9
ENDBRANCH   1   8
TORSDOF 9
ENDMDL
MODEL 5
REMARK VINA RESULT:    -3.954      1.475      2.080
REMARK INTER + INTRA:          -7.025
REMARK INTER:                  -6.251
REMARK INTRA:                  -0.774
REMARK UNBOUND:                -0.991
REMARK SMILES O=C([O-])CCCCCCCCC(=O)[O-]
REMARK SMILES IDX 7 1 6 2 5 3 4 4 2 5 1 6 3 7 8 8 9 9 10 10 11 11 12 12 13 13
REMARK SMILES IDX 14 14
REMARK H PARENT
REMARK Flexibility Score: inf
ROOT
ATOM      1  C   UNL     1     -32.512  13.047  14.291  1.00  0.00     0.000 C 
ENDROOT
BRANCH   1   2
ATOM      2  C   UNL     1     -32.806  11.929  13.275  1.00  0.00     0.000 C 
BRANCH   2   3
ATOM      3  C   UNL     1     -31.644  10.950  13.029  1.00  0.00     0.006 C 
BRANCH   3   4
ATOM      4  C   UNL     1     -30.448  11.197  13.958  1.00  0.00     0.053 C 
BRANCH   4   5
ATOM      5  C   UNL     1     -29.193  11.366  13.162  1.00  0.00     0.041 C 
ATOM      6  O   UNL     1     -28.422  12.336  13.392  1.00  0.00    -0.550 OA
ATOM      7  O   UNL     1     -28.848  10.426  12.199  1.00  0.00    -0.550 OA
ENDBRANCH   4   5
ENDBRANCH   3   4
ENDBRANCH   2   3
ENDBRANCH   1   2
BRANCH   1   8
ATOM      8  C   UNL     1     -32.350  14.426  13.634  1.00  0.00     0.000 C 
BRANCH   8   9
ATOM      9  C   UNL     1     -30.920  14.954  13.808  1.00  0.00     0.000 C 
BRANCH   9  10
ATOM     10  C   UNL     1     -30.389  14.652  15.214  1.00  0.00     0.006 C 
BRANCH  10  11
ATOM     11  C   UNL     1     -28.908  15.024  15.334  1.00  0.00     0.053 C 
BRANCH  11  12
ATOM     12  C   UNL     1     -28.596  15.493  16.719  1.00  0.00     0.041 C 
ATOM     13  O   UNL     1     -29.475  16.085  17.401  1.00  0.00    -0.550 OA
ATOM     14  O   UNL     1     -27.321  15.320  17.241  1.00  0.00    -0.550 OA
ENDBRANCH  11  12
ENDBRANCH  10  11
ENDBRANCH   9  10
ENDBRANCH   8   9
ENDBRANCH   1   8
TORSDOF 9
ENDMDL
MODEL 6
REMARK VINA RESULT:    -3.895      2.523      3.515
REMARK INTER + INTRA:          -6.935
REMARK INTER:                  -6.384
REMARK INTRA:                  -0.551
REMARK UNBOUND:                -0.991
REMARK SMILES O=C([O-])CCCCCCCCC(=O)[O-]
REMARK SMILES IDX 7 1 6 2 5 3 4 4 2 5 1 6 3 7 8 8 9 9 10 10 11 11 12 12 13 13
REMARK SMILES IDX 14 14
REMARK H PARENT
REMARK Flexibility Score: inf
ROOT
ATOM      1  C   UNL     1     -31.243  15.168  13.883  1.00  0.00     0.000 C 
ENDROOT
BRANCH   1   2
ATOM      2  C   UNL     1     -32.282  14.166  13.348  1.00  0.00     0.000 C 
BRANCH   2   3
ATOM      3  C   UNL     1     -31.824  12.697  13.337  1.00  0.00     0.006 C 
BRANCH   3   4
ATOM      4  C   UNL     1     -30.562  12.471  12.495  1.00  0.00     0.053 C 
BRANCH   4   5
ATOM      5  C   UNL     1     -29.579  11.627  13.243  1.00  0.00     0.041 C 
ATOM      6  O   UNL     1     -28.354  11.670  12.949  1.00  0.00    -0.550 OA
ATOM      7  O   UNL     1     -30.006  10.831  14.298  1.00  0.00    -0.550 OA
ENDBRANCH   4   5
ENDBRANCH   3   4
ENDBRANCH   2   3
ENDBRANCH   1   2
BRANCH   1   8
ATOM      8  C   UNL     1     -30.624  14.732  15.220  1.00  0.00     0.000 C 
BRANCH   8   9
ATOM      9  C   UNL     1     -29.093  14.712  15.136  1.00  0.00     0.000 C 
BRANCH   9  10
ATOM     10  C   UNL     1     -28.462  15.056  16.489  1.00  0.00     0.006 C 
BRANCH  10  11
ATOM     11  C   UNL     1     -29.428  15.868  17.356  1.00  0.00     0.053 C 
BRANCH  11  12
ATOM     12  C   UNL     1     -28.674  16.689  18.354  1.00  0.00     0.041 C 
ATOM     13  O   UNL     1     -27.592  16.262  18.837  1.00  0.00    -0.550 OA
ATOM     14  O   UNL     1     -29.190  17.903  18.788  1.00  0.00    -0.550 OA
ENDBRANCH  11  12
ENDBRANCH  10  11
ENDBRANCH   9  10
ENDBRANCH   8   9
ENDBRANCH   1   8
TORSDOF 9
ENDMDL
MODEL 7
REMARK VINA RESULT:    -3.749      2.548      5.376
REMARK INTER + INTRA:          -6.713
REMARK INTER:                  -6.218
REMARK INTRA:                  -0.495
REMARK UNBOUND:                -0.991
REMARK SMILES O=C([O-])CCCCCCCCC(=O)[O-]
REMARK SMILES IDX 7 1 6 2 5 3 4 4 2 5 1 6 3 7 8 8 9 9 10 10 11 11 12 12 13 13
REMARK SMILES IDX 14 14
REMARK H PARENT
REMARK Flexibility Score: inf
ROOT
ATOM      1  C   UNL     1     -31.050  14.131  15.948  1.00  0.00     0.000 C 
ENDROOT
BRANCH   1   2
ATOM      2  C   UNL     1     -30.585  15.040  17.099  1.00  0.00     0.000 C 
BRANCH   2   3
ATOM      3  C   UNL     1     -29.197  15.676  16.906  1.00  0.00     0.006 C 
BRANCH   3   4
ATOM      4  C   UNL     1     -28.548  16.107  18.229  1.00  0.00     0.053 C 
BRANCH   4   5
ATOM      5  C   UNL     1     -27.391  15.218  18.557  1.00  0.00     0.041 C 
ATOM      6  O   UNL     1     -27.525  14.285  19.393  1.00  0.00    -0.550 OA
ATOM      7  O   UNL     1     -26.177  15.386  17.903  1.00  0.00    -0.550 OA
ENDBRANCH   4   5
ENDBRANCH   3   4
ENDBRANCH   2   3
ENDBRANCH   1   2
BRANCH   1   8
ATOM      8  C   UNL     1     -30.994  14.823  14.578  1.00  0.00     0.000 C 
BRANCH   8   9
ATOM      9  C   UNL     1     -31.816  14.052  13.538  1.00  0.00     0.000 C 
BRANCH   9  10
ATOM     10  C   UNL     1     -30.903  13.321  12.546  1.00  0.00     0.006 C 
BRANCH  10  11
ATOM     11  C   UNL     1     -30.647  11.880  12.993  1.00  0.00     0.053 C 
BRANCH  11  12
ATOM     12  C   UNL     1     -29.179  11.618  13.103  1.00  0.00     0.041 C 
ATOM     13  O   UNL     1     -28.405  12.516  13.529  1.00  0.00    -0.550 OA
ATOM     14  O   UNL     1     -28.657  10.399  12.689  1.00  0.00    -0.550 OA
ENDBRANCH  11  12
ENDBRANCH  10  11
ENDBRANCH   9  10
ENDBRANCH   8   9
ENDBRANCH   1   8
TORSDOF 9
ENDMDL
MODEL 8
REMARK VINA RESULT:    -3.727      1.330      1.853
REMARK INTER + INTRA:          -6.679
REMARK INTER:                  -5.699
REMARK INTRA:                  -0.980
REMARK UNBOUND:                -0.991
REMARK SMILES O=C([O-])CCCCCCCCC(=O)[O-]
REMARK SMILES IDX 7 1 6 2 5 3 4 4 2 5 1 6 3 7 8 8 9 9 10 10 11 11 12 12 13 13
REMARK SMILES IDX 14 14
REMARK H PARENT
REMARK Flexibility Score: inf
ROOT
ATOM      1  C   UNL     1     -32.532  11.545  14.701  1.00  0.00     0.000 C 
ENDROOT
BRANCH   1   2
ATOM      2  C   UNL     1     -31.603  11.342  15.911  1.00  0.00     0.000 C 
BRANCH   2   3
ATOM      3  C   UNL     1     -30.105  11.244  15.573  1.00  0.00     0.006 C 
BRANCH   3   4
ATOM      4  C   UNL     1     -29.811  10.242  14.449  1.00  0.00     0.053 C 
BRANCH   4   5
ATOM      5  C   UNL     1     -28.584  10.648  13.695  1.00  0.00     0.041 C 
ATOM      6  O   UNL     1     -27.572   9.898  13.680  1.00  0.00    -0.550 OA
ATOM      7  O   UNL     1     -28.575  11.831  12.965  1.00  0.00    -0.550 OA
ENDBRANCH   4   5
ENDBRANCH   3   4
ENDBRANCH   2   3
ENDBRANCH   1   2
BRANCH   1   8
ATOM      8  C   UNL     1     -33.350  12.842  14.784  1.00  0.00     0.000 C 
BRANCH   8   9
ATOM      9  C   UNL     1     -33.159  13.695  13.524  1.00  0.00     0.000 C 
BRANCH   9  10
ATOM     10  C   UNL     1     -31.674  13.826  13.168  1.00  0.00     0.006 C 
BRANCH  10  11
ATOM     11  C   UNL     1     -31.088  15.127  13.724  1.00  0.00     0.053 C 
BRANCH  11  12
ATOM     12  C   UNL     1     -30.165  14.840  14.866  1.00  0.00     0.041 C 
ATOM     13  O   UNL     1     -30.609  14.795  16.044  1.00  0.00    -0.550 OA
ATOM     14  O   UNL     1     -28.806  14.669  14.635  1.00  0.00    -0.550 OA
ENDBRANCH  11  12
ENDBRANCH  10  11
ENDBRANCH   9  10
ENDBRANCH   8   9
ENDBRANCH   1   8
TORSDOF 9
ENDMDL
MODEL 9
REMARK VINA RESULT:    -3.722      1.398      3.779
REMARK INTER + INTRA:          -6.672
REMARK INTER:                  -5.700
REMARK INTRA:                  -0.973
REMARK UNBOUND:                -0.991
REMARK SMILES O=C([O-])CCCCCCCCC(=O)[O-]
REMARK SMILES IDX 7 1 6 2 5 3 4 4 2 5 1 6 3 7 8 8 9 9 10 10 11 11 12 12 13 13
REMARK SMILES IDX 14 14
REMARK H PARENT
REMARK Flexibility Score: inf
ROOT
ATOM      1  C   UNL     1     -33.775  11.676  15.208  1.00  0.00     0.000 C 
ENDROOT
BRANCH   1   2
ATOM      2  C   UNL     1     -33.353  13.156  15.177  1.00  0.00     0.000 C 
BRANCH   2   3
ATOM      3  C   UNL     1     -33.050  13.718  13.777  1.00  0.00     0.006 C 
BRANCH   3   4
ATOM      4  C   UNL     1     -31.926  14.761  13.782  1.00  0.00     0.053 C 
BRANCH   4   5
ATOM      5  C   UNL     1     -30.682  14.193  13.175  1.00  0.00     0.041 C 
ATOM      6  O   UNL     1     -29.594  14.227  13.810  1.00  0.00    -0.550 OA
ATOM      7  O   UNL     1     -30.733  13.581  11.929  1.00  0.00    -0.550 OA
ENDBRANCH   4   5
ENDBRANCH   3   4
ENDBRANCH   2   3
ENDBRANCH   1   2
BRANCH   1   8
ATOM      8  C   UNL     1     -33.525  10.955  13.874  1.00  0.00     0.000 C 
BRANCH   8   9
ATOM      9  C   UNL     1     -32.398   9.923  14.010  1.00  0.00     0.000 C 
BRANCH   9  10
ATOM     10  C   UNL     1     -31.144  10.373  13.252  1.00  0.00     0.006 C 
BRANCH  10  11
ATOM     11  C   UNL     1     -30.015  10.732  14.222  1.00  0.00     0.053 C 
BRANCH  11  12
ATOM     12  C   UNL     1     -28.683  10.535  13.572  1.00  0.00     0.041 C 
ATOM     13  O   UNL     1     -28.475  10.969  12.408  1.00  0.00    -0.550 OA
ATOM     14  O   UNL     1     -27.685   9.828  14.232  1.00  0.00    -0.550 OA
ENDBRANCH  11  12
ENDBRANCH  10  11
ENDBRANCH   9  10
ENDBRANCH   8   9
ENDBRANCH   1   8
TORSDOF 9
ENDMDL
