MODEL 1
REMARK VINA RESULT:    -5.332      0.000      0.000
REMARK INTER + INTRA:          -6.397
REMARK INTER:                  -6.267
REMARK INTRA:                  -0.130
REMARK UNBOUND:                -0.130
REMARK SMILES O=C([O-])C=Cc1ccc(O)c(O)c1
REMARK SMILES IDX 6 1 13 2 7 3 11 4 8 5 9 6 5 7 4 8 2 9 1 10 3 11 12 12 10 14
REMARK H PARENT 12 13 10 15
REMARK Flexibility Score: inf
ROOT
ATOM      1  C   UNL     1      18.567   3.202  23.195  1.00  0.00    -0.022 A 
ATOM      2  C   UNL     1      17.315   3.694  22.794  1.00  0.00     0.058 A 
ATOM      3  C   UNL     1      19.682   4.060  23.140  1.00  0.00     0.012 A 
ATOM      4  C   UNL     1      17.159   5.019  22.370  1.00  0.00     0.157 A 
ATOM      5  C   UNL     1      19.535   5.382  22.717  1.00  0.00     0.051 A 
ATOM      6  C   UNL     1      18.283   5.876  22.334  1.00  0.00     0.157 A 
ENDROOT
BRANCH   1   7
ATOM      7  C   UNL     1      18.670   1.785  23.624  1.00  0.00     0.010 C 
ATOM      8  C   UNL     1      19.332   0.844  22.936  1.00  0.00     0.025 C 
BRANCH   8   9
ATOM      9  C   UNL     1      19.423  -0.551  23.400  1.00  0.00     0.064 C 
ATOM     10  O   UNL     1      20.348  -1.311  23.006  1.00  0.00    -0.545 OA
ATOM     11  O   UNL     1      18.473  -1.037  24.289  1.00  0.00    -0.545 OA
ENDBRANCH   8   9
ENDBRANCH   1   7
BRANCH   4  12
ATOM     12  O   UNL     1      15.880   5.438  21.995  1.00  0.00    -0.504 OA
ATOM     13  H   UNL     1      15.265   5.975  22.589  1.00  0.00     0.293 HD
ENDBRANCH   4  12
BRANCH   6  14
ATOM     14  O   UNL     1      18.205   7.209  21.926  1.00  0.00    -0.504 OA
ATOM     15  H   UNL     1      17.927   7.502  21.001  1.00  0.00     0.293 HD
ENDBRANCH   6  14
TORSDOF 4
ENDMDL
MODEL 2
REMARK VINA RESULT:    -5.302     12.995     13.692
REMARK INTER + INTRA:          -6.362
REMARK INTER:                  -6.233
REMARK INTRA:                  -0.129
REMARK UNBOUND:                -0.130
REMARK SMILES O=C([O-])C=Cc1ccc(O)c(O)c1
REMARK SMILES IDX 6 1 13 2 7 3 11 4 8 5 9 6 5 7 4 8 2 9 1 10 3 11 12 12 10 14
REMARK H PARENT 12 13 10 15
REMARK Flexibility Score: inf
ROOT
ATOM      1  C   UNL     1      30.408   7.923  20.023  1.00  0.00    -0.022 A 
ATOM      2  C   UNL     1      30.731   8.411  18.747  1.00  0.00     0.058 A 
ATOM      3  C   UNL     1      29.763   8.781  20.934  1.00  0.00     0.012 A 
ATOM      4  C   UNL     1      30.399   9.716  18.365  1.00  0.00     0.157 A 
ATOM      5  C   UNL     1      29.429  10.084  20.561  1.00  0.00     0.051 A 
ATOM      6  C   UNL     1      29.736  10.564  19.282  1.00  0.00     0.157 A 
ENDROOT
BRANCH   1   7
ATOM      7  C   UNL     1      30.796   6.534  20.372  1.00  0.00     0.010 C 
ATOM      8  C   UNL     1      32.050   6.065  20.283  1.00  0.00     0.025 C 
BRANCH   8   9
ATOM      9  C   UNL     1      32.399   4.683  20.651  1.00  0.00     0.064 C 
ATOM     10  O   UNL     1      33.559   4.385  21.043  1.00  0.00    -0.545 OA
ATOM     11  O   UNL     1      31.433   3.689  20.564  1.00  0.00    -0.545 OA
ENDBRANCH   8   9
ENDBRANCH   1   7
BRANCH   4  12
ATOM     12  O   UNL     1      30.745  10.127  17.075  1.00  0.00    -0.504 OA
ATOM     13  H   UNL     1      30.155  10.001  16.265  1.00  0.00     0.293 HD
ENDBRANCH   4  12
BRANCH   6  14
ATOM     14  O   UNL     1      29.370  11.875  18.973  1.00  0.00    -0.504 OA
ATOM     15  H   UNL     1      28.819  12.133  18.167  1.00  0.00     0.293 HD
ENDBRANCH   6  14
TORSDOF 4
ENDMDL
MODEL 3
REMARK VINA RESULT:    -5.270     13.226     15.687
REMARK INTER + INTRA:          -6.324
REMARK INTER:                  -6.194
REMARK INTRA:                  -0.130
REMARK UNBOUND:                -0.130
REMARK SMILES O=C([O-])C=Cc1ccc(O)c(O)c1
REMARK SMILES IDX 6 1 13 2 7 3 11 4 8 5 9 6 5 7 4 8 2 9 1 10 3 11 12 12 10 14
REMARK H PARENT 12 13 10 15
REMARK Flexibility Score: inf
ROOT
ATOM      1  C   UNL     1      30.108  10.542  18.902  1.00  0.00    -0.022 A 
ATOM      2  C   UNL     1      29.922   9.766  20.056  1.00  0.00     0.058 A 
ATOM      3  C   UNL     1      30.535   9.908  17.719  1.00  0.00     0.012 A 
ATOM      4  C   UNL     1      30.129   8.381  20.039  1.00  0.00     0.157 A 
ATOM      5  C   UNL     1      30.743   8.528  17.694  1.00  0.00     0.051 A 
ATOM      6  C   UNL     1      30.541   7.752  18.841  1.00  0.00     0.157 A 
ENDROOT
BRANCH   1   7
ATOM      7  C   UNL     1      29.884  12.006  18.986  1.00  0.00     0.010 C 
ATOM      8  C   UNL     1      30.873  12.912  19.006  1.00  0.00     0.025 C 
BRANCH   8   9
ATOM      9  C   UNL     1      30.612  14.360  19.078  1.00  0.00     0.064 C 
ATOM     10  O   UNL     1      31.252  15.100  19.870  1.00  0.00    -0.545 OA
ATOM     11  O   UNL     1      29.641  14.919  18.256  1.00  0.00    -0.545 OA
ENDBRANCH   8   9
ENDBRANCH   1   7
BRANCH   4  12
ATOM     12  O   UNL     1      29.915   7.675  21.225  1.00  0.00    -0.504 OA
ATOM     13  H   UNL     1      29.132   7.057  21.381  1.00  0.00     0.293 HD
ENDBRANCH   4  12
BRANCH   6  14
ATOM     14  O   UNL     1      30.763   6.377  18.747  1.00  0.00    -0.504 OA
ATOM     15  H   UNL     1      31.317   5.848  19.404  1.00  0.00     0.293 HD
ENDBRANCH   6  14
TORSDOF 4
ENDMDL
MODEL 4
REMARK VINA RESULT:    -5.260     13.506     14.333
REMARK INTER + INTRA:          -6.313
REMARK INTER:                  -6.180
REMARK INTRA:                  -0.133
REMARK UNBOUND:                -0.130
REMARK SMILES O=C([O-])C=Cc1ccc(O)c(O)c1
REMARK SMILES IDX 6 1 13 2 7 3 11 4 8 5 9 6 5 7 4 8 2 9 1 10 3 11 12 12 10 14
REMARK H PARENT 12 13 10 15
REMARK Flexibility Score: inf
ROOT
ATOM      1  C   UNL     1      31.155   7.892  20.014  1.00  0.00    -0.022 A 
ATOM      2  C   UNL     1      31.148   8.444  18.724  1.00  0.00     0.058 A 
ATOM      3  C   UNL     1      30.416   8.528  21.029  1.00  0.00     0.012 A 
ATOM      4  C   UNL     1      30.402   9.592  18.431  1.00  0.00     0.157 A 
ATOM      5  C   UNL     1      29.669   9.673  20.745  1.00  0.00     0.051 A 
ATOM      6  C   UNL     1      29.649  10.214  19.455  1.00  0.00     0.157 A 
ENDROOT
BRANCH   1   7
ATOM      7  C   UNL     1      31.975   6.680  20.264  1.00  0.00     0.010 C 
ATOM      8  C   UNL     1      33.019   6.316  19.505  1.00  0.00     0.025 C 
BRANCH   8   9
ATOM      9  C   UNL     1      33.817   5.112  19.792  1.00  0.00     0.064 C 
ATOM     10  O   UNL     1      34.674   4.686  18.972  1.00  0.00    -0.545 OA
ATOM     11  O   UNL     1      33.622   4.434  20.988  1.00  0.00    -0.545 OA
ENDBRANCH   8   9
ENDBRANCH   1   7
BRANCH   4  12
ATOM     12  O   UNL     1      30.437  10.077  17.122  1.00  0.00    -0.504 OA
ATOM     13  H   UNL     1      30.542   9.493  16.306  1.00  0.00     0.293 HD
ENDBRANCH   4  12
BRANCH   6  14
ATOM     14  O   UNL     1      28.878  11.358  19.238  1.00  0.00    -0.504 OA
ATOM     15  H   UNL     1      29.217  12.187  18.773  1.00  0.00     0.293 HD
ENDBRANCH   6  14
TORSDOF 4
ENDMDL
MODEL 5
REMARK VINA RESULT:    -5.133     13.182     15.256
REMARK INTER + INTRA:          -6.163
REMARK INTER:                  -6.034
REMARK INTRA:                  -0.130
REMARK UNBOUND:                -0.130
REMARK SMILES O=C([O-])C=Cc1ccc(O)c(O)c1
REMARK SMILES IDX 6 1 13 2 7 3 11 4 8 5 9 6 5 7 4 8 2 9 1 10 3 11 12 12 10 14
REMARK H PARENT 12 13 10 15
REMARK Flexibility Score: inf
ROOT
ATOM      1  C   UNL     1      31.108   8.000  20.408  1.00  0.00    -0.022 A 
ATOM      2  C   UNL     1      32.226   7.711  19.610  1.00  0.00     0.058 A 
ATOM      3  C   UNL     1      30.610   7.000  21.265  1.00  0.00     0.012 A 
ATOM      4  C   UNL     1      32.858   6.464  19.672  1.00  0.00     0.157 A 
ATOM      5  C   UNL     1      31.235   5.754  21.333  1.00  0.00     0.051 A 
ATOM      6  C   UNL     1      32.359   5.472  20.548  1.00  0.00     0.157 A 
ENDROOT
BRANCH   1   7
ATOM      7  C   UNL     1      30.475   9.337  20.289  1.00  0.00     0.010 C 
ATOM      8  C   UNL     1      30.383  10.018  19.137  1.00  0.00     0.025 C 
BRANCH   8   9
ATOM      9  C   UNL     1      29.736  11.338  19.055  1.00  0.00     0.064 C 
ATOM     10  O   UNL     1      28.481  11.452  19.056  1.00  0.00    -0.545 OA
ATOM     11  O   UNL     1      30.523  12.480  18.975  1.00  0.00    -0.545 OA
ENDBRANCH   8   9
ENDBRANCH   1   7
BRANCH   4  12
ATOM     12  O   UNL     1      33.970   6.254  18.854  1.00  0.00    -0.504 OA
ATOM     13  H   UNL     1      34.468   6.992  18.377  1.00  0.00     0.293 HD
ENDBRANCH   4  12
BRANCH   6  14
ATOM     14  O   UNL     1      32.938   4.207  20.668  1.00  0.00    -0.504 OA
ATOM     15  H   UNL     1      33.529   3.788  19.965  1.00  0.00     0.293 HD
ENDBRANCH   6  14
TORSDOF 4
ENDMDL
MODEL 6
REMARK VINA RESULT:    -5.055     14.004     14.334
REMARK INTER + INTRA:          -6.072
REMARK INTER:                  -5.944
REMARK INTRA:                  -0.128
REMARK UNBOUND:                -0.130
REMARK SMILES O=C([O-])C=Cc1ccc(O)c(O)c1
REMARK SMILES IDX 6 1 13 2 7 3 11 4 8 5 9 6 5 7 4 8 2 9 1 10 3 11 12 12 10 14
REMARK H PARENT 12 13 10 15
REMARK Flexibility Score: inf
ROOT
ATOM      1  C   UNL     1      31.747   7.796  19.020  1.00  0.00    -0.022 A 
ATOM      2  C   UNL     1      31.307   8.436  20.189  1.00  0.00     0.058 A 
ATOM      3  C   UNL     1      31.349   8.313  17.772  1.00  0.00     0.012 A 
ATOM      4  C   UNL     1      30.508   9.584  20.129  1.00  0.00     0.157 A 
ATOM      5  C   UNL     1      30.553   9.457  17.705  1.00  0.00     0.051 A 
ATOM      6  C   UNL     1      30.128  10.105  18.870  1.00  0.00     0.157 A 
ENDROOT
BRANCH   1   7
ATOM      7  C   UNL     1      32.582   6.576  19.149  1.00  0.00     0.010 C 
ATOM      8  C   UNL     1      32.297   5.561  19.977  1.00  0.00     0.025 C 
BRANCH   8   9
ATOM      9  C   UNL     1      33.144   4.360  20.069  1.00  0.00     0.064 C 
ATOM     10  O   UNL     1      33.150   3.493  19.154  1.00  0.00    -0.545 OA
ATOM     11  O   UNL     1      33.953   4.179  21.183  1.00  0.00    -0.545 OA
ENDBRANCH   8   9
ENDBRANCH   1   7
BRANCH   4  12
ATOM     12  O   UNL     1      30.117  10.170  21.335  1.00  0.00    -0.504 OA
ATOM     13  H   UNL     1      29.158  10.252  21.639  1.00  0.00     0.293 HD
ENDBRANCH   4  12
BRANCH   6  14
ATOM     14  O   UNL     1      29.337  11.247  18.731  1.00  0.00    -0.504 OA
ATOM     15  H   UNL     1      28.430  11.255  18.289  1.00  0.00     0.293 HD
ENDBRANCH   6  14
TORSDOF 4
ENDMDL
MODEL 7
REMARK VINA RESULT:    -5.043     13.121     13.686
REMARK INTER + INTRA:          -6.058
REMARK INTER:                  -5.921
REMARK INTRA:                  -0.137
REMARK UNBOUND:                -0.130
REMARK SMILES O=C([O-])C=Cc1ccc(O)c(O)c1
REMARK SMILES IDX 6 1 13 2 7 3 11 4 8 5 9 6 5 7 4 8 2 9 1 10 3 11 12 12 10 14
REMARK H PARENT 12 13 10 15
REMARK Flexibility Score: inf
ROOT
ATOM      1  C   UNL     1      30.503   7.251  18.680  1.00  0.00    -0.022 A 
ATOM      2  C   UNL     1      30.408   7.858  19.941  1.00  0.00     0.058 A 
ATOM      3  C   UNL     1      30.516   8.067  17.533  1.00  0.00     0.012 A 
ATOM      4  C   UNL     1      30.352   9.251  20.073  1.00  0.00     0.157 A 
ATOM      5  C   UNL     1      30.461   9.457  17.656  1.00  0.00     0.051 A 
ATOM      6  C   UNL     1      30.383  10.062  18.915  1.00  0.00     0.157 A 
ENDROOT
BRANCH   1   7
ATOM      7  C   UNL     1      30.548   5.769  18.605  1.00  0.00     0.010 C 
ATOM      8  C   UNL     1      31.177   5.090  17.634  1.00  0.00     0.025 C 
BRANCH   8   9
ATOM      9  C   UNL     1      31.210   3.619  17.600  1.00  0.00     0.064 C 
ATOM     10  O   UNL     1      30.408   2.931  18.286  1.00  0.00    -0.545 OA
ATOM     11  O   UNL     1      32.143   2.976  16.795  1.00  0.00    -0.545 OA
ENDBRANCH   8   9
ENDBRANCH   1   7
BRANCH   4  12
ATOM     12  O   UNL     1      30.267   9.781  21.362  1.00  0.00    -0.504 OA
ATOM     13  H   UNL     1      30.229  10.769  21.565  1.00  0.00     0.293 HD
ENDBRANCH   4  12
BRANCH   6  14
ATOM     14  O   UNL     1      30.335  11.456  18.967  1.00  0.00    -0.504 OA
ATOM     15  H   UNL     1      30.945  12.063  18.439  1.00  0.00     0.293 HD
ENDBRANCH   6  14
TORSDOF 4
ENDMDL
MODEL 8
REMARK VINA RESULT:    -4.985     12.524     13.239
REMARK INTER + INTRA:          -5.990
REMARK INTER:                  -5.855
REMARK INTRA:                  -0.135
REMARK UNBOUND:                -0.130
REMARK SMILES O=C([O-])C=Cc1ccc(O)c(O)c1
REMARK SMILES IDX 6 1 13 2 7 3 11 4 8 5 9 6 5 7 4 8 2 9 1 10 3 11 12 12 10 14
REMARK H PARENT 12 13 10 15
REMARK Flexibility Score: inf
ROOT
ATOM      1  C   UNL     1      30.550   7.305  18.754  1.00  0.00    -0.022 A 
ATOM      2  C   UNL     1      30.420   7.920  20.009  1.00  0.00     0.058 A 
ATOM      3  C   UNL     1      30.562   8.112  17.601  1.00  0.00     0.012 A 
ATOM      4  C   UNL     1      30.327   9.312  20.127  1.00  0.00     0.157 A 
ATOM      5  C   UNL     1      30.470   9.500  17.710  1.00  0.00     0.051 A 
ATOM      6  C   UNL     1      30.357  10.114  18.962  1.00  0.00     0.157 A 
ENDROOT
BRANCH   1   7
ATOM      7  C   UNL     1      30.633   5.824  18.693  1.00  0.00     0.010 C 
ATOM      8  C   UNL     1      30.475   5.025  19.758  1.00  0.00     0.025 C 
BRANCH   8   9
ATOM      9  C   UNL     1      30.551   3.557  19.657  1.00  0.00     0.064 C 
ATOM     10  O   UNL     1      31.010   2.997  18.626  1.00  0.00    -0.545 OA
ATOM     11  O   UNL     1      30.110   2.777  20.718  1.00  0.00    -0.545 OA
ENDBRANCH   8   9
ENDBRANCH   1   7
BRANCH   4  12
ATOM     12  O   UNL     1      30.208   9.852  21.410  1.00  0.00    -0.504 OA
ATOM     13  H   UNL     1      30.142  10.840  21.603  1.00  0.00     0.293 HD
ENDBRANCH   4  12
BRANCH   6  14
ATOM     14  O   UNL     1      30.273  11.507  19.001  1.00  0.00    -0.504 OA
ATOM     15  H   UNL     1      30.877  12.124  18.477  1.00  0.00     0.293 HD
ENDBRANCH   6  14
TORSDOF 4
ENDMDL
MODEL 9
REMARK VINA RESULT:    -4.973      1.794      2.757
REMARK INTER + INTRA:          -5.975
REMARK INTER:                  -5.843
REMARK INTRA:                  -0.133
REMARK UNBOUND:                -0.130
REMARK SMILES O=C([O-])C=Cc1ccc(O)c(O)c1
REMARK SMILES IDX 6 1 13 2 7 3 11 4 8 5 9 6 5 7 4 8 2 9 1 10 3 11 12 12 10 14
REMARK H PARENT 12 13 10 15
REMARK Flexibility Score: inf
ROOT
ATOM      1  C   UNL     1      17.012   3.223  23.311  1.00  0.00    -0.022 A 
ATOM      2  C   UNL     1      18.361   3.584  23.449  1.00  0.00     0.058 A 
ATOM      3  C   UNL     1      16.109   4.162  22.777  1.00  0.00     0.012 A 
ATOM      4  C   UNL     1      18.819   4.843  23.043  1.00  0.00     0.157 A 
ATOM      5  C   UNL     1      16.558   5.419  22.370  1.00  0.00     0.051 A 
ATOM      6  C   UNL     1      17.907   5.773  22.492  1.00  0.00     0.157 A 
ENDROOT
BRANCH   1   7
ATOM      7  C   UNL     1      16.585   1.878  23.770  1.00  0.00     0.010 C 
ATOM      8  C   UNL     1      17.338   1.079  24.541  1.00  0.00     0.025 C 
BRANCH   8   9
ATOM      9  C   UNL     1      16.876  -0.246  24.988  1.00  0.00     0.064 C 
ATOM     10  O   UNL     1      15.951  -0.363  25.835  1.00  0.00    -0.545 OA
ATOM     11  O   UNL     1      17.469  -1.387  24.464  1.00  0.00    -0.545 OA
ENDBRANCH   8   9
ENDBRANCH   1   7
BRANCH   4  12
ATOM     12  O   UNL     1      20.177   5.126  23.204  1.00  0.00    -0.504 OA
ATOM     13  H   UNL     1      20.660   5.095  24.090  1.00  0.00     0.293 HD
ENDBRANCH   4  12
BRANCH   6  14
ATOM     14  O   UNL     1      18.290   7.045  22.062  1.00  0.00    -0.504 OA
ATOM     15  H   UNL     1      17.649   7.814  21.932  1.00  0.00     0.293 HD
ENDBRANCH   6  14
TORSDOF 4
ENDMDL
