MODEL 1
REMARK VINA RESULT:    -7.062      0.000      0.000
REMARK INTER + INTRA:          -7.062
REMARK INTER:                  -7.062
REMARK INTRA:                   0.000
REMARK UNBOUND:                 0.000
REMARK SMILES C=C1CCC[C@]2(C)CC(=O)C(=C(C)C)C[C@H]12
REMARK SMILES IDX 13 1 12 2 11 3 15 4 16 5 2 6 1 7 3 8 4 9 5 10 6 11 8 12 9 13
REMARK SMILES IDX 10 14 7 15 14 16
REMARK H PARENT
REMARK Flexibility Score: inf
ROOT
ATOM      1  C   UNL     1     -13.631 -16.617  26.337  1.00  0.00     0.039 C 
ATOM      2  C   UNL     1     -13.515 -15.913  27.670  1.00  0.00    -0.070 C 
ATOM      3  C   UNL     1     -12.958 -16.519  28.759  1.00  0.00    -0.006 C 
ATOM      4  C   UNL     1     -12.743 -15.781  30.070  1.00  0.00     0.047 C 
ATOM      5  C   UNL     1     -12.904 -16.727  31.288  1.00  0.00     0.025 C 
ATOM      6  C   UNL     1     -12.700 -15.919  32.565  1.00  0.00    -0.073 C 
ATOM      7  C   UNL     1     -13.736 -15.279  33.130  1.00  0.00     0.008 C 
ATOM      8  C   UNL     1     -11.324 -15.746  33.165  1.00  0.00     0.031 C 
ATOM      9  C   UNL     1     -10.279 -16.620  32.472  1.00  0.00     0.005 C 
ATOM     10  C   UNL     1     -10.837 -18.025  32.254  1.00  0.00     0.008 C 
ATOM     11  C   UNL     1     -12.007 -18.042  31.219  1.00  0.00    -0.018 C 
ATOM     12  C   UNL     1     -11.400 -18.254  29.799  1.00  0.00     0.088 C 
ATOM     13  C   UNL     1     -12.382 -17.888  28.730  1.00  0.00     0.159 C 
ATOM     14  O   UNL     1     -12.719 -18.750  27.874  1.00  0.00    -0.295 OA
ATOM     15  C   UNL     1     -12.896 -19.269  31.542  1.00  0.00     0.012 C 
ATOM     16  C   UNL     1     -14.006 -14.484  27.739  1.00  0.00     0.039 C 
ENDROOT
TORSDOF 0
ENDMDL
MODEL 2
REMARK VINA RESULT:    -6.856      1.944      3.763
REMARK INTER + INTRA:          -6.856
REMARK INTER:                  -6.856
REMARK INTRA:                   0.000
REMARK UNBOUND:                 0.000
REMARK SMILES C=C1CCC[C@]2(C)CC(=O)C(=C(C)C)C[C@H]12
REMARK SMILES IDX 13 1 12 2 11 3 15 4 16 5 2 6 1 7 3 8 4 9 5 10 6 11 8 12 9 13
REMARK SMILES IDX 10 14 7 15 14 16
REMARK H PARENT
REMARK Flexibility Score: inf
ROOT
ATOM      1  C   UNL     1     -15.471 -13.625  30.784  1.00  0.00     0.039 C 
ATOM      2  C   UNL     1     -14.750 -14.842  31.315  1.00  0.00    -0.070 C 
ATOM      3  C   UNL     1     -13.843 -15.528  30.560  1.00  0.00    -0.006 C 
ATOM      4  C   UNL     1     -13.038 -16.688  31.123  1.00  0.00     0.047 C 
ATOM      5  C   UNL     1     -12.754 -17.761  30.041  1.00  0.00     0.025 C 
ATOM      6  C   UNL     1     -11.968 -18.902  30.678  1.00  0.00    -0.073 C 
ATOM      7  C   UNL     1     -12.615 -19.913  31.280  1.00  0.00     0.008 C 
ATOM      8  C   UNL     1     -10.458 -18.874  30.728  1.00  0.00     0.031 C 
ATOM      9  C   UNL     1      -9.875 -17.722  29.909  1.00  0.00     0.005 C 
ATOM     10  C   UNL     1     -10.589 -17.628  28.562  1.00  0.00     0.008 C 
ATOM     11  C   UNL     1     -12.081 -17.192  28.714  1.00  0.00    -0.018 C 
ATOM     12  C   UNL     1     -12.144 -15.635  28.657  1.00  0.00     0.088 C 
ATOM     13  C   UNL     1     -13.448 -15.125  29.185  1.00  0.00     0.159 C 
ATOM     14  O   UNL     1     -14.183 -14.415  28.448  1.00  0.00    -0.295 OA
ATOM     15  C   UNL     1     -12.854 -17.742  27.489  1.00  0.00     0.012 C 
ATOM     16  C   UNL     1     -15.045 -15.251  32.741  1.00  0.00     0.039 C 
ENDROOT
TORSDOF 0
ENDMDL
MODEL 3
REMARK VINA RESULT:    -6.147      2.046      3.633
REMARK INTER + INTRA:          -6.147
REMARK INTER:                  -6.147
REMARK INTRA:                   0.000
REMARK UNBOUND:                 0.000
REMARK SMILES C=C1CCC[C@]2(C)CC(=O)C(=C(C)C)C[C@H]12
REMARK SMILES IDX 13 1 12 2 11 3 15 4 16 5 2 6 1 7 3 8 4 9 5 10 6 11 8 12 9 13
REMARK SMILES IDX 10 14 7 15 14 16
REMARK H PARENT
REMARK Flexibility Score: inf
ROOT
ATOM      1  C   UNL     1     -15.618 -13.263  29.481  1.00  0.00     0.039 C 
ATOM      2  C   UNL     1     -14.586 -14.247  28.980  1.00  0.00    -0.070 C 
ATOM      3  C   UNL     1     -13.953 -15.117  29.820  1.00  0.00    -0.006 C 
ATOM      4  C   UNL     1     -12.993 -16.179  29.308  1.00  0.00     0.047 C 
ATOM      5  C   UNL     1     -11.852 -16.450  30.322  1.00  0.00     0.025 C 
ATOM      6  C   UNL     1     -10.917 -17.502  29.735  1.00  0.00    -0.073 C 
ATOM      7  C   UNL     1      -9.901 -17.132  28.939  1.00  0.00     0.008 C 
ATOM      8  C   UNL     1     -11.165 -18.976  29.959  1.00  0.00     0.031 C 
ATOM      9  C   UNL     1     -12.285 -19.226  30.969  1.00  0.00     0.005 C 
ATOM     10  C   UNL     1     -12.119 -18.296  32.170  1.00  0.00     0.008 C 
ATOM     11  C   UNL     1     -12.354 -16.798  31.793  1.00  0.00    -0.018 C 
ATOM     12  C   UNL     1     -13.868 -16.478  31.979  1.00  0.00     0.088 C 
ATOM     13  C   UNL     1     -14.245 -15.213  31.274  1.00  0.00     0.159 C 
ATOM     14  O   UNL     1     -14.753 -14.263  31.929  1.00  0.00    -0.295 OA
ATOM     15  C   UNL     1     -11.560 -15.935  32.806  1.00  0.00     0.012 C 
ATOM     16  C   UNL     1     -14.308 -14.257  27.494  1.00  0.00     0.039 C 
ENDROOT
TORSDOF 0
ENDMDL
MODEL 4
REMARK VINA RESULT:    -5.916      1.125      1.164
REMARK INTER + INTRA:          -5.916
REMARK INTER:                  -5.916
REMARK INTRA:                   0.000
REMARK UNBOUND:                 0.000
REMARK SMILES C=C1CCC[C@]2(C)CC(=O)C(=C(C)C)C[C@H]12
REMARK SMILES IDX 13 1 12 2 11 3 15 4 16 5 2 6 1 7 3 8 4 9 5 10 6 11 8 12 9 13
REMARK SMILES IDX 10 14 7 15 14 16
REMARK H PARENT
REMARK Flexibility Score: inf
ROOT
ATOM      1  C   UNL     1     -12.773 -16.502  25.689  1.00  0.00     0.039 C 
ATOM      2  C   UNL     1     -13.194 -16.088  27.080  1.00  0.00    -0.070 C 
ATOM      3  C   UNL     1     -12.520 -16.507  28.191  1.00  0.00    -0.006 C 
ATOM      4  C   UNL     1     -12.873 -16.010  29.583  1.00  0.00     0.047 C 
ATOM      5  C   UNL     1     -12.635 -17.104  30.655  1.00  0.00     0.025 C 
ATOM      6  C   UNL     1     -13.031 -16.548  32.018  1.00  0.00    -0.073 C 
ATOM      7  C   UNL     1     -14.302 -16.641  32.440  1.00  0.00     0.008 C 
ATOM      8  C   UNL     1     -12.033 -15.805  32.876  1.00  0.00     0.031 C 
ATOM      9  C   UNL     1     -10.616 -15.881  32.309  1.00  0.00     0.005 C 
ATOM     10  C   UNL     1     -10.311 -17.309  31.860  1.00  0.00     0.008 C 
ATOM     11  C   UNL     1     -11.173 -17.737  30.630  1.00  0.00    -0.018 C 
ATOM     12  C   UNL     1     -10.399 -17.352  29.332  1.00  0.00     0.088 C 
ATOM     13  C   UNL     1     -11.303 -17.357  28.139  1.00  0.00     0.159 C 
ATOM     14  O   UNL     1     -11.035 -18.101  27.158  1.00  0.00    -0.295 OA
ATOM     15  C   UNL     1     -11.299 -19.281  30.665  1.00  0.00     0.012 C 
ATOM     16  C   UNL     1     -14.376 -15.151  27.192  1.00  0.00     0.039 C 
ENDROOT
TORSDOF 0
ENDMDL
MODEL 5
REMARK VINA RESULT:    -5.374      2.276      3.981
REMARK INTER + INTRA:          -5.374
REMARK INTER:                  -5.374
REMARK INTRA:                   0.000
REMARK UNBOUND:                 0.000
REMARK SMILES C=C1CCC[C@]2(C)CC(=O)C(=C(C)C)C[C@H]12
REMARK SMILES IDX 13 1 12 2 11 3 15 4 16 5 2 6 1 7 3 8 4 9 5 10 6 11 8 12 9 13
REMARK SMILES IDX 10 14 7 15 14 16
REMARK H PARENT
REMARK Flexibility Score: inf
ROOT
ATOM      1  C   UNL     1     -15.886 -15.695  33.122  1.00  0.00     0.039 C 
ATOM      2  C   UNL     1     -14.905 -15.307  32.040  1.00  0.00    -0.070 C 
ATOM      3  C   UNL     1     -13.980 -16.187  31.557  1.00  0.00    -0.006 C 
ATOM      4  C   UNL     1     -13.062 -15.837  30.398  1.00  0.00     0.047 C 
ATOM      5  C   UNL     1     -11.677 -16.518  30.544  1.00  0.00     0.025 C 
ATOM      6  C   UNL     1     -10.802 -16.106  29.365  1.00  0.00    -0.073 C 
ATOM      7  C   UNL     1     -10.074 -14.980  29.428  1.00  0.00     0.008 C 
ATOM      8  C   UNL     1     -10.807 -16.897  28.078  1.00  0.00     0.031 C 
ATOM      9  C   UNL     1     -11.595 -18.201  28.205  1.00  0.00     0.005 C 
ATOM     10  C   UNL     1     -11.242 -18.896  29.519  1.00  0.00     0.008 C 
ATOM     11  C   UNL     1     -11.743 -18.095  30.763  1.00  0.00    -0.018 C 
ATOM     12  C   UNL     1     -13.187 -18.571  31.104  1.00  0.00     0.088 C 
ATOM     13  C   UNL     1     -13.880 -17.600  32.007  1.00  0.00     0.159 C 
ATOM     14  O   UNL     1     -14.315 -17.990  33.124  1.00  0.00    -0.295 OA
ATOM     15  C   UNL     1     -10.827 -18.470  31.956  1.00  0.00     0.012 C 
ATOM     16  C   UNL     1     -15.014 -13.906  31.479  1.00  0.00     0.039 C 
ENDROOT
TORSDOF 0
ENDMDL
MODEL 6
REMARK VINA RESULT:    -4.656      2.697      5.387
REMARK INTER + INTRA:          -4.656
REMARK INTER:                  -4.656
REMARK INTRA:                   0.000
REMARK UNBOUND:                 0.000
REMARK SMILES C=C1CCC[C@]2(C)CC(=O)C(=C(C)C)C[C@H]12
REMARK SMILES IDX 13 1 12 2 11 3 15 4 16 5 2 6 1 7 3 8 4 9 5 10 6 11 8 12 9 13
REMARK SMILES IDX 10 14 7 15 14 16
REMARK H PARENT
REMARK Flexibility Score: inf
ROOT
ATOM      1  C   UNL     1     -12.793 -13.120  35.745  1.00  0.00     0.039 C 
ATOM      2  C   UNL     1     -11.798 -13.999  35.021  1.00  0.00    -0.070 C 
ATOM      3  C   UNL     1     -12.155 -14.750  33.939  1.00  0.00    -0.006 C 
ATOM      4  C   UNL     1     -11.139 -15.552  33.143  1.00  0.00     0.047 C 
ATOM      5  C   UNL     1     -11.759 -16.857  32.581  1.00  0.00     0.025 C 
ATOM      6  C   UNL     1     -10.682 -17.622  31.819  1.00  0.00    -0.073 C 
ATOM      7  C   UNL     1      -9.875 -18.477  32.468  1.00  0.00     0.008 C 
ATOM      8  C   UNL     1     -10.439 -17.367  30.349  1.00  0.00     0.031 C 
ATOM      9  C   UNL     1     -11.504 -16.456  29.738  1.00  0.00     0.005 C 
ATOM     10  C   UNL     1     -12.891 -16.886  30.213  1.00  0.00     0.008 C 
ATOM     11  C   UNL     1     -13.095 -16.638  31.741  1.00  0.00    -0.018 C 
ATOM     12  C   UNL     1     -13.668 -15.201  31.932  1.00  0.00     0.088 C 
ATOM     13  C   UNL     1     -13.519 -14.742  33.349  1.00  0.00     0.159 C 
ATOM     14  O   UNL     1     -14.541 -14.406  34.005  1.00  0.00    -0.295 OA
ATOM     15  C   UNL     1     -14.164 -17.644  32.236  1.00  0.00     0.012 C 
ATOM     16  C   UNL     1     -10.372 -13.983  35.522  1.00  0.00     0.039 C 
ENDROOT
TORSDOF 0
ENDMDL
MODEL 7
REMARK VINA RESULT:    -4.624      2.033      4.608
REMARK INTER + INTRA:          -4.624
REMARK INTER:                  -4.624
REMARK INTRA:                   0.000
REMARK UNBOUND:                 0.000
REMARK SMILES C=C1CCC[C@]2(C)CC(=O)C(=C(C)C)C[C@H]12
REMARK SMILES IDX 13 1 12 2 11 3 15 4 16 5 2 6 1 7 3 8 4 9 5 10 6 11 8 12 9 13
REMARK SMILES IDX 10 14 7 15 14 16
REMARK H PARENT
REMARK Flexibility Score: inf
ROOT
ATOM      1  C   UNL     1     -12.529 -21.233  31.215  1.00  0.00     0.039 C 
ATOM      2  C   UNL     1     -12.109 -19.781  31.225  1.00  0.00    -0.070 C 
ATOM      3  C   UNL     1     -12.347 -18.955  30.165  1.00  0.00    -0.006 C 
ATOM      4  C   UNL     1     -12.023 -17.471  30.210  1.00  0.00     0.047 C 
ATOM      5  C   UNL     1     -11.591 -16.941  28.819  1.00  0.00     0.025 C 
ATOM      6  C   UNL     1     -11.258 -15.458  28.942  1.00  0.00    -0.073 C 
ATOM      7  C   UNL     1     -10.021 -15.072  29.292  1.00  0.00     0.008 C 
ATOM      8  C   UNL     1     -12.326 -14.403  28.765  1.00  0.00     0.031 C 
ATOM      9  C   UNL     1     -13.643 -14.994  28.264  1.00  0.00     0.005 C 
ATOM     10  C   UNL     1     -13.371 -15.991  27.139  1.00  0.00     0.008 C 
ATOM     11  C   UNL     1     -12.621 -17.263  27.646  1.00  0.00    -0.018 C 
ATOM     12  C   UNL     1     -13.683 -18.317  28.085  1.00  0.00     0.088 C 
ATOM     13  C   UNL     1     -13.071 -19.382  28.939  1.00  0.00     0.159 C 
ATOM     14  O   UNL     1     -13.147 -20.588  28.581  1.00  0.00    -0.295 OA
ATOM     15  C   UNL     1     -11.839 -17.852  26.445  1.00  0.00     0.012 C 
ATOM     16  C   UNL     1     -11.444 -19.264  32.481  1.00  0.00     0.039 C 
ENDROOT
TORSDOF 0
ENDMDL
MODEL 8
REMARK VINA RESULT:    -4.454      1.952      4.792
REMARK INTER + INTRA:          -4.454
REMARK INTER:                  -4.454
REMARK INTRA:                   0.000
REMARK UNBOUND:                 0.000
REMARK SMILES C=C1CCC[C@]2(C)CC(=O)C(=C(C)C)C[C@H]12
REMARK SMILES IDX 13 1 12 2 11 3 15 4 16 5 2 6 1 7 3 8 4 9 5 10 6 11 8 12 9 13
REMARK SMILES IDX 10 14 7 15 14 16
REMARK H PARENT
REMARK Flexibility Score: inf
ROOT
ATOM      1  C   UNL     1     -11.647 -19.317  32.561  1.00  0.00     0.039 C 
ATOM      2  C   UNL     1     -12.571 -18.424  31.765  1.00  0.00    -0.070 C 
ATOM      3  C   UNL     1     -12.239 -17.972  30.520  1.00  0.00    -0.006 C 
ATOM      4  C   UNL     1     -13.206 -17.162  29.673  1.00  0.00     0.047 C 
ATOM      5  C   UNL     1     -12.461 -16.125  28.794  1.00  0.00     0.025 C 
ATOM      6  C   UNL     1     -13.489 -15.334  27.992  1.00  0.00    -0.073 C 
ATOM      7  C   UNL     1     -14.055 -14.237  28.519  1.00  0.00     0.008 C 
ATOM      8  C   UNL     1     -13.957 -15.814  26.638  1.00  0.00     0.031 C 
ATOM      9  C   UNL     1     -13.142 -17.006  26.135  1.00  0.00     0.005 C 
ATOM     10  C   UNL     1     -11.654 -16.758  26.377  1.00  0.00     0.008 C 
ATOM     11  C   UNL     1     -11.297 -16.743  27.897  1.00  0.00    -0.018 C 
ATOM     12  C   UNL     1     -10.944 -18.198  28.332  1.00  0.00     0.088 C 
ATOM     13  C   UNL     1     -10.982 -18.344  29.821  1.00  0.00     0.159 C 
ATOM     14  O   UNL     1      -9.952 -18.732  30.434  1.00  0.00    -0.295 OA
ATOM     15  C   UNL     1     -10.024 -15.877  28.068  1.00  0.00     0.012 C 
ATOM     16  C   UNL     1     -13.904 -18.080  32.389  1.00  0.00     0.039 C 
ENDROOT
TORSDOF 0
ENDMDL
