MODEL 1
REMARK VINA RESULT:    -5.268      0.000      0.000
REMARK INTER + INTRA:          -7.020
REMARK INTER:                  -7.424
REMARK INTRA:                   0.403
REMARK UNBOUND:                 0.403
REMARK SMILES CC1=CCC(=C(C)C)C(=O)CC(C)=CCC1
REMARK SMILES IDX 12 1 14 2 13 3 15 4 16 5 2 6 1 7 3 8 11 10 9 11 10 12 5 13
REMARK SMILES IDX 6 14 7 15 8 16 4 17
REMARK H PARENT
REMARK Flexibility Score: 60.00
ROOT
ATOM      1  C   UNL     1     -11.468 -16.939  32.002  1.00  0.00    -0.070 C 
ATOM      2  C   UNL     1     -11.454 -18.289  32.102  1.00  0.00    -0.027 C 
ATOM      3  C   UNL     1     -10.539 -16.153  32.891  1.00  0.00     0.039 C 
ENDROOT
BRANCH   2   4
ATOM      4  C   UNL     1     -12.270 -19.234  31.249  1.00  0.00     0.032 C 
BRANCH   4   5
ATOM      5  C   UNL     1     -11.652 -19.416  29.855  1.00  0.00     0.034 C 
BRANCH   5   6
ATOM      6  C   UNL     1     -12.681 -19.470  28.736  1.00  0.00    -0.077 C 
ATOM      7  C   UNL     1     -13.639 -20.634  28.685  1.00  0.00     0.039 C 
ATOM      8  C   UNL     1     -12.799 -18.514  27.787  1.00  0.00    -0.023 CG0
ATOM      9  G   UNL     1     -11.890 -17.316  27.633  1.00  0.00     0.000 G0
ENDBRANCH   5   6
ENDBRANCH   4   5
ENDBRANCH   2   4
BRANCH   1  10
ATOM     10  C   UNL     1     -12.374 -16.192  31.044  1.00  0.00     0.111 C 
BRANCH  10  11
ATOM     11  C   UNL     1     -11.662 -15.880  29.757  1.00  0.00     0.163 C 
ATOM     12  O   UNL     1     -10.482 -15.435  29.795  1.00  0.00    -0.294 OA
BRANCH  11  13
ATOM     13  C   UNL     1     -12.310 -16.109  28.440  1.00  0.00    -0.002 C 
ATOM     14  C   UNL     1     -13.263 -15.249  27.987  1.00  0.00    -0.069 C 
ATOM     15  C   UNL     1     -13.971 -15.493  26.674  1.00  0.00     0.039 C 
ATOM     16  C   UNL     1     -13.618 -13.997  28.757  1.00  0.00     0.039 C 
BRANCH  13  17
ATOM     17  C   UNL     1     -11.895 -17.316  27.607  1.00  0.00     0.066 CG0
ATOM     18  G   UNL     1     -12.803 -18.513  27.776  1.00  0.00     0.000 G0
ENDBRANCH  13  17
ENDBRANCH  11  13
ENDBRANCH  10  11
ENDBRANCH   1  10
TORSDOF 0
ENDMDL
MODEL 2
REMARK VINA RESULT:    -5.248      1.843      3.647
REMARK INTER + INTRA:          -6.991
REMARK INTER:                  -7.498
REMARK INTRA:                   0.507
REMARK UNBOUND:                 0.403
REMARK SMILES CC1=CCC(=C(C)C)C(=O)CC(C)=CCC1
REMARK SMILES IDX 12 1 14 2 13 3 15 4 16 5 2 6 1 7 3 8 11 10 9 11 10 12 5 13
REMARK SMILES IDX 6 14 7 15 8 16 4 17
REMARK H PARENT
REMARK Flexibility Score: 60.00
ROOT
ATOM      1  C   UNL     1     -12.154 -17.354  27.320  1.00  0.00    -0.070 C 
ATOM      2  C   UNL     1     -12.123 -18.551  27.952  1.00  0.00    -0.027 C 
ATOM      3  C   UNL     1     -11.166 -17.112  26.209  1.00  0.00     0.039 C 
ENDROOT
BRANCH   2   4
ATOM      4  C   UNL     1     -13.076 -18.985  29.042  1.00  0.00     0.032 C 
BRANCH   4   5
ATOM      5  C   UNL     1     -12.325 -19.417  30.311  1.00  0.00     0.034 C 
BRANCH   5   6
ATOM      6  C   UNL     1     -11.353 -18.368  30.829  1.00  0.00    -0.077 C 
ATOM      7  C   UNL     1      -9.895 -18.731  30.961  1.00  0.00     0.039 C 
ATOM      8  C   UNL     1     -11.723 -17.111  31.163  1.00  0.00    -0.023 CG0
ATOM      9  G   UNL     1     -13.140 -16.586  31.164  1.00  0.00     0.000 G0
ENDBRANCH   5   6
ENDBRANCH   4   5
ENDBRANCH   2   4
BRANCH   1  10
ATOM     10  C   UNL     1     -13.132 -16.254  27.684  1.00  0.00     0.111 C 
BRANCH  10  11
ATOM     11  C   UNL     1     -12.644 -15.465  28.867  1.00  0.00     0.163 C 
ATOM     12  O   UNL     1     -11.592 -14.778  28.760  1.00  0.00    -0.294 OA
BRANCH  11  13
ATOM     13  C   UNL     1     -13.389 -15.458  30.152  1.00  0.00    -0.002 C 
ATOM     14  C   UNL     1     -14.281 -14.465  30.422  1.00  0.00    -0.069 C 
ATOM     15  C   UNL     1     -15.011 -14.412  31.744  1.00  0.00     0.039 C 
ATOM     16  C   UNL     1     -14.606 -13.405  29.394  1.00  0.00     0.039 C 
BRANCH  13  17
ATOM     17  C   UNL     1     -13.142 -16.574  31.161  1.00  0.00     0.066 CG0
ATOM     18  G   UNL     1     -11.725 -17.099  31.152  1.00  0.00     0.000 G0
ENDBRANCH  13  17
ENDBRANCH  11  13
ENDBRANCH  10  11
ENDBRANCH   1  10
TORSDOF 0
ENDMDL
MODEL 3
REMARK VINA RESULT:    -5.220      2.043      5.069
REMARK INTER + INTRA:          -6.953
REMARK INTER:                  -7.280
REMARK INTRA:                   0.327
REMARK UNBOUND:                 0.403
REMARK SMILES CC1=CCC(=C(C)C)C(=O)CC(C)=CCC1
REMARK SMILES IDX 12 1 14 2 13 3 15 4 16 5 2 6 1 7 3 8 11 10 9 11 10 12 5 13
REMARK SMILES IDX 6 14 7 15 8 16 4 17
REMARK H PARENT
REMARK Flexibility Score: 60.00
ROOT
ATOM      1  C   UNL     1     -12.227 -16.945  26.777  1.00  0.00    -0.070 C 
ATOM      2  C   UNL     1     -12.846 -15.803  26.392  1.00  0.00    -0.027 C 
ATOM      3  C   UNL     1     -11.036 -17.408  25.979  1.00  0.00     0.039 C 
ENDROOT
BRANCH   2   4
ATOM      4  C   UNL     1     -14.012 -15.162  27.109  1.00  0.00     0.032 C 
BRANCH   4   5
ATOM      5  C   UNL     1     -13.542 -14.141  28.156  1.00  0.00     0.034 C 
BRANCH   5   6
ATOM      6  C   UNL     1     -14.309 -14.219  29.468  1.00  0.00    -0.077 C 
ATOM      7  C   UNL     1     -15.671 -13.576  29.553  1.00  0.00     0.039 C 
ATOM      8  C   UNL     1     -13.842 -14.854  30.566  1.00  0.00    -0.023 CG0
ATOM      9  G   UNL     1     -12.478 -15.493  30.696  1.00  0.00     0.000 G0
ENDBRANCH   5   6
ENDBRANCH   4   5
ENDBRANCH   2   4
BRANCH   1  10
ATOM     10  C   UNL     1     -12.683 -17.771  27.964  1.00  0.00     0.111 C 
BRANCH  10  11
ATOM     11  C   UNL     1     -11.843 -17.483  29.177  1.00  0.00     0.163 C 
ATOM     12  O   UNL     1     -10.594 -17.640  29.116  1.00  0.00    -0.294 OA
BRANCH  11  13
ATOM     13  C   UNL     1     -12.454 -16.994  30.440  1.00  0.00    -0.002 C 
ATOM     14  C   UNL     1     -12.987 -17.876  31.331  1.00  0.00    -0.069 C 
ATOM     15  C   UNL     1     -13.659 -17.394  32.596  1.00  0.00     0.039 C 
ATOM     16  C   UNL     1     -12.889 -19.368  31.108  1.00  0.00     0.039 C 
BRANCH  13  17
ATOM     17  C   UNL     1     -12.475 -15.497  30.724  1.00  0.00     0.066 CG0
ATOM     18  G   UNL     1     -13.840 -14.866  30.561  1.00  0.00     0.000 G0
ENDBRANCH  13  17
ENDBRANCH  11  13
ENDBRANCH  10  11
ENDBRANCH   1  10
TORSDOF 0
ENDMDL
MODEL 4
REMARK VINA RESULT:    -5.018      1.661      3.399
REMARK INTER + INTRA:          -6.668
REMARK INTER:                  -7.445
REMARK INTRA:                   0.777
REMARK UNBOUND:                 0.403
REMARK SMILES CC1=CCC(=C(C)C)C(=O)CC(C)=CCC1
REMARK SMILES IDX 12 1 14 2 13 3 15 4 16 5 2 6 1 7 3 8 11 10 9 11 10 12 5 13
REMARK SMILES IDX 6 14 7 15 8 16 4 17
REMARK H PARENT
REMARK Flexibility Score: 60.00
ROOT
ATOM      1  C   UNL     1     -12.607 -19.074  29.232  1.00  0.00    -0.070 C 
ATOM      2  C   UNL     1     -12.890 -19.423  30.510  1.00  0.00    -0.027 C 
ATOM      3  C   UNL     1     -13.673 -19.282  28.188  1.00  0.00     0.039 C 
ENDROOT
BRANCH   2   4
ATOM      4  C   UNL     1     -11.966 -19.228  31.690  1.00  0.00     0.032 C 
BRANCH   4   5
ATOM      5  C   UNL     1     -11.627 -17.745  31.905  1.00  0.00     0.034 C 
BRANCH   5   6
ATOM      6  C   UNL     1     -12.832 -16.823  31.793  1.00  0.00    -0.077 C 
ATOM      7  C   UNL     1     -13.986 -17.018  32.745  1.00  0.00     0.039 C 
ATOM      8  C   UNL     1     -12.919 -15.818  30.894  1.00  0.00    -0.023 CG0
ATOM      9  G   UNL     1     -11.900 -15.513  29.819  1.00  0.00     0.000 G0
ENDBRANCH   5   6
ENDBRANCH   4   5
ENDBRANCH   2   4
BRANCH   1  10
ATOM     10  C   UNL     1     -11.271 -18.493  28.812  1.00  0.00     0.111 C 
BRANCH  10  11
ATOM     11  C   UNL     1     -11.458 -17.273  27.953  1.00  0.00     0.163 C 
ATOM     12  O   UNL     1     -10.973 -17.256  26.789  1.00  0.00    -0.294 OA
BRANCH  11  13
ATOM     13  C   UNL     1     -12.224 -16.097  28.439  1.00  0.00    -0.002 C 
ATOM     14  C   UNL     1     -13.207 -15.553  27.670  1.00  0.00    -0.069 C 
ATOM     15  C   UNL     1     -13.962 -14.325  28.124  1.00  0.00     0.039 C 
ATOM     16  C   UNL     1     -13.609 -16.182  26.354  1.00  0.00     0.039 C 
BRANCH  13  17
ATOM     17  C   UNL     1     -11.895 -15.508  29.806  1.00  0.00     0.066 CG0
ATOM     18  G   UNL     1     -12.924 -15.823  30.868  1.00  0.00     0.000 G0
ENDBRANCH  13  17
ENDBRANCH  11  13
ENDBRANCH  10  11
ENDBRANCH   1  10
TORSDOF 0
ENDMDL
MODEL 5
REMARK VINA RESULT:    -4.986      1.821      4.256
REMARK INTER + INTRA:          -6.623
REMARK INTER:                  -7.767
REMARK INTRA:                   1.144
REMARK UNBOUND:                 0.403
REMARK SMILES CC1=CCC(=C(C)C)C(=O)CC(C)=CCC1
REMARK SMILES IDX 12 1 14 2 13 3 15 4 16 5 2 6 1 7 3 8 11 10 9 11 10 12 5 13
REMARK SMILES IDX 6 14 7 15 8 16 4 17
REMARK H PARENT
REMARK Flexibility Score: 60.00
ROOT
ATOM      1  C   UNL     1     -12.890 -15.226  29.276  1.00  0.00    -0.070 C 
ATOM      2  C   UNL     1     -13.625 -15.218  30.413  1.00  0.00    -0.027 C 
ATOM      3  C   UNL     1     -13.589 -14.910  27.979  1.00  0.00     0.039 C 
ENDROOT
BRANCH   2   4
ATOM      4  C   UNL     1     -13.079 -15.450  31.804  1.00  0.00     0.032 C 
BRANCH   4   5
ATOM      5  C   UNL     1     -12.456 -16.847  31.942  1.00  0.00     0.034 C 
BRANCH   5   6
ATOM      6  C   UNL     1     -10.961 -16.822  32.223  1.00  0.00    -0.077 C 
ATOM      7  C   UNL     1     -10.433 -15.867  33.264  1.00  0.00     0.039 C 
ATOM      8  C   UNL     1     -10.073 -17.629  31.600  1.00  0.00    -0.023 CG0
ATOM      9  G   UNL     1     -10.401 -18.597  30.485  1.00  0.00     0.000 G0
ENDBRANCH   5   6
ENDBRANCH   4   5
ENDBRANCH   2   4
BRANCH   1  10
ATOM     10  C   UNL     1     -11.407 -15.540  29.254  1.00  0.00     0.111 C 
BRANCH  10  11
ATOM     11  C   UNL     1     -11.152 -16.908  28.685  1.00  0.00     0.163 C 
ATOM     12  O   UNL     1     -10.677 -17.016  27.522  1.00  0.00    -0.294 OA
BRANCH  11  13
ATOM     13  C   UNL     1     -11.425 -18.136  29.476  1.00  0.00    -0.002 C 
ATOM     14  C   UNL     1     -12.590 -18.818  29.303  1.00  0.00    -0.069 C 
ATOM     15  C   UNL     1     -12.908 -20.039  30.135  1.00  0.00     0.039 C 
ATOM     16  C   UNL     1     -13.589 -18.405  28.246  1.00  0.00     0.039 C 
BRANCH  13  17
ATOM     17  C   UNL     1     -10.384 -18.619  30.480  1.00  0.00     0.066 CG0
ATOM     18  G   UNL     1     -10.083 -17.620  31.573  1.00  0.00     0.000 G0
ENDBRANCH  13  17
ENDBRANCH  11  13
ENDBRANCH  10  11
ENDBRANCH   1  10
TORSDOF 0
ENDMDL
MODEL 6
REMARK VINA RESULT:    -4.753      1.322      3.872
REMARK INTER + INTRA:          -6.294
REMARK INTER:                  -7.302
REMARK INTRA:                   1.008
REMARK UNBOUND:                 0.403
REMARK SMILES CC1=CCC(=C(C)C)C(=O)CC(C)=CCC1
REMARK SMILES IDX 12 1 14 2 13 3 15 4 16 5 2 6 1 7 3 8 11 10 9 11 10 12 5 13
REMARK SMILES IDX 6 14 7 15 8 16 4 17
REMARK H PARENT
REMARK Flexibility Score: 60.00
ROOT
ATOM      1  C   UNL     1     -13.304 -14.845  29.083  1.00  0.00    -0.070 C 
ATOM      2  C   UNL     1     -14.069 -15.044  27.983  1.00  0.00    -0.027 C 
ATOM      3  C   UNL     1     -13.999 -14.685  30.410  1.00  0.00     0.039 C 
ENDROOT
BRANCH   2   4
ATOM      4  C   UNL     1     -13.540 -15.285  26.587  1.00  0.00     0.032 C 
BRANCH   4   5
ATOM      5  C   UNL     1     -13.321 -16.781  26.315  1.00  0.00     0.034 C 
BRANCH   5   6
ATOM      6  C   UNL     1     -11.875 -17.223  26.474  1.00  0.00    -0.077 C 
ATOM      7  C   UNL     1     -10.921 -17.019  25.324  1.00  0.00     0.039 C 
ATOM      8  C   UNL     1     -11.386 -17.775  27.608  1.00  0.00    -0.023 CG0
ATOM      9  G   UNL     1     -12.199 -18.120  28.835  1.00  0.00     0.000 G0
ENDBRANCH   5   6
ENDBRANCH   4   5
ENDBRANCH   2   4
BRANCH   1  10
ATOM     10  C   UNL     1     -11.790 -14.774  29.033  1.00  0.00     0.111 C 
BRANCH  10  11
ATOM     11  C   UNL     1     -11.170 -15.915  29.790  1.00  0.00     0.163 C 
ATOM     12  O   UNL     1     -10.007 -15.785  30.262  1.00  0.00    -0.294 OA
BRANCH  11  13
ATOM     13  C   UNL     1     -11.908 -17.184  30.016  1.00  0.00    -0.002 C 
ATOM     14  C   UNL     1     -12.332 -17.518  31.266  1.00  0.00    -0.069 C 
ATOM     15  C   UNL     1     -13.039 -18.829  31.524  1.00  0.00     0.039 C 
ATOM     16  C   UNL     1     -12.148 -16.574  32.432  1.00  0.00     0.039 C 
BRANCH  13  17
ATOM     17  C   UNL     1     -12.184 -18.104  28.832  1.00  0.00     0.066 CG0
ATOM     18  G   UNL     1     -11.370 -17.774  27.602  1.00  0.00     0.000 G0
ENDBRANCH  13  17
ENDBRANCH  11  13
ENDBRANCH  10  11
ENDBRANCH   1  10
TORSDOF 0
ENDMDL
MODEL 7
REMARK VINA RESULT:    -4.746      2.331      3.373
REMARK INTER + INTRA:          -6.284
REMARK INTER:                  -6.739
REMARK INTRA:                   0.454
REMARK UNBOUND:                 0.403
REMARK SMILES CC1=CCC(=C(C)C)C(=O)CC(C)=CCC1
REMARK SMILES IDX 12 1 14 2 13 3 15 4 16 5 2 6 1 7 3 8 11 10 9 11 10 12 5 13
REMARK SMILES IDX 6 14 7 15 8 16 4 17
REMARK H PARENT
REMARK Flexibility Score: 60.00
ROOT
ATOM      1  C   UNL     1     -13.842 -15.097  30.938  1.00  0.00    -0.070 C 
ATOM      2  C   UNL     1     -13.232 -15.278  32.133  1.00  0.00    -0.027 C 
ATOM      3  C   UNL     1     -14.749 -13.904  30.779  1.00  0.00     0.039 C 
ENDROOT
BRANCH   2   4
ATOM      4  C   UNL     1     -12.247 -16.380  32.450  1.00  0.00     0.032 C 
BRANCH   4   5
ATOM      5  C   UNL     1     -10.871 -16.108  31.823  1.00  0.00     0.034 C 
BRANCH   5   6
ATOM      6  C   UNL     1     -10.325 -17.280  31.022  1.00  0.00    -0.077 C 
ATOM      7  C   UNL     1      -9.974 -18.555  31.747  1.00  0.00     0.039 C 
ATOM      8  C   UNL     1     -10.152 -17.249  29.681  1.00  0.00    -0.023 CG0
ATOM      9  G   UNL     1     -10.380 -16.045  28.796  1.00  0.00     0.000 G0
ENDBRANCH   5   6
ENDBRANCH   4   5
ENDBRANCH   2   4
BRANCH   1  10
ATOM     10  C   UNL     1     -13.656 -16.040  29.765  1.00  0.00     0.111 C 
BRANCH  10  11
ATOM     11  C   UNL     1     -12.876 -15.382  28.661  1.00  0.00     0.163 C 
ATOM     12  O   UNL     1     -13.210 -14.231  28.268  1.00  0.00    -0.294 OA
BRANCH  11  13
ATOM     13  C   UNL     1     -11.703 -16.050  28.041  1.00  0.00    -0.002 C 
ATOM     14  C   UNL     1     -11.823 -16.661  26.829  1.00  0.00    -0.069 C 
ATOM     15  C   UNL     1     -10.656 -17.390  26.206  1.00  0.00     0.039 C 
ATOM     16  C   UNL     1     -13.114 -16.595  26.045  1.00  0.00     0.039 C 
BRANCH  13  17
ATOM     17  C   UNL     1     -10.368 -16.043  28.776  1.00  0.00     0.066 CG0
ATOM     18  G   UNL     1     -10.159 -17.244  29.670  1.00  0.00     0.000 G0
ENDBRANCH  13  17
ENDBRANCH  11  13
ENDBRANCH  10  11
ENDBRANCH   1  10
TORSDOF 0
ENDMDL
MODEL 8
REMARK VINA RESULT:    -4.568      2.173      4.240
REMARK INTER + INTRA:          -6.033
REMARK INTER:                  -7.831
REMARK INTRA:                   1.798
REMARK UNBOUND:                 0.403
REMARK SMILES CC1=CCC(=C(C)C)C(=O)CC(C)=CCC1
REMARK SMILES IDX 12 1 14 2 13 3 15 4 16 5 2 6 1 7 3 8 11 10 9 11 10 12 5 13
REMARK SMILES IDX 6 14 7 15 8 16 4 17
REMARK H PARENT
REMARK Flexibility Score: 60.00
ROOT
ATOM      1  C   UNL     1     -11.178 -17.150  27.444  1.00  0.00    -0.070 C 
ATOM      2  C   UNL     1     -10.072 -17.271  28.215  1.00  0.00    -0.027 C 
ATOM      3  C   UNL     1     -10.992 -16.988  25.958  1.00  0.00     0.039 C 
ENDROOT
BRANCH   2   4
ATOM      4  C   UNL     1     -10.073 -17.502  29.709  1.00  0.00     0.032 C 
BRANCH   4   5
ATOM      5  C   UNL     1     -10.179 -16.181  30.486  1.00  0.00     0.034 C 
BRANCH   5   6
ATOM      6  C   UNL     1     -10.776 -16.340  31.876  1.00  0.00    -0.077 C 
ATOM      7  C   UNL     1      -9.891 -16.114  33.077  1.00  0.00     0.039 C 
ATOM      8  C   UNL     1     -12.071 -16.656  32.098  1.00  0.00    -0.023 CG0
ATOM      9  G   UNL     1     -13.088 -16.986  31.029  1.00  0.00     0.000 G0
ENDBRANCH   5   6
ENDBRANCH   4   5
ENDBRANCH   2   4
BRANCH   1  10
ATOM     10  C   UNL     1     -12.585 -17.167  28.010  1.00  0.00     0.111 C 
BRANCH  10  11
ATOM     11  C   UNL     1     -12.912 -15.864  28.686  1.00  0.00     0.163 C 
ATOM     12  O   UNL     1     -12.787 -14.786  28.044  1.00  0.00    -0.294 OA
BRANCH  11  13
ATOM     13  C   UNL     1     -13.404 -15.823  30.087  1.00  0.00    -0.002 C 
ATOM     14  C   UNL     1     -14.124 -14.756  30.530  1.00  0.00    -0.069 C 
ATOM     15  C   UNL     1     -14.589 -14.672  31.965  1.00  0.00     0.039 C 
ATOM     16  C   UNL     1     -14.522 -13.637  29.593  1.00  0.00     0.039 C 
BRANCH  13  17
ATOM     17  C   UNL     1     -13.093 -16.989  31.018  1.00  0.00     0.066 CG0
ATOM     18  G   UNL     1     -12.105 -16.648  32.111  1.00  0.00     0.000 G0
ENDBRANCH  13  17
ENDBRANCH  11  13
ENDBRANCH  10  11
ENDBRANCH   1  10
TORSDOF 0
ENDMDL
MODEL 9
REMARK VINA RESULT:    -4.288      1.907      4.965
REMARK INTER + INTRA:          -5.639
REMARK INTER:                  -6.273
REMARK INTRA:                   0.634
REMARK UNBOUND:                 0.403
REMARK SMILES CC1=CCC(=C(C)C)C(=O)CC(C)=CCC1
REMARK SMILES IDX 12 1 14 2 13 3 15 4 16 5 2 6 1 7 3 8 11 10 9 11 10 12 5 13
REMARK SMILES IDX 6 14 7 15 8 16 4 17
REMARK H PARENT
REMARK Flexibility Score: 60.00
ROOT
ATOM      1  C   UNL     1     -12.891 -16.305  27.291  1.00  0.00    -0.070 C 
ATOM      2  C   UNL     1     -13.221 -15.131  27.879  1.00  0.00    -0.027 C 
ATOM      3  C   UNL     1     -12.345 -16.266  25.888  1.00  0.00     0.039 C 
ENDROOT
BRANCH   2   4
ATOM      4  C   UNL     1     -13.723 -14.979  29.297  1.00  0.00     0.032 C 
BRANCH   4   5
ATOM      5  C   UNL     1     -12.592 -15.164  30.321  1.00  0.00     0.034 C 
BRANCH   5   6
ATOM      6  C   UNL     1     -13.036 -15.865  31.596  1.00  0.00    -0.077 C 
ATOM      7  C   UNL     1     -14.096 -15.216  32.451  1.00  0.00     0.039 C 
ATOM      8  C   UNL     1     -12.543 -17.057  32.000  1.00  0.00    -0.023 CG0
ATOM      9  G   UNL     1     -11.433 -17.823  31.317  1.00  0.00     0.000 G0
ENDBRANCH   5   6
ENDBRANCH   4   5
ENDBRANCH   2   4
BRANCH   1  10
ATOM     10  C   UNL     1     -13.049 -17.647  27.980  1.00  0.00     0.111 C 
BRANCH  10  11
ATOM     11  C   UNL     1     -11.815 -18.003  28.762  1.00  0.00     0.163 C 
ATOM     12  O   UNL     1     -10.680 -17.744  28.278  1.00  0.00    -0.294 OA
BRANCH  11  13
ATOM     13  C   UNL     1     -11.907 -18.631  30.105  1.00  0.00    -0.002 C 
ATOM     14  C   UNL     1     -12.414 -19.887  30.242  1.00  0.00    -0.069 C 
ATOM     15  C   UNL     1     -12.563 -20.522  31.605  1.00  0.00     0.039 C 
ATOM     16  C   UNL     1     -12.806 -20.708  29.034  1.00  0.00     0.039 C 
BRANCH  13  17
ATOM     17  C   UNL     1     -11.426 -17.852  31.324  1.00  0.00     0.066 CG0
ATOM     18  G   UNL     1     -12.514 -17.047  32.000  1.00  0.00     0.000 G0
ENDBRANCH  13  17
ENDBRANCH  11  13
ENDBRANCH  10  11
ENDBRANCH   1  10
TORSDOF 0
ENDMDL
