MODEL 1
REMARK VINA RESULT:    -3.895      0.000      0.000
REMARK INTER + INTRA:          -5.070
REMARK INTER:                  -5.489
REMARK INTRA:                   0.419
REMARK UNBOUND:                 0.419
REMARK SMILES CC1=CCC(=C(C)C)C(=O)CC(C)=CCC1
REMARK SMILES IDX 12 1 14 2 13 3 15 4 16 5 2 6 1 7 3 8 11 10 9 11 10 12 5 13
REMARK SMILES IDX 6 14 7 15 8 16 4 17
REMARK H PARENT
REMARK Flexibility Score: 60.00
ROOT
ATOM      1  C   UNL     1       4.465   4.898 108.294  1.00  0.00    -0.070 C 
ATOM      2  C   UNL     1       4.862   4.364 109.474  1.00  0.00    -0.027 C 
ATOM      3  C   UNL     1       3.213   5.738 108.298  1.00  0.00     0.039 C 
ENDROOT
BRANCH   2   4
ATOM      4  C   UNL     1       6.132   3.585 109.720  1.00  0.00     0.032 C 
BRANCH   4   5
ATOM      5  C   UNL     1       5.992   2.094 109.356  1.00  0.00     0.034 C 
BRANCH   5   6
ATOM      6  C   UNL     1       7.006   1.662 108.315  1.00  0.00    -0.077 C 
ATOM      7  C   UNL     1       8.458   1.587 108.718  1.00  0.00     0.039 C 
ATOM      8  C   UNL     1       6.689   1.364 107.036  1.00  0.00    -0.023 CG0
ATOM      9  G   UNL     1       5.304   1.415 106.436  1.00  0.00     0.000 G0
ENDBRANCH   5   6
ENDBRANCH   4   5
ENDBRANCH   2   4
BRANCH   1  10
ATOM     10  C   UNL     1       5.242   4.750 106.996  1.00  0.00     0.111 C 
BRANCH  10  11
ATOM     11  C   UNL     1       4.540   3.829 106.030  1.00  0.00     0.163 C 
ATOM     12  O   UNL     1       3.348   4.093 105.719  1.00  0.00    -0.294 OA
BRANCH  11  13
ATOM     13  C   UNL     1       5.200   2.602 105.485  1.00  0.00    -0.002 C 
ATOM     14  C   UNL     1       5.737   2.573 104.227  1.00  0.00    -0.069 C 
ATOM     15  C   UNL     1       6.368   1.316 103.668  1.00  0.00     0.039 C 
ATOM     16  C   UNL     1       5.759   3.802 103.347  1.00  0.00     0.039 C 
BRANCH  13  17
ATOM     17  C   UNL     1       5.315   1.409 106.416  1.00  0.00     0.066 CG0
ATOM     18  G   UNL     1       6.690   1.377 107.040  1.00  0.00     0.000 G0
ENDBRANCH  13  17
ENDBRANCH  11  13
ENDBRANCH  10  11
ENDBRANCH   1  10
TORSDOF 0
ENDMDL
MODEL 2
REMARK VINA RESULT:    -3.889      2.108      3.765
REMARK INTER + INTRA:          -5.061
REMARK INTER:                  -5.683
REMARK INTRA:                   0.622
REMARK UNBOUND:                 0.419
REMARK SMILES CC1=CCC(=C(C)C)C(=O)CC(C)=CCC1
REMARK SMILES IDX 12 1 14 2 13 3 15 4 16 5 2 6 1 7 3 8 11 10 9 11 10 12 5 13
REMARK SMILES IDX 6 14 7 15 8 16 4 17
REMARK H PARENT
REMARK Flexibility Score: 60.00
ROOT
ATOM      1  C   UNL     1       3.995   0.341 107.413  1.00  0.00    -0.070 C 
ATOM      2  C   UNL     1       4.539   0.058 108.620  1.00  0.00    -0.027 C 
ATOM      3  C   UNL     1       4.232  -0.643 106.295  1.00  0.00     0.039 C 
ENDROOT
BRANCH   2   4
ATOM      4  C   UNL     1       4.342   0.842 109.895  1.00  0.00     0.032 C 
BRANCH   4   5
ATOM      5  C   UNL     1       5.652   1.463 110.417  1.00  0.00     0.034 C 
BRANCH   5   6
ATOM      6  C   UNL     1       6.484   2.065 109.302  1.00  0.00    -0.077 C 
ATOM      7  C   UNL     1       7.826   1.448 108.998  1.00  0.00     0.039 C 
ATOM      8  C   UNL     1       6.104   3.142 108.579  1.00  0.00    -0.023 CG0
ATOM      9  G   UNL     1       4.820   3.915 108.758  1.00  0.00     0.000 G0
ENDBRANCH   5   6
ENDBRANCH   4   5
ENDBRANCH   2   4
BRANCH   1  10
ATOM     10  C   UNL     1       3.114   1.551 107.147  1.00  0.00     0.111 C 
BRANCH  10  11
ATOM     11  C   UNL     1       3.922   2.731 106.667  1.00  0.00     0.163 C 
ATOM     12  O   UNL     1       4.548   2.618 105.579  1.00  0.00    -0.294 OA
BRANCH  11  13
ATOM     13  C   UNL     1       4.034   3.991 107.466  1.00  0.00    -0.002 C 
ATOM     14  C   UNL     1       3.407   5.144 107.082  1.00  0.00    -0.069 C 
ATOM     15  C   UNL     1       3.558   6.425 107.875  1.00  0.00     0.039 C 
ATOM     16  C   UNL     1       2.506   5.191 105.869  1.00  0.00     0.039 C 
BRANCH  13  17
ATOM     17  C   UNL     1       4.815   3.916 108.766  1.00  0.00     0.066 CG0
ATOM     18  G   UNL     1       6.093   3.140 108.551  1.00  0.00     0.000 G0
ENDBRANCH  13  17
ENDBRANCH  11  13
ENDBRANCH  10  11
ENDBRANCH   1  10
TORSDOF 0
ENDMDL
MODEL 3
REMARK VINA RESULT:    -3.847      1.785      1.987
REMARK INTER + INTRA:          -5.002
REMARK INTER:                  -5.461
REMARK INTRA:                   0.459
REMARK UNBOUND:                 0.419
REMARK SMILES CC1=CCC(=C(C)C)C(=O)CC(C)=CCC1
REMARK SMILES IDX 12 1 14 2 13 3 15 4 16 5 2 6 1 7 3 8 11 10 9 11 10 12 5 13
REMARK SMILES IDX 6 14 7 15 8 16 4 17
REMARK H PARENT
REMARK Flexibility Score: 60.00
ROOT
ATOM      1  C   UNL     1       4.456   4.666 108.581  1.00  0.00    -0.070 C 
ATOM      2  C   UNL     1       5.098   4.366 109.735  1.00  0.00    -0.027 C 
ATOM      3  C   UNL     1       3.532   5.859 108.589  1.00  0.00     0.039 C 
ENDROOT
BRANCH   2   4
ATOM      4  C   UNL     1       6.140   3.291 109.924  1.00  0.00     0.032 C 
BRANCH   4   5
ATOM      5  C   UNL     1       5.520   1.904 110.181  1.00  0.00     0.034 C 
BRANCH   5   6
ATOM      6  C   UNL     1       5.934   0.889 109.133  1.00  0.00    -0.077 C 
ATOM      7  C   UNL     1       7.365   0.412 109.125  1.00  0.00     0.039 C 
ATOM      8  C   UNL     1       5.100   0.404 108.186  1.00  0.00    -0.023 CG0
ATOM      9  G   UNL     1       3.650   0.785 108.010  1.00  0.00     0.000 G0
ENDBRANCH   5   6
ENDBRANCH   4   5
ENDBRANCH   2   4
BRANCH   1  10
ATOM     10  C   UNL     1       4.666   3.913 107.277  1.00  0.00     0.111 C 
BRANCH  10  11
ATOM     11  C   UNL     1       3.449   3.104 106.902  1.00  0.00     0.163 C 
ATOM     12  O   UNL     1       2.350   3.707 106.781  1.00  0.00    -0.294 OA
BRANCH  11  13
ATOM     13  C   UNL     1       3.510   1.620 106.724  1.00  0.00    -0.002 C 
ATOM     14  C   UNL     1       3.504   1.043 105.484  1.00  0.00    -0.069 C 
ATOM     15  C   UNL     1       3.527  -0.461 105.314  1.00  0.00     0.039 C 
ATOM     16  C   UNL     1       3.511   1.876 104.223  1.00  0.00     0.039 C 
BRANCH  13  17
ATOM     17  C   UNL     1       3.654   0.780 107.981  1.00  0.00     0.066 CG0
ATOM     18  G   UNL     1       5.100   0.388 108.172  1.00  0.00     0.000 G0
ENDBRANCH  13  17
ENDBRANCH  11  13
ENDBRANCH  10  11
ENDBRANCH   1  10
TORSDOF 0
ENDMDL
MODEL 4
REMARK VINA RESULT:    -3.794      1.614      2.261
REMARK INTER + INTRA:          -4.927
REMARK INTER:                  -5.469
REMARK INTRA:                   0.542
REMARK UNBOUND:                 0.419
REMARK SMILES CC1=CCC(=C(C)C)C(=O)CC(C)=CCC1
REMARK SMILES IDX 12 1 14 2 13 3 15 4 16 5 2 6 1 7 3 8 11 10 9 11 10 12 5 13
REMARK SMILES IDX 6 14 7 15 8 16 4 17
REMARK H PARENT
REMARK Flexibility Score: 60.00
ROOT
ATOM      1  C   UNL     1       2.749   4.907 107.323  1.00  0.00    -0.070 C 
ATOM      2  C   UNL     1       3.409   5.467 108.365  1.00  0.00    -0.027 C 
ATOM      3  C   UNL     1       2.013   5.832 106.387  1.00  0.00     0.039 C 
ENDROOT
BRANCH   2   4
ATOM      4  C   UNL     1       4.291   4.747 109.355  1.00  0.00     0.032 C 
BRANCH   4   5
ATOM      5  C   UNL     1       5.547   4.140 108.698  1.00  0.00     0.034 C 
BRANCH   5   6
ATOM      6  C   UNL     1       5.720   2.674 109.041  1.00  0.00    -0.077 C 
ATOM      7  C   UNL     1       5.722   2.275 110.496  1.00  0.00     0.039 C 
ATOM      8  C   UNL     1       5.899   1.703 108.119  1.00  0.00    -0.023 CG0
ATOM      9  G   UNL     1       5.962   1.907 106.624  1.00  0.00     0.000 G0
ENDBRANCH   5   6
ENDBRANCH   4   5
ENDBRANCH   2   4
BRANCH   1  10
ATOM     10  C   UNL     1       2.768   3.418 107.014  1.00  0.00     0.111 C 
BRANCH  10  11
ATOM     11  C   UNL     1       3.797   3.084 105.962  1.00  0.00     0.163 C 
ATOM     12  O   UNL     1       3.949   3.888 105.004  1.00  0.00    -0.294 OA
BRANCH  11  13
ATOM     13  C   UNL     1       4.587   1.814 106.005  1.00  0.00    -0.002 C 
ATOM     14  C   UNL     1       4.115   0.654 105.455  1.00  0.00    -0.069 C 
ATOM     15  C   UNL     1       4.904  -0.635 105.537  1.00  0.00     0.039 C 
ATOM     16  C   UNL     1       2.801   0.608 104.710  1.00  0.00     0.039 C 
BRANCH  13  17
ATOM     17  C   UNL     1       5.973   1.885 106.620  1.00  0.00     0.066 CG0
ATOM     18  G   UNL     1       5.880   1.692 108.115  1.00  0.00     0.000 G0
ENDBRANCH  13  17
ENDBRANCH  11  13
ENDBRANCH  10  11
ENDBRANCH   1  10
TORSDOF 0
ENDMDL
MODEL 5
REMARK VINA RESULT:    -3.789      1.910      2.840
REMARK INTER + INTRA:          -4.920
REMARK INTER:                  -5.552
REMARK INTRA:                   0.633
REMARK UNBOUND:                 0.419
REMARK SMILES CC1=CCC(=C(C)C)C(=O)CC(C)=CCC1
REMARK SMILES IDX 12 1 14 2 13 3 15 4 16 5 2 6 1 7 3 8 11 10 9 11 10 12 5 13
REMARK SMILES IDX 6 14 7 15 8 16 4 17
REMARK H PARENT
REMARK Flexibility Score: 60.00
ROOT
ATOM      1  C   UNL     1       4.770   4.109 107.234  1.00  0.00    -0.070 C 
ATOM      2  C   UNL     1       4.575   3.919 108.561  1.00  0.00    -0.027 C 
ATOM      3  C   UNL     1       3.558   4.418 106.390  1.00  0.00     0.039 C 
ENDROOT
BRANCH   2   4
ATOM      4  C   UNL     1       5.649   3.705 109.600  1.00  0.00     0.032 C 
BRANCH   4   5
ATOM      5  C   UNL     1       5.444   2.407 110.405  1.00  0.00     0.034 C 
BRANCH   5   6
ATOM      6  C   UNL     1       5.495   1.174 109.523  1.00  0.00    -0.077 C 
ATOM      7  C   UNL     1       4.371   0.173 109.628  1.00  0.00     0.039 C 
ATOM      8  C   UNL     1       6.504   0.904 108.666  1.00  0.00    -0.023 CG0
ATOM      9  G   UNL     1       7.728   1.761 108.448  1.00  0.00     0.000 G0
ENDBRANCH   5   6
ENDBRANCH   4   5
ENDBRANCH   2   4
BRANCH   1  10
ATOM     10  C   UNL     1       6.137   4.093 106.571  1.00  0.00     0.111 C 
BRANCH  10  11
ATOM     11  C   UNL     1       6.620   2.684 106.329  1.00  0.00     0.163 C 
ATOM     12  O   UNL     1       5.926   1.938 105.588  1.00  0.00    -0.294 OA
BRANCH  11  13
ATOM     13  C   UNL     1       7.856   2.148 106.981  1.00  0.00    -0.002 C 
ATOM     14  C   UNL     1       9.051   2.090 106.319  1.00  0.00    -0.069 C 
ATOM     15  C   UNL     1      10.287   1.511 106.972  1.00  0.00     0.039 C 
ATOM     16  C   UNL     1       9.207   2.633 104.916  1.00  0.00     0.039 C 
BRANCH  13  17
ATOM     17  C   UNL     1       7.744   1.739 108.439  1.00  0.00     0.066 CG0
ATOM     18  G   UNL     1       6.500   0.908 108.644  1.00  0.00     0.000 G0
ENDBRANCH  13  17
ENDBRANCH  11  13
ENDBRANCH  10  11
ENDBRANCH   1  10
TORSDOF 0
ENDMDL
MODEL 6
REMARK VINA RESULT:    -3.773      1.952      3.795
REMARK INTER + INTRA:          -4.897
REMARK INTER:                  -5.283
REMARK INTRA:                   0.385
REMARK UNBOUND:                 0.419
REMARK SMILES CC1=CCC(=C(C)C)C(=O)CC(C)=CCC1
REMARK SMILES IDX 12 1 14 2 13 3 15 4 16 5 2 6 1 7 3 8 11 10 9 11 10 12 5 13
REMARK SMILES IDX 6 14 7 15 8 16 4 17
REMARK H PARENT
REMARK Flexibility Score: 60.00
ROOT
ATOM      1  C   UNL     1       6.824   2.341 108.429  1.00  0.00    -0.070 C 
ATOM      2  C   UNL     1       6.246   3.311 109.178  1.00  0.00    -0.027 C 
ATOM      3  C   UNL     1       8.061   1.679 108.982  1.00  0.00     0.039 C 
ENDROOT
BRANCH   2   4
ATOM      4  C   UNL     1       4.953   4.027 108.870  1.00  0.00     0.032 C 
BRANCH   4   5
ATOM      5  C   UNL     1       5.091   5.023 107.702  1.00  0.00     0.034 C 
BRANCH   5   6
ATOM      6  C   UNL     1       4.080   4.760 106.604  1.00  0.00    -0.077 C 
ATOM      7  C   UNL     1       2.614   4.778 106.962  1.00  0.00     0.039 C 
ATOM      8  C   UNL     1       4.415   4.485 105.325  1.00  0.00    -0.023 CG0
ATOM      9  G   UNL     1       5.821   4.387 104.783  1.00  0.00     0.000 G0
ENDBRANCH   5   6
ENDBRANCH   4   5
ENDBRANCH   2   4
BRANCH   1  10
ATOM     10  C   UNL     1       6.259   1.846 107.107  1.00  0.00     0.111 C 
BRANCH  10  11
ATOM     11  C   UNL     1       7.001   2.433 105.932  1.00  0.00     0.163 C 
ATOM     12  O   UNL     1       8.256   2.519 106.006  1.00  0.00    -0.294 OA
BRANCH  11  13
ATOM     13  C   UNL     1       6.286   2.953 104.725  1.00  0.00    -0.002 C 
ATOM     14  C   UNL     1       5.997   2.148 103.658  1.00  0.00    -0.069 C 
ATOM     15  C   UNL     1       5.309   2.690 102.425  1.00  0.00     0.039 C 
ATOM     16  C   UNL     1       6.319   0.670 103.671  1.00  0.00     0.039 C 
BRANCH  13  17
ATOM     17  C   UNL     1       5.827   4.399 104.765  1.00  0.00     0.066 CG0
ATOM     18  G   UNL     1       4.433   4.479 105.342  1.00  0.00     0.000 G0
ENDBRANCH  13  17
ENDBRANCH  11  13
ENDBRANCH  10  11
ENDBRANCH   1  10
TORSDOF 0
ENDMDL
MODEL 7
REMARK VINA RESULT:    -3.764      1.799      3.547
REMARK INTER + INTRA:          -4.885
REMARK INTER:                  -5.254
REMARK INTRA:                   0.369
REMARK UNBOUND:                 0.419
REMARK SMILES CC1=CCC(=C(C)C)C(=O)CC(C)=CCC1
REMARK SMILES IDX 12 1 14 2 13 3 15 4 16 5 2 6 1 7 3 8 11 10 9 11 10 12 5 13
REMARK SMILES IDX 6 14 7 15 8 16 4 17
REMARK H PARENT
REMARK Flexibility Score: 60.00
ROOT
ATOM      1  C   UNL     1       5.459   1.728 109.574  1.00  0.00    -0.070 C 
ATOM      2  C   UNL     1       6.520   0.955 109.238  1.00  0.00    -0.027 C 
ATOM      3  C   UNL     1       5.293   2.085 111.030  1.00  0.00     0.039 C 
ENDROOT
BRANCH   2   4
ATOM      4  C   UNL     1       6.935   0.569 107.839  1.00  0.00     0.032 C 
BRANCH   4   5
ATOM      5  C   UNL     1       7.616   1.726 107.083  1.00  0.00     0.034 C 
BRANCH   5   6
ATOM      6  C   UNL     1       7.001   1.955 105.716  1.00  0.00    -0.077 C 
ATOM      7  C   UNL     1       7.121   0.860 104.685  1.00  0.00     0.039 C 
ATOM      8  C   UNL     1       6.373   3.096 105.357  1.00  0.00    -0.023 CG0
ATOM      9  G   UNL     1       6.185   4.313 106.232  1.00  0.00     0.000 G0
ENDBRANCH   5   6
ENDBRANCH   4   5
ENDBRANCH   2   4
BRANCH   1  10
ATOM     10  C   UNL     1       4.478   2.302 108.564  1.00  0.00     0.111 C 
BRANCH  10  11
ATOM     11  C   UNL     1       4.762   3.755 108.279  1.00  0.00     0.163 C 
ATOM     12  O   UNL     1       4.914   4.534 109.259  1.00  0.00    -0.294 OA
BRANCH  11  13
ATOM     13  C   UNL     1       4.816   4.292 106.884  1.00  0.00    -0.002 C 
ATOM     14  C   UNL     1       3.703   4.788 106.261  1.00  0.00    -0.069 C 
ATOM     15  C   UNL     1       3.757   5.293 104.836  1.00  0.00     0.039 C 
ATOM     16  C   UNL     1       2.375   4.889 106.975  1.00  0.00     0.039 C 
BRANCH  13  17
ATOM     17  C   UNL     1       6.176   4.332 106.212  1.00  0.00     0.066 CG0
ATOM     18  G   UNL     1       6.364   3.097 105.363  1.00  0.00     0.000 G0
ENDBRANCH  13  17
ENDBRANCH  11  13
ENDBRANCH  10  11
ENDBRANCH   1  10
TORSDOF 0
ENDMDL
MODEL 8
REMARK VINA RESULT:    -3.729      1.947      3.706
REMARK INTER + INTRA:          -4.836
REMARK INTER:                  -5.197
REMARK INTRA:                   0.360
REMARK UNBOUND:                 0.419
REMARK SMILES CC1=CCC(=C(C)C)C(=O)CC(C)=CCC1
REMARK SMILES IDX 12 1 14 2 13 3 15 4 16 5 2 6 1 7 3 8 11 10 9 11 10 12 5 13
REMARK SMILES IDX 6 14 7 15 8 16 4 17
REMARK H PARENT
REMARK Flexibility Score: 60.00
ROOT
ATOM      1  C   UNL     1       4.987   4.304 108.632  1.00  0.00    -0.070 C 
ATOM      2  C   UNL     1       3.887   5.012 108.280  1.00  0.00    -0.027 C 
ATOM      3  C   UNL     1       5.024   3.721 110.022  1.00  0.00     0.039 C 
ENDROOT
BRANCH   2   4
ATOM      4  C   UNL     1       3.594   5.589 106.916  1.00  0.00     0.032 C 
BRANCH   4   5
ATOM      5  C   UNL     1       3.050   4.535 105.932  1.00  0.00     0.034 C 
BRANCH   5   6
ATOM      6  C   UNL     1       3.772   4.571 104.600  1.00  0.00    -0.077 C 
ATOM      7  C   UNL     1       3.574   5.774 103.711  1.00  0.00     0.039 C 
ATOM      8  C   UNL     1       4.564   3.574 104.147  1.00  0.00    -0.023 CG0
ATOM      9  G   UNL     1       4.855   2.281 104.871  1.00  0.00     0.000 G0
ENDBRANCH   5   6
ENDBRANCH   4   5
ENDBRANCH   2   4
BRANCH   1  10
ATOM     10  C   UNL     1       6.141   4.012 107.686  1.00  0.00     0.111 C 
BRANCH  10  11
ATOM     11  C   UNL     1       6.050   2.620 107.112  1.00  0.00     0.163 C 
ATOM     12  O   UNL     1       5.930   1.655 107.912  1.00  0.00    -0.294 OA
BRANCH  11  13
ATOM     13  C   UNL     1       6.150   2.363 105.641  1.00  0.00    -0.002 C 
ATOM     14  C   UNL     1       7.355   2.160 105.027  1.00  0.00    -0.069 C 
ATOM     15  C   UNL     1       7.451   1.940 103.533  1.00  0.00     0.039 C 
ATOM     16  C   UNL     1       8.646   2.111 105.812  1.00  0.00     0.039 C 
BRANCH  13  17
ATOM     17  C   UNL     1       4.848   2.263 104.868  1.00  0.00     0.066 CG0
ATOM     18  G   UNL     1       4.574   3.566 104.154  1.00  0.00     0.000 G0
ENDBRANCH  13  17
ENDBRANCH  11  13
ENDBRANCH  10  11
ENDBRANCH   1  10
TORSDOF 0
ENDMDL
MODEL 9
REMARK VINA RESULT:    -3.641      2.027      4.098
REMARK INTER + INTRA:          -4.712
REMARK INTER:                  -5.110
REMARK INTRA:                   0.399
REMARK UNBOUND:                 0.419
REMARK SMILES CC1=CCC(=C(C)C)C(=O)CC(C)=CCC1
REMARK SMILES IDX 12 1 14 2 13 3 15 4 16 5 2 6 1 7 3 8 11 10 9 11 10 12 5 13
REMARK SMILES IDX 6 14 7 15 8 16 4 17
REMARK H PARENT
REMARK Flexibility Score: 60.00
ROOT
ATOM      1  C   UNL     1       3.425   5.115 107.230  1.00  0.00    -0.070 C 
ATOM      2  C   UNL     1       3.127   5.864 106.142  1.00  0.00    -0.027 C 
ATOM      3  C   UNL     1       3.291   5.770 108.582  1.00  0.00     0.039 C 
ENDROOT
BRANCH   2   4
ATOM      4  C   UNL     1       3.090   5.384 104.711  1.00  0.00     0.032 C 
BRANCH   4   5
ATOM      5  C   UNL     1       4.467   5.462 104.024  1.00  0.00     0.034 C 
BRANCH   5   6
ATOM      6  C   UNL     1       4.905   4.121 103.468  1.00  0.00    -0.077 C 
ATOM      7  C   UNL     1       4.206   3.593 102.240  1.00  0.00     0.039 C 
ATOM      8  C   UNL     1       5.869   3.356 104.025  1.00  0.00    -0.023 CG0
ATOM      9  G   UNL     1       6.654   3.694 105.270  1.00  0.00     0.000 G0
ENDBRANCH   5   6
ENDBRANCH   4   5
ENDBRANCH   2   4
BRANCH   1  10
ATOM     10  C   UNL     1       3.820   3.649 107.164  1.00  0.00     0.111 C 
BRANCH  10  11
ATOM     11  C   UNL     1       5.291   3.457 107.435  1.00  0.00     0.163 C 
ATOM     12  O   UNL     1       5.755   3.890 108.524  1.00  0.00    -0.294 OA
BRANCH  11  13
ATOM     13  C   UNL     1       6.204   2.822 106.434  1.00  0.00    -0.002 C 
ATOM     14  C   UNL     1       6.554   1.503 106.516  1.00  0.00    -0.069 C 
ATOM     15  C   UNL     1       7.509   0.878 105.522  1.00  0.00     0.039 C 
ATOM     16  C   UNL     1       5.979   0.595 107.579  1.00  0.00     0.039 C 
BRANCH  13  17
ATOM     17  C   UNL     1       6.669   3.688 105.277  1.00  0.00     0.066 CG0
ATOM     18  G   UNL     1       5.868   3.361 104.039  1.00  0.00     0.000 G0
ENDBRANCH  13  17
ENDBRANCH  11  13
ENDBRANCH  10  11
ENDBRANCH   1  10
TORSDOF 0
ENDMDL
