MODEL 1
REMARK VINA RESULT:    -6.274      0.000      0.000
REMARK INTER + INTRA:          -8.063
REMARK INTER:                  -7.558
REMARK INTRA:                  -0.505
REMARK UNBOUND:                -0.505
REMARK SMILES CCCCc1oc(O)c2ccccc12
REMARK SMILES IDX 4 1 5 2 7 3 6 4 9 5 14 6 10 7 13 8 11 9 12 10 8 11 3 13 2 14
REMARK SMILES IDX 1 15
REMARK H PARENT 8 12
REMARK Flexibility Score: inf
ROOT
ATOM      1  C   UNL     1     -24.373  36.503  11.324  1.00  0.00     0.076 C 
ENDROOT
BRANCH   1   2
ATOM      2  C   UNL     1     -23.207  35.564  11.286  1.00  0.00     0.116 A 
ATOM      3  C   UNL     1     -21.178  34.880  11.152  1.00  0.00     0.290 A 
ATOM      4  O   UNL     1     -21.947  35.951  11.183  1.00  0.00    -0.430 OA
ATOM      5  C   UNL     1     -21.959  33.746  11.233  1.00  0.00     0.066 A 
ATOM      6  C   UNL     1     -23.254  34.181  11.316  1.00  0.00     0.027 A 
ATOM      7  C   UNL     1     -21.636  32.389  11.232  1.00  0.00     0.016 A 
ATOM      8  C   UNL     1     -24.325  33.292  11.402  1.00  0.00     0.012 A 
ATOM      9  C   UNL     1     -22.696  31.466  11.321  1.00  0.00     0.001 A 
ATOM     10  C   UNL     1     -24.033  31.915  11.404  1.00  0.00     0.001 A 
BRANCH   3  11
ATOM     11  O   UNL     1     -19.792  34.924  11.049  1.00  0.00    -0.480 OA
ATOM     12  H   UNL     1     -19.296  35.805  11.006  1.00  0.00     0.297 HD
ENDBRANCH   3  11
ENDBRANCH   1   2
BRANCH   1  13
ATOM     13  C   UNL     1     -24.484  37.163  12.704  1.00  0.00     0.008 C 
BRANCH  13  14
ATOM     14  C   UNL     1     -25.274  36.307  13.705  1.00  0.00    -0.003 C 
ATOM     15  C   UNL     1     -26.664  35.931  13.191  1.00  0.00     0.004 C 
ENDBRANCH  13  14
ENDBRANCH   1  13
TORSDOF 4
ENDMDL
MODEL 2
REMARK VINA RESULT:    -6.216      1.240      1.677
REMARK INTER + INTRA:          -7.993
REMARK INTER:                  -7.749
REMARK INTRA:                  -0.244
REMARK UNBOUND:                -0.505
REMARK SMILES CCCCc1oc(O)c2ccccc12
REMARK SMILES IDX 4 1 5 2 7 3 6 4 9 5 14 6 10 7 13 8 11 9 12 10 8 11 3 13 2 14
REMARK SMILES IDX 1 15
REMARK H PARENT 8 12
REMARK Flexibility Score: inf
ROOT
ATOM      1  C   UNL     1     -26.165  34.881  11.476  1.00  0.00     0.076 C 
ENDROOT
BRANCH   1   2
ATOM      2  C   UNL     1     -24.686  34.659  11.390  1.00  0.00     0.116 A 
ATOM      3  C   UNL     1     -22.593  35.095  11.221  1.00  0.00     0.290 A 
ATOM      4  O   UNL     1     -23.795  35.632  11.306  1.00  0.00    -0.430 OA
ATOM      5  C   UNL     1     -22.696  33.720  11.246  1.00  0.00     0.066 A 
ATOM      6  C   UNL     1     -24.032  33.441  11.351  1.00  0.00     0.027 A 
ATOM      7  C   UNL     1     -21.735  32.711  11.177  1.00  0.00     0.016 A 
ATOM      8  C   UNL     1     -24.508  32.130  11.394  1.00  0.00     0.012 A 
ATOM      9  C   UNL     1     -22.184  31.378  11.220  1.00  0.00     0.001 A 
ATOM     10  C   UNL     1     -23.564  31.089  11.327  1.00  0.00     0.001 A 
BRANCH   3  11
ATOM     11  O   UNL     1     -21.420  35.835  11.119  1.00  0.00    -0.480 OA
ATOM     12  H   UNL     1     -20.691  35.765  11.817  1.00  0.00     0.297 HD
ENDBRANCH   3  11
ENDBRANCH   1   2
BRANCH   1  13
ATOM     13  C   UNL     1     -26.535  35.503  12.828  1.00  0.00     0.008 C 
BRANCH  13  14
ATOM     14  C   UNL     1     -27.002  36.961  12.699  1.00  0.00    -0.003 C 
ATOM     15  C   UNL     1     -28.364  37.085  12.015  1.00  0.00     0.004 C 
ENDBRANCH  13  14
ENDBRANCH   1  13
TORSDOF 4
ENDMDL
MODEL 3
REMARK VINA RESULT:    -6.188      2.245      4.525
REMARK INTER + INTRA:          -7.958
REMARK INTER:                  -7.771
REMARK INTRA:                  -0.187
REMARK UNBOUND:                -0.505
REMARK SMILES CCCCc1oc(O)c2ccccc12
REMARK SMILES IDX 4 1 5 2 7 3 6 4 9 5 14 6 10 7 13 8 11 9 12 10 8 11 3 13 2 14
REMARK SMILES IDX 1 15
REMARK H PARENT 8 12
REMARK Flexibility Score: inf
ROOT
ATOM      1  C   UNL     1     -20.166  35.671  11.046  1.00  0.00     0.076 C 
ENDROOT
BRANCH   1   2
ATOM      2  C   UNL     1     -21.142  34.554  11.257  1.00  0.00     0.116 A 
ATOM      3  C   UNL     1     -21.896  32.562  11.501  1.00  0.00     0.290 A 
ATOM      4  O   UNL     1     -20.801  33.280  11.342  1.00  0.00    -0.430 OA
ATOM      5  C   UNL     1     -22.997  33.391  11.518  1.00  0.00     0.066 A 
ATOM      6  C   UNL     1     -22.517  34.664  11.360  1.00  0.00     0.027 A 
ATOM      7  C   UNL     1     -24.361  33.129  11.650  1.00  0.00     0.016 A 
ATOM      8  C   UNL     1     -23.366  35.770  11.319  1.00  0.00     0.012 A 
ATOM      9  C   UNL     1     -25.243  34.226  11.616  1.00  0.00     0.001 A 
ATOM     10  C   UNL     1     -24.748  35.539  11.450  1.00  0.00     0.001 A 
BRANCH   3  11
ATOM     11  O   UNL     1     -21.902  31.176  11.627  1.00  0.00    -0.480 OA
ATOM     12  H   UNL     1     -21.770  30.729  12.525  1.00  0.00     0.297 HD
ENDBRANCH   3  11
ENDBRANCH   1   2
BRANCH   1  13
ATOM     13  C   UNL     1     -18.794  35.298  11.618  1.00  0.00     0.008 C 
BRANCH  13  14
ATOM     14  C   UNL     1     -18.163  36.437  12.432  1.00  0.00    -0.003 C 
ATOM     15  C   UNL     1     -17.115  37.218  11.639  1.00  0.00     0.004 C 
ENDBRANCH  13  14
ENDBRANCH   1  13
TORSDOF 4
ENDMDL
MODEL 4
REMARK VINA RESULT:    -6.167      2.061      2.999
REMARK INTER + INTRA:          -7.934
REMARK INTER:                  -7.420
REMARK INTRA:                  -0.514
REMARK UNBOUND:                -0.505
REMARK SMILES CCCCc1oc(O)c2ccccc12
REMARK SMILES IDX 4 1 5 2 7 3 6 4 9 5 14 6 10 7 13 8 11 9 12 10 8 11 3 13 2 14
REMARK SMILES IDX 1 15
REMARK H PARENT 8 12
REMARK Flexibility Score: inf
ROOT
ATOM      1  C   UNL     1     -25.746  35.327  11.424  1.00  0.00     0.076 C 
ENDROOT
BRANCH   1   2
ATOM      2  C   UNL     1     -24.681  34.273  11.431  1.00  0.00     0.116 A 
ATOM      3  C   UNL     1     -23.768  32.337  11.562  1.00  0.00     0.290 A 
ATOM      4  O   UNL     1     -24.919  32.981  11.575  1.00  0.00    -0.430 OA
ATOM      5  C   UNL     1     -22.734  33.236  11.409  1.00  0.00     0.066 A 
ATOM      6  C   UNL     1     -23.316  34.474  11.327  1.00  0.00     0.027 A 
ATOM      7  C   UNL     1     -21.351  33.067  11.343  1.00  0.00     0.016 A 
ATOM      8  C   UNL     1     -22.557  35.634  11.176  1.00  0.00     0.012 A 
ATOM      9  C   UNL     1     -20.559  34.220  11.188  1.00  0.00     0.001 A 
ATOM     10  C   UNL     1     -21.159  35.497  11.106  1.00  0.00     0.001 A 
BRANCH   3  11
ATOM     11  O   UNL     1     -23.651  30.957  11.691  1.00  0.00    -0.480 OA
ATOM     12  H   UNL     1     -24.250  30.328  11.170  1.00  0.00     0.297 HD
ENDBRANCH   3  11
ENDBRANCH   1   2
BRANCH   1  13
ATOM     13  C   UNL     1     -26.030  35.809  12.852  1.00  0.00     0.008 C 
BRANCH  13  14
ATOM     14  C   UNL     1     -25.310  37.125  13.184  1.00  0.00    -0.003 C 
ATOM     15  C   UNL     1     -25.389  38.143  12.047  1.00  0.00     0.004 C 
ENDBRANCH  13  14
ENDBRANCH   1  13
TORSDOF 4
ENDMDL
MODEL 5
REMARK VINA RESULT:    -5.971      2.612      5.742
REMARK INTER + INTRA:          -7.698
REMARK INTER:                  -7.462
REMARK INTRA:                  -0.236
REMARK UNBOUND:                -0.505
REMARK SMILES CCCCc1oc(O)c2ccccc12
REMARK SMILES IDX 4 1 5 2 7 3 6 4 9 5 14 6 10 7 13 8 11 9 12 10 8 11 3 13 2 14
REMARK SMILES IDX 1 15
REMARK H PARENT 8 12
REMARK Flexibility Score: inf
ROOT
ATOM      1  C   UNL     1     -24.167  33.460  12.199  1.00  0.00     0.076 C 
ENDROOT
BRANCH   1   2
ATOM      2  C   UNL     1     -25.423  34.128  11.729  1.00  0.00     0.116 A 
ATOM      3  C   UNL     1     -27.189  34.504  10.571  1.00  0.00     0.290 A 
ATOM      4  O   UNL     1     -26.181  33.671  10.747  1.00  0.00    -0.430 OA
ATOM      5  C   UNL     1     -27.089  35.549  11.465  1.00  0.00     0.066 A 
ATOM      6  C   UNL     1     -25.960  35.311  12.203  1.00  0.00     0.027 A 
ATOM      7  C   UNL     1     -27.885  36.675  11.678  1.00  0.00     0.016 A 
ATOM      8  C   UNL     1     -25.542  36.183  13.209  1.00  0.00     0.012 A 
ATOM      9  C   UNL     1     -27.489  37.572  12.688  1.00  0.00     0.001 A 
ATOM     10  C   UNL     1     -26.324  37.328  13.448  1.00  0.00     0.001 A 
BRANCH   3  11
ATOM     11  O   UNL     1     -28.183  34.326   9.614  1.00  0.00    -0.480 OA
ATOM     12  H   UNL     1     -28.452  35.076   8.990  1.00  0.00     0.297 HD
ENDBRANCH   3  11
ENDBRANCH   1   2
BRANCH   1  13
ATOM     13  C   UNL     1     -24.021  32.078  11.551  1.00  0.00     0.008 C 
BRANCH  13  14
ATOM     14  C   UNL     1     -22.718  31.936  10.751  1.00  0.00    -0.003 C 
ATOM     15  C   UNL     1     -21.583  32.791  11.316  1.00  0.00     0.004 C 
ENDBRANCH  13  14
ENDBRANCH   1  13
TORSDOF 4
ENDMDL
MODEL 6
REMARK VINA RESULT:    -5.906      2.001      4.378
REMARK INTER + INTRA:          -7.619
REMARK INTER:                  -7.440
REMARK INTRA:                  -0.179
REMARK UNBOUND:                -0.505
REMARK SMILES CCCCc1oc(O)c2ccccc12
REMARK SMILES IDX 4 1 5 2 7 3 6 4 9 5 14 6 10 7 13 8 11 9 12 10 8 11 3 13 2 14
REMARK SMILES IDX 1 15
REMARK H PARENT 8 12
REMARK Flexibility Score: inf
ROOT
ATOM      1  C   UNL     1     -19.549  34.879  11.228  1.00  0.00     0.076 C 
ENDROOT
BRANCH   1   2
ATOM      2  C   UNL     1     -21.046  34.818  11.223  1.00  0.00     0.116 A 
ATOM      3  C   UNL     1     -23.086  35.479  11.237  1.00  0.00     0.290 A 
ATOM      4  O   UNL     1     -21.830  35.881  11.212  1.00  0.00    -0.430 OA
ATOM      5  C   UNL     1     -23.131  34.101  11.269  1.00  0.00     0.066 A 
ATOM      6  C   UNL     1     -21.829  33.678  11.263  1.00  0.00     0.027 A 
ATOM      7  C   UNL     1     -24.198  33.203  11.311  1.00  0.00     0.016 A 
ATOM      8  C   UNL     1     -21.496  32.324  11.300  1.00  0.00     0.012 A 
ATOM      9  C   UNL     1     -23.893  31.829  11.346  1.00  0.00     0.001 A 
ATOM     10  C   UNL     1     -22.550  31.392  11.342  1.00  0.00     0.001 A 
BRANCH   3  11
ATOM     11  O   UNL     1     -24.177  36.343  11.233  1.00  0.00    -0.480 OA
ATOM     12  H   UNL     1     -24.945  36.217  10.586  1.00  0.00     0.297 HD
ENDBRANCH   3  11
ENDBRANCH   1   2
BRANCH   1  13
ATOM     13  C   UNL     1     -19.067  36.113  11.998  1.00  0.00     0.008 C 
BRANCH  13  14
ATOM     14  C   UNL     1     -17.647  36.542  11.597  1.00  0.00    -0.003 C 
ATOM     15  C   UNL     1     -17.173  37.786  12.348  1.00  0.00     0.004 C 
ENDBRANCH  13  14
ENDBRANCH   1  13
TORSDOF 4
ENDMDL
MODEL 7
REMARK VINA RESULT:    -5.668      2.576      5.940
REMARK INTER + INTRA:          -7.333
REMARK INTER:                  -7.161
REMARK INTRA:                  -0.172
REMARK UNBOUND:                -0.505
REMARK SMILES CCCCc1oc(O)c2ccccc12
REMARK SMILES IDX 4 1 5 2 7 3 6 4 9 5 14 6 10 7 13 8 11 9 12 10 8 11 3 13 2 14
REMARK SMILES IDX 1 15
REMARK H PARENT 8 12
REMARK Flexibility Score: inf
ROOT
ATOM      1  C   UNL     1     -23.996  34.469  11.577  1.00  0.00     0.076 C 
ENDROOT
BRANCH   1   2
ATOM      2  C   UNL     1     -25.229  35.226  11.964  1.00  0.00     0.116 A 
ATOM      3  C   UNL     1     -27.302  35.652  12.313  1.00  0.00     0.290 A 
ATOM      4  O   UNL     1     -26.449  34.718  11.940  1.00  0.00    -0.430 OA
ATOM      5  C   UNL     1     -26.621  36.819  12.588  1.00  0.00     0.066 A 
ATOM      6  C   UNL     1     -25.297  36.549  12.364  1.00  0.00     0.027 A 
ATOM      7  C   UNL     1     -27.056  38.078  13.005  1.00  0.00     0.016 A 
ATOM      8  C   UNL     1     -24.309  37.519  12.536  1.00  0.00     0.012 A 
ATOM      9  C   UNL     1     -26.081  39.077  13.190  1.00  0.00     0.001 A 
ATOM     10  C   UNL     1     -24.716  38.799  12.957  1.00  0.00     0.001 A 
BRANCH   3  11
ATOM     11  O   UNL     1     -28.676  35.456  12.400  1.00  0.00    -0.480 OA
ATOM     12  H   UNL     1     -29.119  34.646  11.985  1.00  0.00     0.297 HD
ENDBRANCH   3  11
ENDBRANCH   1   2
BRANCH   1  13
ATOM     13  C   UNL     1     -24.239  32.959  11.688  1.00  0.00     0.008 C 
BRANCH  13  14
ATOM     14  C   UNL     1     -23.076  32.130  11.123  1.00  0.00    -0.003 C 
ATOM     15  C   UNL     1     -23.462  30.675  10.859  1.00  0.00     0.004 C 
ENDBRANCH  13  14
ENDBRANCH   1  13
TORSDOF 4
ENDMDL
MODEL 8
REMARK VINA RESULT:    -5.656      3.700      6.772
REMARK INTER + INTRA:          -7.318
REMARK INTER:                  -6.954
REMARK INTRA:                  -0.365
REMARK UNBOUND:                -0.505
REMARK SMILES CCCCc1oc(O)c2ccccc12
REMARK SMILES IDX 4 1 5 2 7 3 6 4 9 5 14 6 10 7 13 8 11 9 12 10 8 11 3 13 2 14
REMARK SMILES IDX 1 15
REMARK H PARENT 8 12
REMARK Flexibility Score: inf
ROOT
ATOM      1  C   UNL     1     -25.126  37.117  13.538  1.00  0.00     0.076 C 
ENDROOT
BRANCH   1   2
ATOM      2  C   UNL     1     -26.331  37.991  13.370  1.00  0.00     0.116 A 
ATOM      3  C   UNL     1     -27.638  39.678  13.583  1.00  0.00     0.290 A 
ATOM      4  O   UNL     1     -26.453  39.195  13.901  1.00  0.00    -0.430 OA
ATOM      5  C   UNL     1     -28.324  38.759  12.817  1.00  0.00     0.066 A 
ATOM      6  C   UNL     1     -27.492  37.680  12.683  1.00  0.00     0.027 A 
ATOM      7  C   UNL     1     -29.596  38.784  12.246  1.00  0.00     0.016 A 
ATOM      8  C   UNL     1     -27.870  36.544  11.967  1.00  0.00     0.012 A 
ATOM      9  C   UNL     1     -30.006  37.652  11.515  1.00  0.00     0.001 A 
ATOM     10  C   UNL     1     -29.148  36.538  11.378  1.00  0.00     0.001 A 
BRANCH   3  11
ATOM     11  O   UNL     1     -28.097  40.930  13.980  1.00  0.00    -0.480 OA
ATOM     12  H   UNL     1     -28.094  41.717  13.343  1.00  0.00     0.297 HD
ENDBRANCH   3  11
ENDBRANCH   1   2
BRANCH   1  13
ATOM     13  C   UNL     1     -24.130  37.355  12.397  1.00  0.00     0.008 C 
BRANCH  13  14
ATOM     14  C   UNL     1     -24.183  36.252  11.328  1.00  0.00    -0.003 C 
ATOM     15  C   UNL     1     -22.879  35.460  11.234  1.00  0.00     0.004 C 
ENDBRANCH  13  14
ENDBRANCH   1  13
TORSDOF 4
ENDMDL
MODEL 9
REMARK VINA RESULT:    -5.617      1.894      5.292
REMARK INTER + INTRA:          -7.271
REMARK INTER:                  -7.051
REMARK INTRA:                  -0.220
REMARK UNBOUND:                -0.505
REMARK SMILES CCCCc1oc(O)c2ccccc12
REMARK SMILES IDX 4 1 5 2 7 3 6 4 9 5 14 6 10 7 13 8 11 9 12 10 8 11 3 13 2 14
REMARK SMILES IDX 1 15
REMARK H PARENT 8 12
REMARK Flexibility Score: inf
ROOT
ATOM      1  C   UNL     1     -25.228  33.679  11.336  1.00  0.00     0.076 C 
ENDROOT
BRANCH   1   2
ATOM      2  C   UNL     1     -25.261  35.089  11.839  1.00  0.00     0.116 A 
ATOM      3  C   UNL     1     -24.576  36.949  12.658  1.00  0.00     0.290 A 
ATOM      4  O   UNL     1     -24.197  35.749  12.263  1.00  0.00    -0.430 OA
ATOM      5  C   UNL     1     -25.938  37.084  12.492  1.00  0.00     0.066 A 
ATOM      6  C   UNL     1     -26.377  35.896  11.971  1.00  0.00     0.027 A 
ATOM      7  C   UNL     1     -26.812  38.138  12.761  1.00  0.00     0.016 A 
ATOM      8  C   UNL     1     -27.724  35.672  11.683  1.00  0.00     0.012 A 
ATOM      9  C   UNL     1     -28.177  37.943  12.478  1.00  0.00     0.001 A 
ATOM     10  C   UNL     1     -28.630  36.716  11.943  1.00  0.00     0.001 A 
BRANCH   3  11
ATOM     11  O   UNL     1     -23.705  37.909  13.164  1.00  0.00    -0.480 OA
ATOM     12  H   UNL     1     -23.326  38.638  12.573  1.00  0.00     0.297 HD
ENDBRANCH   3  11
ENDBRANCH   1   2
BRANCH   1  13
ATOM     13  C   UNL     1     -24.107  32.891  12.025  1.00  0.00     0.008 C 
BRANCH  13  14
ATOM     14  C   UNL     1     -23.156  32.219  11.023  1.00  0.00    -0.003 C 
ATOM     15  C   UNL     1     -21.700  32.642  11.218  1.00  0.00     0.004 C 
ENDBRANCH  13  14
ENDBRANCH   1  13
TORSDOF 4
ENDMDL
