MODEL 1
REMARK VINA RESULT:    -3.401      0.000      0.000
REMARK INTER + INTRA:          -3.951
REMARK INTER:                  -3.898
REMARK INTRA:                  -0.053
REMARK UNBOUND:                -0.053
REMARK SMILES CC(C)[C@@H]([NH3+])C(=O)[O-]
REMARK SMILES IDX 4 1 5 2 6 6 7 7 8 8 2 9 1 10 3 11
REMARK H PARENT 5 3 5 4 5 5
REMARK Flexibility Score: inf
ROOT
ATOM      1  C   UNL     1      -2.515 -14.582  19.482  1.00  0.00     0.230 C 
ENDROOT
BRANCH   1   2
ATOM      2  N   UNL     1      -1.755 -14.175  18.290  1.00  0.00    -0.350 N 
ATOM      3  H   UNL     1      -1.584 -15.000  17.671  1.00  0.00     0.345 HD
ATOM      4  H   UNL     1      -2.271 -13.437  17.756  1.00  0.00     0.345 HD
ATOM      5  H   UNL     1      -0.819 -13.801  18.570  1.00  0.00     0.345 HD
ENDBRANCH   1   2
BRANCH   1   6
ATOM      6  C   UNL     1      -1.931 -15.859  20.032  1.00  0.00     0.099 C 
ATOM      7  O   UNL     1      -2.524 -16.483  20.952  1.00  0.00    -0.544 OA
ATOM      8  O   UNL     1      -0.734 -16.355  19.530  1.00  0.00    -0.544 OA
ENDBRANCH   1   6
BRANCH   1   9
ATOM      9  C   UNL     1      -2.525 -13.466  20.572  1.00  0.00     0.047 C 
ATOM     10  C   UNL     1      -3.763 -12.563  20.433  1.00  0.00     0.014 C 
ATOM     11  C   UNL     1      -1.258 -12.596  20.512  1.00  0.00     0.014 C 
ENDBRANCH   1   9
TORSDOF 3
ENDMDL
MODEL 2
REMARK VINA RESULT:    -3.375      7.702      8.633
REMARK INTER + INTRA:          -3.921
REMARK INTER:                  -3.894
REMARK INTRA:                  -0.027
REMARK UNBOUND:                -0.053
REMARK SMILES CC(C)[C@@H]([NH3+])C(=O)[O-]
REMARK SMILES IDX 4 1 5 2 6 6 7 7 8 8 2 9 1 10 3 11
REMARK H PARENT 5 3 5 4 5 5
REMARK Flexibility Score: inf
ROOT
ATOM      1  C   UNL     1       4.183 -12.054  16.761  1.00  0.00     0.230 C 
ENDROOT
BRANCH   1   2
ATOM      2  N   UNL     1       3.549 -12.952  17.738  1.00  0.00    -0.350 N 
ATOM      3  H   UNL     1       3.047 -13.726  17.245  1.00  0.00     0.345 HD
ATOM      4  H   UNL     1       4.263 -13.355  18.389  1.00  0.00     0.345 HD
ATOM      5  H   UNL     1       2.835 -12.430  18.296  1.00  0.00     0.345 HD
ENDBRANCH   1   2
BRANCH   1   6
ATOM      6  C   UNL     1       4.419 -10.709  17.403  1.00  0.00     0.099 C 
ATOM      7  O   UNL     1       3.613 -10.267  18.262  1.00  0.00    -0.544 OA
ATOM      8  O   UNL     1       5.527  -9.949  17.047  1.00  0.00    -0.544 OA
ENDBRANCH   1   6
BRANCH   1   9
ATOM      9  C   UNL     1       5.518 -12.644  16.212  1.00  0.00     0.047 C 
ATOM     10  C   UNL     1       5.254 -13.718  15.142  1.00  0.00     0.014 C 
ATOM     11  C   UNL     1       6.379 -13.252  17.332  1.00  0.00     0.014 C 
ENDBRANCH   1   9
TORSDOF 3
ENDMDL
MODEL 3
REMARK VINA RESULT:    -3.350      1.702      2.438
REMARK INTER + INTRA:          -3.892
REMARK INTER:                  -3.870
REMARK INTRA:                  -0.022
REMARK UNBOUND:                -0.053
REMARK SMILES CC(C)[C@@H]([NH3+])C(=O)[O-]
REMARK SMILES IDX 4 1 5 2 6 6 7 7 8 8 2 9 1 10 3 11
REMARK H PARENT 5 3 5 4 5 5
REMARK Flexibility Score: inf
ROOT
ATOM      1  C   UNL     1      -1.940 -15.346  20.879  1.00  0.00     0.230 C 
ENDROOT
BRANCH   1   2
ATOM      2  N   UNL     1      -2.957 -15.321  21.941  1.00  0.00    -0.350 N 
ATOM      3  H   UNL     1      -2.501 -15.366  22.880  1.00  0.00     0.345 HD
ATOM      4  H   UNL     1      -3.540 -14.453  21.875  1.00  0.00     0.345 HD
ATOM      5  H   UNL     1      -3.582 -16.156  21.861  1.00  0.00     0.345 HD
ENDBRANCH   1   2
BRANCH   1   6
ATOM      6  C   UNL     1      -1.979 -16.685  20.185  1.00  0.00     0.099 C 
ATOM      7  O   UNL     1      -1.092 -16.989  19.344  1.00  0.00    -0.544 OA
ATOM      8  O   UNL     1      -2.995 -17.591  20.468  1.00  0.00    -0.544 OA
ENDBRANCH   1   6
BRANCH   1   9
ATOM      9  C   UNL     1      -2.142 -14.189  19.854  1.00  0.00     0.047 C 
ATOM     10  C   UNL     1      -0.798 -13.556  19.456  1.00  0.00     0.014 C 
ATOM     11  C   UNL     1      -3.071 -13.093  20.404  1.00  0.00     0.014 C 
ENDBRANCH   1   9
TORSDOF 3
ENDMDL
MODEL 4
REMARK VINA RESULT:    -3.344      7.175      8.211
REMARK INTER + INTRA:          -3.885
REMARK INTER:                  -3.838
REMARK INTRA:                  -0.047
REMARK UNBOUND:                -0.053
REMARK SMILES CC(C)[C@@H]([NH3+])C(=O)[O-]
REMARK SMILES IDX 4 1 5 2 6 6 7 7 8 8 2 9 1 10 3 11
REMARK H PARENT 5 3 5 4 5 5
REMARK Flexibility Score: inf
ROOT
ATOM      1  C   UNL     1       4.310 -11.759  16.540  1.00  0.00     0.230 C 
ENDROOT
BRANCH   1   2
ATOM      2  N   UNL     1       3.886 -12.940  15.773  1.00  0.00    -0.350 N 
ATOM      3  H   UNL     1       2.960 -13.281  16.117  1.00  0.00     0.345 HD
ATOM      4  H   UNL     1       3.822 -12.715  14.753  1.00  0.00     0.345 HD
ATOM      5  H   UNL     1       4.570 -13.720  15.907  1.00  0.00     0.345 HD
ENDBRANCH   1   2
BRANCH   1   6
ATOM      6  C   UNL     1       3.267 -11.442  17.583  1.00  0.00     0.099 C 
ATOM      7  O   UNL     1       2.815 -12.354  18.324  1.00  0.00    -0.544 OA
ATOM      8  O   UNL     1       2.797 -10.142  17.731  1.00  0.00    -0.544 OA
ENDBRANCH   1   6
BRANCH   1   9
ATOM      9  C   UNL     1       5.706 -11.968  17.203  1.00  0.00     0.047 C 
ATOM     10  C   UNL     1       6.759 -11.026  16.593  1.00  0.00     0.014 C 
ATOM     11  C   UNL     1       6.193 -13.421  17.068  1.00  0.00     0.014 C 
ENDBRANCH   1   9
TORSDOF 3
ENDMDL
MODEL 5
REMARK VINA RESULT:    -3.302      3.589      4.908
REMARK INTER + INTRA:          -3.838
REMARK INTER:                  -3.775
REMARK INTRA:                  -0.063
REMARK UNBOUND:                -0.053
REMARK SMILES CC(C)[C@@H]([NH3+])C(=O)[O-]
REMARK SMILES IDX 4 1 5 2 6 6 7 7 8 8 2 9 1 10 3 11
REMARK H PARENT 5 3 5 4 5 5
REMARK Flexibility Score: inf
ROOT
ATOM      1  C   UNL     1      -3.632 -17.336  21.549  1.00  0.00     0.230 C 
ENDROOT
BRANCH   1   2
ATOM      2  N   UNL     1      -3.690 -16.865  22.941  1.00  0.00    -0.350 N 
ATOM      3  H   UNL     1      -3.427 -15.855  22.992  1.00  0.00     0.345 HD
ATOM      4  H   UNL     1      -4.650 -16.999  23.337  1.00  0.00     0.345 HD
ATOM      5  H   UNL     1      -3.003 -17.392  23.528  1.00  0.00     0.345 HD
ENDBRANCH   1   2
BRANCH   1   6
ATOM      6  C   UNL     1      -2.523 -16.614  20.825  1.00  0.00     0.099 C 
ATOM      7  O   UNL     1      -1.817 -17.223  19.979  1.00  0.00    -0.544 OA
ATOM      8  O   UNL     1      -2.271 -15.273  21.090  1.00  0.00    -0.544 OA
ENDBRANCH   1   6
BRANCH   1   9
ATOM      9  C   UNL     1      -3.429 -18.880  21.468  1.00  0.00     0.047 C 
ATOM     10  C   UNL     1      -4.674 -19.577  20.892  1.00  0.00     0.014 C 
ATOM     11  C   UNL     1      -3.103 -19.489  22.842  1.00  0.00     0.014 C 
ENDBRANCH   1   9
TORSDOF 3
ENDMDL
MODEL 6
REMARK VINA RESULT:    -3.229      7.863      8.468
REMARK INTER + INTRA:          -3.754
REMARK INTER:                  -3.693
REMARK INTRA:                  -0.061
REMARK UNBOUND:                -0.053
REMARK SMILES CC(C)[C@@H]([NH3+])C(=O)[O-]
REMARK SMILES IDX 4 1 5 2 6 6 7 7 8 8 2 9 1 10 3 11
REMARK H PARENT 5 3 5 4 5 5
REMARK Flexibility Score: inf
ROOT
ATOM      1  C   UNL     1       4.468 -11.899  17.305  1.00  0.00     0.230 C 
ENDROOT
BRANCH   1   2
ATOM      2  N   UNL     1       3.122 -12.036  16.729  1.00  0.00    -0.350 N 
ATOM      3  H   UNL     1       2.681 -12.928  17.048  1.00  0.00     0.345 HD
ATOM      4  H   UNL     1       2.517 -11.227  17.004  1.00  0.00     0.345 HD
ATOM      5  H   UNL     1       3.180 -12.077  15.685  1.00  0.00     0.345 HD
ENDBRANCH   1   2
BRANCH   1   6
ATOM      6  C   UNL     1       5.434 -12.753  16.522  1.00  0.00     0.099 C 
ATOM      7  O   UNL     1       5.528 -12.621  15.273  1.00  0.00    -0.544 OA
ATOM      8  O   UNL     1       6.224 -13.694  17.173  1.00  0.00    -0.544 OA
ENDBRANCH   1   6
BRANCH   1   9
ATOM      9  C   UNL     1       4.941 -10.413  17.326  1.00  0.00     0.047 C 
ATOM     10  C   UNL     1       6.380 -10.293  17.857  1.00  0.00     0.014 C 
ATOM     11  C   UNL     1       4.015  -9.530  18.180  1.00  0.00     0.014 C 
ENDBRANCH   1   9
TORSDOF 3
ENDMDL
MODEL 7
REMARK VINA RESULT:    -3.198      4.451      5.340
REMARK INTER + INTRA:          -3.718
REMARK INTER:                  -3.654
REMARK INTRA:                  -0.064
REMARK UNBOUND:                -0.053
REMARK SMILES CC(C)[C@@H]([NH3+])C(=O)[O-]
REMARK SMILES IDX 4 1 5 2 6 6 7 7 8 8 2 9 1 10 3 11
REMARK H PARENT 5 3 5 4 5 5
REMARK Flexibility Score: inf
ROOT
ATOM      1  C   UNL     1       1.312 -12.106  18.979  1.00  0.00     0.230 C 
ENDROOT
BRANCH   1   2
ATOM      2  N   UNL     1       1.984 -13.407  19.113  1.00  0.00    -0.350 N 
ATOM      3  H   UNL     1       1.857 -13.971  18.242  1.00  0.00     0.345 HD
ATOM      4  H   UNL     1       3.006 -13.279  19.302  1.00  0.00     0.345 HD
ATOM      5  H   UNL     1       1.559 -13.953  19.898  1.00  0.00     0.345 HD
ENDBRANCH   1   2
BRANCH   1   6
ATOM      6  C   UNL     1       0.711 -11.718  20.307  1.00  0.00     0.099 C 
ATOM      7  O   UNL     1      -0.514 -11.909  20.528  1.00  0.00    -0.544 OA
ATOM      8  O   UNL     1       1.504 -11.145  21.295  1.00  0.00    -0.544 OA
ENDBRANCH   1   6
BRANCH   1   9
ATOM      9  C   UNL     1       2.287 -10.999  18.472  1.00  0.00     0.047 C 
ATOM     10  C   UNL     1       1.524  -9.866  17.764  1.00  0.00     0.014 C 
ATOM     11  C   UNL     1       3.349 -11.566  17.515  1.00  0.00     0.014 C 
ENDBRANCH   1   9
TORSDOF 3
ENDMDL
MODEL 8
REMARK VINA RESULT:    -3.189      1.997      3.345
REMARK INTER + INTRA:          -3.708
REMARK INTER:                  -3.731
REMARK INTRA:                   0.023
REMARK UNBOUND:                -0.053
REMARK SMILES CC(C)[C@@H]([NH3+])C(=O)[O-]
REMARK SMILES IDX 4 1 5 2 6 6 7 7 8 8 2 9 1 10 3 11
REMARK H PARENT 5 3 5 4 5 5
REMARK Flexibility Score: inf
ROOT
ATOM      1  C   UNL     1      -1.728 -14.321  19.816  1.00  0.00     0.230 C 
ENDROOT
BRANCH   1   2
ATOM      2  N   UNL     1      -2.002 -14.179  18.378  1.00  0.00    -0.350 N 
ATOM      3  H   UNL     1      -1.120 -13.963  17.861  1.00  0.00     0.345 HD
ATOM      4  H   UNL     1      -2.428 -15.056  17.994  1.00  0.00     0.345 HD
ATOM      5  H   UNL     1      -2.658 -13.382  18.214  1.00  0.00     0.345 HD
ENDBRANCH   1   2
BRANCH   1   6
ATOM      6  C   UNL     1      -2.792 -13.594  20.599  1.00  0.00     0.099 C 
ATOM      7  O   UNL     1      -2.850 -13.712  21.851  1.00  0.00    -0.544 OA
ATOM      8  O   UNL     1      -3.718 -12.789  19.943  1.00  0.00    -0.544 OA
ENDBRANCH   1   6
BRANCH   1   9
ATOM      9  C   UNL     1      -1.654 -15.818  20.247  1.00  0.00     0.047 C 
ATOM     10  C   UNL     1      -0.636 -16.594  19.393  1.00  0.00     0.014 C 
ATOM     11  C   UNL     1      -3.023 -16.511  20.151  1.00  0.00     0.014 C 
ENDBRANCH   1   9
TORSDOF 3
ENDMDL
MODEL 9
REMARK VINA RESULT:    -2.977      2.986      3.690
REMARK INTER + INTRA:          -3.465
REMARK INTER:                  -3.407
REMARK INTRA:                  -0.058
REMARK UNBOUND:                -0.053
REMARK SMILES CC(C)[C@@H]([NH3+])C(=O)[O-]
REMARK SMILES IDX 4 1 5 2 6 6 7 7 8 8 2 9 1 10 3 11
REMARK H PARENT 5 3 5 4 5 5
REMARK Flexibility Score: inf
ROOT
ATOM      1  C   UNL     1      -2.928 -13.565  20.814  1.00  0.00     0.230 C 
ENDROOT
BRANCH   1   2
ATOM      2  N   UNL     1      -3.268 -13.951  22.192  1.00  0.00    -0.350 N 
ATOM      3  H   UNL     1      -2.717 -13.381  22.874  1.00  0.00     0.345 HD
ATOM      4  H   UNL     1      -4.291 -13.822  22.372  1.00  0.00     0.345 HD
ATOM      5  H   UNL     1      -3.018 -14.953  22.357  1.00  0.00     0.345 HD
ENDBRANCH   1   2
BRANCH   1   6
ATOM      6  C   UNL     1      -2.376 -12.162  20.813  1.00  0.00     0.099 C 
ATOM      7  O   UNL     1      -3.156 -11.173  20.805  1.00  0.00    -0.544 OA
ATOM      8  O   UNL     1      -1.001 -11.950  20.818  1.00  0.00    -0.544 OA
ENDBRANCH   1   6
BRANCH   1   9
ATOM      9  C   UNL     1      -1.914 -14.557  20.167  1.00  0.00     0.047 C 
ATOM     10  C   UNL     1      -2.048 -14.570  18.634  1.00  0.00     0.014 C 
ATOM     11  C   UNL     1      -2.094 -15.989  20.700  1.00  0.00     0.014 C 
ENDBRANCH   1   9
TORSDOF 3
ENDMDL
