MODEL 1
REMARK VINA RESULT:    -4.057      0.000      0.000
REMARK INTER + INTRA:          -4.805
REMARK INTER:                  -4.768
REMARK INTRA:                  -0.036
REMARK UNBOUND:                -0.036
REMARK SMILES CCCCC(=O)[O-]
REMARK SMILES IDX 4 1 5 2 6 3 7 4 3 5 2 6 1 7
REMARK H PARENT
REMARK Flexibility Score: inf
ROOT
ATOM      1  C   UNL     1      22.694 -12.668  20.362  1.00  0.00     0.053 C 
ENDROOT
BRANCH   1   2
ATOM      2  C   UNL     1      23.001 -11.400  21.099  1.00  0.00     0.041 C 
ATOM      3  O   UNL     1      23.278 -10.350  20.462  1.00  0.00    -0.550 OA
ATOM      4  O   UNL     1      23.015 -11.388  22.487  1.00  0.00    -0.550 OA
ENDBRANCH   1   2
BRANCH   1   5
ATOM      5  C   UNL     1      22.507 -12.422  18.858  1.00  0.00     0.006 C 
BRANCH   5   6
ATOM      6  C   UNL     1      23.751 -12.815  18.048  1.00  0.00    -0.003 C 
ATOM      7  C   UNL     1      23.536 -12.566  16.558  1.00  0.00     0.004 C 
ENDBRANCH   5   6
ENDBRANCH   1   5
TORSDOF 3
ENDMDL
MODEL 2
REMARK VINA RESULT:    -4.041      2.498      4.120
REMARK INTER + INTRA:          -4.786
REMARK INTER:                  -4.764
REMARK INTRA:                  -0.022
REMARK UNBOUND:                -0.036
REMARK SMILES CCCCC(=O)[O-]
REMARK SMILES IDX 4 1 5 2 6 3 7 4 3 5 2 6 1 7
REMARK H PARENT
REMARK Flexibility Score: inf
ROOT
ATOM      1  C   UNL     1      22.997 -12.691  18.729  1.00  0.00     0.053 C 
ENDROOT
BRANCH   1   2
ATOM      2  C   UNL     1      23.805 -12.356  17.512  1.00  0.00     0.041 C 
ATOM      3  O   UNL     1      24.930 -11.804  17.633  1.00  0.00    -0.550 OA
ATOM      4  O   UNL     1      23.302 -12.625  16.247  1.00  0.00    -0.550 OA
ENDBRANCH   1   2
BRANCH   1   5
ATOM      5  C   UNL     1      23.013 -11.550  19.756  1.00  0.00     0.006 C 
BRANCH   5   6
ATOM      6  C   UNL     1      22.640 -12.033  21.165  1.00  0.00    -0.003 C 
ATOM      7  C   UNL     1      22.968 -10.974  22.213  1.00  0.00     0.004 C 
ENDBRANCH   5   6
ENDBRANCH   1   5
TORSDOF 3
ENDMDL
MODEL 3
REMARK VINA RESULT:    -3.823      0.984      1.477
REMARK INTER + INTRA:          -4.529
REMARK INTER:                  -4.493
REMARK INTRA:                  -0.036
REMARK UNBOUND:                -0.036
REMARK SMILES CCCCC(=O)[O-]
REMARK SMILES IDX 4 1 5 2 6 3 7 4 3 5 2 6 1 7
REMARK H PARENT
REMARK Flexibility Score: inf
ROOT
ATOM      1  C   UNL     1      22.671 -12.553  18.780  1.00  0.00     0.053 C 
ENDROOT
BRANCH   1   2
ATOM      2  C   UNL     1      22.995 -11.772  20.016  1.00  0.00     0.041 C 
ATOM      3  O   UNL     1      23.642 -10.695  19.932  1.00  0.00    -0.550 OA
ATOM      4  O   UNL     1      22.611 -12.249  21.262  1.00  0.00    -0.550 OA
ENDBRANCH   1   2
BRANCH   1   5
ATOM      5  C   UNL     1      23.905 -12.745  17.887  1.00  0.00     0.006 C 
BRANCH   5   6
ATOM      6  C   UNL     1      23.581 -12.548  16.399  1.00  0.00    -0.003 C 
ATOM      7  C   UNL     1      24.595 -11.623  15.733  1.00  0.00     0.004 C 
ENDBRANCH   5   6
ENDBRANCH   1   5
TORSDOF 3
ENDMDL
MODEL 4
REMARK VINA RESULT:    -3.785      1.451      2.281
REMARK INTER + INTRA:          -4.485
REMARK INTER:                  -4.422
REMARK INTRA:                  -0.062
REMARK UNBOUND:                -0.036
REMARK SMILES CCCCC(=O)[O-]
REMARK SMILES IDX 4 1 5 2 6 3 7 4 3 5 2 6 1 7
REMARK H PARENT
REMARK Flexibility Score: inf
ROOT
ATOM      1  C   UNL     1      22.344 -11.555  20.535  1.00  0.00     0.053 C 
ENDROOT
BRANCH   1   2
ATOM      2  C   UNL     1      23.342 -10.668  21.213  1.00  0.00     0.041 C 
ATOM      3  O   UNL     1      23.356 -10.575  22.469  1.00  0.00    -0.550 OA
ATOM      4  O   UNL     1      24.235  -9.920  20.458  1.00  0.00    -0.550 OA
ENDBRANCH   1   2
BRANCH   1   5
ATOM      5  C   UNL     1      22.924 -12.206  19.272  1.00  0.00     0.006 C 
BRANCH   5   6
ATOM      6  C   UNL     1      23.284 -13.683  19.493  1.00  0.00    -0.003 C 
ATOM      7  C   UNL     1      22.199 -14.400  20.289  1.00  0.00     0.004 C 
ENDBRANCH   5   6
ENDBRANCH   1   5
TORSDOF 3
ENDMDL
MODEL 5
REMARK VINA RESULT:    -3.589      2.698      4.214
REMARK INTER + INTRA:          -4.254
REMARK INTER:                  -4.159
REMARK INTRA:                  -0.095
REMARK UNBOUND:                -0.036
REMARK SMILES CCCCC(=O)[O-]
REMARK SMILES IDX 4 1 5 2 6 3 7 4 3 5 2 6 1 7
REMARK H PARENT
REMARK Flexibility Score: inf
ROOT
ATOM      1  C   UNL     1      23.781 -12.372  16.582  1.00  0.00     0.053 C 
ENDROOT
BRANCH   1   2
ATOM      2  C   UNL     1      24.853 -11.354  16.341  1.00  0.00     0.041 C 
ATOM      3  O   UNL     1      25.372 -11.241  15.199  1.00  0.00    -0.550 OA
ATOM      4  O   UNL     1      25.301 -10.555  17.384  1.00  0.00    -0.550 OA
ENDBRANCH   1   2
BRANCH   1   5
ATOM      5  C   UNL     1      23.835 -12.931  18.011  1.00  0.00     0.006 C 
BRANCH   5   6
ATOM      6  C   UNL     1      22.567 -12.602  18.812  1.00  0.00    -0.003 C 
ATOM      7  C   UNL     1      22.888 -11.713  20.009  1.00  0.00     0.004 C 
ENDBRANCH   5   6
ENDBRANCH   1   5
TORSDOF 3
ENDMDL
MODEL 6
REMARK VINA RESULT:    -3.518      3.061      4.336
REMARK INTER + INTRA:          -4.171
REMARK INTER:                  -4.149
REMARK INTRA:                  -0.022
REMARK UNBOUND:                -0.036
REMARK SMILES CCCCC(=O)[O-]
REMARK SMILES IDX 4 1 5 2 6 3 7 4 3 5 2 6 1 7
REMARK H PARENT
REMARK Flexibility Score: inf
ROOT
ATOM      1  C   UNL     1      24.028 -12.372  15.968  1.00  0.00     0.053 C 
ENDROOT
BRANCH   1   2
ATOM      2  C   UNL     1      23.770 -12.869  17.357  1.00  0.00     0.041 C 
ATOM      3  O   UNL     1      24.571 -13.675  17.899  1.00  0.00    -0.550 OA
ATOM      4  O   UNL     1      22.629 -12.468  18.039  1.00  0.00    -0.550 OA
ENDBRANCH   1   2
BRANCH   1   5
ATOM      5  C   UNL     1      24.945 -11.141  15.964  1.00  0.00     0.006 C 
BRANCH   5   6
ATOM      6  C   UNL     1      25.935 -11.157  14.790  1.00  0.00    -0.003 C 
ATOM      7  C   UNL     1      27.353 -10.854  15.262  1.00  0.00     0.004 C 
ENDBRANCH   5   6
ENDBRANCH   1   5
TORSDOF 3
ENDMDL
MODEL 7
REMARK VINA RESULT:    -3.449      4.142      5.552
REMARK INTER + INTRA:          -4.090
REMARK INTER:                  -4.033
REMARK INTRA:                  -0.056
REMARK UNBOUND:                -0.036
REMARK SMILES CCCCC(=O)[O-]
REMARK SMILES IDX 4 1 5 2 6 3 7 4 3 5 2 6 1 7
REMARK H PARENT
REMARK Flexibility Score: inf
ROOT
ATOM      1  C   UNL     1      26.066 -11.142  14.878  1.00  0.00     0.053 C 
ENDROOT
BRANCH   1   2
ATOM      2  C   UNL     1      27.242 -10.713  15.701  1.00  0.00     0.041 C 
ATOM      3  O   UNL     1      27.844  -9.641  15.433  1.00  0.00    -0.550 OA
ATOM      4  O   UNL     1      27.691 -11.513  16.743  1.00  0.00    -0.550 OA
ENDBRANCH   1   2
BRANCH   1   5
ATOM      5  C   UNL     1      24.748 -11.009  15.654  1.00  0.00     0.006 C 
BRANCH   5   6
ATOM      6  C   UNL     1      24.075 -12.369  15.892  1.00  0.00    -0.003 C 
ATOM      7  C   UNL     1      23.627 -12.513  17.343  1.00  0.00     0.004 C 
ENDBRANCH   5   6
ENDBRANCH   1   5
TORSDOF 3
ENDMDL
MODEL 8
REMARK VINA RESULT:    -3.359      3.442      4.629
REMARK INTER + INTRA:          -3.984
REMARK INTER:                  -3.926
REMARK INTRA:                  -0.058
REMARK UNBOUND:                -0.036
REMARK SMILES CCCCC(=O)[O-]
REMARK SMILES IDX 4 1 5 2 6 3 7 4 3 5 2 6 1 7
REMARK H PARENT
REMARK Flexibility Score: inf
ROOT
ATOM      1  C   UNL     1      25.026 -11.427  16.774  1.00  0.00     0.053 C 
ENDROOT
BRANCH   1   2
ATOM      2  C   UNL     1      23.864 -12.364  16.909  1.00  0.00     0.041 C 
ATOM      3  O   UNL     1      23.410 -12.958  15.896  1.00  0.00    -0.550 OA
ATOM      4  O   UNL     1      23.263 -12.554  18.146  1.00  0.00    -0.550 OA
ENDBRANCH   1   2
BRANCH   1   5
ATOM      5  C   UNL     1      25.243 -10.994  15.317  1.00  0.00     0.006 C 
BRANCH   5   6
ATOM      6  C   UNL     1      26.731 -10.952  14.940  1.00  0.00    -0.003 C 
ATOM      7  C   UNL     1      27.615 -11.119  16.172  1.00  0.00     0.004 C 
ENDBRANCH   5   6
ENDBRANCH   1   5
TORSDOF 3
ENDMDL
