MODEL 1
REMARK VINA RESULT:    -4.204      0.000      0.000
REMARK INTER + INTRA:          -4.327
REMARK INTER:                  -4.327
REMARK INTRA:                   0.000
REMARK UNBOUND:                 0.000
REMARK SMILES Cc1cccc(O)c1C
REMARK SMILES IDX 1 1 2 2 8 3 6 4 5 5 4 6 3 7 9 8 7 9
REMARK H PARENT 7 10
REMARK Flexibility Score: inf
ROOT
ATOM      1  C   UNL     1      26.469 -37.720  -0.374  1.00  0.00     0.045 C 
ATOM      2  C   UNL     1      26.487 -39.219  -0.217  1.00  0.00    -0.045 A 
ATOM      3  C   UNL     1      27.089 -40.072  -1.183  1.00  0.00    -0.006 A 
ATOM      4  C   UNL     1      27.068 -41.474  -0.970  1.00  0.00     0.118 A 
ATOM      5  C   UNL     1      26.463 -42.000   0.174  1.00  0.00     0.046 A 
ATOM      6  C   UNL     1      25.875 -41.159   1.115  1.00  0.00     0.004 A 
ATOM      7  C   UNL     1      25.886 -39.780   0.923  1.00  0.00     0.004 A 
ATOM      8  C   UNL     1      27.750 -39.524  -2.428  1.00  0.00     0.048 C 
ENDROOT
BRANCH   4   9
ATOM      9  O   UNL     1      27.640 -42.373  -1.875  1.00  0.00    -0.508 OA
ATOM     10  H   UNL     1      28.260 -42.092  -2.624  1.00  0.00     0.293 HD
ENDBRANCH   4   9
TORSDOF 1
ENDMDL
MODEL 2
REMARK VINA RESULT:    -4.143      0.928      2.625
REMARK INTER + INTRA:          -4.264
REMARK INTER:                  -4.264
REMARK INTRA:                   0.000
REMARK UNBOUND:                 0.000
REMARK SMILES Cc1cccc(O)c1C
REMARK SMILES IDX 1 1 2 2 8 3 6 4 5 5 4 6 3 7 9 8 7 9
REMARK H PARENT 7 10
REMARK Flexibility Score: inf
ROOT
ATOM      1  C   UNL     1      25.878 -38.456   0.492  1.00  0.00     0.045 C 
ATOM      2  C   UNL     1      26.461 -39.289  -0.621  1.00  0.00    -0.045 A 
ATOM      3  C   UNL     1      26.656 -40.692  -0.490  1.00  0.00    -0.006 A 
ATOM      4  C   UNL     1      27.210 -41.413  -1.578  1.00  0.00     0.118 A 
ATOM      5  C   UNL     1      27.556 -40.747  -2.757  1.00  0.00     0.046 A 
ATOM      6  C   UNL     1      27.363 -39.374  -2.877  1.00  0.00     0.004 A 
ATOM      7  C   UNL     1      26.820 -38.649  -1.819  1.00  0.00     0.004 A 
ATOM      8  C   UNL     1      26.289 -41.433   0.776  1.00  0.00     0.048 C 
ENDROOT
BRANCH   4   9
ATOM      9  O   UNL     1      27.430 -42.792  -1.523  1.00  0.00    -0.508 OA
ATOM     10  H   UNL     1      27.241 -43.355  -0.703  1.00  0.00     0.293 HD
ENDBRANCH   4   9
TORSDOF 1
ENDMDL
MODEL 3
REMARK VINA RESULT:    -4.139      1.257      2.698
REMARK INTER + INTRA:          -4.260
REMARK INTER:                  -4.260
REMARK INTRA:                   0.000
REMARK UNBOUND:                 0.000
REMARK SMILES Cc1cccc(O)c1C
REMARK SMILES IDX 1 1 2 2 8 3 6 4 5 5 4 6 3 7 9 8 7 9
REMARK H PARENT 7 10
REMARK Flexibility Score: inf
ROOT
ATOM      1  C   UNL     1      26.978 -37.268  -0.720  1.00  0.00     0.045 C 
ATOM      2  C   UNL     1      26.923 -38.699  -1.191  1.00  0.00    -0.045 A 
ATOM      3  C   UNL     1      26.404 -39.743  -0.375  1.00  0.00    -0.006 A 
ATOM      4  C   UNL     1      26.384 -41.067  -0.883  1.00  0.00     0.118 A 
ATOM      5  C   UNL     1      26.867 -41.332  -2.167  1.00  0.00     0.046 A 
ATOM      6  C   UNL     1      27.373 -40.306  -2.960  1.00  0.00     0.004 A 
ATOM      7  C   UNL     1      27.402 -39.000  -2.478  1.00  0.00     0.004 A 
ATOM      8  C   UNL     1      25.876 -39.478   1.017  1.00  0.00     0.048 C 
ENDROOT
BRANCH   4   9
ATOM      9  O   UNL     1      25.889 -42.142  -0.139  1.00  0.00    -0.508 OA
ATOM     10  H   UNL     1      26.248 -43.085  -0.215  1.00  0.00     0.293 HD
ENDBRANCH   4   9
TORSDOF 1
ENDMDL
MODEL 4
REMARK VINA RESULT:    -4.028      1.920      3.622
REMARK INTER + INTRA:          -4.145
REMARK INTER:                  -4.145
REMARK INTRA:                   0.000
REMARK UNBOUND:                 0.000
REMARK SMILES Cc1cccc(O)c1C
REMARK SMILES IDX 1 1 2 2 8 3 6 4 5 5 4 6 3 7 9 8 7 9
REMARK H PARENT 7 10
REMARK Flexibility Score: inf
ROOT
ATOM      1  C   UNL     1      25.943 -42.030   0.534  1.00  0.00     0.045 C 
ATOM      2  C   UNL     1      26.450 -41.008  -0.451  1.00  0.00    -0.045 A 
ATOM      3  C   UNL     1      26.466 -39.617  -0.155  1.00  0.00    -0.006 A 
ATOM      4  C   UNL     1      26.956 -38.712  -1.131  1.00  0.00     0.118 A 
ATOM      5  C   UNL     1      27.415 -39.189  -2.361  1.00  0.00     0.046 A 
ATOM      6  C   UNL     1      27.397 -40.552  -2.644  1.00  0.00     0.004 A 
ATOM      7  C   UNL     1      26.918 -41.456  -1.699  1.00  0.00     0.004 A 
ATOM      8  C   UNL     1      25.974 -39.079   1.170  1.00  0.00     0.048 C 
ENDROOT
BRANCH   4   9
ATOM      9  O   UNL     1      27.003 -37.333  -0.910  1.00  0.00    -0.508 OA
ATOM     10  H   UNL     1      26.289 -36.692  -1.232  1.00  0.00     0.293 HD
ENDBRANCH   4   9
TORSDOF 1
ENDMDL
MODEL 5
REMARK VINA RESULT:    -3.974      1.763      3.190
REMARK INTER + INTRA:          -4.090
REMARK INTER:                  -4.090
REMARK INTRA:                   0.000
REMARK UNBOUND:                 0.000
REMARK SMILES Cc1cccc(O)c1C
REMARK SMILES IDX 1 1 2 2 8 3 6 4 5 5 4 6 3 7 9 8 7 9
REMARK H PARENT 7 10
REMARK Flexibility Score: inf
ROOT
ATOM      1  C   UNL     1      27.374 -39.470  -2.794  1.00  0.00     0.045 C 
ATOM      2  C   UNL     1      26.979 -39.055  -1.400  1.00  0.00    -0.045 A 
ATOM      3  C   UNL     1      26.609 -40.003  -0.406  1.00  0.00    -0.006 A 
ATOM      4  C   UNL     1      26.248 -39.540   0.885  1.00  0.00     0.118 A 
ATOM      5  C   UNL     1      26.258 -38.172   1.167  1.00  0.00     0.046 A 
ATOM      6  C   UNL     1      26.620 -37.250   0.190  1.00  0.00     0.004 A 
ATOM      7  C   UNL     1      26.977 -37.685  -1.084  1.00  0.00     0.004 A 
ATOM      8  C   UNL     1      26.592 -41.488  -0.689  1.00  0.00     0.048 C 
ENDROOT
BRANCH   4   9
ATOM      9  O   UNL     1      25.875 -40.413   1.911  1.00  0.00    -0.508 OA
ATOM     10  H   UNL     1      25.998 -41.416   1.863  1.00  0.00     0.293 HD
ENDBRANCH   4   9
TORSDOF 1
ENDMDL
MODEL 6
REMARK VINA RESULT:    -3.881     22.790     23.250
REMARK INTER + INTRA:          -3.995
REMARK INTER:                  -3.995
REMARK INTRA:                   0.000
REMARK UNBOUND:                 0.000
REMARK SMILES Cc1cccc(O)c1C
REMARK SMILES IDX 1 1 2 2 8 3 6 4 5 5 4 6 3 7 9 8 7 9
REMARK H PARENT 7 10
REMARK Flexibility Score: inf
ROOT
ATOM      1  C   UNL     1      45.886 -30.003  12.178  1.00  0.00     0.045 C 
ATOM      2  C   UNL     1      45.439 -31.437  12.044  1.00  0.00    -0.045 A 
ATOM      3  C   UNL     1      44.807 -31.923  10.867  1.00  0.00    -0.006 A 
ATOM      4  C   UNL     1      44.412 -33.284  10.811  1.00  0.00     0.118 A 
ATOM      5  C   UNL     1      44.647 -34.127  11.900  1.00  0.00     0.046 A 
ATOM      6  C   UNL     1      45.266 -33.644  13.049  1.00  0.00     0.004 A 
ATOM      7  C   UNL     1      45.659 -32.310  13.123  1.00  0.00     0.004 A 
ATOM      8  C   UNL     1      44.544 -31.029   9.676  1.00  0.00     0.048 C 
ENDROOT
BRANCH   4   9
ATOM      9  O   UNL     1      43.787 -33.833   9.688  1.00  0.00    -0.508 OA
ATOM     10  H   UNL     1      43.656 -34.827   9.551  1.00  0.00     0.293 HD
ENDBRANCH   4   9
TORSDOF 1
ENDMDL
MODEL 7
REMARK VINA RESULT:    -3.763     22.506     23.025
REMARK INTER + INTRA:          -3.873
REMARK INTER:                  -3.873
REMARK INTRA:                   0.000
REMARK UNBOUND:                 0.000
REMARK SMILES Cc1cccc(O)c1C
REMARK SMILES IDX 1 1 2 2 8 3 6 4 5 5 4 6 3 7 9 8 7 9
REMARK H PARENT 7 10
REMARK Flexibility Score: inf
ROOT
ATOM      1  C   UNL     1      44.067 -29.728  12.751  1.00  0.00     0.045 C 
ATOM      2  C   UNL     1      44.436 -31.131  12.340  1.00  0.00    -0.045 A 
ATOM      3  C   UNL     1      43.874 -31.754  11.192  1.00  0.00    -0.006 A 
ATOM      4  C   UNL     1      44.267 -33.077  10.866  1.00  0.00     0.118 A 
ATOM      5  C   UNL     1      45.194 -33.750  11.666  1.00  0.00     0.046 A 
ATOM      6  C   UNL     1      45.740 -33.134  12.789  1.00  0.00     0.004 A 
ATOM      7  C   UNL     1      45.365 -31.836  13.125  1.00  0.00     0.004 A 
ATOM      8  C   UNL     1      42.870 -31.045  10.312  1.00  0.00     0.048 C 
ENDROOT
BRANCH   4   9
ATOM      9  O   UNL     1      43.757 -33.753   9.753  1.00  0.00    -0.508 OA
ATOM     10  H   UNL     1      44.025 -33.540   8.801  1.00  0.00     0.293 HD
ENDBRANCH   4   9
TORSDOF 1
ENDMDL
MODEL 8
REMARK VINA RESULT:    -3.748      1.986      2.853
REMARK INTER + INTRA:          -3.857
REMARK INTER:                  -3.857
REMARK INTRA:                   0.000
REMARK UNBOUND:                 0.000
REMARK SMILES Cc1cccc(O)c1C
REMARK SMILES IDX 1 1 2 2 8 3 6 4 5 5 4 6 3 7 9 8 7 9
REMARK H PARENT 7 10
REMARK Flexibility Score: inf
ROOT
ATOM      1  C   UNL     1      26.733 -39.524  -2.989  1.00  0.00     0.045 C 
ATOM      2  C   UNL     1      26.442 -39.912  -1.561  1.00  0.00    -0.045 A 
ATOM      3  C   UNL     1      26.456 -38.962  -0.503  1.00  0.00    -0.006 A 
ATOM      4  C   UNL     1      26.174 -39.399   0.817  1.00  0.00     0.118 A 
ATOM      5  C   UNL     1      25.887 -40.744   1.063  1.00  0.00     0.046 A 
ATOM      6  C   UNL     1      25.875 -41.668   0.023  1.00  0.00     0.004 A 
ATOM      7  C   UNL     1      26.151 -41.258  -1.279  1.00  0.00     0.004 A 
ATOM      8  C   UNL     1      26.764 -37.502  -0.747  1.00  0.00     0.048 C 
ENDROOT
BRANCH   4   9
ATOM      9  O   UNL     1      26.168 -38.523   1.906  1.00  0.00    -0.508 OA
ATOM     10  H   UNL     1      26.304 -37.524   1.819  1.00  0.00     0.293 HD
ENDBRANCH   4   9
TORSDOF 1
ENDMDL
MODEL 9
REMARK VINA RESULT:    -3.720      1.172      2.936
REMARK INTER + INTRA:          -3.828
REMARK INTER:                  -3.828
REMARK INTRA:                   0.000
REMARK UNBOUND:                 0.000
REMARK SMILES Cc1cccc(O)c1C
REMARK SMILES IDX 1 1 2 2 8 3 6 4 5 5 4 6 3 7 9 8 7 9
REMARK H PARENT 7 10
REMARK Flexibility Score: inf
ROOT
ATOM      1  C   UNL     1      25.876 -39.095   2.726  1.00  0.00     0.045 C 
ATOM      2  C   UNL     1      26.241 -38.966   1.269  1.00  0.00    -0.045 A 
ATOM      3  C   UNL     1      26.243 -40.085   0.390  1.00  0.00    -0.006 A 
ATOM      4  C   UNL     1      26.598 -39.890  -0.969  1.00  0.00     0.118 A 
ATOM      5  C   UNL     1      26.939 -38.615  -1.429  1.00  0.00     0.046 A 
ATOM      6  C   UNL     1      26.936 -37.526  -0.563  1.00  0.00     0.004 A 
ATOM      7  C   UNL     1      26.590 -37.698   0.775  1.00  0.00     0.004 A 
ATOM      8  C   UNL     1      25.877 -41.473   0.865  1.00  0.00     0.048 C 
ENDROOT
BRANCH   4   9
ATOM      9  O   UNL     1      26.621 -40.941  -1.891  1.00  0.00    -0.508 OA
ATOM     10  H   UNL     1      27.474 -41.372  -2.224  1.00  0.00     0.293 HD
ENDBRANCH   4   9
TORSDOF 1
ENDMDL
