MODEL 1
REMARK VINA RESULT:    -6.189      0.000      0.000
REMARK INTER + INTRA:          -8.824
REMARK INTER:                  -8.359
REMARK INTRA:                  -0.465
REMARK UNBOUND:                -0.465
REMARK SMILES COc1ccc(-c2cc(=O)c3c(OC)c(OC)c(OC)c(OC)c3o2)cc1
REMARK SMILES IDX 7 1 8 2 9 3 10 4 11 5 24 6 25 7 21 8 18 9 15 10 12 11 6 12
REMARK SMILES IDX 3 13 4 14 27 15 5 16 26 17 2 18 1 19 22 20 23 21 13 22 14 23
REMARK SMILES IDX 19 24 20 25 16 26 17 27
REMARK H PARENT
REMARK Flexibility Score: inf
ROOT
ATOM      1  C   UNL     1       8.985  12.994 -19.244  1.00  0.00     0.138 A 
ATOM      2  C   UNL     1       9.666  11.817 -19.563  1.00  0.00     0.100 A 
ATOM      3  C   UNL     1       9.736  10.794 -18.624  1.00  0.00     0.197 A 
ATOM      4  O   UNL     1      10.356   9.741 -18.934  1.00  0.00    -0.289 OA
ATOM      5  C   UNL     1       9.121  10.953 -17.357  1.00  0.00     0.115 A 
ATOM      6  C   UNL     1       8.433  12.166 -17.113  1.00  0.00     0.188 A 
ATOM      7  O   UNL     1       8.400  13.107 -18.055  1.00  0.00    -0.452 OA
ATOM      8  C   UNL     1       7.792  12.387 -15.871  1.00  0.00     0.209 A 
ATOM      9  C   UNL     1       7.832  11.381 -14.873  1.00  0.00     0.211 A 
ATOM     10  C   UNL     1       8.548  10.176 -15.105  1.00  0.00     0.208 A 
ATOM     11  C   UNL     1       9.188   9.960 -16.352  1.00  0.00     0.179 A 
ENDROOT
BRANCH   1  12
ATOM     12  C   UNL     1       8.892  14.119 -20.206  1.00  0.00     0.018 A 
ATOM     13  C   UNL     1       8.690  16.232 -22.069  1.00  0.00     0.118 A 
ATOM     14  C   UNL     1       8.712  14.904 -22.503  1.00  0.00     0.047 A 
ATOM     15  C   UNL     1       8.764  16.504 -20.691  1.00  0.00     0.047 A 
ATOM     16  C   UNL     1       8.809  13.856 -21.583  1.00  0.00     0.016 A 
ATOM     17  C   UNL     1       8.861  15.456 -19.769  1.00  0.00     0.016 A 
BRANCH  13  18
ATOM     18  O   UNL     1       8.591  17.248 -23.032  1.00  0.00    -0.497 OA
ATOM     19  C   UNL     1       9.292  17.252 -24.270  1.00  0.00     0.278 C 
ENDBRANCH  13  18
ENDBRANCH   1  12
BRANCH   8  20
ATOM     20  O   UNL     1       7.121  13.591 -15.576  1.00  0.00    -0.490 OA
ATOM     21  C   UNL     1       7.652  14.910 -15.613  1.00  0.00     0.278 C 
ENDBRANCH   8  20
BRANCH  11  22
ATOM     22  O   UNL     1       9.906   8.780 -16.646  1.00  0.00    -0.492 OA
ATOM     23  C   UNL     1      11.132   8.336 -16.075  1.00  0.00     0.278 C 
ENDBRANCH  11  22
BRANCH   9  24
ATOM     24  O   UNL     1       7.167  11.522 -13.639  1.00  0.00    -0.490 OA
ATOM     25  C   UNL     1       7.693  12.019 -12.412  1.00  0.00     0.279 C 
ENDBRANCH   9  24
BRANCH  10  26
ATOM     26  O   UNL     1       8.640   9.158 -14.135  1.00  0.00    -0.490 OA
ATOM     27  C   UNL     1       7.750   8.065 -13.925  1.00  0.00     0.278 C 
ENDBRANCH  10  26
TORSDOF 6
ENDMDL
MODEL 2
REMARK VINA RESULT:    -5.748      2.292      8.024
REMARK INTER + INTRA:          -8.230
REMARK INTER:                  -7.868
REMARK INTRA:                  -0.362
REMARK UNBOUND:                -0.465
REMARK SMILES COc1ccc(-c2cc(=O)c3c(OC)c(OC)c(OC)c(OC)c3o2)cc1
REMARK SMILES IDX 7 1 8 2 9 3 10 4 11 5 24 6 25 7 21 8 18 9 15 10 12 11 6 12
REMARK SMILES IDX 3 13 4 14 27 15 5 16 26 17 2 18 1 19 22 20 23 21 13 22 14 23
REMARK SMILES IDX 19 24 20 25 16 26 17 27
REMARK H PARENT
REMARK Flexibility Score: inf
ROOT
ATOM      1  C   UNL     1       7.612  10.218 -15.476  1.00  0.00     0.138 A 
ATOM      2  C   UNL     1       7.299   9.538 -16.655  1.00  0.00     0.100 A 
ATOM      3  C   UNL     1       7.483  10.175 -17.877  1.00  0.00     0.197 A 
ATOM      4  O   UNL     1       7.193   9.542 -18.929  1.00  0.00    -0.289 OA
ATOM      5  C   UNL     1       7.981  11.500 -17.917  1.00  0.00     0.115 A 
ATOM      6  C   UNL     1       8.293  12.118 -16.682  1.00  0.00     0.188 A 
ATOM      7  O   UNL     1       8.097  11.454 -15.544  1.00  0.00    -0.452 OA
ATOM      8  C   UNL     1       8.800  13.439 -16.650  1.00  0.00     0.209 A 
ATOM      9  C   UNL     1       9.005  14.139 -17.865  1.00  0.00     0.211 A 
ATOM     10  C   UNL     1       8.664  13.533 -19.103  1.00  0.00     0.208 A 
ATOM     11  C   UNL     1       8.157  12.209 -19.129  1.00  0.00     0.179 A 
ENDROOT
BRANCH   1  12
ATOM     12  C   UNL     1       7.422   9.587 -14.146  1.00  0.00     0.018 A 
ATOM     13  C   UNL     1       7.095   8.352 -11.627  1.00  0.00     0.118 A 
ATOM     14  C   UNL     1       7.467   7.598 -12.744  1.00  0.00     0.047 A 
ATOM     15  C   UNL     1       6.890   9.737 -11.772  1.00  0.00     0.047 A 
ATOM     16  C   UNL     1       7.632   8.207 -13.991  1.00  0.00     0.016 A 
ATOM     17  C   UNL     1       7.056  10.347 -13.020  1.00  0.00     0.016 A 
BRANCH  13  18
ATOM     18  O   UNL     1       6.942   7.694 -10.398  1.00  0.00    -0.497 OA
ATOM     19  C   UNL     1       7.498   8.148  -9.168  1.00  0.00     0.278 C 
ENDBRANCH  13  18
ENDBRANCH   1  12
BRANCH   8  20
ATOM     20  O   UNL     1       9.096  14.100 -15.442  1.00  0.00    -0.490 OA
ATOM     21  C   UNL     1      10.377  14.305 -14.857  1.00  0.00     0.278 C 
ENDBRANCH   8  20
BRANCH  11  22
ATOM     22  O   UNL     1       7.809  11.549 -20.328  1.00  0.00    -0.492 OA
ATOM     23  C   UNL     1       6.876  11.968 -21.318  1.00  0.00     0.278 C 
ENDBRANCH  11  22
BRANCH   9  24
ATOM     24  O   UNL     1       9.558  15.435 -17.899  1.00  0.00    -0.490 OA
ATOM     25  C   UNL     1      10.845  15.826 -18.370  1.00  0.00     0.279 C 
ENDBRANCH   9  24
BRANCH  10  26
ATOM     26  O   UNL     1       8.824  14.198 -20.336  1.00  0.00    -0.490 OA
ATOM     27  C   UNL     1       8.103  15.326 -20.823  1.00  0.00     0.278 C 
ENDBRANCH  10  26
TORSDOF 6
ENDMDL
MODEL 3
REMARK VINA RESULT:    -5.715      1.452      3.315
REMARK INTER + INTRA:          -8.185
REMARK INTER:                  -8.023
REMARK INTRA:                  -0.162
REMARK UNBOUND:                -0.465
REMARK SMILES COc1ccc(-c2cc(=O)c3c(OC)c(OC)c(OC)c(OC)c3o2)cc1
REMARK SMILES IDX 7 1 8 2 9 3 10 4 11 5 24 6 25 7 21 8 18 9 15 10 12 11 6 12
REMARK SMILES IDX 3 13 4 14 27 15 5 16 26 17 2 18 1 19 22 20 23 21 13 22 14 23
REMARK SMILES IDX 19 24 20 25 16 26 17 27
REMARK H PARENT
REMARK Flexibility Score: inf
ROOT
ATOM      1  C   UNL     1       8.758  13.972 -18.479  1.00  0.00     0.138 A 
ATOM      2  C   UNL     1       9.053  14.586 -17.260  1.00  0.00     0.100 A 
ATOM      3  C   UNL     1       9.017  13.833 -16.092  1.00  0.00     0.197 A 
ATOM      4  O   UNL     1       9.286  14.409 -15.002  1.00  0.00    -0.289 OA
ATOM      5  C   UNL     1       8.682  12.458 -16.146  1.00  0.00     0.115 A 
ATOM      6  C   UNL     1       8.413  11.901 -17.419  1.00  0.00     0.188 A 
ATOM      7  O   UNL     1       8.466  12.675 -18.502  1.00  0.00    -0.452 OA
ATOM      8  C   UNL     1       8.078  10.532 -17.546  1.00  0.00     0.209 A 
ATOM      9  C   UNL     1       8.023   9.715 -16.388  1.00  0.00     0.211 A 
ATOM     10  C   UNL     1       8.262  10.279 -15.107  1.00  0.00     0.208 A 
ATOM     11  C   UNL     1       8.598  11.651 -14.987  1.00  0.00     0.179 A 
ENDROOT
BRANCH   1  12
ATOM     12  C   UNL     1       8.769  14.734 -19.752  1.00  0.00     0.018 A 
ATOM     13  C   UNL     1       8.820  16.221 -22.152  1.00  0.00     0.118 A 
ATOM     14  C   UNL     1       8.860  16.870 -20.915  1.00  0.00     0.047 A 
ATOM     15  C   UNL     1       8.760  14.816 -22.188  1.00  0.00     0.047 A 
ATOM     16  C   UNL     1       8.837  16.137 -19.726  1.00  0.00     0.016 A 
ATOM     17  C   UNL     1       8.739  14.081 -20.998  1.00  0.00     0.016 A 
BRANCH  13  18
ATOM     18  O   UNL     1       8.844  17.002 -23.318  1.00  0.00    -0.497 OA
ATOM     19  C   UNL     1       9.347  16.558 -24.573  1.00  0.00     0.278 C 
ENDBRANCH  13  18
ENDBRANCH   1  12
BRANCH   8  20
ATOM     20  O   UNL     1       7.776   9.944 -18.790  1.00  0.00    -0.490 OA
ATOM     21  C   UNL     1       6.876  10.428 -19.781  1.00  0.00     0.278 C 
ENDBRANCH   8  20
BRANCH  11  22
ATOM     22  O   UNL     1       8.856  12.267 -13.742  1.00  0.00    -0.492 OA
ATOM     23  C   UNL     1       7.980  12.386 -12.627  1.00  0.00     0.278 C 
ENDBRANCH  11  22
BRANCH   9  24
ATOM     24  O   UNL     1       7.749   8.334 -16.458  1.00  0.00    -0.490 OA
ATOM     25  C   UNL     1       8.647   7.251 -16.237  1.00  0.00     0.279 C 
ENDBRANCH   9  24
BRANCH  10  26
ATOM     26  O   UNL     1       8.193   9.514 -13.924  1.00  0.00    -0.490 OA
ATOM     27  C   UNL     1       7.027   9.091 -13.222  1.00  0.00     0.278 C 
ENDBRANCH  10  26
TORSDOF 6
ENDMDL
MODEL 4
REMARK VINA RESULT:    -5.531      2.626      8.009
REMARK INTER + INTRA:          -7.936
REMARK INTER:                  -7.356
REMARK INTRA:                  -0.580
REMARK UNBOUND:                -0.465
REMARK SMILES COc1ccc(-c2cc(=O)c3c(OC)c(OC)c(OC)c(OC)c3o2)cc1
REMARK SMILES IDX 7 1 8 2 9 3 10 4 11 5 24 6 25 7 21 8 18 9 15 10 12 11 6 12
REMARK SMILES IDX 3 13 4 14 27 15 5 16 26 17 2 18 1 19 22 20 23 21 13 22 14 23
REMARK SMILES IDX 19 24 20 25 16 26 17 27
REMARK H PARENT
REMARK Flexibility Score: inf
ROOT
ATOM      1  C   UNL     1       8.218   9.548 -16.098  1.00  0.00     0.138 A 
ATOM      2  C   UNL     1       8.500  10.288 -14.948  1.00  0.00     0.100 A 
ATOM      3  C   UNL     1       8.812  11.638 -15.066  1.00  0.00     0.197 A 
ATOM      4  O   UNL     1       9.064  12.286 -14.014  1.00  0.00    -0.289 OA
ATOM      5  C   UNL     1       8.844  12.248 -16.344  1.00  0.00     0.115 A 
ATOM      6  C   UNL     1       8.529  11.439 -17.462  1.00  0.00     0.188 A 
ATOM      7  O   UNL     1       8.235  10.152 -17.283  1.00  0.00    -0.452 OA
ATOM      8  C   UNL     1       8.536  11.987 -18.767  1.00  0.00     0.209 A 
ATOM      9  C   UNL     1       8.850  13.357 -18.949  1.00  0.00     0.211 A 
ATOM     10  C   UNL     1       9.197  14.163 -17.831  1.00  0.00     0.208 A 
ATOM     11  C   UNL     1       9.188  13.608 -16.526  1.00  0.00     0.179 A 
ENDROOT
BRANCH   1  12
ATOM     12  C   UNL     1       7.891   8.103 -16.027  1.00  0.00     0.018 A 
ATOM     13  C   UNL     1       7.265   5.355 -15.842  1.00  0.00     0.118 A 
ATOM     14  C   UNL     1       7.939   6.001 -14.801  1.00  0.00     0.047 A 
ATOM     15  C   UNL     1       6.896   6.093 -16.982  1.00  0.00     0.047 A 
ATOM     16  C   UNL     1       8.248   7.361 -14.889  1.00  0.00     0.016 A 
ATOM     17  C   UNL     1       7.204   7.455 -17.070  1.00  0.00     0.016 A 
BRANCH  13  18
ATOM     18  O   UNL     1       6.978   3.989 -15.706  1.00  0.00    -0.497 OA
ATOM     19  C   UNL     1       7.166   3.021 -16.733  1.00  0.00     0.278 C 
ENDBRANCH  13  18
ENDBRANCH   1  12
BRANCH   8  20
ATOM     20  O   UNL     1       8.256  11.210 -19.909  1.00  0.00    -0.490 OA
ATOM     21  C   UNL     1       7.011  11.079 -20.584  1.00  0.00     0.278 C 
ENDBRANCH   8  20
BRANCH  11  22
ATOM     22  O   UNL     1       9.513  14.361 -15.376  1.00  0.00    -0.492 OA
ATOM     23  C   UNL     1      10.799  14.800 -14.953  1.00  0.00     0.278 C 
ENDBRANCH  11  22
BRANCH   9  24
ATOM     24  O   UNL     1       8.820  13.971 -20.217  1.00  0.00    -0.490 OA
ATOM     25  C   UNL     1       7.768  14.738 -20.794  1.00  0.00     0.279 C 
ENDBRANCH   9  24
BRANCH  10  26
ATOM     26  O   UNL     1       9.544  15.523 -17.964  1.00  0.00    -0.490 OA
ATOM     27  C   UNL     1      10.731  16.074 -18.528  1.00  0.00     0.278 C 
ENDBRANCH  10  26
TORSDOF 6
ENDMDL
MODEL 5
REMARK VINA RESULT:    -5.478      2.250      8.430
REMARK INTER + INTRA:          -7.865
REMARK INTER:                  -7.945
REMARK INTRA:                   0.080
REMARK UNBOUND:                -0.465
REMARK SMILES COc1ccc(-c2cc(=O)c3c(OC)c(OC)c(OC)c(OC)c3o2)cc1
REMARK SMILES IDX 7 1 8 2 9 3 10 4 11 5 24 6 25 7 21 8 18 9 15 10 12 11 6 12
REMARK SMILES IDX 3 13 4 14 27 15 5 16 26 17 2 18 1 19 22 20 23 21 13 22 14 23
REMARK SMILES IDX 19 24 20 25 16 26 17 27
REMARK H PARENT
REMARK Flexibility Score: inf
ROOT
ATOM      1  C   UNL     1       8.185  11.172 -14.819  1.00  0.00     0.138 A 
ATOM      2  C   UNL     1       8.764  12.397 -14.479  1.00  0.00     0.100 A 
ATOM      3  C   UNL     1       9.057  13.313 -15.482  1.00  0.00     0.197 A 
ATOM      4  O   UNL     1       9.580  14.413 -15.153  1.00  0.00    -0.289 OA
ATOM      5  C   UNL     1       8.769  13.000 -16.834  1.00  0.00     0.115 A 
ATOM      6  C   UNL     1       8.165  11.748 -17.099  1.00  0.00     0.188 A 
ATOM      7  O   UNL     1       7.907  10.913 -16.093  1.00  0.00    -0.452 OA
ATOM      8  C   UNL     1       7.846  11.374 -18.426  1.00  0.00     0.209 A 
ATOM      9  C   UNL     1       8.124  12.267 -19.491  1.00  0.00     0.211 A 
ATOM     10  C   UNL     1       8.758  13.511 -19.230  1.00  0.00     0.208 A 
ATOM     11  C   UNL     1       9.075  13.880 -17.898  1.00  0.00     0.179 A 
ENDROOT
BRANCH   1  12
ATOM     12  C   UNL     1       7.866  10.155 -13.787  1.00  0.00     0.018 A 
ATOM     13  C   UNL     1       7.216   8.246 -11.810  1.00  0.00     0.118 A 
ATOM     14  C   UNL     1       6.875   9.590 -11.637  1.00  0.00     0.047 A 
ATOM     15  C   UNL     1       7.882   7.853 -12.985  1.00  0.00     0.047 A 
ATOM     16  C   UNL     1       7.193  10.537 -12.615  1.00  0.00     0.016 A 
ATOM     17  C   UNL     1       8.200   8.800 -13.966  1.00  0.00     0.016 A 
BRANCH  13  18
ATOM     18  O   UNL     1       6.875   7.335 -10.799  1.00  0.00    -0.497 OA
ATOM     19  C   UNL     1       7.221   7.490  -9.427  1.00  0.00     0.278 C 
ENDBRANCH  13  18
ENDBRANCH   1  12
BRANCH   8  20
ATOM     20  O   UNL     1       7.271  10.125 -18.737  1.00  0.00    -0.490 OA
ATOM     21  C   UNL     1       7.588   8.860 -18.168  1.00  0.00     0.278 C 
ENDBRANCH   8  20
BRANCH  11  22
ATOM     22  O   UNL     1       9.696  15.106 -17.575  1.00  0.00    -0.492 OA
ATOM     23  C   UNL     1      11.003  15.546 -17.930  1.00  0.00     0.278 C 
ENDBRANCH  11  22
BRANCH   9  24
ATOM     24  O   UNL     1       7.779  11.973 -20.826  1.00  0.00    -0.490 OA
ATOM     25  C   UNL     1       6.886  12.685 -21.677  1.00  0.00     0.279 C 
ENDBRANCH   9  24
BRANCH  10  26
ATOM     26  O   UNL     1       9.080  14.421 -20.258  1.00  0.00    -0.490 OA
ATOM     27  C   UNL     1       8.361  15.586 -20.652  1.00  0.00     0.278 C 
ENDBRANCH  10  26
TORSDOF 6
ENDMDL
MODEL 6
REMARK VINA RESULT:    -5.256      2.002      2.663
REMARK INTER + INTRA:          -7.565
REMARK INTER:                  -7.460
REMARK INTRA:                  -0.105
REMARK UNBOUND:                -0.465
REMARK SMILES COc1ccc(-c2cc(=O)c3c(OC)c(OC)c(OC)c(OC)c3o2)cc1
REMARK SMILES IDX 7 1 8 2 9 3 10 4 11 5 24 6 25 7 21 8 18 9 15 10 12 11 6 12
REMARK SMILES IDX 3 13 4 14 27 15 5 16 26 17 2 18 1 19 22 20 23 21 13 22 14 23
REMARK SMILES IDX 19 24 20 25 16 26 17 27
REMARK H PARENT
REMARK Flexibility Score: inf
ROOT
ATOM      1  C   UNL     1       8.749  13.478 -17.772  1.00  0.00     0.138 A 
ATOM      2  C   UNL     1       9.390  12.636 -18.684  1.00  0.00     0.100 A 
ATOM      3  C   UNL     1       9.630  11.312 -18.335  1.00  0.00     0.197 A 
ATOM      4  O   UNL     1      10.211  10.570 -19.174  1.00  0.00    -0.289 OA
ATOM      5  C   UNL     1       9.227  10.830 -17.065  1.00  0.00     0.115 A 
ATOM      6  C   UNL     1       8.566  11.736 -16.202  1.00  0.00     0.188 A 
ATOM      7  O   UNL     1       8.364  12.993 -16.596  1.00  0.00    -0.452 OA
ATOM      8  C   UNL     1       8.132  11.319 -14.922  1.00  0.00     0.209 A 
ATOM      9  C   UNL     1       8.353   9.980 -14.510  1.00  0.00     0.211 A 
ATOM     10  C   UNL     1       9.043   9.077 -15.363  1.00  0.00     0.208 A 
ATOM     11  C   UNL     1       9.475   9.502 -16.645  1.00  0.00     0.179 A 
ENDROOT
BRANCH   1  12
ATOM     12  C   UNL     1       8.481  14.902 -18.091  1.00  0.00     0.018 A 
ATOM     13  C   UNL     1       7.993  17.606 -18.742  1.00  0.00     0.118 A 
ATOM     14  C   UNL     1       9.125  16.951 -19.236  1.00  0.00     0.047 A 
ATOM     15  C   UNL     1       7.096  16.900 -17.921  1.00  0.00     0.047 A 
ATOM     16  C   UNL     1       9.367  15.612 -18.917  1.00  0.00     0.016 A 
ATOM     17  C   UNL     1       7.337  15.559 -17.602  1.00  0.00     0.016 A 
BRANCH  13  18
ATOM     18  O   UNL     1       7.795  18.951 -19.091  1.00  0.00    -0.497 OA
ATOM     19  C   UNL     1       7.499  19.987 -18.161  1.00  0.00     0.278 C 
ENDBRANCH  13  18
ENDBRANCH   1  12
BRANCH   8  20
ATOM     20  O   UNL     1       7.497  12.196 -14.021  1.00  0.00    -0.490 OA
ATOM     21  C   UNL     1       7.911  12.533 -12.702  1.00  0.00     0.278 C 
ENDBRANCH   8  20
BRANCH  11  22
ATOM     22  O   UNL     1      10.156   8.649 -17.540  1.00  0.00    -0.492 OA
ATOM     23  C   UNL     1      11.528   8.270 -17.516  1.00  0.00     0.278 C 
ENDBRANCH  11  22
BRANCH   9  24
ATOM     24  O   UNL     1       7.895   9.492 -13.270  1.00  0.00    -0.490 OA
ATOM     25  C   UNL     1       6.880   8.521 -13.031  1.00  0.00     0.279 C 
ENDBRANCH   9  24
BRANCH  10  26
ATOM     26  O   UNL     1       9.310   7.745 -14.988  1.00  0.00    -0.490 OA
ATOM     27  C   UNL     1       8.545   6.580 -15.289  1.00  0.00     0.278 C 
ENDBRANCH  10  26
TORSDOF 6
ENDMDL
MODEL 7
REMARK VINA RESULT:    -4.833      2.425      3.078
REMARK INTER + INTRA:          -6.994
REMARK INTER:                  -6.661
REMARK INTRA:                  -0.333
REMARK UNBOUND:                -0.465
REMARK SMILES COc1ccc(-c2cc(=O)c3c(OC)c(OC)c(OC)c(OC)c3o2)cc1
REMARK SMILES IDX 7 1 8 2 9 3 10 4 11 5 24 6 25 7 21 8 18 9 15 10 12 11 6 12
REMARK SMILES IDX 3 13 4 14 27 15 5 16 26 17 2 18 1 19 22 20 23 21 13 22 14 23
REMARK SMILES IDX 19 24 20 25 16 26 17 27
REMARK H PARENT
REMARK Flexibility Score: inf
ROOT
ATOM      1  C   UNL     1       7.814  12.219 -17.985  1.00  0.00     0.138 A 
ATOM      2  C   UNL     1       7.431  11.281 -18.946  1.00  0.00     0.100 A 
ATOM      3  C   UNL     1       7.221   9.961 -18.563  1.00  0.00     0.197 A 
ATOM      4  O   UNL     1       6.875   9.131 -19.448  1.00  0.00    -0.289 OA
ATOM      5  C   UNL     1       7.398   9.580 -17.210  1.00  0.00     0.115 A 
ATOM      6  C   UNL     1       7.769  10.589 -16.290  1.00  0.00     0.188 A 
ATOM      7  O   UNL     1       7.953  11.837 -16.719  1.00  0.00    -0.452 OA
ATOM      8  C   UNL     1       7.957  10.278 -14.923  1.00  0.00     0.209 A 
ATOM      9  C   UNL     1       7.760   8.948 -14.475  1.00  0.00     0.211 A 
ATOM     10  C   UNL     1       7.418   7.927 -15.401  1.00  0.00     0.208 A 
ATOM     11  C   UNL     1       7.230   8.246 -16.770  1.00  0.00     0.179 A 
ENDROOT
BRANCH   1  12
ATOM     12  C   UNL     1       8.063  13.637 -18.345  1.00  0.00     0.018 A 
ATOM     13  C   UNL     1       8.488  16.341 -19.041  1.00  0.00     0.118 A 
ATOM     14  C   UNL     1       7.488  15.595 -19.672  1.00  0.00     0.047 A 
ATOM     15  C   UNL     1       9.277  15.730 -18.050  1.00  0.00     0.047 A 
ATOM     16  C   UNL     1       7.274  14.258 -19.328  1.00  0.00     0.016 A 
ATOM     17  C   UNL     1       9.063  14.391 -17.704  1.00  0.00     0.016 A 
BRANCH  13  18
ATOM     18  O   UNL     1       8.663  17.680 -19.422  1.00  0.00    -0.497 OA
ATOM     19  C   UNL     1       7.951  18.776 -18.859  1.00  0.00     0.278 C 
ENDBRANCH  13  18
ENDBRANCH   1  12
BRANCH   8  20
ATOM     20  O   UNL     1       8.355  11.247 -13.980  1.00  0.00    -0.490 OA
ATOM     21  C   UNL     1       7.526  12.173 -13.287  1.00  0.00     0.278 C 
ENDBRANCH   8  20
BRANCH  11  22
ATOM     22  O   UNL     1       6.879   7.278 -17.737  1.00  0.00    -0.492 OA
ATOM     23  C   UNL     1       7.735   6.354 -18.400  1.00  0.00     0.278 C 
ENDBRANCH  11  22
BRANCH   9  24
ATOM     24  O   UNL     1       7.879   8.589 -13.117  1.00  0.00    -0.490 OA
ATOM     25  C   UNL     1       6.875   8.049 -12.262  1.00  0.00     0.279 C 
ENDBRANCH   9  24
BRANCH  10  26
ATOM     26  O   UNL     1       7.237   6.585 -15.009  1.00  0.00    -0.490 OA
ATOM     27  C   UNL     1       8.208   5.543 -14.981  1.00  0.00     0.278 C 
ENDBRANCH  10  26
TORSDOF 6
ENDMDL
