MODEL 1
REMARK VINA RESULT:    -4.873      0.000      0.000
REMARK INTER + INTRA:          -7.300
REMARK INTER:                  -6.582
REMARK INTRA:                  -0.718
REMARK UNBOUND:                -0.718
REMARK SMILES CCCCCCC=CC(=O)[O-]
REMARK SMILES IDX 5 1 6 2 7 3 8 4 9 5 10 6 11 7 4 8 3 9 2 10 1 11
REMARK H PARENT
REMARK Flexibility Score: inf
ROOT
ATOM      1  C   UNL     1      -2.764  29.504  43.696  1.00  0.00     0.004 C 
ENDROOT
BRANCH   1   2
ATOM      2  C   UNL     1      -1.996  29.112  44.964  1.00  0.00     0.027 C 
BRANCH   2   3
ATOM      3  C   UNL     1      -0.573  28.753  44.651  1.00  0.00    -0.025 C 
ATOM      4  C   UNL     1      -0.268  27.889  43.676  1.00  0.00     0.020 C 
BRANCH   4   5
ATOM      5  C   UNL     1       1.118  27.513  43.360  1.00  0.00     0.064 C 
ATOM      6  O   UNL     1       1.553  26.358  43.610  1.00  0.00    -0.545 OA
ATOM      7  O   UNL     1       1.963  28.448  42.775  1.00  0.00    -0.545 OA
ENDBRANCH   4   5
ENDBRANCH   2   3
ENDBRANCH   1   2
BRANCH   1   8
ATOM      8  C   UNL     1      -2.392  30.926  43.246  1.00  0.00     0.000 C 
BRANCH   8   9
ATOM      9  C   UNL     1      -2.005  30.995  41.761  1.00  0.00    -0.000 C 
BRANCH   9  10
ATOM     10  C   UNL     1      -0.484  30.974  41.544  1.00  0.00    -0.003 C 
ATOM     11  C   UNL     1      -0.111  30.077  40.368  1.00  0.00     0.004 C 
ENDBRANCH   9  10
ENDBRANCH   8   9
ENDBRANCH   1   8
TORSDOF 6
ENDMDL
MODEL 2
REMARK VINA RESULT:    -4.832      1.064      3.109
REMARK INTER + INTRA:          -7.244
REMARK INTER:                  -6.541
REMARK INTRA:                  -0.703
REMARK UNBOUND:                -0.718
REMARK SMILES CCCCCCC=CC(=O)[O-]
REMARK SMILES IDX 5 1 6 2 7 3 8 4 9 5 10 6 11 7 4 8 3 9 2 10 1 11
REMARK H PARENT
REMARK Flexibility Score: inf
ROOT
ATOM      1  C   UNL     1      -1.082  31.412  41.490  1.00  0.00     0.004 C 
ENDROOT
BRANCH   1   2
ATOM      2  C   UNL     1      -0.446  30.405  40.525  1.00  0.00     0.027 C 
BRANCH   2   3
ATOM      3  C   UNL     1      -0.198  29.087  41.197  1.00  0.00    -0.025 C 
ATOM      4  C   UNL     1       0.781  28.933  42.096  1.00  0.00     0.020 C 
BRANCH   4   5
ATOM      5  C   UNL     1       1.049  27.647  42.757  1.00  0.00     0.064 C 
ATOM      6  O   UNL     1       2.224  27.213  42.887  1.00  0.00    -0.545 OA
ATOM      7  O   UNL     1      -0.013  26.896  43.247  1.00  0.00    -0.545 OA
ENDBRANCH   4   5
ENDBRANCH   2   3
ENDBRANCH   1   2
BRANCH   1   8
ATOM      8  C   UNL     1      -2.381  30.852  42.090  1.00  0.00     0.000 C 
BRANCH   8   9
ATOM      9  C   UNL     1      -2.393  30.898  43.626  1.00  0.00    -0.000 C 
BRANCH   9  10
ATOM     10  C   UNL     1      -2.452  29.499  44.259  1.00  0.00    -0.003 C 
ATOM     11  C   UNL     1      -1.423  29.359  45.377  1.00  0.00     0.004 C 
ENDBRANCH   9  10
ENDBRANCH   8   9
ENDBRANCH   1   8
TORSDOF 6
ENDMDL
MODEL 3
REMARK VINA RESULT:    -4.812      1.953      3.347
REMARK INTER + INTRA:          -7.217
REMARK INTER:                  -6.474
REMARK INTRA:                  -0.743
REMARK UNBOUND:                -0.718
REMARK SMILES CCCCCCC=CC(=O)[O-]
REMARK SMILES IDX 5 1 6 2 7 3 8 4 9 5 10 6 11 7 4 8 3 9 2 10 1 11
REMARK H PARENT
REMARK Flexibility Score: inf
ROOT
ATOM      1  C   UNL     1      -1.023  31.389  41.618  1.00  0.00     0.004 C 
ENDROOT
BRANCH   1   2
ATOM      2  C   UNL     1      -2.396  30.983  42.169  1.00  0.00     0.027 C 
BRANCH   2   3
ATOM      3  C   UNL     1      -2.303  29.733  42.994  1.00  0.00    -0.025 C 
ATOM      4  C   UNL     1      -1.627  29.704  44.148  1.00  0.00     0.020 C 
BRANCH   4   5
ATOM      5  C   UNL     1      -1.513  28.486  44.965  1.00  0.00     0.064 C 
ATOM      6  O   UNL     1      -1.231  28.548  46.191  1.00  0.00    -0.545 OA
ATOM      7  O   UNL     1      -1.718  27.245  44.374  1.00  0.00    -0.545 OA
ENDBRANCH   4   5
ENDBRANCH   2   3
ENDBRANCH   1   2
BRANCH   1   8
ATOM      8  C   UNL     1      -0.523  30.370  40.584  1.00  0.00     0.000 C 
BRANCH   8   9
ATOM      9  C   UNL     1       0.885  29.844  40.902  1.00  0.00    -0.000 C 
BRANCH   9  10
ATOM     10  C   UNL     1       0.867  28.426  41.494  1.00  0.00    -0.003 C 
ATOM     11  C   UNL     1       1.638  28.372  42.809  1.00  0.00     0.004 C 
ENDBRANCH   9  10
ENDBRANCH   8   9
ENDBRANCH   1   8
TORSDOF 6
ENDMDL
MODEL 4
REMARK VINA RESULT:    -4.764      1.724      3.502
REMARK INTER + INTRA:          -7.153
REMARK INTER:                  -6.411
REMARK INTRA:                  -0.742
REMARK UNBOUND:                -0.718
REMARK SMILES CCCCCCC=CC(=O)[O-]
REMARK SMILES IDX 5 1 6 2 7 3 8 4 9 5 10 6 11 7 4 8 3 9 2 10 1 11
REMARK H PARENT
REMARK Flexibility Score: inf
ROOT
ATOM      1  C   UNL     1      -2.749  29.832  43.915  1.00  0.00     0.004 C 
ENDROOT
BRANCH   1   2
ATOM      2  C   UNL     1      -2.116  31.171  43.518  1.00  0.00     0.027 C 
BRANCH   2   3
ATOM      3  C   UNL     1      -0.964  30.971  42.576  1.00  0.00    -0.025 C 
ATOM      4  C   UNL     1      -1.005  30.051  41.606  1.00  0.00     0.020 C 
BRANCH   4   5
ATOM      5  C   UNL     1       0.116  29.830  40.680  1.00  0.00     0.064 C 
ATOM      6  O   UNL     1      -0.072  29.354  39.529  1.00  0.00    -0.545 OA
ATOM      7  O   UNL     1       1.407  30.149  41.083  1.00  0.00    -0.545 OA
ENDBRANCH   4   5
ENDBRANCH   2   3
ENDBRANCH   1   2
BRANCH   1   8
ATOM      8  C   UNL     1      -2.023  29.218  45.121  1.00  0.00     0.000 C 
BRANCH   8   9
ATOM      9  C   UNL     1      -1.314  27.898  44.778  1.00  0.00    -0.000 C 
BRANCH   9  10
ATOM     10  C   UNL     1       0.198  28.076  44.571  1.00  0.00    -0.003 C 
ATOM     11  C   UNL     1       0.692  27.239  43.395  1.00  0.00     0.004 C 
ENDBRANCH   9  10
ENDBRANCH   8   9
ENDBRANCH   1   8
TORSDOF 6
ENDMDL
MODEL 5
REMARK VINA RESULT:    -4.756     17.708     20.599
REMARK INTER + INTRA:          -7.142
REMARK INTER:                  -6.402
REMARK INTRA:                  -0.739
REMARK UNBOUND:                -0.718
REMARK SMILES CCCCCCC=CC(=O)[O-]
REMARK SMILES IDX 5 1 6 2 7 3 8 4 9 5 10 6 11 7 4 8 3 9 2 10 1 11
REMARK H PARENT
REMARK Flexibility Score: inf
ROOT
ATOM      1  C   UNL     1      14.603  13.351  44.752  1.00  0.00     0.004 C 
ENDROOT
BRANCH   1   2
ATOM      2  C   UNL     1      14.342  14.258  43.543  1.00  0.00     0.027 C 
BRANCH   2   3
ATOM      3  C   UNL     1      13.839  15.606  43.972  1.00  0.00    -0.025 C 
ATOM      4  C   UNL     1      12.728  15.737  44.706  1.00  0.00     0.020 C 
BRANCH   4   5
ATOM      5  C   UNL     1      12.211  17.048  45.126  1.00  0.00     0.064 C 
ATOM      6  O   UNL     1      11.072  17.446  44.763  1.00  0.00    -0.545 OA
ATOM      7  O   UNL     1      12.991  17.863  45.937  1.00  0.00    -0.545 OA
ENDBRANCH   4   5
ENDBRANCH   2   3
ENDBRANCH   1   2
BRANCH   1   8
ATOM      8  C   UNL     1      15.804  13.855  45.567  1.00  0.00     0.000 C 
BRANCH   8   9
ATOM      9  C   UNL     1      15.542  13.837  47.081  1.00  0.00    -0.000 C 
BRANCH   9  10
ATOM     10  C   UNL     1      15.140  15.215  47.628  1.00  0.00    -0.003 C 
ATOM     11  C   UNL     1      13.758  15.167  48.272  1.00  0.00     0.004 C 
ENDBRANCH   9  10
ENDBRANCH   8   9
ENDBRANCH   1   8
TORSDOF 6
ENDMDL
MODEL 6
REMARK VINA RESULT:    -4.744     18.381     20.756
REMARK INTER + INTRA:          -7.126
REMARK INTER:                  -6.387
REMARK INTRA:                  -0.739
REMARK UNBOUND:                -0.718
REMARK SMILES CCCCCCC=CC(=O)[O-]
REMARK SMILES IDX 5 1 6 2 7 3 8 4 9 5 10 6 11 7 4 8 3 9 2 10 1 11
REMARK H PARENT
REMARK Flexibility Score: inf
ROOT
ATOM      1  C   UNL     1      14.900  13.406  44.427  1.00  0.00     0.004 C 
ENDROOT
BRANCH   1   2
ATOM      2  C   UNL     1      16.095  13.999  45.184  1.00  0.00     0.027 C 
BRANCH   2   3
ATOM      3  C   UNL     1      15.648  15.004  46.205  1.00  0.00    -0.025 C 
ATOM      4  C   UNL     1      14.636  14.749  47.042  1.00  0.00     0.020 C 
BRANCH   4   5
ATOM      5  C   UNL     1      14.174  15.724  48.041  1.00  0.00     0.064 C 
ATOM      6  O   UNL     1      14.443  16.950  47.929  1.00  0.00    -0.545 OA
ATOM      7  O   UNL     1      13.428  15.286  49.128  1.00  0.00    -0.545 OA
ENDBRANCH   4   5
ENDBRANCH   2   3
ENDBRANCH   1   2
BRANCH   1   8
ATOM      8  C   UNL     1      14.444  14.343  43.299  1.00  0.00     0.000 C 
BRANCH   8   9
ATOM      9  C   UNL     1      13.018  14.874  43.510  1.00  0.00    -0.000 C 
BRANCH   9  10
ATOM     10  C   UNL     1      12.996  16.322  44.023  1.00  0.00    -0.003 C 
ATOM     11  C   UNL     1      11.934  16.504  45.103  1.00  0.00     0.004 C 
ENDBRANCH   9  10
ENDBRANCH   8   9
ENDBRANCH   1   8
TORSDOF 6
ENDMDL
MODEL 7
REMARK VINA RESULT:    -4.728     17.672     20.416
REMARK INTER + INTRA:          -7.104
REMARK INTER:                  -6.386
REMARK INTRA:                  -0.718
REMARK UNBOUND:                -0.718
REMARK SMILES CCCCCCC=CC(=O)[O-]
REMARK SMILES IDX 5 1 6 2 7 3 8 4 9 5 10 6 11 7 4 8 3 9 2 10 1 11
REMARK H PARENT
REMARK Flexibility Score: inf
ROOT
ATOM      1  C   UNL     1      15.673  15.265  47.125  1.00  0.00     0.004 C 
ENDROOT
BRANCH   1   2
ATOM      2  C   UNL     1      14.515  15.495  48.105  1.00  0.00     0.027 C 
BRANCH   2   3
ATOM      3  C   UNL     1      13.246  15.832  47.379  1.00  0.00    -0.025 C 
ATOM      4  C   UNL     1      13.249  16.602  46.285  1.00  0.00     0.020 C 
BRANCH   4   5
ATOM      5  C   UNL     1      12.015  16.956  45.566  1.00  0.00     0.064 C 
ATOM      6  O   UNL     1      11.441  16.127  44.810  1.00  0.00    -0.545 OA
ATOM      7  O   UNL     1      11.474  18.226  45.721  1.00  0.00    -0.545 OA
ENDBRANCH   4   5
ENDBRANCH   2   3
ENDBRANCH   1   2
BRANCH   1   8
ATOM      8  C   UNL     1      15.668  13.822  46.598  1.00  0.00     0.000 C 
BRANCH   8   9
ATOM      9  C   UNL     1      15.776  13.749  45.067  1.00  0.00    -0.000 C 
BRANCH   9  10
ATOM     10  C   UNL     1      14.404  13.670  44.381  1.00  0.00    -0.003 C 
ATOM     11  C   UNL     1      14.319  14.647  43.213  1.00  0.00     0.004 C 
ENDBRANCH   9  10
ENDBRANCH   8   9
ENDBRANCH   1   8
TORSDOF 6
ENDMDL
MODEL 8
REMARK VINA RESULT:    -4.685      2.234      3.471
REMARK INTER + INTRA:          -7.047
REMARK INTER:                  -6.317
REMARK INTRA:                  -0.730
REMARK UNBOUND:                -0.718
REMARK SMILES CCCCCCC=CC(=O)[O-]
REMARK SMILES IDX 5 1 6 2 7 3 8 4 9 5 10 6 11 7 4 8 3 9 2 10 1 11
REMARK H PARENT
REMARK Flexibility Score: inf
ROOT
ATOM      1  C   UNL     1       0.962  27.992  40.847  1.00  0.00     0.004 C 
ENDROOT
BRANCH   1   2
ATOM      2  C   UNL     1       1.416  28.327  42.273  1.00  0.00     0.027 C 
BRANCH   2   3
ATOM      3  C   UNL     1       0.313  28.096  43.265  1.00  0.00    -0.025 C 
ATOM      4  C   UNL     1      -0.048  29.039  44.143  1.00  0.00     0.020 C 
BRANCH   4   5
ATOM      5  C   UNL     1      -1.117  28.829  45.131  1.00  0.00     0.064 C 
ATOM      6  O   UNL     1      -0.907  28.179  46.190  1.00  0.00    -0.545 OA
ATOM      7  O   UNL     1      -2.380  29.356  44.893  1.00  0.00    -0.545 OA
ENDBRANCH   4   5
ENDBRANCH   2   3
ENDBRANCH   1   2
BRANCH   1   8
ATOM      8  C   UNL     1       0.359  29.226  40.159  1.00  0.00     0.000 C 
BRANCH   8   9
ATOM      9  C   UNL     1      -1.168  29.136  40.012  1.00  0.00    -0.000 C 
BRANCH   9  10
ATOM     10  C   UNL     1      -1.913  30.006  41.036  1.00  0.00    -0.003 C 
ATOM     11  C   UNL     1      -1.184  31.326  41.267  1.00  0.00     0.004 C 
ENDBRANCH   9  10
ENDBRANCH   8   9
ENDBRANCH   1   8
TORSDOF 6
ENDMDL
MODEL 9
REMARK VINA RESULT:    -4.685      1.973      3.434
REMARK INTER + INTRA:          -7.046
REMARK INTER:                  -6.284
REMARK INTRA:                  -0.762
REMARK UNBOUND:                -0.718
REMARK SMILES CCCCCCC=CC(=O)[O-]
REMARK SMILES IDX 5 1 6 2 7 3 8 4 9 5 10 6 11 7 4 8 3 9 2 10 1 11
REMARK H PARENT
REMARK Flexibility Score: inf
ROOT
ATOM      1  C   UNL     1      -0.022  28.365  45.055  1.00  0.00     0.004 C 
ENDROOT
BRANCH   1   2
ATOM      2  C   UNL     1       0.713  27.661  43.907  1.00  0.00     0.027 C 
BRANCH   2   3
ATOM      3  C   UNL     1       0.790  28.538  42.691  1.00  0.00    -0.025 C 
ATOM      4  C   UNL     1       0.286  28.148  41.515  1.00  0.00     0.020 C 
BRANCH   4   5
ATOM      5  C   UNL     1       0.362  28.985  40.308  1.00  0.00     0.064 C 
ATOM      6  O   UNL     1       1.421  29.593  40.002  1.00  0.00    -0.545 OA
ATOM      7  O   UNL     1      -0.756  29.108  39.491  1.00  0.00    -0.545 OA
ENDBRANCH   4   5
ENDBRANCH   2   3
ENDBRANCH   1   2
BRANCH   1   8
ATOM      8  C   UNL     1      -1.534  28.102  44.982  1.00  0.00     0.000 C 
BRANCH   8   9
ATOM      9  C   UNL     1      -2.341  29.370  44.662  1.00  0.00    -0.000 C 
BRANCH   9  10
ATOM     10  C   UNL     1      -2.839  29.404  43.209  1.00  0.00    -0.003 C 
ATOM     11  C   UNL     1      -2.356  30.662  42.493  1.00  0.00     0.004 C 
ENDBRANCH   9  10
ENDBRANCH   8   9
ENDBRANCH   1   8
TORSDOF 6
ENDMDL
