MODEL 1
REMARK VINA RESULT:     0.361      0.000      0.000
REMARK INTER + INTRA:           0.064
REMARK INTER:                   0.383
REMARK INTRA:                  -0.319
REMARK UNBOUND:                -0.319
REMARK SMILES CC(C)[C@@H]1CC[C@H](C)[C@@H]2C=C[C@@H](C)C[C@H]21
REMARK SMILES IDX 8 1 7 2 6 3 5 4 4 5 15 6 9 7 10 8 11 9 12 10 14 11 13 12
REMARK SMILES IDX 2 13 1 14 3 15
REMARK H PARENT
REMARK Flexibility Score: inf
ROOT
ATOM      1  C   UNL     1     154.683 135.227 160.841  1.00  0.00     0.008 C 
ATOM      2  C   UNL     1     153.415 134.875 161.645  1.00  0.00    -0.007 C 
ATOM      3  C   UNL     1     153.647 134.909 163.156  1.00  0.00     0.004 C 
ATOM      4  C   UNL     1     153.955 136.320 163.653  1.00  0.00     0.004 C 
ATOM      5  C   UNL     1     152.941 137.437 163.233  1.00  0.00    -0.005 C 
ATOM      6  C   UNL     1     152.412 137.260 161.754  1.00  0.00    -0.000 C 
ATOM      7  C   UNL     1     152.212 135.776 161.332  1.00  0.00     0.018 C 
ATOM      8  C   UNL     1     151.783 135.675 159.885  1.00  0.00    -0.027 C 
ATOM      9  C   UNL     1     151.010 136.616 159.317  1.00  0.00    -0.028 C 
ATOM     10  C   UNL     1     150.681 137.926 160.005  1.00  0.00     0.008 C 
ATOM     11  C   UNL     1     151.021 137.917 161.513  1.00  0.00     0.012 C 
ATOM     12  C   UNL     1     149.206 138.277 159.786  1.00  0.00     0.012 C 
ENDROOT
BRANCH   5  13
ATOM     13  C   UNL     1     153.661 138.824 163.490  1.00  0.00    -0.014 C 
ATOM     14  C   UNL     1     155.123 138.804 162.995  1.00  0.00     0.007 C 
ATOM     15  C   UNL     1     153.658 139.317 164.942  1.00  0.00     0.007 C 
ENDBRANCH   5  13
TORSDOF 1
ENDMDL
MODEL 2
REMARK VINA RESULT:     1.893     12.510     16.069
REMARK INTER + INTRA:           1.684
REMARK INTER:                   1.650
REMARK INTRA:                   0.035
REMARK UNBOUND:                -0.319
REMARK SMILES CC(C)[C@@H]1CC[C@H](C)[C@@H]2C=C[C@@H](C)C[C@H]21
REMARK SMILES IDX 8 1 7 2 6 3 5 4 4 5 15 6 9 7 10 8 11 9 12 10 14 11 13 12
REMARK SMILES IDX 2 13 1 14 3 15
REMARK H PARENT
REMARK Flexibility Score: inf
ROOT
ATOM      1  C   UNL     1     136.375 138.548 163.266  1.00  0.00     0.008 C 
ATOM      2  C   UNL     1     136.583 137.123 163.815  1.00  0.00    -0.007 C 
ATOM      3  C   UNL     1     135.311 136.278 163.757  1.00  0.00     0.004 C 
ATOM      4  C   UNL     1     134.875 136.002 162.319  1.00  0.00     0.004 C 
ATOM      5  C   UNL     1     135.968 135.407 161.368  1.00  0.00    -0.005 C 
ATOM      6  C   UNL     1     137.399 136.029 161.614  1.00  0.00    -0.000 C 
ATOM      7  C   UNL     1     137.701 136.343 163.108  1.00  0.00     0.018 C 
ATOM      8  C   UNL     1     139.050 137.009 163.263  1.00  0.00    -0.027 C 
ATOM      9  C   UNL     1     140.075 136.710 162.449  1.00  0.00    -0.028 C 
ATOM     10  C   UNL     1     139.911 135.852 161.210  1.00  0.00     0.008 C 
ATOM     11  C   UNL     1     138.564 135.093 161.177  1.00  0.00     0.012 C 
ATOM     12  C   UNL     1     141.084 134.875 161.088  1.00  0.00     0.012 C 
ENDROOT
BRANCH   5  13
ATOM     13  C   UNL     1     135.436 135.597 159.889  1.00  0.00    -0.014 C 
ATOM     14  C   UNL     1     136.514 135.232 158.847  1.00  0.00     0.007 C 
ATOM     15  C   UNL     1     134.900 136.994 159.549  1.00  0.00     0.007 C 
ENDBRANCH   5  13
TORSDOF 1
ENDMDL
