MODEL 1
REMARK VINA RESULT:    -4.310      0.000      0.000
REMARK INTER + INTRA:          -4.436
REMARK INTER:                  -4.436
REMARK INTRA:                   0.000
REMARK UNBOUND:                 0.000
REMARK SMILES Oc1ccc2[nH]ccc2c1
REMARK SMILES IDX 3 1 4 2 5 3 9 4 8 5 7 6 6 7 10 8 2 9 1 11
REMARK H PARENT 6 10 1 12
REMARK Flexibility Score: inf
ROOT
ATOM      1  C   UNL     1      -1.342 -26.460 -47.120  1.00  0.00     0.048 A 
ATOM      2  C   UNL     1       0.033 -26.614 -47.380  1.00  0.00     0.030 A 
ATOM      3  C   UNL     1       0.905 -25.662 -46.856  1.00  0.00     0.046 A 
ATOM      4  C   UNL     1       0.454 -24.605 -46.112  1.00  0.00     0.003 A 
ATOM      5  C   UNL     1       1.553 -23.858 -45.749  1.00  0.00     0.028 A 
ATOM      6  C   UNL     1       2.643 -24.520 -46.308  1.00  0.00     0.083 A 
ATOM      7  N   UNL     1       2.241 -25.621 -46.983  1.00  0.00    -0.361 N 
ATOM      8  C   UNL     1      -0.899 -24.422 -45.836  1.00  0.00     0.056 A 
ATOM      9  C   UNL     1      -1.810 -25.369 -46.351  1.00  0.00     0.116 A 
ATOM     10  H   UNL     1       2.850 -26.298 -47.496  1.00  0.00     0.166 HD
ENDROOT
BRANCH   9  11
ATOM     11  O   UNL     1      -3.175 -25.238 -46.109  1.00  0.00    -0.508 OA
ATOM     12  H   UNL     1      -3.544 -24.469 -45.562  1.00  0.00     0.293 HD
ENDBRANCH   9  11
TORSDOF 1
ENDMDL
MODEL 2
REMARK VINA RESULT:    -4.270      2.617      4.039
REMARK INTER + INTRA:          -4.394
REMARK INTER:                  -4.394
REMARK INTRA:                   0.000
REMARK UNBOUND:                 0.000
REMARK SMILES Oc1ccc2[nH]ccc2c1
REMARK SMILES IDX 3 1 4 2 5 3 9 4 8 5 7 6 6 7 10 8 2 9 1 11
REMARK H PARENT 6 10 1 12
REMARK Flexibility Score: inf
ROOT
ATOM      1  C   UNL     1       1.259 -23.611 -45.402  1.00  0.00     0.048 A 
ATOM      2  C   UNL     1      -0.142 -23.704 -45.501  1.00  0.00     0.030 A 
ATOM      3  C   UNL     1      -0.672 -24.738 -46.269  1.00  0.00     0.046 A 
ATOM      4  C   UNL     1       0.130 -25.642 -46.913  1.00  0.00     0.003 A 
ATOM      5  C   UNL     1      -0.693 -26.524 -47.577  1.00  0.00     0.028 A 
ATOM      6  C   UNL     1      -1.987 -26.097 -47.293  1.00  0.00     0.083 A 
ATOM      7  N   UNL     1      -1.968 -25.006 -46.494  1.00  0.00    -0.361 N 
ATOM      8  C   UNL     1       1.520 -25.578 -46.836  1.00  0.00     0.056 A 
ATOM      9  C   UNL     1       2.090 -24.543 -46.065  1.00  0.00     0.116 A 
ATOM     10  H   UNL     1      -2.796 -24.483 -46.129  1.00  0.00     0.166 HD
ENDROOT
BRANCH   9  11
ATOM     11  O   UNL     1       3.474 -24.429 -45.953  1.00  0.00    -0.508 OA
ATOM     12  H   UNL     1       4.075 -24.455 -46.767  1.00  0.00     0.293 HD
ENDBRANCH   9  11
TORSDOF 1
ENDMDL
MODEL 3
REMARK VINA RESULT:    -4.140     14.187     15.398
REMARK INTER + INTRA:          -4.261
REMARK INTER:                  -4.261
REMARK INTRA:                   0.000
REMARK UNBOUND:                 0.000
REMARK SMILES Oc1ccc2[nH]ccc2c1
REMARK SMILES IDX 3 1 4 2 5 3 9 4 8 5 7 6 6 7 10 8 2 9 1 11
REMARK H PARENT 6 10 1 12
REMARK Flexibility Score: inf
ROOT
ATOM      1  C   UNL     1       2.476 -11.580 -44.232  1.00  0.00     0.048 A 
ATOM      2  C   UNL     1       2.062 -12.159 -43.017  1.00  0.00     0.030 A 
ATOM      3  C   UNL     1       1.306 -11.375 -42.148  1.00  0.00     0.046 A 
ATOM      4  C   UNL     1       0.970 -10.083 -42.451  1.00  0.00     0.003 A 
ATOM      5  C   UNL     1       0.231  -9.591 -41.398  1.00  0.00     0.028 A 
ATOM      6  C   UNL     1       0.155 -10.641 -40.486  1.00  0.00     0.083 A 
ATOM      7  N   UNL     1       0.814 -11.727 -40.949  1.00  0.00    -0.361 N 
ATOM      8  C   UNL     1       1.363  -9.480 -43.644  1.00  0.00     0.056 A 
ATOM      9  C   UNL     1       2.130 -10.246 -44.548  1.00  0.00     0.116 A 
ATOM     10  H   UNL     1       0.916 -12.650 -40.469  1.00  0.00     0.166 HD
ENDROOT
BRANCH   9  11
ATOM     11  O   UNL     1       2.552  -9.696 -45.756  1.00  0.00    -0.508 OA
ATOM     12  H   UNL     1       2.257  -8.773 -46.049  1.00  0.00     0.293 HD
ENDBRANCH   9  11
TORSDOF 1
ENDMDL
MODEL 4
REMARK VINA RESULT:    -4.118     14.215     15.191
REMARK INTER + INTRA:          -4.239
REMARK INTER:                  -4.239
REMARK INTRA:                   0.000
REMARK UNBOUND:                 0.000
REMARK SMILES Oc1ccc2[nH]ccc2c1
REMARK SMILES IDX 3 1 4 2 5 3 9 4 8 5 7 6 6 7 10 8 2 9 1 11
REMARK H PARENT 6 10 1 12
REMARK Flexibility Score: inf
ROOT
ATOM      1  C   UNL     1      -0.691 -10.614 -41.531  1.00  0.00     0.048 A 
ATOM      2  C   UNL     1      -0.419 -11.481 -42.606  1.00  0.00     0.030 A 
ATOM      3  C   UNL     1       0.881 -11.507 -43.108  1.00  0.00     0.046 A 
ATOM      4  C   UNL     1       1.871 -10.720 -42.584  1.00  0.00     0.003 A 
ATOM      5  C   UNL     1       3.022 -10.978 -43.295  1.00  0.00     0.028 A 
ATOM      6  C   UNL     1       2.659 -11.935 -44.239  1.00  0.00     0.083 A 
ATOM      7  N   UNL     1       1.351 -12.254 -44.120  1.00  0.00    -0.361 N 
ATOM      8  C   UNL     1       1.636  -9.851 -41.521  1.00  0.00     0.056 A 
ATOM      9  C   UNL     1       0.330  -9.800 -40.988  1.00  0.00     0.116 A 
ATOM     10  H   UNL     1       0.819 -12.942 -44.699  1.00  0.00     0.166 HD
ENDROOT
BRANCH   9  11
ATOM     11  O   UNL     1       0.036  -8.950 -39.925  1.00  0.00    -0.508 OA
ATOM     12  H   UNL     1       0.643  -8.175 -39.683  1.00  0.00     0.293 HD
ENDBRANCH   9  11
TORSDOF 1
ENDMDL
MODEL 5
REMARK VINA RESULT:    -4.091     14.322     15.567
REMARK INTER + INTRA:          -4.210
REMARK INTER:                  -4.210
REMARK INTRA:                   0.000
REMARK UNBOUND:                 0.000
REMARK SMILES Oc1ccc2[nH]ccc2c1
REMARK SMILES IDX 3 1 4 2 5 3 9 4 8 5 7 6 6 7 10 8 2 9 1 11
REMARK H PARENT 6 10 1 12
REMARK Flexibility Score: inf
ROOT
ATOM      1  C   UNL     1       1.898  -9.937 -43.988  1.00  0.00     0.048 A 
ATOM      2  C   UNL     1       1.343  -9.157 -42.956  1.00  0.00     0.030 A 
ATOM      3  C   UNL     1       0.778  -9.823 -41.870  1.00  0.00     0.046 A 
ATOM      4  C   UNL     1       0.754 -11.190 -41.797  1.00  0.00     0.003 A 
ATOM      5  C   UNL     1       0.132 -11.528 -40.615  1.00  0.00     0.028 A 
ATOM      6  C   UNL     1      -0.197 -10.314 -40.017  1.00  0.00     0.083 A 
ATOM      7  N   UNL     1       0.199  -9.277 -40.789  1.00  0.00    -0.361 N 
ATOM      8  C   UNL     1       1.293 -11.991 -42.801  1.00  0.00     0.056 A 
ATOM      9  C   UNL     1       1.875 -11.349 -43.914  1.00  0.00     0.116 A 
ATOM     10  H   UNL     1       0.078  -8.260 -40.580  1.00  0.00     0.166 HD
ENDROOT
BRANCH   9  11
ATOM     11  O   UNL     1       2.429 -12.098 -44.949  1.00  0.00    -0.508 OA
ATOM     12  H   UNL     1       1.990 -12.150 -45.860  1.00  0.00     0.293 HD
ENDBRANCH   9  11
TORSDOF 1
ENDMDL
MODEL 6
REMARK VINA RESULT:    -3.960     14.698     15.500
REMARK INTER + INTRA:          -4.076
REMARK INTER:                  -4.076
REMARK INTRA:                   0.000
REMARK UNBOUND:                 0.000
REMARK SMILES Oc1ccc2[nH]ccc2c1
REMARK SMILES IDX 3 1 4 2 5 3 9 4 8 5 7 6 6 7 10 8 2 9 1 11
REMARK H PARENT 6 10 1 12
REMARK Flexibility Score: inf
ROOT
ATOM      1  C   UNL     1       2.359 -10.459 -42.609  1.00  0.00     0.048 A 
ATOM      2  C   UNL     1       2.167 -11.616 -41.831  1.00  0.00     0.030 A 
ATOM      3  C   UNL     1       0.932 -11.782 -41.207  1.00  0.00     0.046 A 
ATOM      4  C   UNL     1      -0.071 -10.859 -41.337  1.00  0.00     0.003 A 
ATOM      5  C   UNL     1      -1.147 -11.313 -40.606  1.00  0.00     0.028 A 
ATOM      6  C   UNL     1      -0.728 -12.521 -40.055  1.00  0.00     0.083 A 
ATOM      7  N   UNL     1       0.542 -12.802 -40.426  1.00  0.00    -0.361 N 
ATOM      8  C   UNL     1       0.086  -9.704 -42.100  1.00  0.00     0.056 A 
ATOM      9  C   UNL     1       1.324  -9.504 -42.746  1.00  0.00     0.116 A 
ATOM     10  H   UNL     1       1.101 -13.643 -40.156  1.00  0.00     0.166 HD
ENDROOT
BRANCH   9  11
ATOM     11  O   UNL     1       1.539  -8.368 -43.522  1.00  0.00    -0.508 OA
ATOM     12  H   UNL     1       1.503  -7.438 -43.121  1.00  0.00     0.293 HD
ENDBRANCH   9  11
TORSDOF 1
ENDMDL
MODEL 7
REMARK VINA RESULT:    -3.935     14.809     15.596
REMARK INTER + INTRA:          -4.050
REMARK INTER:                  -4.050
REMARK INTRA:                   0.000
REMARK UNBOUND:                 0.000
REMARK SMILES Oc1ccc2[nH]ccc2c1
REMARK SMILES IDX 3 1 4 2 5 3 9 4 8 5 7 6 6 7 10 8 2 9 1 11
REMARK H PARENT 6 10 1 12
REMARK Flexibility Score: inf
ROOT
ATOM      1  C   UNL     1      -2.017 -10.668 -41.456  1.00  0.00     0.048 A 
ATOM      2  C   UNL     1      -1.281 -11.394 -42.411  1.00  0.00     0.030 A 
ATOM      3  C   UNL     1       0.082 -11.126 -42.523  1.00  0.00     0.046 A 
ATOM      4  C   UNL     1       0.699 -10.189 -41.738  1.00  0.00     0.003 A 
ATOM      5  C   UNL     1       2.029 -10.166 -42.092  1.00  0.00     0.028 A 
ATOM      6  C   UNL     1       2.153 -11.115 -43.103  1.00  0.00     0.083 A 
ATOM      7  N   UNL     1       0.960 -11.698 -43.362  1.00  0.00    -0.361 N 
ATOM      8  C   UNL     1      -0.000  -9.454 -40.783  1.00  0.00     0.056 A 
ATOM      9  C   UNL     1      -1.382  -9.701 -40.643  1.00  0.00     0.116 A 
ATOM     10  H   UNL     1       0.768 -12.442 -44.070  1.00  0.00     0.166 HD
ENDROOT
BRANCH   9  11
ATOM     11  O   UNL     1      -2.132  -8.995 -39.705  1.00  0.00    -0.508 OA
ATOM     12  H   UNL     1      -3.145  -9.028 -39.703  1.00  0.00     0.293 HD
ENDBRANCH   9  11
TORSDOF 1
ENDMDL
MODEL 8
REMARK VINA RESULT:    -3.906      2.626      3.622
REMARK INTER + INTRA:          -4.020
REMARK INTER:                  -4.020
REMARK INTRA:                   0.000
REMARK UNBOUND:                 0.000
REMARK SMILES Oc1ccc2[nH]ccc2c1
REMARK SMILES IDX 3 1 4 2 5 3 9 4 8 5 7 6 6 7 10 8 2 9 1 11
REMARK H PARENT 6 10 1 12
REMARK Flexibility Score: inf
ROOT
ATOM      1  C   UNL     1       1.966 -25.872 -46.925  1.00  0.00     0.048 A 
ATOM      2  C   UNL     1       0.637 -26.336 -46.947  1.00  0.00     0.030 A 
ATOM      3  C   UNL     1      -0.340 -25.541 -46.351  1.00  0.00     0.046 A 
ATOM      4  C   UNL     1      -0.032 -24.345 -45.759  1.00  0.00     0.003 A 
ATOM      5  C   UNL     1      -1.205 -23.813 -45.271  1.00  0.00     0.028 A 
ATOM      6  C   UNL     1      -2.190 -24.740 -45.601  1.00  0.00     0.083 A 
ATOM      7  N   UNL     1      -1.655 -25.793 -46.260  1.00  0.00    -0.361 N 
ATOM      8  C   UNL     1       1.272 -23.857 -45.720  1.00  0.00     0.056 A 
ATOM      9  C   UNL     1       2.286 -24.637 -46.315  1.00  0.00     0.116 A 
ATOM     10  H   UNL     1      -2.166 -26.630 -46.623  1.00  0.00     0.166 HD
ENDROOT
BRANCH   9  11
ATOM     11  O   UNL     1       3.608 -24.200 -46.306  1.00  0.00    -0.508 OA
ATOM     12  H   UNL     1       4.334 -24.718 -45.827  1.00  0.00     0.293 HD
ENDBRANCH   9  11
TORSDOF 1
ENDMDL
MODEL 9
REMARK VINA RESULT:    -3.854      1.883      3.209
REMARK INTER + INTRA:          -3.967
REMARK INTER:                  -3.967
REMARK INTRA:                   0.000
REMARK UNBOUND:                 0.000
REMARK SMILES Oc1ccc2[nH]ccc2c1
REMARK SMILES IDX 3 1 4 2 5 3 9 4 8 5 7 6 6 7 10 8 2 9 1 11
REMARK H PARENT 6 10 1 12
REMARK Flexibility Score: inf
ROOT
ATOM      1  C   UNL     1       1.513 -24.078 -45.715  1.00  0.00     0.048 A 
ATOM      2  C   UNL     1       1.544 -25.249 -46.496  1.00  0.00     0.030 A 
ATOM      3  C   UNL     1       0.327 -25.803 -46.887  1.00  0.00     0.046 A 
ATOM      4  C   UNL     1      -0.869 -25.239 -46.530  1.00  0.00     0.003 A 
ATOM      5  C   UNL     1      -1.869 -26.018 -47.068  1.00  0.00     0.028 A 
ATOM      6  C   UNL     1      -1.209 -27.043 -47.741  1.00  0.00     0.083 A 
ATOM      7  N   UNL     1       0.131 -26.906 -47.627  1.00  0.00    -0.361 N 
ATOM      8  C   UNL     1      -0.935 -24.081 -45.758  1.00  0.00     0.056 A 
ATOM      9  C   UNL     1       0.280 -23.494 -45.346  1.00  0.00     0.116 A 
ATOM     10  H   UNL     1       0.862 -27.534 -48.033  1.00  0.00     0.166 HD
ENDROOT
BRANCH   9  11
ATOM     11  O   UNL     1       0.275 -22.335 -44.572  1.00  0.00    -0.508 OA
ATOM     12  H   UNL     1       1.102 -22.027 -44.075  1.00  0.00     0.293 HD
ENDBRANCH   9  11
TORSDOF 1
ENDMDL
