MODEL 1
REMARK VINA RESULT:    -2.808      0.000      0.000
REMARK INTER + INTRA:          -3.425
REMARK INTER:                  -3.301
REMARK INTRA:                  -0.124
REMARK UNBOUND:                -0.124
REMARK SMILES O=C([O-])CCC(=O)[O-]
REMARK SMILES IDX 4 1 2 2 1 3 3 4 5 5 6 6 7 7 8 8
REMARK H PARENT
REMARK Flexibility Score: inf
ROOT
ATOM      1  C   UNL     1      18.346  -8.105   6.028  1.00  0.00     0.059 C 
ENDROOT
BRANCH   1   2
ATOM      2  C   UNL     1      19.511  -7.228   5.679  1.00  0.00     0.042 C 
ATOM      3  O   UNL     1      20.664  -7.507   6.103  1.00  0.00    -0.550 OA
ATOM      4  O   UNL     1      19.329  -6.126   4.854  1.00  0.00    -0.550 OA
ENDBRANCH   1   2
BRANCH   1   5
ATOM      5  C   UNL     1      17.232  -7.312   6.719  1.00  0.00     0.059 C 
BRANCH   5   6
ATOM      6  C   UNL     1      17.484  -7.172   8.190  1.00  0.00     0.042 C 
ATOM      7  O   UNL     1      17.878  -8.161   8.863  1.00  0.00    -0.550 OA
ATOM      8  O   UNL     1      17.323  -5.939   8.808  1.00  0.00    -0.550 OA
ENDBRANCH   5   6
ENDBRANCH   1   5
TORSDOF 3
ENDMDL
MODEL 2
REMARK VINA RESULT:    -2.794      0.104      1.146
REMARK INTER + INTRA:          -3.408
REMARK INTER:                  -3.285
REMARK INTRA:                  -0.122
REMARK UNBOUND:                -0.124
REMARK SMILES O=C([O-])CCC(=O)[O-]
REMARK SMILES IDX 4 1 2 2 1 3 3 4 5 5 6 6 7 7 8 8
REMARK H PARENT
REMARK Flexibility Score: inf
ROOT
ATOM      1  C   UNL     1      18.397  -8.072   6.044  1.00  0.00     0.059 C 
ENDROOT
BRANCH   1   2
ATOM      2  C   UNL     1      19.488  -7.122   5.651  1.00  0.00     0.042 C 
ATOM      3  O   UNL     1      19.228  -6.123   4.929  1.00  0.00    -0.550 OA
ATOM      4  O   UNL     1      20.782  -7.319   6.114  1.00  0.00    -0.550 OA
ENDBRANCH   1   2
BRANCH   1   5
ATOM      5  C   UNL     1      17.240  -7.345   6.737  1.00  0.00     0.059 C 
BRANCH   5   6
ATOM      6  C   UNL     1      17.497  -7.169   8.203  1.00  0.00     0.042 C 
ATOM      7  O   UNL     1      17.891  -8.142   8.899  1.00  0.00    -0.550 OA
ATOM      8  O   UNL     1      17.341  -5.920   8.790  1.00  0.00    -0.550 OA
ENDBRANCH   5   6
ENDBRANCH   1   5
TORSDOF 3
ENDMDL
MODEL 3
REMARK VINA RESULT:    -2.788      0.121      3.617
REMARK INTER + INTRA:          -3.400
REMARK INTER:                  -3.284
REMARK INTRA:                  -0.116
REMARK UNBOUND:                -0.124
REMARK SMILES O=C([O-])CCC(=O)[O-]
REMARK SMILES IDX 4 1 2 2 1 3 3 4 5 5 6 6 7 7 8 8
REMARK H PARENT
REMARK Flexibility Score: inf
ROOT
ATOM      1  C   UNL     1      17.250  -7.236   6.674  1.00  0.00     0.059 C 
ENDROOT
BRANCH   1   2
ATOM      2  C   UNL     1      17.486  -7.156   8.152  1.00  0.00     0.042 C 
ATOM      3  O   UNL     1      17.848  -8.179   8.792  1.00  0.00    -0.550 OA
ATOM      4  O   UNL     1      17.344  -5.943   8.814  1.00  0.00    -0.550 OA
ENDBRANCH   1   2
BRANCH   1   5
ATOM      5  C   UNL     1      18.378  -7.992   5.964  1.00  0.00     0.059 C 
BRANCH   5   6
ATOM      6  C   UNL     1      19.508  -7.080   5.595  1.00  0.00     0.042 C 
ATOM      7  O   UNL     1      19.299  -6.074   4.866  1.00  0.00    -0.550 OA
ATOM      8  O   UNL     1      20.782  -7.318   6.091  1.00  0.00    -0.550 OA
ENDBRANCH   5   6
ENDBRANCH   1   5
TORSDOF 3
ENDMDL
MODEL 4
REMARK VINA RESULT:    -2.785      0.139      3.649
REMARK INTER + INTRA:          -3.396
REMARK INTER:                  -3.285
REMARK INTRA:                  -0.111
REMARK UNBOUND:                -0.124
REMARK SMILES O=C([O-])CCC(=O)[O-]
REMARK SMILES IDX 4 1 2 2 1 3 3 4 5 5 6 6 7 7 8 8
REMARK H PARENT
REMARK Flexibility Score: inf
ROOT
ATOM      1  C   UNL     1      17.332  -7.342   6.679  1.00  0.00     0.059 C 
ENDROOT
BRANCH   1   2
ATOM      2  C   UNL     1      17.515  -7.136   8.153  1.00  0.00     0.042 C 
ATOM      3  O   UNL     1      17.282  -6.011   8.669  1.00  0.00    -0.550 OA
ATOM      4  O   UNL     1      17.906  -8.196   8.960  1.00  0.00    -0.550 OA
ENDBRANCH   1   2
BRANCH   1   5
ATOM      5  C   UNL     1      18.513  -8.101   6.066  1.00  0.00     0.059 C 
BRANCH   5   6
ATOM      6  C   UNL     1      19.619  -7.173   5.665  1.00  0.00     0.042 C 
ATOM      7  O   UNL     1      20.780  -7.334   6.125  1.00  0.00    -0.550 OA
ATOM      8  O   UNL     1      19.374  -6.155   4.753  1.00  0.00    -0.550 OA
ENDBRANCH   5   6
ENDBRANCH   1   5
TORSDOF 3
ENDMDL
MODEL 5
REMARK VINA RESULT:    -2.748      1.170      1.556
REMARK INTER + INTRA:          -3.354
REMARK INTER:                  -3.317
REMARK INTRA:                  -0.037
REMARK UNBOUND:                -0.124
REMARK SMILES O=C([O-])CCC(=O)[O-]
REMARK SMILES IDX 4 1 2 2 1 3 3 4 5 5 6 6 7 7 8 8
REMARK H PARENT
REMARK Flexibility Score: inf
ROOT
ATOM      1  C   UNL     1      19.009  -6.972   6.141  1.00  0.00     0.059 C 
ENDROOT
BRANCH   1   2
ATOM      2  C   UNL     1      19.266  -6.382   4.788  1.00  0.00     0.042 C 
ATOM      3  O   UNL     1      18.303  -6.085   4.032  1.00  0.00    -0.550 OA
ATOM      4  O   UNL     1      20.568  -6.123   4.378  1.00  0.00    -0.550 OA
ENDBRANCH   1   2
BRANCH   1   5
ATOM      5  C   UNL     1      17.528  -7.316   6.333  1.00  0.00     0.059 C 
BRANCH   5   6
ATOM      6  C   UNL     1      17.181  -7.471   7.783  1.00  0.00     0.042 C 
ATOM      7  O   UNL     1      16.871  -8.602   8.243  1.00  0.00    -0.550 OA
ATOM      8  O   UNL     1      17.241  -6.374   8.632  1.00  0.00    -0.550 OA
ENDBRANCH   5   6
ENDBRANCH   1   5
TORSDOF 3
ENDMDL
MODEL 6
REMARK VINA RESULT:    -2.711      2.971      4.662
REMARK INTER + INTRA:          -3.310
REMARK INTER:                  -3.275
REMARK INTRA:                  -0.035
REMARK UNBOUND:                -0.124
REMARK SMILES O=C([O-])CCC(=O)[O-]
REMARK SMILES IDX 4 1 2 2 1 3 3 4 5 5 6 6 7 7 8 8
REMARK H PARENT
REMARK Flexibility Score: inf
ROOT
ATOM      1  C   UNL     1      17.275  -7.345   4.643  1.00  0.00     0.059 C 
ENDROOT
BRANCH   1   2
ATOM      2  C   UNL     1      17.912  -7.141   5.984  1.00  0.00     0.042 C 
ATOM      3  O   UNL     1      17.198  -7.049   7.018  1.00  0.00    -0.550 OA
ATOM      4  O   UNL     1      19.296  -7.094   6.098  1.00  0.00    -0.550 OA
ENDBRANCH   1   2
BRANCH   1   5
ATOM      5  C   UNL     1      17.755  -6.302   3.628  1.00  0.00     0.059 C 
BRANCH   5   6
ATOM      6  C   UNL     1      17.317  -6.644   2.236  1.00  0.00     0.042 C 
ATOM      7  O   UNL     1      17.085  -7.841   1.920  1.00  0.00    -0.550 OA
ATOM      8  O   UNL     1      17.126  -5.635   1.301  1.00  0.00    -0.550 OA
ENDBRANCH   5   6
ENDBRANCH   1   5
TORSDOF 3
ENDMDL
MODEL 7
REMARK VINA RESULT:    -2.710      1.656      3.880
REMARK INTER + INTRA:          -3.309
REMARK INTER:                  -3.190
REMARK INTRA:                  -0.119
REMARK UNBOUND:                -0.124
REMARK SMILES O=C([O-])CCC(=O)[O-]
REMARK SMILES IDX 4 1 2 2 1 3 3 4 5 5 6 6 7 7 8 8
REMARK H PARENT
REMARK Flexibility Score: inf
ROOT
ATOM      1  C   UNL     1      17.793  -7.967   5.889  1.00  0.00     0.059 C 
ENDROOT
BRANCH   1   2
ATOM      2  C   UNL     1      17.592  -7.400   7.262  1.00  0.00     0.042 C 
ATOM      3  O   UNL     1      16.767  -7.930   8.053  1.00  0.00    -0.550 OA
ATOM      4  O   UNL     1      18.345  -6.311   7.682  1.00  0.00    -0.550 OA
ENDBRANCH   1   2
BRANCH   1   5
ATOM      5  C   UNL     1      17.099  -7.115   4.821  1.00  0.00     0.059 C 
BRANCH   5   6
ATOM      6  C   UNL     1      18.091  -6.384   3.969  1.00  0.00     0.042 C 
ATOM      7  O   UNL     1      19.272  -6.215   4.373  1.00  0.00    -0.550 OA
ATOM      8  O   UNL     1      17.721  -5.925   2.712  1.00  0.00    -0.550 OA
ENDBRANCH   5   6
ENDBRANCH   1   5
TORSDOF 3
ENDMDL
MODEL 8
REMARK VINA RESULT:    -2.658      1.340      1.994
REMARK INTER + INTRA:          -3.248
REMARK INTER:                  -3.165
REMARK INTRA:                  -0.083
REMARK UNBOUND:                -0.124
REMARK SMILES O=C([O-])CCC(=O)[O-]
REMARK SMILES IDX 4 1 2 2 1 3 3 4 5 5 6 6 7 7 8 8
REMARK H PARENT
REMARK Flexibility Score: inf
ROOT
ATOM      1  C   UNL     1      17.584  -7.359   5.755  1.00  0.00     0.059 C 
ENDROOT
BRANCH   1   2
ATOM      2  C   UNL     1      18.994  -6.927   5.486  1.00  0.00     0.042 C 
ATOM      3  O   UNL     1      19.238  -6.093   4.574  1.00  0.00    -0.550 OA
ATOM      4  O   UNL     1      20.032  -7.414   6.269  1.00  0.00    -0.550 OA
ENDBRANCH   1   2
BRANCH   1   5
ATOM      5  C   UNL     1      17.268  -7.348   7.254  1.00  0.00     0.059 C 
BRANCH   5   6
ATOM      6  C   UNL     1      17.217  -8.736   7.818  1.00  0.00     0.042 C 
ATOM      7  O   UNL     1      16.516  -9.622   7.260  1.00  0.00    -0.550 OA
ATOM      8  O   UNL     1      17.976  -9.060   8.935  1.00  0.00    -0.550 OA
ENDBRANCH   5   6
ENDBRANCH   1   5
TORSDOF 3
ENDMDL
MODEL 9
REMARK VINA RESULT:    -2.640      2.473      4.911
REMARK INTER + INTRA:          -3.227
REMARK INTER:                  -3.107
REMARK INTRA:                  -0.120
REMARK UNBOUND:                -0.124
REMARK SMILES O=C([O-])CCC(=O)[O-]
REMARK SMILES IDX 4 1 2 2 1 3 3 4 5 5 6 6 7 7 8 8
REMARK H PARENT
REMARK Flexibility Score: inf
ROOT
ATOM      1  C   UNL     1      21.114  -8.030   5.368  1.00  0.00     0.059 C 
ENDROOT
BRANCH   1   2
ATOM      2  C   UNL     1      19.811  -7.816   6.076  1.00  0.00     0.042 C 
ATOM      3  O   UNL     1      19.194  -6.724   5.954  1.00  0.00    -0.550 OA
ATOM      4  O   UNL     1      19.258  -8.837   6.839  1.00  0.00    -0.550 OA
ENDBRANCH   1   2
BRANCH   1   5
ATOM      5  C   UNL     1      22.060  -6.839   5.558  1.00  0.00     0.059 C 
BRANCH   5   6
ATOM      6  C   UNL     1      22.260  -6.083   4.280  1.00  0.00     0.042 C 
ATOM      7  O   UNL     1      23.334  -5.460   4.073  1.00  0.00    -0.550 OA
ATOM      8  O   UNL     1      21.274  -6.101   3.302  1.00  0.00    -0.550 OA
ENDBRANCH   5   6
ENDBRANCH   1   5
TORSDOF 3
ENDMDL
