MODEL 1
REMARK VINA RESULT:    -7.049      0.000      0.000
REMARK INTER + INTRA:         -10.594
REMARK INTER:                  -9.727
REMARK INTRA:                  -0.866
REMARK UNBOUND:                -0.866
REMARK SMILES O=C([O-])[C@@H]1O[C@H](Oc2cc3oc(-c4ccccc4)cc(=O)c3c(O)c2O)[C@@H](O)[C@@H](O)[C@H]1O
REMARK SMILES IDX 7 1 6 2 4 3 31 4 5 5 29 6 27 7 2 8 1 9 3 10 32 11 30 13
REMARK SMILES IDX 28 15 8 17 25 18 9 19 23 20 10 21 22 22 11 23 20 24 12 25
REMARK SMILES IDX 19 26 21 27 26 28 24 30 13 32 14 33 18 34 15 35 17 36 16 37
REMARK H PARENT 32 12 30 14 28 16 26 29 24 31
REMARK Flexibility Score: inf
ROOT
ATOM      1  O   UNL     1       3.304  43.227  84.786  1.00  0.00    -0.458 OA
ENDROOT
BRANCH   1   2
ATOM      2  C   UNL     1       3.252  41.837  84.459  1.00  0.00     0.339 C 
ATOM      3  C   UNL     1       5.559  41.392  84.872  1.00  0.00     0.199 C 
ATOM      4  C   UNL     1       5.243  40.608  86.169  1.00  0.00     0.180 C 
ATOM      5  O   UNL     1       4.490  41.371  83.931  1.00  0.00    -0.328 OA
ATOM      6  C   UNL     1       3.889  41.046  86.762  1.00  0.00     0.181 C 
ATOM      7  C   UNL     1       2.800  41.023  85.685  1.00  0.00     0.214 C 
BRANCH   3   8
ATOM      8  C   UNL     1       6.090  42.791  85.090  1.00  0.00     0.073 C 
ATOM      9  O   UNL     1       6.477  43.504  84.126  1.00  0.00    -0.547 OA
ATOM     10  O   UNL     1       6.160  43.299  86.381  1.00  0.00    -0.547 OA
ENDBRANCH   3   8
BRANCH   4  11
ATOM     11  O   UNL     1       5.224  39.234  85.872  1.00  0.00    -0.387 OA
ATOM     12  H   UNL     1       4.295  39.006  85.603  1.00  0.00     0.211 HD
ENDBRANCH   4  11
BRANCH   6  13
ATOM     13  O   UNL     1       3.517  40.208  87.827  1.00  0.00    -0.387 OA
ATOM     14  H   UNL     1       3.651  39.274  87.517  1.00  0.00     0.211 HD
ENDBRANCH   6  13
BRANCH   7  15
ATOM     15  O   UNL     1       2.522  39.698  85.308  1.00  0.00    -0.384 OA
ATOM     16  H   UNL     1       3.049  39.514  84.487  1.00  0.00     0.211 HD
ENDBRANCH   7  15
ENDBRANCH   1   2
BRANCH   1  17
ATOM     17  C   UNL     1       2.336  44.214  84.517  1.00  0.00     0.172 A 
ATOM     18  C   UNL     1       1.783  45.087  85.490  1.00  0.00     0.201 A 
ATOM     19  C   UNL     1       1.903  44.301  83.193  1.00  0.00     0.098 A 
ATOM     20  C   UNL     1       0.817  46.053  85.100  1.00  0.00     0.176 A 
ATOM     21  C   UNL     1       0.936  45.223  82.806  1.00  0.00     0.146 A 
ATOM     22  C   UNL     1       0.379  46.107  83.753  1.00  0.00     0.111 A 
ATOM     23  O   UNL     1       0.551  45.257  81.534  1.00  0.00    -0.456 OA
ATOM     24  C   UNL     1      -0.600  47.016  83.294  1.00  0.00     0.197 A 
ATOM     25  C   UNL     1      -0.362  46.106  81.068  1.00  0.00     0.138 A 
ATOM     26  C   UNL     1      -0.972  47.012  81.949  1.00  0.00     0.100 A 
ATOM     27  O   UNL     1      -1.159  47.834  84.074  1.00  0.00    -0.289 OA
BRANCH  18  28
ATOM     28  O   UNL     1       2.191  44.973  86.819  1.00  0.00    -0.502 OA
ATOM     29  H   UNL     1       1.611  44.640  87.575  1.00  0.00     0.293 HD
ENDBRANCH  18  28
BRANCH  20  30
ATOM     30  O   UNL     1       0.289  46.968  86.017  1.00  0.00    -0.504 OA
ATOM     31  H   UNL     1       0.749  47.817  86.315  1.00  0.00     0.293 HD
ENDBRANCH  20  30
BRANCH  25  32
ATOM     32  C   UNL     1      -0.716  46.053  79.627  1.00  0.00     0.017 A 
ATOM     33  C   UNL     1      -0.307  47.056  78.726  1.00  0.00     0.012 A 
ATOM     34  C   UNL     1      -1.453  44.959  79.136  1.00  0.00     0.012 A 
ATOM     35  C   UNL     1      -0.649  46.973  77.372  1.00  0.00     0.001 A 
ATOM     36  C   UNL     1      -1.792  44.882  77.781  1.00  0.00     0.001 A 
ATOM     37  C   UNL     1      -1.392  45.890  76.901  1.00  0.00     0.000 A 
ENDBRANCH  25  32
ENDBRANCH   1  17
TORSDOF 9
ENDMDL
MODEL 2
REMARK VINA RESULT:    -7.038      3.119      8.923
REMARK INTER + INTRA:         -10.578
REMARK INTER:                  -9.799
REMARK INTRA:                  -0.780
REMARK UNBOUND:                -0.866
REMARK SMILES O=C([O-])[C@@H]1O[C@H](Oc2cc3oc(-c4ccccc4)cc(=O)c3c(O)c2O)[C@@H](O)[C@@H](O)[C@H]1O
REMARK SMILES IDX 7 1 6 2 4 3 31 4 5 5 29 6 27 7 2 8 1 9 3 10 32 11 30 13
REMARK SMILES IDX 28 15 8 17 25 18 9 19 23 20 10 21 22 22 11 23 20 24 12 25
REMARK SMILES IDX 19 26 21 27 26 28 24 30 13 32 14 33 18 34 15 35 17 36 16 37
REMARK H PARENT 32 12 30 14 28 16 26 29 24 31
REMARK Flexibility Score: inf
ROOT
ATOM      1  O   UNL     1      -2.346  45.467  81.251  1.00  0.00    -0.458 OA
ENDROOT
BRANCH   1   2
ATOM      2  C   UNL     1      -3.043  46.042  80.143  1.00  0.00     0.339 C 
ATOM      3  C   UNL     1      -2.599  48.315  80.717  1.00  0.00     0.199 C 
ATOM      4  C   UNL     1      -1.591  48.480  79.553  1.00  0.00     0.180 C 
ATOM      5  O   UNL     1      -3.585  47.319  80.465  1.00  0.00    -0.328 OA
ATOM      6  C   UNL     1      -1.002  47.119  79.136  1.00  0.00     0.181 C 
ATOM      7  C   UNL     1      -2.121  46.097  78.911  1.00  0.00     0.214 C 
BRANCH   3   8
ATOM      8  C   UNL     1      -1.970  48.152  82.082  1.00  0.00     0.073 C 
ATOM      9  O   UNL     1      -0.720  48.087  82.226  1.00  0.00    -0.547 OA
ATOM     10  O   UNL     1      -2.788  48.063  83.202  1.00  0.00    -0.547 OA
ENDBRANCH   3   8
BRANCH   4  11
ATOM     11  O   UNL     1      -2.252  49.079  78.466  1.00  0.00    -0.387 OA
ATOM     12  H   UNL     1      -3.159  48.678  78.419  1.00  0.00     0.211 HD
ENDBRANCH   4  11
BRANCH   6  13
ATOM     13  O   UNL     1      -0.236  47.245  77.965  1.00  0.00    -0.387 OA
ATOM     14  H   UNL     1       0.393  47.998  78.115  1.00  0.00     0.211 HD
ENDBRANCH   6  13
BRANCH   7  15
ATOM     15  O   UNL     1      -2.864  46.439  77.768  1.00  0.00    -0.384 OA
ATOM     16  H   UNL     1      -3.672  46.922  78.083  1.00  0.00     0.211 HD
ENDBRANCH   7  15
ENDBRANCH   1   2
BRANCH   1  17
ATOM     17  C   UNL     1      -1.601  44.272  81.275  1.00  0.00     0.172 A 
ATOM     18  C   UNL     1      -2.015  43.053  80.678  1.00  0.00     0.201 A 
ATOM     19  C   UNL     1      -0.383  44.324  81.954  1.00  0.00     0.098 A 
ATOM     20  C   UNL     1      -1.175  41.910  80.757  1.00  0.00     0.176 A 
ATOM     21  C   UNL     1       0.433  43.203  82.064  1.00  0.00     0.146 A 
ATOM     22  C   UNL     1       0.048  41.983  81.470  1.00  0.00     0.111 A 
ATOM     23  O   UNL     1       1.578  43.303  82.732  1.00  0.00    -0.456 OA
ATOM     24  C   UNL     1       0.922  40.883  81.622  1.00  0.00     0.197 A 
ATOM     25  C   UNL     1       2.428  42.290  82.885  1.00  0.00     0.138 A 
ATOM     26  C   UNL     1       2.112  41.039  82.334  1.00  0.00     0.100 A 
ATOM     27  O   UNL     1       0.650  39.752  81.135  1.00  0.00    -0.289 OA
BRANCH  18  28
ATOM     28  O   UNL     1      -3.250  42.995  80.031  1.00  0.00    -0.502 OA
ATOM     29  H   UNL     1      -3.833  42.174  79.973  1.00  0.00     0.293 HD
ENDBRANCH  18  28
BRANCH  20  30
ATOM     30  O   UNL     1      -1.521  40.705  80.134  1.00  0.00    -0.504 OA
ATOM     31  H   UNL     1      -1.417  39.791  80.549  1.00  0.00     0.293 HD
ENDBRANCH  20  30
BRANCH  25  32
ATOM     32  C   UNL     1       3.678  42.516  83.652  1.00  0.00     0.017 A 
ATOM     33  C   UNL     1       4.101  43.809  84.018  1.00  0.00     0.012 A 
ATOM     34  C   UNL     1       4.452  41.411  84.055  1.00  0.00     0.012 A 
ATOM     35  C   UNL     1       5.279  43.989  84.749  1.00  0.00     0.001 A 
ATOM     36  C   UNL     1       5.630  41.597  84.786  1.00  0.00     0.001 A 
ATOM     37  C   UNL     1       6.044  42.885  85.130  1.00  0.00     0.000 A 
ENDBRANCH  25  32
ENDBRANCH   1  17
TORSDOF 9
ENDMDL
MODEL 3
REMARK VINA RESULT:    -7.018      4.605      7.742
REMARK INTER + INTRA:         -10.551
REMARK INTER:                  -9.733
REMARK INTRA:                  -0.817
REMARK UNBOUND:                -0.866
REMARK SMILES O=C([O-])[C@@H]1O[C@H](Oc2cc3oc(-c4ccccc4)cc(=O)c3c(O)c2O)[C@@H](O)[C@@H](O)[C@H]1O
REMARK SMILES IDX 7 1 6 2 4 3 31 4 5 5 29 6 27 7 2 8 1 9 3 10 32 11 30 13
REMARK SMILES IDX 28 15 8 17 25 18 9 19 23 20 10 21 22 22 11 23 20 24 12 25
REMARK SMILES IDX 19 26 21 27 26 28 24 30 13 32 14 33 18 34 15 35 17 36 16 37
REMARK H PARENT 32 12 30 14 28 16 26 29 24 31
REMARK Flexibility Score: inf
ROOT
ATOM      1  O   UNL     1      -2.687  47.850  83.939  1.00  0.00    -0.458 OA
ENDROOT
BRANCH   1   2
ATOM      2  C   UNL     1      -2.484  47.321  85.252  1.00  0.00     0.339 C 
ATOM      3  C   UNL     1      -0.689  48.780  85.838  1.00  0.00     0.199 C 
ATOM      4  C   UNL     1      -1.577  49.585  86.818  1.00  0.00     0.180 C 
ATOM      5  O   UNL     1      -1.126  47.435  85.664  1.00  0.00    -0.328 OA
ATOM      6  C   UNL     1      -3.066  49.463  86.441  1.00  0.00     0.181 C 
ATOM      7  C   UNL     1      -3.450  47.993  86.245  1.00  0.00     0.214 C 
BRANCH   3   8
ATOM      8  C   UNL     1      -0.426  49.462  84.515  1.00  0.00     0.073 C 
ATOM      9  O   UNL     1       0.289  48.922  83.628  1.00  0.00    -0.547 OA
ATOM     10  O   UNL     1      -0.976  50.714  84.273  1.00  0.00    -0.547 OA
ENDBRANCH   3   8
BRANCH   4  11
ATOM     11  O   UNL     1      -1.362  49.102  88.121  1.00  0.00    -0.387 OA
ATOM     12  H   UNL     1      -0.614  49.628  88.508  1.00  0.00     0.211 HD
ENDBRANCH   4  11
BRANCH   6  13
ATOM     13  O   UNL     1      -3.880  50.035  87.434  1.00  0.00    -0.387 OA
ATOM     14  H   UNL     1      -3.270  50.448  88.100  1.00  0.00     0.211 HD
ENDBRANCH   6  13
BRANCH   7  15
ATOM     15  O   UNL     1      -3.420  47.318  87.478  1.00  0.00    -0.384 OA
ATOM     16  H   UNL     1      -4.361  47.104  87.713  1.00  0.00     0.211 HD
ENDBRANCH   7  15
ENDBRANCH   1   2
BRANCH   1  17
ATOM     17  C   UNL     1      -2.416  47.224  82.707  1.00  0.00     0.172 A 
ATOM     18  C   UNL     1      -2.742  47.770  81.438  1.00  0.00     0.201 A 
ATOM     19  C   UNL     1      -1.796  45.976  82.777  1.00  0.00     0.098 A 
ATOM     20  C   UNL     1      -2.412  47.052  80.257  1.00  0.00     0.176 A 
ATOM     21  C   UNL     1      -1.495  45.251  81.629  1.00  0.00     0.146 A 
ATOM     22  C   UNL     1      -1.801  45.777  80.357  1.00  0.00     0.111 A 
ATOM     23  O   UNL     1      -0.915  44.061  81.752  1.00  0.00    -0.456 OA
ATOM     24  C   UNL     1      -1.471  44.987  79.232  1.00  0.00     0.197 A 
ATOM     25  C   UNL     1      -0.583  43.297  80.714  1.00  0.00     0.138 A 
ATOM     26  C   UNL     1      -0.863  43.744  79.414  1.00  0.00     0.100 A 
ATOM     27  O   UNL     1      -1.720  45.375  78.058  1.00  0.00    -0.289 OA
BRANCH  18  28
ATOM     28  O   UNL     1      -3.395  49.002  81.372  1.00  0.00    -0.502 OA
ATOM     29  H   UNL     1      -4.126  49.301  82.000  1.00  0.00     0.293 HD
ENDBRANCH  18  28
BRANCH  20  30
ATOM     30  O   UNL     1      -2.666  47.580  78.987  1.00  0.00    -0.504 OA
ATOM     31  H   UNL     1      -2.079  47.442  78.177  1.00  0.00     0.293 HD
ENDBRANCH  20  30
BRANCH  25  32
ATOM     32  C   UNL     1       0.061  41.985  80.971  1.00  0.00     0.017 A 
ATOM     33  C   UNL     1       1.451  41.866  81.169  1.00  0.00     0.012 A 
ATOM     34  C   UNL     1      -0.736  40.827  81.050  1.00  0.00     0.012 A 
ATOM     35  C   UNL     1       2.027  40.616  81.418  1.00  0.00     0.001 A 
ATOM     36  C   UNL     1      -0.154  39.579  81.298  1.00  0.00     0.001 A 
ATOM     37  C   UNL     1       1.226  39.475  81.479  1.00  0.00     0.000 A 
ENDBRANCH  25  32
ENDBRANCH   1  17
TORSDOF 9
ENDMDL
MODEL 4
REMARK VINA RESULT:    -6.906      1.883      2.341
REMARK INTER + INTRA:         -10.396
REMARK INTER:                  -9.140
REMARK INTRA:                  -1.256
REMARK UNBOUND:                -0.866
REMARK SMILES O=C([O-])[C@@H]1O[C@H](Oc2cc3oc(-c4ccccc4)cc(=O)c3c(O)c2O)[C@@H](O)[C@@H](O)[C@H]1O
REMARK SMILES IDX 7 1 6 2 4 3 31 4 5 5 29 6 27 7 2 8 1 9 3 10 32 11 30 13
REMARK SMILES IDX 28 15 8 17 25 18 9 19 23 20 10 21 22 22 11 23 20 24 12 25
REMARK SMILES IDX 19 26 21 27 26 28 24 30 13 32 14 33 18 34 15 35 17 36 16 37
REMARK H PARENT 32 12 30 14 28 16 26 29 24 31
REMARK Flexibility Score: inf
ROOT
ATOM      1  O   UNL     1       2.856  43.542  83.970  1.00  0.00    -0.458 OA
ENDROOT
BRANCH   1   2
ATOM      2  C   UNL     1       2.436  42.266  83.481  1.00  0.00     0.339 C 
ATOM      3  C   UNL     1       4.271  41.035  84.383  1.00  0.00     0.199 C 
ATOM      4  C   UNL     1       3.381  40.378  85.467  1.00  0.00     0.180 C 
ATOM      5  O   UNL     1       3.543  41.411  83.217  1.00  0.00    -0.328 OA
ATOM      6  C   UNL     1       2.142  41.245  85.764  1.00  0.00     0.181 C 
ATOM      7  C   UNL     1       1.433  41.631  84.462  1.00  0.00     0.214 C 
BRANCH   3   8
ATOM      8  C   UNL     1       5.155  42.155  84.880  1.00  0.00     0.073 C 
ATOM      9  O   UNL     1       5.994  42.714  84.125  1.00  0.00    -0.547 OA
ATOM     10  O   UNL     1       5.047  42.571  86.202  1.00  0.00    -0.547 OA
ENDBRANCH   3   8
BRANCH   4  11
ATOM     11  O   UNL     1       2.989  39.105  85.019  1.00  0.00    -0.387 OA
ATOM     12  H   UNL     1       3.000  39.128  84.026  1.00  0.00     0.211 HD
ENDBRANCH   4  11
BRANCH   6  13
ATOM     13  O   UNL     1       1.247  40.564  86.605  1.00  0.00    -0.387 OA
ATOM     14  H   UNL     1       0.554  41.220  86.877  1.00  0.00     0.211 HD
ENDBRANCH   6  13
BRANCH   7  15
ATOM     15  O   UNL     1       0.843  40.495  83.880  1.00  0.00    -0.384 OA
ATOM     16  H   UNL     1       0.107  40.819  83.297  1.00  0.00     0.211 HD
ENDBRANCH   7  15
ENDBRANCH   1   2
BRANCH   1  17
ATOM     17  C   UNL     1       2.046  44.637  84.331  1.00  0.00     0.172 A 
ATOM     18  C   UNL     1       1.996  45.208  85.629  1.00  0.00     0.201 A 
ATOM     19  C   UNL     1       1.239  45.160  83.320  1.00  0.00     0.098 A 
ATOM     20  C   UNL     1       1.146  46.319  85.876  1.00  0.00     0.176 A 
ATOM     21  C   UNL     1       0.381  46.229  83.559  1.00  0.00     0.146 A 
ATOM     22  C   UNL     1       0.321  46.820  84.838  1.00  0.00     0.111 A 
ATOM     23  O   UNL     1      -0.375  46.683  82.564  1.00  0.00    -0.456 OA
ATOM     24  C   UNL     1      -0.573  47.899  85.013  1.00  0.00     0.197 A 
ATOM     25  C   UNL     1      -1.220  47.702  82.693  1.00  0.00     0.138 A 
ATOM     26  C   UNL     1      -1.346  48.338  83.937  1.00  0.00     0.100 A 
ATOM     27  O   UNL     1      -0.699  48.478  86.126  1.00  0.00    -0.289 OA
BRANCH  18  28
ATOM     28  O   UNL     1       2.777  44.658  86.647  1.00  0.00    -0.502 OA
ATOM     29  H   UNL     1       3.486  43.953  86.514  1.00  0.00     0.293 HD
ENDBRANCH  18  28
BRANCH  20  30
ATOM     30  O   UNL     1       1.110  46.946  87.127  1.00  0.00    -0.504 OA
ATOM     31  H   UNL     1       1.595  46.619  87.950  1.00  0.00     0.293 HD
ENDBRANCH  20  30
BRANCH  25  32
ATOM     32  C   UNL     1      -2.016  48.124  81.512  1.00  0.00     0.017 A 
ATOM     33  C   UNL     1      -3.405  48.344  81.594  1.00  0.00     0.012 A 
ATOM     34  C   UNL     1      -1.366  48.341  80.282  1.00  0.00     0.012 A 
ATOM     35  C   UNL     1      -4.125  48.750  80.466  1.00  0.00     0.001 A 
ATOM     36  C   UNL     1      -2.092  48.747  79.157  1.00  0.00     0.001 A 
ATOM     37  C   UNL     1      -3.471  48.948  79.249  1.00  0.00     0.000 A 
ENDBRANCH  25  32
ENDBRANCH   1  17
TORSDOF 9
ENDMDL
MODEL 5
REMARK VINA RESULT:    -6.843      1.257      2.566
REMARK INTER + INTRA:         -10.310
REMARK INTER:                  -9.476
REMARK INTRA:                  -0.835
REMARK UNBOUND:                -0.866
REMARK SMILES O=C([O-])[C@@H]1O[C@H](Oc2cc3oc(-c4ccccc4)cc(=O)c3c(O)c2O)[C@@H](O)[C@@H](O)[C@H]1O
REMARK SMILES IDX 7 1 6 2 4 3 31 4 5 5 29 6 27 7 2 8 1 9 3 10 32 11 30 13
REMARK SMILES IDX 28 15 8 17 25 18 9 19 23 20 10 21 22 22 11 23 20 24 12 25
REMARK SMILES IDX 19 26 21 27 26 28 24 30 13 32 14 33 18 34 15 35 17 36 16 37
REMARK H PARENT 32 12 30 14 28 16 26 29 24 31
REMARK Flexibility Score: inf
ROOT
ATOM      1  O   UNL     1       2.599  43.986  84.641  1.00  0.00    -0.458 OA
ENDROOT
BRANCH   1   2
ATOM      2  C   UNL     1       3.607  44.192  85.633  1.00  0.00     0.339 C 
ATOM      3  C   UNL     1       3.312  42.095  86.733  1.00  0.00     0.199 C 
ATOM      4  C   UNL     1       4.648  41.542  86.177  1.00  0.00     0.180 C 
ATOM      5  O   UNL     1       3.301  43.515  86.848  1.00  0.00    -0.328 OA
ATOM      6  C   UNL     1       5.050  42.271  84.880  1.00  0.00     0.181 C 
ATOM      7  C   UNL     1       4.985  43.789  85.076  1.00  0.00     0.214 C 
BRANCH   3   8
ATOM      8  C   UNL     1       2.074  41.575  86.040  1.00  0.00     0.073 C 
ATOM      9  O   UNL     1       2.148  40.731  85.108  1.00  0.00    -0.547 OA
ATOM     10  O   UNL     1       0.827  42.045  86.432  1.00  0.00    -0.547 OA
ENDBRANCH   3   8
BRANCH   4  11
ATOM     11  O   UNL     1       5.645  41.703  87.156  1.00  0.00    -0.387 OA
ATOM     12  H   UNL     1       5.557  42.625  87.514  1.00  0.00     0.211 HD
ENDBRANCH   4  11
BRANCH   6  13
ATOM     13  O   UNL     1       6.345  41.901  84.482  1.00  0.00    -0.387 OA
ATOM     14  H   UNL     1       6.414  40.919  84.608  1.00  0.00     0.211 HD
ENDBRANCH   6  13
BRANCH   7  15
ATOM     15  O   UNL     1       6.001  44.205  85.953  1.00  0.00    -0.384 OA
ATOM     16  H   UNL     1       6.713  43.514  85.919  1.00  0.00     0.211 HD
ENDBRANCH   7  15
ENDBRANCH   1   2
BRANCH   1  17
ATOM     17  C   UNL     1       1.620  44.899  84.203  1.00  0.00     0.172 A 
ATOM     18  C   UNL     1       0.917  45.794  85.051  1.00  0.00     0.201 A 
ATOM     19  C   UNL     1       1.339  44.886  82.836  1.00  0.00     0.098 A 
ATOM     20  C   UNL     1      -0.045  46.680  84.495  1.00  0.00     0.176 A 
ATOM     21  C   UNL     1       0.379  45.728  82.286  1.00  0.00     0.146 A 
ATOM     22  C   UNL     1      -0.326  46.633  83.107  1.00  0.00     0.111 A 
ATOM     23  O   UNL     1       0.141  45.668  80.980  1.00  0.00    -0.456 OA
ATOM     24  C   UNL     1      -1.290  47.458  82.485  1.00  0.00     0.197 A 
ATOM     25  C   UNL     1      -0.752  46.436  80.361  1.00  0.00     0.138 A 
ATOM     26  C   UNL     1      -1.503  47.355  81.109  1.00  0.00     0.100 A 
ATOM     27  O   UNL     1      -1.974  48.286  83.144  1.00  0.00    -0.289 OA
BRANCH  18  28
ATOM     28  O   UNL     1       1.174  45.779  86.422  1.00  0.00    -0.502 OA
ATOM     29  H   UNL     1       0.507  45.517  87.132  1.00  0.00     0.293 HD
ENDBRANCH  18  28
BRANCH  20  30
ATOM     30  O   UNL     1      -0.719  47.616  85.288  1.00  0.00    -0.504 OA
ATOM     31  H   UNL     1      -1.539  47.417  85.842  1.00  0.00     0.293 HD
ENDBRANCH  20  30
BRANCH  25  32
ATOM     32  C   UNL     1      -0.935  46.282  78.896  1.00  0.00     0.017 A 
ATOM     33  C   UNL     1      -0.336  47.165  77.976  1.00  0.00     0.012 A 
ATOM     34  C   UNL     1      -1.701  45.208  78.404  1.00  0.00     0.012 A 
ATOM     35  C   UNL     1      -0.519  46.987  76.602  1.00  0.00     0.001 A 
ATOM     36  C   UNL     1      -1.881  45.036  77.028  1.00  0.00     0.001 A 
ATOM     37  C   UNL     1      -1.293  45.926  76.128  1.00  0.00     0.000 A 
ENDBRANCH  25  32
ENDBRANCH   1  17
TORSDOF 9
ENDMDL
MODEL 6
REMARK VINA RESULT:    -6.830      2.134      4.147
REMARK INTER + INTRA:         -10.291
REMARK INTER:                  -9.445
REMARK INTRA:                  -0.847
REMARK UNBOUND:                -0.866
REMARK SMILES O=C([O-])[C@@H]1O[C@H](Oc2cc3oc(-c4ccccc4)cc(=O)c3c(O)c2O)[C@@H](O)[C@@H](O)[C@H]1O
REMARK SMILES IDX 7 1 6 2 4 3 31 4 5 5 29 6 27 7 2 8 1 9 3 10 32 11 30 13
REMARK SMILES IDX 28 15 8 17 25 18 9 19 23 20 10 21 22 22 11 23 20 24 12 25
REMARK SMILES IDX 19 26 21 27 26 28 24 30 13 32 14 33 18 34 15 35 17 36 16 37
REMARK H PARENT 32 12 30 14 28 16 26 29 24 31
REMARK Flexibility Score: inf
ROOT
ATOM      1  O   UNL     1       3.753  41.734  83.570  1.00  0.00    -0.458 OA
ENDROOT
BRANCH   1   2
ATOM      2  C   UNL     1       3.698  40.642  84.491  1.00  0.00     0.339 C 
ATOM      3  C   UNL     1       5.191  41.587  86.093  1.00  0.00     0.199 C 
ATOM      4  C   UNL     1       4.044  41.866  87.095  1.00  0.00     0.180 C 
ATOM      5  O   UNL     1       4.915  40.500  85.216  1.00  0.00    -0.328 OA
ATOM      6  C   UNL     1       2.692  41.988  86.365  1.00  0.00     0.181 C 
ATOM      7  C   UNL     1       2.482  40.799  85.422  1.00  0.00     0.214 C 
BRANCH   3   8
ATOM      8  C   UNL     1       5.688  42.803  85.345  1.00  0.00     0.073 C 
ATOM      9  O   UNL     1       6.615  42.718  84.496  1.00  0.00    -0.547 OA
ATOM     10  O   UNL     1       5.117  44.043  85.604  1.00  0.00    -0.547 OA
ENDBRANCH   3   8
BRANCH   4  11
ATOM     11  O   UNL     1       3.999  40.818  88.032  1.00  0.00    -0.387 OA
ATOM     12  H   UNL     1       4.402  41.160  88.872  1.00  0.00     0.211 HD
ENDBRANCH   4  11
BRANCH   6  13
ATOM     13  O   UNL     1       1.633  42.053  87.286  1.00  0.00    -0.387 OA
ATOM     14  H   UNL     1       1.288  42.983  87.261  1.00  0.00     0.211 HD
ENDBRANCH   6  13
BRANCH   7  15
ATOM     15  O   UNL     1       2.290  39.622  86.166  1.00  0.00    -0.384 OA
ATOM     16  H   UNL     1       1.333  39.373  86.071  1.00  0.00     0.211 HD
ENDBRANCH   7  15
ENDBRANCH   1   2
BRANCH   1  17
ATOM     17  C   UNL     1       2.674  42.400  82.957  1.00  0.00     0.172 A 
ATOM     18  C   UNL     1       1.913  41.879  81.878  1.00  0.00     0.201 A 
ATOM     19  C   UNL     1       2.370  43.665  83.463  1.00  0.00     0.098 A 
ATOM     20  C   UNL     1       0.838  42.639  81.344  1.00  0.00     0.176 A 
ATOM     21  C   UNL     1       1.338  44.430  82.928  1.00  0.00     0.146 A 
ATOM     22  C   UNL     1       0.562  43.929  81.862  1.00  0.00     0.111 A 
ATOM     23  O   UNL     1       1.097  45.633  83.439  1.00  0.00    -0.456 OA
ATOM     24  C   UNL     1      -0.468  44.759  81.364  1.00  0.00     0.197 A 
ATOM     25  C   UNL     1       0.130  46.435  83.000  1.00  0.00     0.138 A 
ATOM     26  C   UNL     1      -0.681  46.015  81.935  1.00  0.00     0.100 A 
ATOM     27  O   UNL     1      -1.202  44.396  80.406  1.00  0.00    -0.289 OA
BRANCH  18  28
ATOM     28  O   UNL     1       2.244  40.630  81.351  1.00  0.00    -0.502 OA
ATOM     29  H   UNL     1       1.581  39.900  81.137  1.00  0.00     0.293 HD
ENDBRANCH  18  28
BRANCH  20  30
ATOM     30  O   UNL     1       0.029  42.138  80.318  1.00  0.00    -0.504 OA
ATOM     31  H   UNL     1       0.005  41.173  80.022  1.00  0.00     0.293 HD
ENDBRANCH  20  30
BRANCH  25  32
ATOM     32  C   UNL     1      -0.048  47.759  83.646  1.00  0.00     0.017 A 
ATOM     33  C   UNL     1      -0.317  48.921  82.896  1.00  0.00     0.012 A 
ATOM     34  C   UNL     1       0.021  47.859  85.049  1.00  0.00     0.012 A 
ATOM     35  C   UNL     1      -0.489  50.153  83.535  1.00  0.00     0.001 A 
ATOM     36  C   UNL     1      -0.151  49.094  85.683  1.00  0.00     0.001 A 
ATOM     37  C   UNL     1      -0.403  50.240  84.926  1.00  0.00     0.000 A 
ENDBRANCH  25  32
ENDBRANCH   1  17
TORSDOF 9
ENDMDL
MODEL 7
REMARK VINA RESULT:    -6.688      2.771      8.661
REMARK INTER + INTRA:         -10.096
REMARK INTER:                  -8.923
REMARK INTRA:                  -1.173
REMARK UNBOUND:                -0.866
REMARK SMILES O=C([O-])[C@@H]1O[C@H](Oc2cc3oc(-c4ccccc4)cc(=O)c3c(O)c2O)[C@@H](O)[C@@H](O)[C@H]1O
REMARK SMILES IDX 7 1 6 2 4 3 31 4 5 5 29 6 27 7 2 8 1 9 3 10 32 11 30 13
REMARK SMILES IDX 28 15 8 17 25 18 9 19 23 20 10 21 22 22 11 23 20 24 12 25
REMARK SMILES IDX 19 26 21 27 26 28 24 30 13 32 14 33 18 34 15 35 17 36 16 37
REMARK H PARENT 32 12 30 14 28 16 26 29 24 31
REMARK Flexibility Score: inf
ROOT
ATOM      1  O   UNL     1      -0.597  46.361  83.192  1.00  0.00    -0.458 OA
ENDROOT
BRANCH   1   2
ATOM      2  C   UNL     1       0.000  47.480  83.851  1.00  0.00     0.339 C 
ATOM      3  C   UNL     1      -1.616  49.084  83.138  1.00  0.00     0.199 C 
ATOM      4  C   UNL     1      -2.233  49.189  84.555  1.00  0.00     0.180 C 
ATOM      5  O   UNL     1      -0.245  48.697  83.153  1.00  0.00    -0.328 OA
ATOM      6  C   UNL     1      -1.960  47.910  85.371  1.00  0.00     0.181 C 
ATOM      7  C   UNL     1      -0.474  47.545  85.315  1.00  0.00     0.214 C 
BRANCH   3   8
ATOM      8  C   UNL     1      -2.422  48.267  82.155  1.00  0.00     0.073 C 
ATOM      9  O   UNL     1      -3.557  47.810  82.456  1.00  0.00    -0.547 OA
ATOM     10  O   UNL     1      -1.897  48.007  80.895  1.00  0.00    -0.547 OA
ENDBRANCH   3   8
BRANCH   4  11
ATOM     11  O   UNL     1      -1.683  50.308  85.205  1.00  0.00    -0.387 OA
ATOM     12  H   UNL     1      -2.094  50.353  86.108  1.00  0.00     0.211 HD
ENDBRANCH   4  11
BRANCH   6  13
ATOM     13  O   UNL     1      -2.355  48.080  86.709  1.00  0.00    -0.387 OA
ATOM     14  H   UNL     1      -3.027  47.375  86.901  1.00  0.00     0.211 HD
ENDBRANCH   6  13
BRANCH   7  15
ATOM     15  O   UNL     1       0.283  48.492  86.025  1.00  0.00    -0.384 OA
ATOM     16  H   UNL     1       1.181  48.094  86.172  1.00  0.00     0.211 HD
ENDBRANCH   7  15
ENDBRANCH   1   2
BRANCH   1  17
ATOM     17  C   UNL     1       0.029  45.168  82.780  1.00  0.00     0.172 A 
ATOM     18  C   UNL     1      -0.174  44.545  81.521  1.00  0.00     0.201 A 
ATOM     19  C   UNL     1       0.890  44.578  83.706  1.00  0.00     0.098 A 
ATOM     20  C   UNL     1       0.520  43.345  81.210  1.00  0.00     0.176 A 
ATOM     21  C   UNL     1       1.552  43.388  83.423  1.00  0.00     0.146 A 
ATOM     22  C   UNL     1       1.374  42.755  82.175  1.00  0.00     0.111 A 
ATOM     23  O   UNL     1       2.353  42.861  84.344  1.00  0.00    -0.456 OA
ATOM     24  C   UNL     1       2.073  41.548  81.953  1.00  0.00     0.197 A 
ATOM     25  C   UNL     1       3.033  41.732  84.164  1.00  0.00     0.138 A 
ATOM     26  C   UNL     1       2.902  41.036  82.953  1.00  0.00     0.100 A 
ATOM     27  O   UNL     1       1.962  40.910  80.872  1.00  0.00    -0.289 OA
BRANCH  18  28
ATOM     28  O   UNL     1      -1.065  45.118  80.613  1.00  0.00    -0.502 OA
ATOM     29  H   UNL     1      -1.720  45.855  80.831  1.00  0.00     0.293 HD
ENDBRANCH  18  28
BRANCH  20  30
ATOM     30  O   UNL     1       0.390  42.731  79.959  1.00  0.00    -0.504 OA
ATOM     31  H   UNL     1       0.618  43.165  79.077  1.00  0.00     0.293 HD
ENDBRANCH  20  30
BRANCH  25  32
ATOM     32  C   UNL     1       3.898  41.236  85.264  1.00  0.00     0.017 A 
ATOM     33  C   UNL     1       4.227  42.043  86.371  1.00  0.00     0.012 A 
ATOM     34  C   UNL     1       4.383  39.915  85.220  1.00  0.00     0.012 A 
ATOM     35  C   UNL     1       5.037  41.544  87.395  1.00  0.00     0.001 A 
ATOM     36  C   UNL     1       5.194  39.422  86.248  1.00  0.00     0.001 A 
ATOM     37  C   UNL     1       5.522  40.237  87.333  1.00  0.00     0.000 A 
ENDBRANCH  25  32
ENDBRANCH   1  17
TORSDOF 9
ENDMDL
MODEL 8
REMARK VINA RESULT:    -6.632      3.821      6.940
REMARK INTER + INTRA:         -10.018
REMARK INTER:                  -8.786
REMARK INTRA:                  -1.232
REMARK UNBOUND:                -0.866
REMARK SMILES O=C([O-])[C@@H]1O[C@H](Oc2cc3oc(-c4ccccc4)cc(=O)c3c(O)c2O)[C@@H](O)[C@@H](O)[C@H]1O
REMARK SMILES IDX 7 1 6 2 4 3 31 4 5 5 29 6 27 7 2 8 1 9 3 10 32 11 30 13
REMARK SMILES IDX 28 15 8 17 25 18 9 19 23 20 10 21 22 22 11 23 20 24 12 25
REMARK SMILES IDX 19 26 21 27 26 28 24 30 13 32 14 33 18 34 15 35 17 36 16 37
REMARK H PARENT 32 12 30 14 28 16 26 29 24 31
REMARK Flexibility Score: inf
ROOT
ATOM      1  O   UNL     1       6.785  37.939  87.440  1.00  0.00    -0.458 OA
ENDROOT
BRANCH   1   2
ATOM      2  C   UNL     1       7.672  37.505  86.406  1.00  0.00     0.339 C 
ATOM      3  C   UNL     1       9.460  36.875  87.855  1.00  0.00     0.199 C 
ATOM      4  C   UNL     1       9.209  35.365  87.614  1.00  0.00     0.180 C 
ATOM      5  O   UNL     1       9.037  37.692  86.768  1.00  0.00    -0.328 OA
ATOM      6  C   UNL     1       7.753  35.111  87.179  1.00  0.00     0.181 C 
ATOM      7  C   UNL     1       7.366  36.045  86.028  1.00  0.00     0.214 C 
BRANCH   3   8
ATOM      8  C   UNL     1       8.957  37.397  89.181  1.00  0.00     0.073 C 
ATOM      9  O   UNL     1       9.147  38.592  89.531  1.00  0.00    -0.547 OA
ATOM     10  O   UNL     1       8.278  36.539  90.037  1.00  0.00    -0.547 OA
ENDBRANCH   3   8
BRANCH   4  11
ATOM     11  O   UNL     1      10.100  34.913  86.624  1.00  0.00    -0.387 OA
ATOM     12  H   UNL     1       9.551  34.582  85.866  1.00  0.00     0.211 HD
ENDBRANCH   4  11
BRANCH   6  13
ATOM     13  O   UNL     1       7.578  33.774  86.782  1.00  0.00    -0.387 OA
ATOM     14  H   UNL     1       6.747  33.743  86.241  1.00  0.00     0.211 HD
ENDBRANCH   6  13
BRANCH   7  15
ATOM     15  O   UNL     1       8.068  35.691  84.864  1.00  0.00    -0.384 OA
ATOM     16  H   UNL     1       8.917  35.267  85.156  1.00  0.00     0.211 HD
ENDBRANCH   7  15
ENDBRANCH   1   2
BRANCH   1  17
ATOM     17  C   UNL     1       5.930  39.059  87.430  1.00  0.00     0.172 A 
ATOM     18  C   UNL     1       5.675  39.888  88.553  1.00  0.00     0.201 A 
ATOM     19  C   UNL     1       5.296  39.333  86.217  1.00  0.00     0.098 A 
ATOM     20  C   UNL     1       4.798  40.998  88.423  1.00  0.00     0.176 A 
ATOM     21  C   UNL     1       4.414  40.399  86.087  1.00  0.00     0.146 A 
ATOM     22  C   UNL     1       4.151  41.243  87.186  1.00  0.00     0.111 A 
ATOM     23  O   UNL     1       3.827  40.610  84.913  1.00  0.00    -0.456 OA
ATOM     24  C   UNL     1       3.242  42.306  86.986  1.00  0.00     0.197 A 
ATOM     25  C   UNL     1       2.974  41.607  84.688  1.00  0.00     0.138 A 
ATOM     26  C   UNL     1       2.652  42.485  85.734  1.00  0.00     0.100 A 
ATOM     27  O   UNL     1       2.941  43.101  87.917  1.00  0.00    -0.289 OA
BRANCH  18  28
ATOM     28  O   UNL     1       6.282  39.589  89.774  1.00  0.00    -0.502 OA
ATOM     29  H   UNL     1       6.634  38.680  90.037  1.00  0.00     0.293 HD
ENDBRANCH  18  28
BRANCH  20  30
ATOM     30  O   UNL     1       4.564  41.872  89.491  1.00  0.00    -0.504 OA
ATOM     31  H   UNL     1       4.318  41.585  90.427  1.00  0.00     0.293 HD
ENDBRANCH  20  30
BRANCH  25  32
ATOM     32  C   UNL     1       2.378  41.746  83.336  1.00  0.00     0.017 A 
ATOM     33  C   UNL     1       2.602  40.791  82.324  1.00  0.00     0.012 A 
ATOM     34  C   UNL     1       1.541  42.843  83.058  1.00  0.00     0.012 A 
ATOM     35  C   UNL     1       2.018  40.946  81.063  1.00  0.00     0.001 A 
ATOM     36  C   UNL     1       0.961  42.993  81.794  1.00  0.00     0.001 A 
ATOM     37  C   UNL     1       1.202  42.046  80.797  1.00  0.00     0.000 A 
ENDBRANCH  25  32
ENDBRANCH   1  17
TORSDOF 9
ENDMDL
MODEL 9
REMARK VINA RESULT:    -6.593      2.338      4.735
REMARK INTER + INTRA:          -9.964
REMARK INTER:                  -8.884
REMARK INTRA:                  -1.080
REMARK UNBOUND:                -0.866
REMARK SMILES O=C([O-])[C@@H]1O[C@H](Oc2cc3oc(-c4ccccc4)cc(=O)c3c(O)c2O)[C@@H](O)[C@@H](O)[C@H]1O
REMARK SMILES IDX 7 1 6 2 4 3 31 4 5 5 29 6 27 7 2 8 1 9 3 10 32 11 30 13
REMARK SMILES IDX 28 15 8 17 25 18 9 19 23 20 10 21 22 22 11 23 20 24 12 25
REMARK SMILES IDX 19 26 21 27 26 28 24 30 13 32 14 33 18 34 15 35 17 36 16 37
REMARK H PARENT 32 12 30 14 28 16 26 29 24 31
REMARK Flexibility Score: inf
ROOT
ATOM      1  O   UNL     1       3.655  41.412  84.314  1.00  0.00    -0.458 OA
ENDROOT
BRANCH   1   2
ATOM      2  C   UNL     1       3.927  41.608  85.703  1.00  0.00     0.339 C 
ATOM      3  C   UNL     1       2.721  39.696  86.468  1.00  0.00     0.199 C 
ATOM      4  C   UNL     1       4.023  38.931  86.812  1.00  0.00     0.180 C 
ATOM      5  O   UNL     1       2.874  41.111  86.523  1.00  0.00    -0.328 OA
ATOM      6  C   UNL     1       5.208  39.458  85.979  1.00  0.00     0.181 C 
ATOM      7  C   UNL     1       5.288  40.985  86.066  1.00  0.00     0.214 C 
BRANCH   3   8
ATOM      8  C   UNL     1       2.042  39.252  85.193  1.00  0.00     0.073 C 
ATOM      9  O   UNL     1       2.615  38.481  84.378  1.00  0.00    -0.547 OA
ATOM     10  O   UNL     1       0.762  39.710  84.909  1.00  0.00    -0.547 OA
ENDBRANCH   3   8
BRANCH   4  11
ATOM     11  O   UNL     1       4.286  39.082  88.185  1.00  0.00    -0.387 OA
ATOM     12  H   UNL     1       3.618  38.534  88.672  1.00  0.00     0.211 HD
ENDBRANCH   4  11
BRANCH   6  13
ATOM     13  O   UNL     1       6.417  38.896  86.423  1.00  0.00    -0.387 OA
ATOM     14  H   UNL     1       6.370  38.860  87.414  1.00  0.00     0.211 HD
ENDBRANCH   6  13
BRANCH   7  15
ATOM     15  O   UNL     1       5.665  41.375  87.363  1.00  0.00    -0.384 OA
ATOM     16  H   UNL     1       4.985  42.025  87.679  1.00  0.00     0.211 HD
ENDBRANCH   7  15
ENDBRANCH   1   2
BRANCH   1  17
ATOM     17  C   UNL     1       2.745  42.121  83.505  1.00  0.00     0.172 A 
ATOM     18  C   UNL     1       2.211  41.640  82.281  1.00  0.00     0.201 A 
ATOM     19  C   UNL     1       2.378  43.387  83.963  1.00  0.00     0.098 A 
ATOM     20  C   UNL     1       1.292  42.442  81.552  1.00  0.00     0.176 A 
ATOM     21  C   UNL     1       1.502  44.192  83.242  1.00  0.00     0.146 A 
ATOM     22  C   UNL     1       0.950  43.732  82.028  1.00  0.00     0.111 A 
ATOM     23  O   UNL     1       1.193  45.394  83.717  1.00  0.00    -0.456 OA
ATOM     24  C   UNL     1       0.070  44.601  81.345  1.00  0.00     0.197 A 
ATOM     25  C   UNL     1       0.361  46.233  83.104  1.00  0.00     0.138 A 
ATOM     26  C   UNL     1      -0.222  45.854  81.885  1.00  0.00     0.100 A 
ATOM     27  O   UNL     1      -0.459  44.275  80.248  1.00  0.00    -0.289 OA
BRANCH  18  28
ATOM     28  O   UNL     1       2.610  40.390  81.807  1.00  0.00    -0.502 OA
ATOM     29  H   UNL     1       3.389  40.228  81.188  1.00  0.00     0.293 HD
ENDBRANCH  18  28
BRANCH  20  30
ATOM     30  O   UNL     1       0.700  41.981  80.370  1.00  0.00    -0.504 OA
ATOM     31  H   UNL     1       0.677  42.491  79.500  1.00  0.00     0.293 HD
ENDBRANCH  20  30
BRANCH  25  32
ATOM     32  C   UNL     1       0.089  47.552  83.727  1.00  0.00     0.017 A 
ATOM     33  C   UNL     1       0.102  47.730  85.125  1.00  0.00     0.012 A 
ATOM     34  C   UNL     1      -0.159  48.668  82.904  1.00  0.00     0.012 A 
ATOM     35  C   UNL     1      -0.149  48.989  85.680  1.00  0.00     0.001 A 
ATOM     36  C   UNL     1      -0.409  49.923  83.466  1.00  0.00     0.001 A 
ATOM     37  C   UNL     1      -0.407  50.083  84.853  1.00  0.00     0.000 A 
ENDBRANCH  25  32
ENDBRANCH   1  17
TORSDOF 9
ENDMDL
