MODEL 1
REMARK VINA RESULT:    -3.252      0.000      0.000
REMARK INTER + INTRA:          -5.004
REMARK INTER:                  -4.583
REMARK INTRA:                  -0.421
REMARK UNBOUND:                -0.421
REMARK SMILES CCCCCCCC(=O)OC
REMARK SMILES IDX 5 1 4 2 3 3 2 4 1 5 6 6 7 7 8 8 9 9 10 10 11 11
REMARK H PARENT
REMARK Flexibility Score: inf
ROOT
ATOM      1  C   UNL     1      23.898  62.898 106.657  1.00  0.00     0.001 C 
ENDROOT
BRANCH   1   2
ATOM      2  C   UNL     1      24.686  62.875 105.336  1.00  0.00     0.000 C 
BRANCH   2   3
ATOM      3  C   UNL     1      24.232  63.971 104.358  1.00  0.00    -0.000 C 
BRANCH   3   4
ATOM      4  C   UNL     1      23.958  65.309 105.059  1.00  0.00    -0.003 C 
ATOM      5  C   UNL     1      25.258  66.049 105.361  1.00  0.00     0.004 C 
ENDBRANCH   3   4
ENDBRANCH   2   3
ENDBRANCH   1   2
BRANCH   1   6
ATOM      6  C   UNL     1      24.801  63.133 107.879  1.00  0.00     0.012 C 
BRANCH   6   7
ATOM      7  C   UNL     1      24.010  63.558 109.121  1.00  0.00     0.123 C 
BRANCH   7   8
ATOM      8  C   UNL     1      23.005  64.606 108.765  1.00  0.00     0.305 C 
ATOM      9  O   UNL     1      21.780  64.306 108.706  1.00  0.00    -0.252 OA
BRANCH   8  10
ATOM     10  O   UNL     1      23.427  65.921 108.547  1.00  0.00    -0.469 OA
ATOM     11  C   UNL     1      22.608  67.047 108.836  1.00  0.00     0.282 C 
ENDBRANCH   8  10
ENDBRANCH   7   8
ENDBRANCH   6   7
ENDBRANCH   1   6
TORSDOF 7
ENDMDL
MODEL 2
REMARK VINA RESULT:    -2.989     15.135     16.639
REMARK INTER + INTRA:          -4.633
REMARK INTER:                  -4.302
REMARK INTRA:                  -0.331
REMARK UNBOUND:                -0.421
REMARK SMILES CCCCCCCC(=O)OC
REMARK SMILES IDX 5 1 4 2 3 3 2 4 1 5 6 6 7 7 8 8 9 9 10 10 11 11
REMARK H PARENT
REMARK Flexibility Score: inf
ROOT
ATOM      1  C   UNL     1      36.156  63.625  99.503  1.00  0.00     0.001 C 
ENDROOT
BRANCH   1   2
ATOM      2  C   UNL     1      37.210  64.685  99.870  1.00  0.00     0.000 C 
BRANCH   2   3
ATOM      3  C   UNL     1      38.045  65.130  98.659  1.00  0.00    -0.000 C 
BRANCH   3   4
ATOM      4  C   UNL     1      39.268  65.967  99.061  1.00  0.00    -0.003 C 
ATOM      5  C   UNL     1      38.852  67.358  99.529  1.00  0.00     0.004 C 
ENDBRANCH   3   4
ENDBRANCH   2   3
ENDBRANCH   1   2
BRANCH   1   6
ATOM      6  C   UNL     1      36.301  63.124  98.058  1.00  0.00     0.012 C 
BRANCH   6   7
ATOM      7  C   UNL     1      34.993  63.224  97.265  1.00  0.00     0.123 C 
BRANCH   7   8
ATOM      8  C   UNL     1      35.276  63.530  95.829  1.00  0.00     0.305 C 
ATOM      9  O   UNL     1      34.418  63.249  94.947  1.00  0.00    -0.252 OA
BRANCH   8  10
ATOM     10  O   UNL     1      36.470  64.168  95.483  1.00  0.00    -0.469 OA
ATOM     11  C   UNL     1      37.373  63.636  94.522  1.00  0.00     0.282 C 
ENDBRANCH   8  10
ENDBRANCH   7   8
ENDBRANCH   6   7
ENDBRANCH   1   6
TORSDOF 7
ENDMDL
MODEL 3
REMARK VINA RESULT:    -2.897     15.297     16.473
REMARK INTER + INTRA:          -4.504
REMARK INTER:                  -4.240
REMARK INTRA:                  -0.263
REMARK UNBOUND:                -0.421
REMARK SMILES CCCCCCCC(=O)OC
REMARK SMILES IDX 5 1 4 2 3 3 2 4 1 5 6 6 7 7 8 8 9 9 10 10 11 11
REMARK H PARENT
REMARK Flexibility Score: inf
ROOT
ATOM      1  C   UNL     1      36.493  63.550  96.888  1.00  0.00     0.001 C 
ENDROOT
BRANCH   1   2
ATOM      2  C   UNL     1      35.066  63.233  96.409  1.00  0.00     0.000 C 
BRANCH   2   3
ATOM      3  C   UNL     1      34.959  63.163  94.877  1.00  0.00    -0.000 C 
BRANCH   3   4
ATOM      4  C   UNL     1      36.038  63.996  94.171  1.00  0.00    -0.003 C 
ATOM      5  C   UNL     1      36.864  63.133  93.221  1.00  0.00     0.004 C 
ENDBRANCH   3   4
ENDBRANCH   2   3
ENDBRANCH   1   2
BRANCH   1   6
ATOM      6  C   UNL     1      36.780  62.999  98.294  1.00  0.00     0.012 C 
BRANCH   6   7
ATOM      7  C   UNL     1      36.486  64.020  99.398  1.00  0.00     0.123 C 
BRANCH   7   8
ATOM      8  C   UNL     1      37.720  64.798  99.731  1.00  0.00     0.305 C 
ATOM      9  O   UNL     1      38.476  64.406 100.662  1.00  0.00    -0.252 OA
BRANCH   8  10
ATOM     10  O   UNL     1      38.047  65.927  98.974  1.00  0.00    -0.469 OA
ATOM     11  C   UNL     1      38.756  67.033  99.517  1.00  0.00     0.282 C 
ENDBRANCH   8  10
ENDBRANCH   7   8
ENDBRANCH   6   7
ENDBRANCH   1   6
TORSDOF 7
ENDMDL
MODEL 4
REMARK VINA RESULT:    -2.873     16.108     18.067
REMARK INTER + INTRA:          -4.470
REMARK INTER:                  -3.951
REMARK INTRA:                  -0.519
REMARK UNBOUND:                -0.421
REMARK SMILES CCCCCCCC(=O)OC
REMARK SMILES IDX 5 1 4 2 3 3 2 4 1 5 6 6 7 7 8 8 9 9 10 10 11 11
REMARK H PARENT
REMARK Flexibility Score: inf
ROOT
ATOM      1  C   UNL     1      21.595  81.118 101.878  1.00  0.00     0.001 C 
ENDROOT
BRANCH   1   2
ATOM      2  C   UNL     1      20.163  80.628 102.153  1.00  0.00     0.000 C 
BRANCH   2   3
ATOM      3  C   UNL     1      20.130  79.243 102.820  1.00  0.00    -0.000 C 
BRANCH   3   4
ATOM      4  C   UNL     1      20.849  78.172 101.988  1.00  0.00    -0.003 C 
ATOM      5  C   UNL     1      20.049  77.819 100.737  1.00  0.00     0.004 C 
ENDBRANCH   3   4
ENDBRANCH   2   3
ENDBRANCH   1   2
BRANCH   1   6
ATOM      6  C   UNL     1      21.719  81.854 100.534  1.00  0.00     0.012 C 
BRANCH   6   7
ATOM      7  C   UNL     1      21.111  81.061  99.371  1.00  0.00     0.123 C 
BRANCH   7   8
ATOM      8  C   UNL     1      22.150  80.778  98.334  1.00  0.00     0.305 C 
ATOM      9  O   UNL     1      21.813  80.267  97.231  1.00  0.00    -0.252 OA
BRANCH   8  10
ATOM     10  O   UNL     1      23.482  81.127  98.579  1.00  0.00    -0.469 OA
ATOM     11  C   UNL     1      24.233  81.952  97.699  1.00  0.00     0.282 C 
ENDBRANCH   8  10
ENDBRANCH   7   8
ENDBRANCH   6   7
ENDBRANCH   1   6
TORSDOF 7
ENDMDL
MODEL 5
REMARK VINA RESULT:    -2.814     15.182     16.776
REMARK INTER + INTRA:          -4.386
REMARK INTER:                  -3.945
REMARK INTRA:                  -0.441
REMARK UNBOUND:                -0.421
REMARK SMILES CCCCCCCC(=O)OC
REMARK SMILES IDX 5 1 4 2 3 3 2 4 1 5 6 6 7 7 8 8 9 9 10 10 11 11
REMARK H PARENT
REMARK Flexibility Score: inf
ROOT
ATOM      1  C   UNL     1      38.374  64.438  95.793  1.00  0.00     0.001 C 
ENDROOT
BRANCH   1   2
ATOM      2  C   UNL     1      36.920  64.847  95.501  1.00  0.00     0.000 C 
BRANCH   2   3
ATOM      3  C   UNL     1      36.274  63.987  94.403  1.00  0.00    -0.000 C 
BRANCH   3   4
ATOM      4  C   UNL     1      35.189  63.049  94.950  1.00  0.00    -0.003 C 
ATOM      5  C   UNL     1      34.935  63.308  96.432  1.00  0.00     0.004 C 
ENDBRANCH   3   4
ENDBRANCH   2   3
ENDBRANCH   1   2
BRANCH   1   6
ATOM      6  C   UNL     1      38.645  64.256  97.296  1.00  0.00     0.012 C 
BRANCH   6   7
ATOM      7  C   UNL     1      37.939  65.312  98.153  1.00  0.00     0.123 C 
BRANCH   7   8
ATOM      8  C   UNL     1      38.226  65.083  99.603  1.00  0.00     0.305 C 
ATOM      9  O   UNL     1      39.380  65.315 100.058  1.00  0.00    -0.252 OA
BRANCH   8  10
ATOM     10  O   UNL     1      37.198  64.658 100.450  1.00  0.00    -0.469 OA
ATOM     11  C   UNL     1      36.346  63.565 100.133  1.00  0.00     0.282 C 
ENDBRANCH   8  10
ENDBRANCH   7   8
ENDBRANCH   6   7
ENDBRANCH   1   6
TORSDOF 7
ENDMDL
MODEL 6
REMARK VINA RESULT:    -2.715     15.784     17.517
REMARK INTER + INTRA:          -4.246
REMARK INTER:                  -3.910
REMARK INTRA:                  -0.336
REMARK UNBOUND:                -0.421
REMARK SMILES CCCCCCCC(=O)OC
REMARK SMILES IDX 5 1 4 2 3 3 2 4 1 5 6 6 7 7 8 8 9 9 10 10 11 11
REMARK H PARENT
REMARK Flexibility Score: inf
ROOT
ATOM      1  C   UNL     1      22.133  80.904 100.089  1.00  0.00     0.001 C 
ENDROOT
BRANCH   1   2
ATOM      2  C   UNL     1      21.564  82.012  99.186  1.00  0.00     0.000 C 
BRANCH   2   3
ATOM      3  C   UNL     1      22.318  82.131  97.851  1.00  0.00    -0.000 C 
BRANCH   3   4
ATOM      4  C   UNL     1      23.644  81.358  97.852  1.00  0.00    -0.003 C 
ATOM      5  C   UNL     1      24.828  82.296  97.636  1.00  0.00     0.004 C 
ENDBRANCH   3   4
ENDBRANCH   2   3
ENDBRANCH   1   2
BRANCH   1   6
ATOM      6  C   UNL     1      21.758  81.097 101.567  1.00  0.00     0.012 C 
BRANCH   6   7
ATOM      7  C   UNL     1      20.559  80.240 101.987  1.00  0.00     0.123 C 
BRANCH   7   8
ATOM      8  C   UNL     1      21.022  78.918 102.512  1.00  0.00     0.305 C 
ATOM      9  O   UNL     1      21.549  78.848 103.657  1.00  0.00    -0.252 OA
BRANCH   8  10
ATOM     10  O   UNL     1      20.824  77.765 101.748  1.00  0.00    -0.469 OA
ATOM     11  C   UNL     1      20.164  77.784 100.489  1.00  0.00     0.282 C 
ENDBRANCH   8  10
ENDBRANCH   7   8
ENDBRANCH   6   7
ENDBRANCH   1   6
TORSDOF 7
ENDMDL
MODEL 7
REMARK VINA RESULT:    -2.668     15.576     17.154
REMARK INTER + INTRA:          -4.180
REMARK INTER:                  -3.780
REMARK INTRA:                  -0.400
REMARK UNBOUND:                -0.421
REMARK SMILES CCCCCCCC(=O)OC
REMARK SMILES IDX 5 1 4 2 3 3 2 4 1 5 6 6 7 7 8 8 9 9 10 10 11 11
REMARK H PARENT
REMARK Flexibility Score: inf
ROOT
ATOM      1  C   UNL     1      21.290  79.217 103.230  1.00  0.00     0.001 C 
ENDROOT
BRANCH   1   2
ATOM      2  C   UNL     1      20.489  78.007 102.718  1.00  0.00     0.000 C 
BRANCH   2   3
ATOM      3  C   UNL     1      20.550  77.862 101.188  1.00  0.00    -0.000 C 
BRANCH   3   4
ATOM      4  C   UNL     1      19.875  79.031 100.458  1.00  0.00    -0.003 C 
ATOM      5  C   UNL     1      20.293  79.078  98.991  1.00  0.00     0.004 C 
ENDBRANCH   3   4
ENDBRANCH   2   3
ENDBRANCH   1   2
BRANCH   1   6
ATOM      6  C   UNL     1      20.493  80.073 104.226  1.00  0.00     0.012 C 
BRANCH   6   7
ATOM      7  C   UNL     1      19.977  81.375 103.603  1.00  0.00     0.123 C 
BRANCH   7   8
ATOM      8  C   UNL     1      21.093  82.358 103.452  1.00  0.00     0.305 C 
ATOM      9  O   UNL     1      21.388  83.124 104.411  1.00  0.00    -0.252 OA
BRANCH   8  10
ATOM     10  O   UNL     1      21.831  82.387 102.265  1.00  0.00    -0.469 OA
ATOM     11  C   UNL     1      21.229  82.585 100.993  1.00  0.00     0.282 C 
ENDBRANCH   8  10
ENDBRANCH   7   8
ENDBRANCH   6   7
ENDBRANCH   1   6
TORSDOF 7
ENDMDL
MODEL 8
REMARK VINA RESULT:    -2.612     16.247     18.014
REMARK INTER + INTRA:          -4.101
REMARK INTER:                  -3.676
REMARK INTRA:                  -0.425
REMARK UNBOUND:                -0.421
REMARK SMILES CCCCCCCC(=O)OC
REMARK SMILES IDX 5 1 4 2 3 3 2 4 1 5 6 6 7 7 8 8 9 9 10 10 11 11
REMARK H PARENT
REMARK Flexibility Score: inf
ROOT
ATOM      1  C   UNL     1      20.837  79.603 100.841  1.00  0.00     0.001 C 
ENDROOT
BRANCH   1   2
ATOM      2  C   UNL     1      20.087  79.540 102.183  1.00  0.00     0.000 C 
BRANCH   2   3
ATOM      3  C   UNL     1      20.966  79.007 103.326  1.00  0.00    -0.000 C 
BRANCH   3   4
ATOM      4  C   UNL     1      20.750  79.768 104.641  1.00  0.00    -0.003 C 
ATOM      5  C   UNL     1      20.498  81.251 104.383  1.00  0.00     0.004 C 
ENDBRANCH   3   4
ENDBRANCH   2   3
ENDBRANCH   1   2
BRANCH   1   6
ATOM      6  C   UNL     1      21.874  80.737 100.797  1.00  0.00     0.012 C 
BRANCH   6   7
ATOM      7  C   UNL     1      21.618  81.724  99.652  1.00  0.00     0.123 C 
BRANCH   7   8
ATOM      8  C   UNL     1      22.338  81.285  98.416  1.00  0.00     0.305 C 
ATOM      9  O   UNL     1      23.599  81.223  98.414  1.00  0.00    -0.252 OA
BRANCH   8  10
ATOM     10  O   UNL     1      21.604  80.903  97.290  1.00  0.00    -0.469 OA
ATOM     11  C   UNL     1      21.060  79.599  97.136  1.00  0.00     0.282 C 
ENDBRANCH   8  10
ENDBRANCH   7   8
ENDBRANCH   6   7
ENDBRANCH   1   6
TORSDOF 7
ENDMDL
MODEL 9
REMARK VINA RESULT:    -2.604     16.543     17.826
REMARK INTER + INTRA:          -4.090
REMARK INTER:                  -3.749
REMARK INTRA:                  -0.342
REMARK UNBOUND:                -0.421
REMARK SMILES CCCCCCCC(=O)OC
REMARK SMILES IDX 5 1 4 2 3 3 2 4 1 5 6 6 7 7 8 8 9 9 10 10 11 11
REMARK H PARENT
REMARK Flexibility Score: inf
ROOT
ATOM      1  C   UNL     1      37.897  64.737  98.024  1.00  0.00     0.001 C 
ENDROOT
BRANCH   1   2
ATOM      2  C   UNL     1      38.335  64.326  99.441  1.00  0.00     0.000 C 
BRANCH   2   3
ATOM      3  C   UNL     1      39.388  65.277 100.032  1.00  0.00    -0.000 C 
BRANCH   3   4
ATOM      4  C   UNL     1      39.672  66.482  99.124  1.00  0.00    -0.003 C 
ATOM      5  C   UNL     1      39.135  67.772  99.738  1.00  0.00     0.004 C 
ENDBRANCH   3   4
ENDBRANCH   2   3
ENDBRANCH   1   2
BRANCH   1   6
ATOM      6  C   UNL     1      38.433  63.786  96.942  1.00  0.00     0.012 C 
BRANCH   6   7
ATOM      7  C   UNL     1      38.336  64.382  95.533  1.00  0.00     0.123 C 
BRANCH   7   8
ATOM      8  C   UNL     1      37.148  63.827  94.813  1.00  0.00     0.305 C 
ATOM      9  O   UNL     1      37.306  62.926  93.944  1.00  0.00    -0.252 OA
BRANCH   8  10
ATOM     10  O   UNL     1      35.868  64.279  95.146  1.00  0.00    -0.469 OA
ATOM     11  C   UNL     1      34.728  63.430  95.131  1.00  0.00     0.282 C 
ENDBRANCH   8  10
ENDBRANCH   7   8
ENDBRANCH   6   7
ENDBRANCH   1   6
TORSDOF 7
ENDMDL
