MODEL 1
REMARK VINA RESULT:    -5.484      0.000      0.000
REMARK INTER + INTRA:          -8.216
REMARK INTER:                  -7.407
REMARK INTRA:                  -0.808
REMARK UNBOUND:                -0.808
REMARK SMILES CC(=O)CCC=C(C)CCC=C(C)C
REMARK SMILES IDX 7 1 6 2 8 3 9 4 10 5 11 6 13 7 12 8 14 9 5 10 4 11 2 12 3 13
REMARK SMILES IDX 1 14
REMARK H PARENT
REMARK Flexibility Score: inf
ROOT
ATOM      1  C   UNL     1      27.763  52.901   9.605  1.00  0.00    -0.077 C 
ATOM      2  C   UNL     1      26.623  53.529   9.973  1.00  0.00    -0.028 C 
ATOM      3  C   UNL     1      27.831  52.028   8.373  1.00  0.00     0.039 C 
ENDROOT
BRANCH   1   4
ATOM      4  C   UNL     1      28.999  53.061  10.465  1.00  0.00     0.034 C 
BRANCH   4   5
ATOM      5  C   UNL     1      28.892  54.310  11.347  1.00  0.00     0.032 C 
BRANCH   5   6
ATOM      6  C   UNL     1      30.058  55.242  11.122  1.00  0.00    -0.028 C 
ATOM      7  C   UNL     1      31.140  57.390  10.613  1.00  0.00     0.039 C 
ATOM      8  C   UNL     1      29.908  56.548  10.816  1.00  0.00    -0.080 C 
ATOM      9  C   UNL     1      28.541  57.175  10.676  1.00  0.00     0.039 C 
ENDBRANCH   5   6
ENDBRANCH   4   5
ENDBRANCH   1   4
BRANCH   2  10
ATOM     10  C   UNL     1      25.338  53.493   9.185  1.00  0.00     0.035 C 
BRANCH  10  11
ATOM     11  C   UNL     1      25.304  54.626   8.154  1.00  0.00     0.079 C 
BRANCH  11  12
ATOM     12  C   UNL     1      25.101  54.080   6.768  1.00  0.00     0.130 C 
ATOM     13  O   UNL     1      24.522  53.015   6.613  1.00  0.00    -0.300 OA
ATOM     14  C   UNL     1      25.625  54.822   5.574  1.00  0.00     0.087 C 
ENDBRANCH  11  12
ENDBRANCH  10  11
ENDBRANCH   2  10
TORSDOF 6
ENDMDL
MODEL 2
REMARK VINA RESULT:    -5.456      9.474     10.748
REMARK INTER + INTRA:          -8.178
REMARK INTER:                  -7.468
REMARK INTRA:                  -0.710
REMARK UNBOUND:                -0.808
REMARK SMILES CC(=O)CCC=C(C)CCC=C(C)C
REMARK SMILES IDX 7 1 6 2 8 3 9 4 10 5 11 6 13 7 12 8 14 9 5 10 4 11 2 12 3 13
REMARK SMILES IDX 1 14
REMARK H PARENT
REMARK Flexibility Score: inf
ROOT
ATOM      1  C   UNL     1      25.905  51.722  17.881  1.00  0.00    -0.077 C 
ATOM      2  C   UNL     1      26.718  52.797  18.006  1.00  0.00    -0.028 C 
ATOM      3  C   UNL     1      24.426  51.803  18.177  1.00  0.00     0.039 C 
ENDROOT
BRANCH   1   4
ATOM      4  C   UNL     1      26.501  50.398  17.453  1.00  0.00     0.034 C 
BRANCH   4   5
ATOM      5  C   UNL     1      27.969  50.566  17.046  1.00  0.00     0.032 C 
BRANCH   5   6
ATOM      6  C   UNL     1      28.494  49.326  16.364  1.00  0.00    -0.028 C 
ATOM      7  C   UNL     1      30.212  47.706  15.680  1.00  0.00     0.039 C 
ATOM      8  C   UNL     1      29.794  48.965  16.393  1.00  0.00    -0.080 C 
ATOM      9  C   UNL     1      30.828  49.792  17.120  1.00  0.00     0.039 C 
ENDBRANCH   5   6
ENDBRANCH   4   5
ENDBRANCH   1   4
BRANCH   2  10
ATOM     10  C   UNL     1      26.249  54.181  18.376  1.00  0.00     0.035 C 
BRANCH  10  11
ATOM     11  C   UNL     1      26.608  54.503  19.831  1.00  0.00     0.079 C 
BRANCH  11  12
ATOM     12  C   UNL     1      25.514  54.059  20.762  1.00  0.00     0.130 C 
ATOM     13  O   UNL     1      24.445  54.652  20.769  1.00  0.00    -0.300 OA
ATOM     14  C   UNL     1      25.733  52.909  21.698  1.00  0.00     0.087 C 
ENDBRANCH  11  12
ENDBRANCH  10  11
ENDBRANCH   2  10
TORSDOF 6
ENDMDL
MODEL 3
REMARK VINA RESULT:    -5.438      2.011      2.839
REMARK INTER + INTRA:          -8.154
REMARK INTER:                  -7.507
REMARK INTRA:                  -0.648
REMARK UNBOUND:                -0.808
REMARK SMILES CC(=O)CCC=C(C)CCC=C(C)C
REMARK SMILES IDX 7 1 6 2 8 3 9 4 10 5 11 6 13 7 12 8 14 9 5 10 4 11 2 12 3 13
REMARK SMILES IDX 1 14
REMARK H PARENT
REMARK Flexibility Score: inf
ROOT
ATOM      1  C   UNL     1      27.040  55.427  10.372  1.00  0.00    -0.077 C 
ATOM      2  C   UNL     1      26.137  56.277   9.832  1.00  0.00    -0.028 C 
ATOM      3  C   UNL     1      26.814  53.934  10.395  1.00  0.00     0.039 C 
ENDROOT
BRANCH   1   4
ATOM      4  C   UNL     1      28.302  55.993  10.987  1.00  0.00     0.034 C 
BRANCH   4   5
ATOM      5  C   UNL     1      28.312  57.523  10.904  1.00  0.00     0.032 C 
BRANCH   5   6
ATOM      6  C   UNL     1      28.098  58.147  12.262  1.00  0.00    -0.028 C 
ATOM      7  C   UNL     1      28.651  59.592  14.173  1.00  0.00     0.039 C 
ATOM      8  C   UNL     1      28.961  59.028  12.811  1.00  0.00    -0.080 C 
ATOM      9  C   UNL     1      30.219  59.455  12.093  1.00  0.00     0.039 C 
ENDBRANCH   5   6
ENDBRANCH   4   5
ENDBRANCH   1   4
BRANCH   2  10
ATOM     10  C   UNL     1      24.865  55.847   9.146  1.00  0.00     0.035 C 
BRANCH  10  11
ATOM     11  C   UNL     1      24.953  56.095   7.637  1.00  0.00     0.079 C 
BRANCH  11  12
ATOM     12  C   UNL     1      25.138  54.802   6.893  1.00  0.00     0.130 C 
ATOM     13  O   UNL     1      24.862  53.743   7.438  1.00  0.00    -0.300 OA
ATOM     14  C   UNL     1      25.682  54.800   5.496  1.00  0.00     0.087 C 
ENDBRANCH  11  12
ENDBRANCH  10  11
ENDBRANCH   2  10
TORSDOF 6
ENDMDL
MODEL 4
REMARK VINA RESULT:    -5.432      3.251      6.538
REMARK INTER + INTRA:          -8.145
REMARK INTER:                  -7.559
REMARK INTRA:                  -0.586
REMARK UNBOUND:                -0.808
REMARK SMILES CC(=O)CCC=C(C)CCC=C(C)C
REMARK SMILES IDX 7 1 6 2 8 3 9 4 10 5 11 6 13 7 12 8 14 9 5 10 4 11 2 12 3 13
REMARK SMILES IDX 1 14
REMARK H PARENT
REMARK Flexibility Score: inf
ROOT
ATOM      1  C   UNL     1      26.250  56.183  10.281  1.00  0.00    -0.077 C 
ATOM      2  C   UNL     1      26.995  57.162  10.844  1.00  0.00    -0.028 C 
ATOM      3  C   UNL     1      26.763  54.767  10.149  1.00  0.00     0.039 C 
ENDROOT
BRANCH   1   4
ATOM      4  C   UNL     1      24.875  56.522   9.749  1.00  0.00     0.034 C 
BRANCH   4   5
ATOM      5  C   UNL     1      24.651  55.890   8.370  1.00  0.00     0.032 C 
BRANCH   5   6
ATOM      6  C   UNL     1      24.918  56.881   7.263  1.00  0.00    -0.028 C 
ATOM      7  C   UNL     1      25.541  57.584   4.991  1.00  0.00     0.039 C 
ATOM      8  C   UNL     1      25.302  56.513   6.023  1.00  0.00    -0.080 C 
ATOM      9  C   UNL     1      25.494  55.061   5.653  1.00  0.00     0.039 C 
ENDBRANCH   5   6
ENDBRANCH   4   5
ENDBRANCH   1   4
BRANCH   2  10
ATOM     10  C   UNL     1      28.358  56.952  11.455  1.00  0.00     0.035 C 
BRANCH  10  11
ATOM     11  C   UNL     1      29.444  57.596  10.589  1.00  0.00     0.079 C 
BRANCH  11  12
ATOM     12  C   UNL     1      30.499  58.240  11.446  1.00  0.00     0.130 C 
ATOM     13  O   UNL     1      31.618  57.752  11.500  1.00  0.00    -0.300 OA
ATOM     14  C   UNL     1      30.179  59.463  12.253  1.00  0.00     0.087 C 
ENDBRANCH  11  12
ENDBRANCH  10  11
ENDBRANCH   2  10
TORSDOF 6
ENDMDL
MODEL 5
REMARK VINA RESULT:    -5.387      1.655      2.680
REMARK INTER + INTRA:          -8.085
REMARK INTER:                  -7.363
REMARK INTRA:                  -0.722
REMARK UNBOUND:                -0.808
REMARK SMILES CC(=O)CCC=C(C)CCC=C(C)C
REMARK SMILES IDX 7 1 6 2 8 3 9 4 10 5 11 6 13 7 12 8 14 9 5 10 4 11 2 12 3 13
REMARK SMILES IDX 1 14
REMARK H PARENT
REMARK Flexibility Score: inf
ROOT
ATOM      1  C   UNL     1      25.614  55.601   9.891  1.00  0.00    -0.077 C 
ATOM      2  C   UNL     1      26.402  54.556   9.548  1.00  0.00    -0.028 C 
ATOM      3  C   UNL     1      24.108  55.528   9.800  1.00  0.00     0.039 C 
ENDROOT
BRANCH   1   4
ATOM      4  C   UNL     1      26.264  56.886  10.359  1.00  0.00     0.034 C 
BRANCH   4   5
ATOM      5  C   UNL     1      27.695  56.629  10.845  1.00  0.00     0.032 C 
BRANCH   5   6
ATOM      6  C   UNL     1      28.278  57.854  11.505  1.00  0.00    -0.028 C 
ATOM      7  C   UNL     1      30.050  59.463  12.072  1.00  0.00     0.039 C 
ATOM      8  C   UNL     1      29.570  58.219  11.370  1.00  0.00    -0.080 C 
ATOM      9  C   UNL     1      30.536  57.410  10.537  1.00  0.00     0.039 C 
ENDBRANCH   5   6
ENDBRANCH   4   5
ENDBRANCH   1   4
BRANCH   2  10
ATOM     10  C   UNL     1      25.886  53.207   9.113  1.00  0.00     0.035 C 
BRANCH  10  11
ATOM     11  C   UNL     1      26.160  52.979   7.623  1.00  0.00     0.079 C 
BRANCH  11  12
ATOM     12  C   UNL     1      25.096  53.625   6.779  1.00  0.00     0.130 C 
ATOM     13  O   UNL     1      23.925  53.312   6.933  1.00  0.00    -0.300 OA
ATOM     14  C   UNL     1      25.465  54.635   5.734  1.00  0.00     0.087 C 
ENDBRANCH  11  12
ENDBRANCH  10  11
ENDBRANCH   2  10
TORSDOF 6
ENDMDL
MODEL 6
REMARK VINA RESULT:    -5.382      7.517      9.438
REMARK INTER + INTRA:          -8.079
REMARK INTER:                  -7.074
REMARK INTRA:                  -1.005
REMARK UNBOUND:                -0.808
REMARK SMILES CC(=O)CCC=C(C)CCC=C(C)C
REMARK SMILES IDX 7 1 6 2 8 3 9 4 10 5 11 6 13 7 12 8 14 9 5 10 4 11 2 12 3 13
REMARK SMILES IDX 1 14
REMARK H PARENT
REMARK Flexibility Score: inf
ROOT
ATOM      1  C   UNL     1      29.484  51.734  16.306  1.00  0.00    -0.077 C 
ATOM      2  C   UNL     1      28.375  52.184  16.938  1.00  0.00    -0.028 C 
ATOM      3  C   UNL     1      29.905  52.271  14.958  1.00  0.00     0.039 C 
ENDROOT
BRANCH   1   4
ATOM      4  C   UNL     1      30.311  50.648  16.958  1.00  0.00     0.034 C 
BRANCH   4   5
ATOM      5  C   UNL     1      29.507  49.348  17.081  1.00  0.00     0.032 C 
BRANCH   5   6
ATOM      6  C   UNL     1      29.589  48.532  15.814  1.00  0.00    -0.028 C 
ATOM      7  C   UNL     1      28.750  47.579  13.708  1.00  0.00     0.039 C 
ATOM      8  C   UNL     1      28.562  48.418  14.945  1.00  0.00    -0.080 C 
ATOM      9  C   UNL     1      27.242  49.110  15.186  1.00  0.00     0.039 C 
ENDBRANCH   5   6
ENDBRANCH   4   5
ENDBRANCH   1   4
BRANCH   2  10
ATOM     10  C   UNL     1      27.491  53.291  16.425  1.00  0.00     0.035 C 
BRANCH  10  11
ATOM     11  C   UNL     1      27.792  54.606  17.152  1.00  0.00     0.079 C 
BRANCH  11  12
ATOM     12  C   UNL     1      27.125  54.637  18.499  1.00  0.00     0.130 C 
ATOM     13  O   UNL     1      25.987  54.208  18.622  1.00  0.00    -0.300 OA
ATOM     14  C   UNL     1      27.837  55.211  19.687  1.00  0.00     0.087 C 
ENDBRANCH  11  12
ENDBRANCH  10  11
ENDBRANCH   2  10
TORSDOF 6
ENDMDL
MODEL 7
REMARK VINA RESULT:    -5.377      8.196      9.684
REMARK INTER + INTRA:          -8.071
REMARK INTER:                  -7.261
REMARK INTRA:                  -0.810
REMARK UNBOUND:                -0.808
REMARK SMILES CC(=O)CCC=C(C)CCC=C(C)C
REMARK SMILES IDX 7 1 6 2 8 3 9 4 10 5 11 6 13 7 12 8 14 9 5 10 4 11 2 12 3 13
REMARK SMILES IDX 1 14
REMARK H PARENT
REMARK Flexibility Score: inf
ROOT
ATOM      1  C   UNL     1      28.622  52.083  16.926  1.00  0.00    -0.077 C 
ATOM      2  C   UNL     1      27.889  50.948  17.009  1.00  0.00    -0.028 C 
ATOM      3  C   UNL     1      30.099  52.056  16.611  1.00  0.00     0.039 C 
ENDROOT
BRANCH   1   4
ATOM      4  C   UNL     1      27.945  53.413  17.178  1.00  0.00     0.034 C 
BRANCH   4   5
ATOM      5  C   UNL     1      26.482  53.211  17.590  1.00  0.00     0.032 C 
BRANCH   5   6
ATOM      6  C   UNL     1      26.245  53.665  19.010  1.00  0.00    -0.028 C 
ATOM      7  C   UNL     1      25.488  53.432  21.338  1.00  0.00     0.039 C 
ATOM      8  C   UNL     1      25.677  52.880  19.949  1.00  0.00    -0.080 C 
ATOM      9  C   UNL     1      25.231  51.471  19.637  1.00  0.00     0.039 C 
ENDBRANCH   5   6
ENDBRANCH   4   5
ENDBRANCH   1   4
BRANCH   2  10
ATOM     10  C   UNL     1      28.426  49.566  16.736  1.00  0.00     0.035 C 
BRANCH  10  11
ATOM     11  C   UNL     1      27.958  49.065  15.365  1.00  0.00     0.079 C 
BRANCH  11  12
ATOM     12  C   UNL     1      28.953  48.101  14.781  1.00  0.00     0.130 C 
ATOM     13  O   UNL     1      28.740  47.596  13.689  1.00  0.00    -0.300 OA
ATOM     14  C   UNL     1      30.194  47.737  15.540  1.00  0.00     0.087 C 
ENDBRANCH  11  12
ENDBRANCH  10  11
ENDBRANCH   2  10
TORSDOF 6
ENDMDL
MODEL 8
REMARK VINA RESULT:    -5.352      3.204      6.174
REMARK INTER + INTRA:          -8.037
REMARK INTER:                  -7.287
REMARK INTRA:                  -0.750
REMARK UNBOUND:                -0.808
REMARK SMILES CC(=O)CCC=C(C)CCC=C(C)C
REMARK SMILES IDX 7 1 6 2 8 3 9 4 10 5 11 6 13 7 12 8 14 9 5 10 4 11 2 12 3 13
REMARK SMILES IDX 1 14
REMARK H PARENT
REMARK Flexibility Score: inf
ROOT
ATOM      1  C   UNL     1      27.834  54.958  10.640  1.00  0.00    -0.077 C 
ATOM      2  C   UNL     1      27.406  56.241  10.606  1.00  0.00    -0.028 C 
ATOM      3  C   UNL     1      29.257  54.602  11.002  1.00  0.00     0.039 C 
ENDROOT
BRANCH   1   4
ATOM      4  C   UNL     1      26.863  53.852  10.286  1.00  0.00     0.034 C 
BRANCH   4   5
ATOM      5  C   UNL     1      25.609  54.421   9.613  1.00  0.00     0.032 C 
BRANCH   5   6
ATOM      6  C   UNL     1      25.610  54.147   8.129  1.00  0.00    -0.028 C 
ATOM      7  C   UNL     1      25.336  54.702   5.749  1.00  0.00     0.039 C 
ATOM      8  C   UNL     1      25.302  55.082   7.207  1.00  0.00    -0.080 C 
ATOM      9  C   UNL     1      24.927  56.490   7.604  1.00  0.00     0.039 C 
ENDBRANCH   5   6
ENDBRANCH   4   5
ENDBRANCH   1   4
BRANCH   2  10
ATOM     10  C   UNL     1      28.252  57.432  10.981  1.00  0.00     0.035 C 
BRANCH  10  11
ATOM     11  C   UNL     1      27.772  58.042  12.302  1.00  0.00     0.079 C 
BRANCH  11  12
ATOM     12  C   UNL     1      28.795  58.995  12.853  1.00  0.00     0.130 C 
ATOM     13  O   UNL     1      28.632  59.490  13.959  1.00  0.00    -0.300 OA
ATOM     14  C   UNL     1      30.004  59.363  12.045  1.00  0.00     0.087 C 
ENDBRANCH  11  12
ENDBRANCH  10  11
ENDBRANCH   2  10
TORSDOF 6
ENDMDL
MODEL 9
REMARK VINA RESULT:    -5.317      8.440     10.491
REMARK INTER + INTRA:          -7.991
REMARK INTER:                  -6.883
REMARK INTRA:                  -1.108
REMARK UNBOUND:                -0.808
REMARK SMILES CC(=O)CCC=C(C)CCC=C(C)C
REMARK SMILES IDX 7 1 6 2 8 3 9 4 10 5 11 6 13 7 12 8 14 9 5 10 4 11 2 12 3 13
REMARK SMILES IDX 1 14
REMARK H PARENT
REMARK Flexibility Score: inf
ROOT
ATOM      1  C   UNL     1      27.507  54.474  18.379  1.00  0.00    -0.077 C 
ATOM      2  C   UNL     1      26.260  54.039  18.083  1.00  0.00    -0.028 C 
ATOM      3  C   UNL     1      27.802  55.247  19.643  1.00  0.00     0.039 C 
ENDROOT
BRANCH   1   4
ATOM      4  C   UNL     1      28.631  54.196  17.405  1.00  0.00     0.034 C 
BRANCH   4   5
ATOM      5  C   UNL     1      28.230  53.103  16.407  1.00  0.00     0.032 C 
BRANCH   5   6
ATOM      6  C   UNL     1      29.090  51.872  16.568  1.00  0.00    -0.028 C 
ATOM      7  C   UNL     1      29.549  49.518  17.108  1.00  0.00     0.039 C 
ATOM      8  C   UNL     1      28.603  50.684  16.982  1.00  0.00    -0.080 C 
ATOM      9  C   UNL     1      27.143  50.501  17.318  1.00  0.00     0.039 C 
ENDBRANCH   5   6
ENDBRANCH   4   5
ENDBRANCH   1   4
BRANCH   2  10
ATOM     10  C   UNL     1      25.063  54.206  18.984  1.00  0.00     0.035 C 
BRANCH  10  11
ATOM     11  C   UNL     1      24.406  52.851  19.268  1.00  0.00     0.079 C 
BRANCH  11  12
ATOM     12  C   UNL     1      25.103  52.145  20.397  1.00  0.00     0.130 C 
ATOM     13  O   UNL     1      25.250  50.933  20.357  1.00  0.00    -0.300 OA
ATOM     14  C   UNL     1      25.599  52.916  21.584  1.00  0.00     0.087 C 
ENDBRANCH  11  12
ENDBRANCH  10  11
ENDBRANCH   2  10
TORSDOF 6
ENDMDL
