MODEL 1
REMARK VINA RESULT:    -2.891      0.000      0.000
REMARK INTER + INTRA:          -3.585
REMARK INTER:                  -3.397
REMARK INTRA:                  -0.188
REMARK UNBOUND:                -0.188
REMARK SMILES O=C([O-])CCC(=O)[O-]
REMARK SMILES IDX 4 1 2 2 1 3 3 4 5 5 6 6 7 7 8 8
REMARK H PARENT
REMARK Flexibility Score: inf
ROOT
ATOM      1  C   UNL     1     165.344 178.447 167.801  1.00  0.00     0.059 C 
ENDROOT
BRANCH   1   2
ATOM      2  C   UNL     1     165.188 177.374 166.771  1.00  0.00     0.042 C 
ATOM      3  O   UNL     1     165.342 176.166 167.086  1.00  0.00    -0.550 OA
ATOM      4  O   UNL     1     164.823 177.707 165.472  1.00  0.00    -0.550 OA
ENDBRANCH   1   2
BRANCH   1   5
ATOM      5  C   UNL     1     164.080 179.304 167.879  1.00  0.00     0.059 C 
BRANCH   5   6
ATOM      6  C   UNL     1     162.929 178.495 168.386  1.00  0.00     0.042 C 
ATOM      7  O   UNL     1     162.966 177.992 169.540  1.00  0.00    -0.550 OA
ATOM      8  O   UNL     1     161.792 178.335 167.602  1.00  0.00    -0.550 OA
ENDBRANCH   5   6
ENDBRANCH   1   5
TORSDOF 3
ENDMDL
MODEL 2
REMARK VINA RESULT:    -2.875      0.104      3.176
REMARK INTER + INTRA:          -3.568
REMARK INTER:                  -3.379
REMARK INTRA:                  -0.188
REMARK UNBOUND:                -0.188
REMARK SMILES O=C([O-])CCC(=O)[O-]
REMARK SMILES IDX 4 1 2 2 1 3 3 4 5 5 6 6 7 7 8 8
REMARK H PARENT
REMARK Flexibility Score: inf
ROOT
ATOM      1  C   UNL     1     164.050 179.317 167.868  1.00  0.00     0.059 C 
ENDROOT
BRANCH   1   2
ATOM      2  C   UNL     1     162.868 178.511 168.304  1.00  0.00     0.042 C 
ATOM      3  O   UNL     1     162.815 178.045 169.472  1.00  0.00    -0.550 OA
ATOM      4  O   UNL     1     161.802 178.315 167.435  1.00  0.00    -0.550 OA
ENDBRANCH   1   2
BRANCH   1   5
ATOM      5  C   UNL     1     165.313 178.454 167.854  1.00  0.00     0.059 C 
BRANCH   5   6
ATOM      6  C   UNL     1     165.202 177.380 166.819  1.00  0.00     0.042 C 
ATOM      7  O   UNL     1     165.338 176.170 167.142  1.00  0.00    -0.550 OA
ATOM      8  O   UNL     1     164.900 177.711 165.503  1.00  0.00    -0.550 OA
ENDBRANCH   5   6
ENDBRANCH   1   5
TORSDOF 3
ENDMDL
MODEL 3
REMARK VINA RESULT:    -2.852      0.110      3.321
REMARK INTER + INTRA:          -3.539
REMARK INTER:                  -3.359
REMARK INTRA:                  -0.180
REMARK UNBOUND:                -0.188
REMARK SMILES O=C([O-])CCC(=O)[O-]
REMARK SMILES IDX 4 1 2 2 1 3 3 4 5 5 6 6 7 7 8 8
REMARK H PARENT
REMARK Flexibility Score: inf
ROOT
ATOM      1  C   UNL     1     164.120 179.366 167.824  1.00  0.00     0.059 C 
ENDROOT
BRANCH   1   2
ATOM      2  C   UNL     1     163.008 178.510 168.342  1.00  0.00     0.042 C 
ATOM      3  O   UNL     1     163.079 178.006 169.493  1.00  0.00    -0.550 OA
ATOM      4  O   UNL     1     161.869 178.310 167.571  1.00  0.00    -0.550 OA
ENDBRANCH   1   2
BRANCH   1   5
ATOM      5  C   UNL     1     165.406 178.548 167.686  1.00  0.00     0.059 C 
BRANCH   5   6
ATOM      6  C   UNL     1     165.206 177.415 166.732  1.00  0.00     0.042 C 
ATOM      7  O   UNL     1     164.906 177.642 165.530  1.00  0.00    -0.550 OA
ATOM      8  O   UNL     1     165.398 176.105 167.157  1.00  0.00    -0.550 OA
ENDBRANCH   5   6
ENDBRANCH   1   5
TORSDOF 3
ENDMDL
MODEL 4
REMARK VINA RESULT:    -2.775     13.758     14.459
REMARK INTER + INTRA:          -3.449
REMARK INTER:                  -3.422
REMARK INTRA:                  -0.027
REMARK UNBOUND:                -0.188
REMARK SMILES O=C([O-])CCC(=O)[O-]
REMARK SMILES IDX 4 1 2 2 1 3 3 4 5 5 6 6 7 7 8 8
REMARK H PARENT
REMARK Flexibility Score: inf
ROOT
ATOM      1  C   UNL     1     160.551 163.846 167.315  1.00  0.00     0.059 C 
ENDROOT
BRANCH   1   2
ATOM      2  C   UNL     1     160.667 162.385 167.614  1.00  0.00     0.042 C 
ATOM      3  O   UNL     1     159.655 161.640 167.541  1.00  0.00    -0.550 OA
ATOM      4  O   UNL     1     161.905 161.836 167.925  1.00  0.00    -0.550 OA
ENDBRANCH   1   2
BRANCH   1   5
ATOM      5  C   UNL     1     160.667 164.667 168.600  1.00  0.00     0.059 C 
BRANCH   5   6
ATOM      6  C   UNL     1     159.919 165.955 168.467  1.00  0.00     0.042 C 
ATOM      7  O   UNL     1     159.035 166.266 169.309  1.00  0.00    -0.550 OA
ATOM      8  O   UNL     1     160.230 166.838 167.440  1.00  0.00    -0.550 OA
ENDBRANCH   5   6
ENDBRANCH   1   5
TORSDOF 3
ENDMDL
MODEL 5
REMARK VINA RESULT:    -2.770      1.513      1.884
REMARK INTER + INTRA:          -3.443
REMARK INTER:                  -3.416
REMARK INTRA:                  -0.027
REMARK UNBOUND:                -0.188
REMARK SMILES O=C([O-])CCC(=O)[O-]
REMARK SMILES IDX 4 1 2 2 1 3 3 4 5 5 6 6 7 7 8 8
REMARK H PARENT
REMARK Flexibility Score: inf
ROOT
ATOM      1  C   UNL     1     163.520 178.141 167.583  1.00  0.00     0.059 C 
ENDROOT
BRANCH   1   2
ATOM      2  C   UNL     1     164.959 177.738 167.514  1.00  0.00     0.042 C 
ATOM      3  O   UNL     1     165.862 178.562 167.812  1.00  0.00    -0.550 OA
ATOM      4  O   UNL     1     165.300 176.437 167.168  1.00  0.00    -0.550 OA
ENDBRANCH   1   2
BRANCH   1   5
ATOM      5  C   UNL     1     163.049 178.200 169.037  1.00  0.00     0.059 C 
BRANCH   5   6
ATOM      6  C   UNL     1     161.560 178.329 169.100  1.00  0.00     0.042 C 
ATOM      7  O   UNL     1     160.890 177.575 169.854  1.00  0.00    -0.550 OA
ATOM      8  O   UNL     1     160.915 179.315 168.363  1.00  0.00    -0.550 OA
ENDBRANCH   5   6
ENDBRANCH   1   5
TORSDOF 3
ENDMDL
MODEL 6
REMARK VINA RESULT:    -2.764     13.610     14.682
REMARK INTER + INTRA:          -3.437
REMARK INTER:                  -3.402
REMARK INTRA:                  -0.034
REMARK UNBOUND:                -0.188
REMARK SMILES O=C([O-])CCC(=O)[O-]
REMARK SMILES IDX 4 1 2 2 1 3 3 4 5 5 6 6 7 7 8 8
REMARK H PARENT
REMARK Flexibility Score: inf
ROOT
ATOM      1  C   UNL     1     160.702 164.522 168.351  1.00  0.00     0.059 C 
ENDROOT
BRANCH   1   2
ATOM      2  C   UNL     1     160.068 165.876 168.393  1.00  0.00     0.042 C 
ATOM      3  O   UNL     1     160.326 166.725 167.501  1.00  0.00    -0.550 OA
ATOM      4  O   UNL     1     159.152 166.183 169.392  1.00  0.00    -0.550 OA
ENDBRANCH   1   2
BRANCH   1   5
ATOM      5  C   UNL     1     160.393 163.826 167.024  1.00  0.00     0.059 C 
BRANCH   5   6
ATOM      6  C   UNL     1     161.170 162.553 166.907  1.00  0.00     0.042 C 
ATOM      7  O   UNL     1     161.298 161.989 165.788  1.00  0.00    -0.550 OA
ATOM      8  O   UNL     1     161.793 162.014 168.025  1.00  0.00    -0.550 OA
ENDBRANCH   5   6
ENDBRANCH   1   5
TORSDOF 3
ENDMDL
MODEL 7
REMARK VINA RESULT:    -2.724      1.510      3.973
REMARK INTER + INTRA:          -3.389
REMARK INTER:                  -3.362
REMARK INTRA:                  -0.027
REMARK UNBOUND:                -0.188
REMARK SMILES O=C([O-])CCC(=O)[O-]
REMARK SMILES IDX 4 1 2 2 1 3 3 4 5 5 6 6 7 7 8 8
REMARK H PARENT
REMARK Flexibility Score: inf
ROOT
ATOM      1  C   UNL     1     162.955 178.462 168.856  1.00  0.00     0.059 C 
ENDROOT
BRANCH   1   2
ATOM      2  C   UNL     1     161.461 178.446 168.917  1.00  0.00     0.042 C 
ATOM      3  O   UNL     1     160.790 179.263 168.233  1.00  0.00    -0.550 OA
ATOM      4  O   UNL     1     160.807 177.496 169.690  1.00  0.00    -0.550 OA
ENDBRANCH   1   2
BRANCH   1   5
ATOM      5  C   UNL     1     163.439 178.090 167.454  1.00  0.00     0.059 C 
BRANCH   5   6
ATOM      6  C   UNL     1     164.881 177.695 167.485  1.00  0.00     0.042 C 
ATOM      7  O   UNL     1     165.757 178.522 167.854  1.00  0.00    -0.550 OA
ATOM      8  O   UNL     1     165.255 176.399 167.153  1.00  0.00    -0.550 OA
ENDBRANCH   5   6
ENDBRANCH   1   5
TORSDOF 3
ENDMDL
MODEL 8
REMARK VINA RESULT:    -2.659      8.675      9.948
REMARK INTER + INTRA:          -3.313
REMARK INTER:                  -3.153
REMARK INTRA:                  -0.160
REMARK UNBOUND:                -0.188
REMARK SMILES O=C([O-])CCC(=O)[O-]
REMARK SMILES IDX 4 1 2 2 1 3 3 4 5 5 6 6 7 7 8 8
REMARK H PARENT
REMARK Flexibility Score: inf
ROOT
ATOM      1  C   UNL     1     168.992 170.379 164.461  1.00  0.00     0.059 C 
ENDROOT
BRANCH   1   2
ATOM      2  C   UNL     1     169.417 169.225 163.610  1.00  0.00     0.042 C 
ATOM      3  O   UNL     1     170.006 169.428 162.516  1.00  0.00    -0.550 OA
ATOM      4  O   UNL     1     169.209 167.924 164.050  1.00  0.00    -0.550 OA
ENDBRANCH   1   2
BRANCH   1   5
ATOM      5  C   UNL     1     168.253 171.421 163.621  1.00  0.00     0.059 C 
BRANCH   5   6
ATOM      6  C   UNL     1     166.900 170.916 163.230  1.00  0.00     0.042 C 
ATOM      7  O   UNL     1     166.040 170.658 164.112  1.00  0.00    -0.550 OA
ATOM      8  O   UNL     1     166.572 170.774 161.887  1.00  0.00    -0.550 OA
ENDBRANCH   5   6
ENDBRANCH   1   5
TORSDOF 3
ENDMDL
MODEL 9
REMARK VINA RESULT:    -2.654      8.663     10.327
REMARK INTER + INTRA:          -3.307
REMARK INTER:                  -3.155
REMARK INTRA:                  -0.152
REMARK UNBOUND:                -0.188
REMARK SMILES O=C([O-])CCC(=O)[O-]
REMARK SMILES IDX 4 1 2 2 1 3 3 4 5 5 6 6 7 7 8 8
REMARK H PARENT
REMARK Flexibility Score: inf
ROOT
ATOM      1  C   UNL     1     168.222 171.396 163.633  1.00  0.00     0.059 C 
ENDROOT
BRANCH   1   2
ATOM      2  C   UNL     1     166.868 170.878 163.262  1.00  0.00     0.042 C 
ATOM      3  O   UNL     1     166.008 170.659 164.154  1.00  0.00    -0.550 OA
ATOM      4  O   UNL     1     166.541 170.685 161.926  1.00  0.00    -0.550 OA
ENDBRANCH   1   2
BRANCH   1   5
ATOM      5  C   UNL     1     168.989 170.355 164.449  1.00  0.00     0.059 C 
BRANCH   5   6
ATOM      6  C   UNL     1     169.390 169.203 163.583  1.00  0.00     0.042 C 
ATOM      7  O   UNL     1     169.893 169.407 162.447  1.00  0.00    -0.550 OA
ATOM      8  O   UNL     1     169.252 167.901 164.050  1.00  0.00    -0.550 OA
ENDBRANCH   5   6
ENDBRANCH   1   5
TORSDOF 3
ENDMDL
