MODEL 1
REMARK VINA RESULT:    -6.954      0.000      0.000
REMARK INTER + INTRA:          -8.497
REMARK INTER:                  -8.173
REMARK INTRA:                  -0.324
REMARK UNBOUND:                -0.324
REMARK SMILES O=c1c(O)c(-c2ccc(O)c(O)c2)oc2cc(O)ccc12
REMARK SMILES IDX 5 1 3 2 2 3 1 4 21 5 15 6 14 7 16 8 17 9 19 10 20 11 6 12
REMARK SMILES IDX 7 13 8 14 9 15 13 16 11 17 10 18 12 20 4 22 18 24
REMARK H PARENT 10 19 12 21 4 23 18 25
REMARK Flexibility Score: inf
ROOT
ATOM      1  C   UNL     1       5.005  10.515  34.086  1.00  0.00     0.180 A 
ATOM      2  C   UNL     1       5.669   9.641  33.201  1.00  0.00     0.208 A 
ATOM      3  C   UNL     1       4.966   8.545  32.678  1.00  0.00     0.235 A 
ATOM      4  O   UNL     1       5.534   7.755  31.875  1.00  0.00    -0.285 OA
ATOM      5  C   UNL     1       3.632   8.333  33.063  1.00  0.00     0.069 A 
ATOM      6  C   UNL     1       3.046   9.239  33.973  1.00  0.00     0.142 A 
ATOM      7  O   UNL     1       3.744  10.269  34.437  1.00  0.00    -0.452 OA
ATOM      8  C   UNL     1       1.723   9.056  34.389  1.00  0.00     0.094 A 
ATOM      9  C   UNL     1       0.974   7.975  33.903  1.00  0.00     0.119 A 
ATOM     10  C   UNL     1       1.552   7.077  33.001  1.00  0.00     0.047 A 
ATOM     11  C   UNL     1       2.874   7.250  32.580  1.00  0.00     0.020 A 
ENDROOT
BRANCH   1  12
ATOM     12  C   UNL     1       5.671  11.703  34.665  1.00  0.00     0.025 A 
ATOM     13  C   UNL     1       5.622  12.955  34.026  1.00  0.00     0.016 A 
ATOM     14  C   UNL     1       6.237  14.068  34.605  1.00  0.00     0.051 A 
ATOM     15  C   UNL     1       6.899  13.951  35.833  1.00  0.00     0.157 A 
ATOM     16  C   UNL     1       6.319  11.597  35.908  1.00  0.00     0.062 A 
ATOM     17  C   UNL     1       6.937  12.713  36.488  1.00  0.00     0.158 A 
BRANCH  15  18
ATOM     18  O   UNL     1       7.516  15.058  36.412  1.00  0.00    -0.504 OA
ATOM     19  H   UNL     1       8.409  14.978  36.886  1.00  0.00     0.293 HD
ENDBRANCH  15  18
BRANCH  17  20
ATOM     20  O   UNL     1       7.589  12.600  37.714  1.00  0.00    -0.504 OA
ATOM     21  H   UNL     1       7.501  13.312  38.429  1.00  0.00     0.293 HD
ENDBRANCH  17  20
ENDBRANCH   1  12
BRANCH   2  22
ATOM     22  O   UNL     1       7.011   9.850  32.873  1.00  0.00    -0.502 OA
ATOM     23  H   UNL     1       7.328   9.938  31.916  1.00  0.00     0.293 HD
ENDBRANCH   2  22
BRANCH   9  24
ATOM     24  O   UNL     1      -0.344   7.786  34.312  1.00  0.00    -0.508 OA
ATOM     25  H   UNL     1      -0.901   8.549  34.677  1.00  0.00     0.293 HD
ENDBRANCH   9  24
TORSDOF 5
ENDMDL
MODEL 2
REMARK VINA RESULT:    -6.582      2.923      3.160
REMARK INTER + INTRA:          -8.060
REMARK INTER:                  -7.740
REMARK INTRA:                  -0.319
REMARK UNBOUND:                -0.324
REMARK SMILES O=c1c(O)c(-c2ccc(O)c(O)c2)oc2cc(O)ccc12
REMARK SMILES IDX 5 1 3 2 2 3 1 4 21 5 15 6 14 7 16 8 17 9 19 10 20 11 6 12
REMARK SMILES IDX 7 13 8 14 9 15 13 16 11 17 10 18 12 20 4 22 18 24
REMARK H PARENT 10 19 12 21 4 23 18 25
REMARK Flexibility Score: inf
ROOT
ATOM      1  C   UNL     1       3.458  10.009  35.539  1.00  0.00     0.180 A 
ATOM      2  C   UNL     1       4.722   9.686  35.005  1.00  0.00     0.208 A 
ATOM      3  C   UNL     1       4.799   8.730  33.980  1.00  0.00     0.235 A 
ATOM      4  O   UNL     1       5.916   8.432  33.477  1.00  0.00    -0.285 OA
ATOM      5  C   UNL     1       3.624   8.107  33.528  1.00  0.00     0.069 A 
ATOM      6  C   UNL     1       2.400   8.468  34.132  1.00  0.00     0.142 A 
ATOM      7  O   UNL     1       2.371   9.384  35.094  1.00  0.00    -0.452 OA
ATOM      8  C   UNL     1       1.210   7.861  33.718  1.00  0.00     0.094 A 
ATOM      9  C   UNL     1       1.226   6.896  32.701  1.00  0.00     0.119 A 
ATOM     10  C   UNL     1       2.437   6.538  32.101  1.00  0.00     0.047 A 
ATOM     11  C   UNL     1       3.632   7.137  32.509  1.00  0.00     0.020 A 
ENDROOT
BRANCH   1  12
ATOM     12  C   UNL     1       3.292  11.019  36.609  1.00  0.00     0.025 A 
ATOM     13  C   UNL     1       3.198  12.391  36.313  1.00  0.00     0.016 A 
ATOM     14  C   UNL     1       3.017  13.324  37.337  1.00  0.00     0.051 A 
ATOM     15  C   UNL     1       2.914  12.902  38.668  1.00  0.00     0.157 A 
ATOM     16  C   UNL     1       3.167  10.600  37.944  1.00  0.00     0.062 A 
ATOM     17  C   UNL     1       2.986  11.536  38.972  1.00  0.00     0.158 A 
BRANCH  15  18
ATOM     18  O   UNL     1       2.735  13.829  39.693  1.00  0.00    -0.504 OA
ATOM     19  H   UNL     1       2.816  13.563  40.667  1.00  0.00     0.293 HD
ENDBRANCH  15  18
BRANCH  17  20
ATOM     20  O   UNL     1       2.875  11.117  40.296  1.00  0.00    -0.504 OA
ATOM     21  H   UNL     1       1.989  10.820  40.686  1.00  0.00     0.293 HD
ENDBRANCH  17  20
ENDBRANCH   1  12
BRANCH   2  22
ATOM     22  O   UNL     1       5.879  10.287  35.507  1.00  0.00    -0.502 OA
ATOM     23  H   UNL     1       5.851  10.997  36.229  1.00  0.00     0.293 HD
ENDBRANCH   2  22
BRANCH   9  24
ATOM     24  O   UNL     1       0.045   6.288  32.282  1.00  0.00    -0.508 OA
ATOM     25  H   UNL     1      -0.602   5.876  32.943  1.00  0.00     0.293 HD
ENDBRANCH   9  24
TORSDOF 5
ENDMDL
MODEL 3
REMARK VINA RESULT:    -6.261      3.289      3.727
REMARK INTER + INTRA:          -7.682
REMARK INTER:                  -7.361
REMARK INTRA:                  -0.321
REMARK UNBOUND:                -0.324
REMARK SMILES O=c1c(O)c(-c2ccc(O)c(O)c2)oc2cc(O)ccc12
REMARK SMILES IDX 5 1 3 2 2 3 1 4 21 5 15 6 14 7 16 8 17 9 19 10 20 11 6 12
REMARK SMILES IDX 7 13 8 14 9 15 13 16 11 17 10 18 12 20 4 22 18 24
REMARK H PARENT 10 19 12 21 4 23 18 25
REMARK Flexibility Score: inf
ROOT
ATOM      1  C   UNL     1       3.667  11.127  35.285  1.00  0.00     0.180 A 
ATOM      2  C   UNL     1       4.829  11.494  34.575  1.00  0.00     0.208 A 
ATOM      3  C   UNL     1       5.419  10.559  33.712  1.00  0.00     0.235 A 
ATOM      4  O   UNL     1       6.452  10.867  33.058  1.00  0.00    -0.285 OA
ATOM      5  C   UNL     1       4.855   9.279  33.591  1.00  0.00     0.069 A 
ATOM      6  C   UNL     1       3.705   8.980  34.354  1.00  0.00     0.142 A 
ATOM      7  O   UNL     1       3.173   9.898  35.153  1.00  0.00    -0.452 OA
ATOM      8  C   UNL     1       3.119   7.712  34.270  1.00  0.00     0.094 A 
ATOM      9  C   UNL     1       3.668   6.736  33.427  1.00  0.00     0.119 A 
ATOM     10  C   UNL     1       4.806   7.030  32.670  1.00  0.00     0.047 A 
ATOM     11  C   UNL     1       5.400   8.293  32.748  1.00  0.00     0.020 A 
ENDROOT
BRANCH   1  12
ATOM     12  C   UNL     1       2.976  12.062  36.200  1.00  0.00     0.025 A 
ATOM     13  C   UNL     1       2.002  12.961  35.730  1.00  0.00     0.016 A 
ATOM     14  C   UNL     1       1.345  13.818  36.617  1.00  0.00     0.051 A 
ATOM     15  C   UNL     1       1.640  13.781  37.985  1.00  0.00     0.157 A 
ATOM     16  C   UNL     1       3.253  12.015  37.577  1.00  0.00     0.062 A 
ATOM     17  C   UNL     1       2.594  12.875  38.467  1.00  0.00     0.158 A 
BRANCH  15  18
ATOM     18  O   UNL     1       0.988  14.636  38.873  1.00  0.00    -0.504 OA
ATOM     19  H   UNL     1       1.493  15.348  39.387  1.00  0.00     0.293 HD
ENDBRANCH  15  18
BRANCH  17  20
ATOM     20  O   UNL     1       2.881  12.835  39.829  1.00  0.00    -0.504 OA
ATOM     21  H   UNL     1       3.737  13.227  40.203  1.00  0.00     0.293 HD
ENDBRANCH  17  20
ENDBRANCH   1  12
BRANCH   2  22
ATOM     22  O   UNL     1       5.397  12.759  34.752  1.00  0.00    -0.502 OA
ATOM     23  H   UNL     1       4.838  13.582  34.940  1.00  0.00     0.293 HD
ENDBRANCH   2  22
BRANCH   9  24
ATOM     24  O   UNL     1       3.091   5.471  33.337  1.00  0.00    -0.508 OA
ATOM     25  H   UNL     1       2.605   5.169  32.501  1.00  0.00     0.293 HD
ENDBRANCH   9  24
TORSDOF 5
ENDMDL
MODEL 4
REMARK VINA RESULT:    -6.250      3.245      4.652
REMARK INTER + INTRA:          -7.670
REMARK INTER:                  -7.436
REMARK INTRA:                  -0.234
REMARK UNBOUND:                -0.324
REMARK SMILES O=c1c(O)c(-c2ccc(O)c(O)c2)oc2cc(O)ccc12
REMARK SMILES IDX 5 1 3 2 2 3 1 4 21 5 15 6 14 7 16 8 17 9 19 10 20 11 6 12
REMARK SMILES IDX 7 13 8 14 9 15 13 16 11 17 10 18 12 20 4 22 18 24
REMARK H PARENT 10 19 12 21 4 23 18 25
REMARK Flexibility Score: inf
ROOT
ATOM      1  C   UNL     1       2.604  10.747  35.230  1.00  0.00     0.180 A 
ATOM      2  C   UNL     1       1.715   9.713  34.869  1.00  0.00     0.208 A 
ATOM      3  C   UNL     1       2.152   8.731  33.966  1.00  0.00     0.235 A 
ATOM      4  O   UNL     1       1.381   7.790  33.636  1.00  0.00    -0.285 OA
ATOM      5  C   UNL     1       3.447   8.812  33.431  1.00  0.00     0.069 A 
ATOM      6  C   UNL     1       4.267   9.892  33.824  1.00  0.00     0.142 A 
ATOM      7  O   UNL     1       3.818  10.796  34.688  1.00  0.00    -0.452 OA
ATOM      8  C   UNL     1       5.561  10.014  33.305  1.00  0.00     0.094 A 
ATOM      9  C   UNL     1       6.049   9.065  32.396  1.00  0.00     0.119 A 
ATOM     10  C   UNL     1       5.239   7.994  32.007  1.00  0.00     0.047 A 
ATOM     11  C   UNL     1       3.944   7.864  32.518  1.00  0.00     0.020 A 
ENDROOT
BRANCH   1  12
ATOM     12  C   UNL     1       2.225  11.809  36.189  1.00  0.00     0.025 A 
ATOM     13  C   UNL     1       1.310  12.819  35.841  1.00  0.00     0.016 A 
ATOM     14  C   UNL     1       0.948  13.797  36.771  1.00  0.00     0.051 A 
ATOM     15  C   UNL     1       1.484  13.774  38.064  1.00  0.00     0.157 A 
ATOM     16  C   UNL     1       2.742  11.779  37.495  1.00  0.00     0.062 A 
ATOM     17  C   UNL     1       2.380  12.761  38.429  1.00  0.00     0.158 A 
BRANCH  15  18
ATOM     18  O   UNL     1       1.127  14.749  38.995  1.00  0.00    -0.504 OA
ATOM     19  H   UNL     1       1.521  14.758  39.928  1.00  0.00     0.293 HD
ENDBRANCH  15  18
BRANCH  17  20
ATOM     20  O   UNL     1       2.906  12.735  39.719  1.00  0.00    -0.504 OA
ATOM     21  H   UNL     1       3.073  11.863  40.206  1.00  0.00     0.293 HD
ENDBRANCH  17  20
ENDBRANCH   1  12
BRANCH   2  22
ATOM     22  O   UNL     1       0.415   9.685  35.380  1.00  0.00    -0.502 OA
ATOM     23  H   UNL     1      -0.276   9.015  35.066  1.00  0.00     0.293 HD
ENDBRANCH   2  22
BRANCH   9  24
ATOM     24  O   UNL     1       7.336   9.178  31.875  1.00  0.00    -0.508 OA
ATOM     25  H   UNL     1       7.547   9.821  31.121  1.00  0.00     0.293 HD
ENDBRANCH   9  24
TORSDOF 5
ENDMDL
MODEL 5
REMARK VINA RESULT:    -6.050      1.836      3.142
REMARK INTER + INTRA:          -7.435
REMARK INTER:                  -7.130
REMARK INTRA:                  -0.305
REMARK UNBOUND:                -0.324
REMARK SMILES O=c1c(O)c(-c2ccc(O)c(O)c2)oc2cc(O)ccc12
REMARK SMILES IDX 5 1 3 2 2 3 1 4 21 5 15 6 14 7 16 8 17 9 19 10 20 11 6 12
REMARK SMILES IDX 7 13 8 14 9 15 13 16 11 17 10 18 12 20 4 22 18 24
REMARK H PARENT 10 19 12 21 4 23 18 25
REMARK Flexibility Score: inf
ROOT
ATOM      1  C   UNL     1       3.504  11.258  35.430  1.00  0.00     0.180 A 
ATOM      2  C   UNL     1       2.407  11.262  36.316  1.00  0.00     0.208 A 
ATOM      3  C   UNL     1       1.396  10.304  36.146  1.00  0.00     0.235 A 
ATOM      4  O   UNL     1       0.410  10.279  36.932  1.00  0.00    -0.285 OA
ATOM      5  C   UNL     1       1.489   9.383  35.090  1.00  0.00     0.069 A 
ATOM      6  C   UNL     1       2.606   9.460  34.231  1.00  0.00     0.142 A 
ATOM      7  O   UNL     1       3.546  10.377  34.433  1.00  0.00    -0.452 OA
ATOM      8  C   UNL     1       2.730   8.567  33.162  1.00  0.00     0.094 A 
ATOM      9  C   UNL     1       1.747   7.591  32.939  1.00  0.00     0.119 A 
ATOM     10  C   UNL     1       0.641   7.513  33.790  1.00  0.00     0.047 A 
ATOM     11  C   UNL     1       0.507   8.402  34.860  1.00  0.00     0.020 A 
ENDROOT
BRANCH   1  12
ATOM     12  C   UNL     1       4.619  12.223  35.555  1.00  0.00     0.025 A 
ATOM     13  C   UNL     1       4.637  13.421  34.818  1.00  0.00     0.016 A 
ATOM     14  C   UNL     1       5.688  14.329  34.971  1.00  0.00     0.051 A 
ATOM     15  C   UNL     1       6.728  14.061  35.869  1.00  0.00     0.157 A 
ATOM     16  C   UNL     1       5.655  11.970  36.470  1.00  0.00     0.062 A 
ATOM     17  C   UNL     1       6.710  12.881  36.623  1.00  0.00     0.158 A 
BRANCH  15  18
ATOM     18  O   UNL     1       7.780  14.964  36.023  1.00  0.00    -0.504 OA
ATOM     19  H   UNL     1       8.683  14.801  35.594  1.00  0.00     0.293 HD
ENDBRANCH  15  18
BRANCH  17  20
ATOM     20  O   UNL     1       7.742  12.620  37.522  1.00  0.00    -0.504 OA
ATOM     21  H   UNL     1       8.509  12.001  37.284  1.00  0.00     0.293 HD
ENDBRANCH  17  20
ENDBRANCH   1  12
BRANCH   2  22
ATOM     22  O   UNL     1       2.318  12.221  37.328  1.00  0.00    -0.502 OA
ATOM     23  H   UNL     1       2.537  12.013  38.294  1.00  0.00     0.293 HD
ENDBRANCH   2  22
BRANCH   9  24
ATOM     24  O   UNL     1       1.863   6.698  31.877  1.00  0.00    -0.508 OA
ATOM     25  H   UNL     1       1.048   6.344  31.391  1.00  0.00     0.293 HD
ENDBRANCH   9  24
TORSDOF 5
ENDMDL
MODEL 6
REMARK VINA RESULT:    -6.038      1.670      2.068
REMARK INTER + INTRA:          -7.421
REMARK INTER:                  -7.334
REMARK INTRA:                  -0.087
REMARK UNBOUND:                -0.324
REMARK SMILES O=c1c(O)c(-c2ccc(O)c(O)c2)oc2cc(O)ccc12
REMARK SMILES IDX 5 1 3 2 2 3 1 4 21 5 15 6 14 7 16 8 17 9 19 10 20 11 6 12
REMARK SMILES IDX 7 13 8 14 9 15 13 16 11 17 10 18 12 20 4 22 18 24
REMARK H PARENT 10 19 12 21 4 23 18 25
REMARK Flexibility Score: inf
ROOT
ATOM      1  C   UNL     1       4.315  10.297  34.986  1.00  0.00     0.180 A 
ATOM      2  C   UNL     1       5.424   9.672  34.379  1.00  0.00     0.208 A 
ATOM      3  C   UNL     1       5.206   8.558  33.554  1.00  0.00     0.235 A 
ATOM      4  O   UNL     1       6.179   7.989  32.990  1.00  0.00    -0.285 OA
ATOM      5  C   UNL     1       3.898   8.081  33.370  1.00  0.00     0.069 A 
ATOM      6  C   UNL     1       2.843   8.747  34.033  1.00  0.00     0.142 A 
ATOM      7  O   UNL     1       3.093   9.804  34.798  1.00  0.00    -0.452 OA
ATOM      8  C   UNL     1       1.528   8.295  33.883  1.00  0.00     0.094 A 
ATOM      9  C   UNL     1       1.250   7.184  33.075  1.00  0.00     0.119 A 
ATOM     10  C   UNL     1       2.293   6.525  32.417  1.00  0.00     0.047 A 
ATOM     11  C   UNL     1       3.611   6.966  32.561  1.00  0.00     0.020 A 
ENDROOT
BRANCH   1  12
ATOM     12  C   UNL     1       4.461  11.486  35.855  1.00  0.00     0.025 A 
ATOM     13  C   UNL     1       4.068  11.460  37.205  1.00  0.00     0.016 A 
ATOM     14  C   UNL     1       4.238  12.588  38.012  1.00  0.00     0.051 A 
ATOM     15  C   UNL     1       4.814  13.752  37.488  1.00  0.00     0.157 A 
ATOM     16  C   UNL     1       5.057  12.650  35.340  1.00  0.00     0.062 A 
ATOM     17  C   UNL     1       5.227  13.782  36.150  1.00  0.00     0.158 A 
BRANCH  15  18
ATOM     18  O   UNL     1       4.983  14.880  38.289  1.00  0.00    -0.504 OA
ATOM     19  H   UNL     1       5.368  14.811  39.224  1.00  0.00     0.293 HD
ENDBRANCH  15  18
BRANCH  17  20
ATOM     20  O   UNL     1       5.806  14.939  35.632  1.00  0.00    -0.504 OA
ATOM     21  H   UNL     1       6.712  14.921  35.180  1.00  0.00     0.293 HD
ENDBRANCH  17  20
ENDBRANCH   1  12
BRANCH   2  22
ATOM     22  O   UNL     1       6.719  10.139  34.619  1.00  0.00    -0.502 OA
ATOM     23  H   UNL     1       7.025  10.442  35.536  1.00  0.00     0.293 HD
ENDBRANCH   2  22
BRANCH   9  24
ATOM     24  O   UNL     1      -0.057   6.729  32.920  1.00  0.00    -0.508 OA
ATOM     25  H   UNL     1      -0.286   5.985  32.273  1.00  0.00     0.293 HD
ENDBRANCH   9  24
TORSDOF 5
ENDMDL
MODEL 7
REMARK VINA RESULT:    -6.006      2.136      6.569
REMARK INTER + INTRA:          -7.383
REMARK INTER:                  -7.184
REMARK INTRA:                  -0.199
REMARK UNBOUND:                -0.324
REMARK SMILES O=c1c(O)c(-c2ccc(O)c(O)c2)oc2cc(O)ccc12
REMARK SMILES IDX 5 1 3 2 2 3 1 4 21 5 15 6 14 7 16 8 17 9 19 10 20 11 6 12
REMARK SMILES IDX 7 13 8 14 9 15 13 16 11 17 10 18 12 20 4 22 18 24
REMARK H PARENT 10 19 12 21 4 23 18 25
REMARK Flexibility Score: inf
ROOT
ATOM      1  C   UNL     1       4.952  11.435  34.871  1.00  0.00     0.180 A 
ATOM      2  C   UNL     1       6.110  11.755  35.609  1.00  0.00     0.208 A 
ATOM      3  C   UNL     1       6.364  13.099  35.922  1.00  0.00     0.235 A 
ATOM      4  O   UNL     1       7.387  13.410  36.591  1.00  0.00    -0.285 OA
ATOM      5  C   UNL     1       5.474  14.091  35.478  1.00  0.00     0.069 A 
ATOM      6  C   UNL     1       4.350  13.691  34.723  1.00  0.00     0.142 A 
ATOM      7  O   UNL     1       4.142  12.407  34.456  1.00  0.00    -0.452 OA
ATOM      8  C   UNL     1       3.446  14.650  34.253  1.00  0.00     0.094 A 
ATOM      9  C   UNL     1       3.651  16.009  34.531  1.00  0.00     0.119 A 
ATOM     10  C   UNL     1       4.763  16.406  35.279  1.00  0.00     0.047 A 
ATOM     11  C   UNL     1       5.673  15.456  35.752  1.00  0.00     0.020 A 
ENDROOT
BRANCH   1  12
ATOM     12  C   UNL     1       4.606  10.040  34.518  1.00  0.00     0.025 A 
ATOM     13  C   UNL     1       3.483   9.400  35.074  1.00  0.00     0.016 A 
ATOM     14  C   UNL     1       3.162   8.091  34.706  1.00  0.00     0.051 A 
ATOM     15  C   UNL     1       3.947   7.407  33.769  1.00  0.00     0.157 A 
ATOM     16  C   UNL     1       5.377   9.356  33.563  1.00  0.00     0.062 A 
ATOM     17  C   UNL     1       5.055   8.042  33.195  1.00  0.00     0.158 A 
BRANCH  15  18
ATOM     18  O   UNL     1       3.631   6.100  33.401  1.00  0.00    -0.504 OA
ATOM     19  H   UNL     1       4.353   5.409  33.234  1.00  0.00     0.293 HD
ENDBRANCH  15  18
BRANCH  17  20
ATOM     20  O   UNL     1       5.831   7.362  32.257  1.00  0.00    -0.504 OA
ATOM     21  H   UNL     1       5.425   6.680  31.628  1.00  0.00     0.293 HD
ENDBRANCH  17  20
ENDBRANCH   1  12
BRANCH   2  22
ATOM     22  O   UNL     1       7.003  10.752  35.996  1.00  0.00    -0.502 OA
ATOM     23  H   UNL     1       7.201  10.548  36.968  1.00  0.00     0.293 HD
ENDBRANCH   2  22
BRANCH   9  24
ATOM     24  O   UNL     1       2.755  16.970  34.067  1.00  0.00    -0.508 OA
ATOM     25  H   UNL     1       3.022  17.646  33.362  1.00  0.00     0.293 HD
ENDBRANCH   9  24
TORSDOF 5
ENDMDL
MODEL 8
REMARK VINA RESULT:    -5.873      3.472      5.185
REMARK INTER + INTRA:          -7.227
REMARK INTER:                  -7.255
REMARK INTRA:                   0.028
REMARK UNBOUND:                -0.324
REMARK SMILES O=c1c(O)c(-c2ccc(O)c(O)c2)oc2cc(O)ccc12
REMARK SMILES IDX 5 1 3 2 2 3 1 4 21 5 15 6 14 7 16 8 17 9 19 10 20 11 6 12
REMARK SMILES IDX 7 13 8 14 9 15 13 16 11 17 10 18 12 20 4 22 18 24
REMARK H PARENT 10 19 12 21 4 23 18 25
REMARK Flexibility Score: inf
ROOT
ATOM      1  C   UNL     1       3.213  11.879  35.114  1.00  0.00     0.180 A 
ATOM      2  C   UNL     1       4.223  12.796  34.756  1.00  0.00     0.208 A 
ATOM      3  C   UNL     1       5.317  12.338  34.005  1.00  0.00     0.235 A 
ATOM      4  O   UNL     1       6.228  13.140  33.662  1.00  0.00    -0.285 OA
ATOM      5  C   UNL     1       5.390  10.982  33.648  1.00  0.00     0.069 A 
ATOM      6  C   UNL     1       4.350  10.123  34.066  1.00  0.00     0.142 A 
ATOM      7  O   UNL     1       3.328  10.599  34.769  1.00  0.00    -0.452 OA
ATOM      8  C   UNL     1       4.392   8.764  33.739  1.00  0.00     0.094 A 
ATOM      9  C   UNL     1       5.462   8.249  32.994  1.00  0.00     0.119 A 
ATOM     10  C   UNL     1       6.492   9.098  32.578  1.00  0.00     0.047 A 
ATOM     11  C   UNL     1       6.461  10.458  32.901  1.00  0.00     0.020 A 
ENDROOT
BRANCH   1  12
ATOM     12  C   UNL     1       2.020  12.288  35.889  1.00  0.00     0.025 A 
ATOM     13  C   UNL     1       0.723  11.933  35.479  1.00  0.00     0.016 A 
ATOM     14  C   UNL     1      -0.387  12.308  36.240  1.00  0.00     0.051 A 
ATOM     15  C   UNL     1      -0.217  13.031  37.427  1.00  0.00     0.157 A 
ATOM     16  C   UNL     1       2.185  12.995  37.092  1.00  0.00     0.062 A 
ATOM     17  C   UNL     1       1.071  13.373  37.856  1.00  0.00     0.158 A 
BRANCH  15  18
ATOM     18  O   UNL     1      -1.322  13.410  38.189  1.00  0.00    -0.504 OA
ATOM     19  H   UNL     1      -1.841  14.256  37.983  1.00  0.00     0.293 HD
ENDBRANCH  15  18
BRANCH  17  20
ATOM     20  O   UNL     1       1.239  14.086  39.041  1.00  0.00    -0.504 OA
ATOM     21  H   UNL     1       0.548  14.756  39.359  1.00  0.00     0.293 HD
ENDBRANCH  17  20
ENDBRANCH   1  12
BRANCH   2  22
ATOM     22  O   UNL     1       4.149  14.129  35.167  1.00  0.00    -0.502 OA
ATOM     23  H   UNL     1       4.790  14.837  34.831  1.00  0.00     0.293 HD
ENDBRANCH   2  22
BRANCH   9  24
ATOM     24  O   UNL     1       5.511   6.897  32.664  1.00  0.00    -0.508 OA
ATOM     25  H   UNL     1       5.181   6.558  31.768  1.00  0.00     0.293 HD
ENDBRANCH   9  24
TORSDOF 5
ENDMDL
MODEL 9
REMARK VINA RESULT:    -5.838      2.469      7.043
REMARK INTER + INTRA:          -7.186
REMARK INTER:                  -6.908
REMARK INTRA:                  -0.278
REMARK UNBOUND:                -0.324
REMARK SMILES O=c1c(O)c(-c2ccc(O)c(O)c2)oc2cc(O)ccc12
REMARK SMILES IDX 5 1 3 2 2 3 1 4 21 5 15 6 14 7 16 8 17 9 19 10 20 11 6 12
REMARK SMILES IDX 7 13 8 14 9 15 13 16 11 17 10 18 12 20 4 22 18 24
REMARK H PARENT 10 19 12 21 4 23 18 25
REMARK Flexibility Score: inf
ROOT
ATOM      1  C   UNL     1       3.293  10.349  35.721  1.00  0.00     0.180 A 
ATOM      2  C   UNL     1       3.126  10.331  37.121  1.00  0.00     0.208 A 
ATOM      3  C   UNL     1       3.449  11.482  37.856  1.00  0.00     0.235 A 
ATOM      4  O   UNL     1       3.298  11.495  39.107  1.00  0.00    -0.285 OA
ATOM      5  C   UNL     1       3.949  12.610  37.186  1.00  0.00     0.069 A 
ATOM      6  C   UNL     1       4.111  12.541  35.786  1.00  0.00     0.142 A 
ATOM      7  O   UNL     1       3.784  11.434  35.126  1.00  0.00    -0.452 OA
ATOM      8  C   UNL     1       4.616  13.640  35.084  1.00  0.00     0.094 A 
ATOM      9  C   UNL     1       4.961  14.816  35.766  1.00  0.00     0.119 A 
ATOM     10  C   UNL     1       4.800  14.887  37.153  1.00  0.00     0.047 A 
ATOM     11  C   UNL     1       4.298  13.793  37.864  1.00  0.00     0.020 A 
ENDROOT
BRANCH   1  12
ATOM     12  C   UNL     1       2.957   9.182  34.874  1.00  0.00     0.025 A 
ATOM     13  C   UNL     1       1.624   8.862  34.563  1.00  0.00     0.016 A 
ATOM     14  C   UNL     1       1.332   7.770  33.742  1.00  0.00     0.051 A 
ATOM     15  C   UNL     1       2.366   6.992  33.208  1.00  0.00     0.157 A 
ATOM     16  C   UNL     1       3.991   8.410  34.318  1.00  0.00     0.062 A 
ATOM     17  C   UNL     1       3.699   7.314  33.494  1.00  0.00     0.158 A 
BRANCH  15  18
ATOM     18  O   UNL     1       2.079   5.900  32.389  1.00  0.00    -0.504 OA
ATOM     19  H   UNL     1       1.923   4.976  32.776  1.00  0.00     0.293 HD
ENDBRANCH  15  18
BRANCH  17  20
ATOM     20  O   UNL     1       4.726   6.542  32.956  1.00  0.00    -0.504 OA
ATOM     21  H   UNL     1       4.576   5.944  32.152  1.00  0.00     0.293 HD
ENDBRANCH  17  20
ENDBRANCH   1  12
BRANCH   2  22
ATOM     22  O   UNL     1       2.673   9.177  37.765  1.00  0.00    -0.502 OA
ATOM     23  H   UNL     1       1.754   9.118  38.188  1.00  0.00     0.293 HD
ENDBRANCH   2  22
BRANCH   9  24
ATOM     24  O   UNL     1       5.464  15.915  35.075  1.00  0.00    -0.508 OA
ATOM     25  H   UNL     1       4.992  16.811  35.089  1.00  0.00     0.293 HD
ENDBRANCH   9  24
TORSDOF 5
ENDMDL
