MODEL 1
REMARK VINA RESULT:    -3.733      0.000      0.000
REMARK INTER + INTRA:          -7.741
REMARK INTER:                  -7.006
REMARK INTRA:                  -0.735
REMARK UNBOUND:                -0.735
REMARK SMILES O=C([O-])CCCCCCCCCCCCCCC(=O)[O-]
REMARK SMILES IDX 10 1 9 2 8 3 7 4 6 5 5 6 4 7 2 8 1 9 3 10 11 11 12 12 13 13
REMARK SMILES IDX 14 14 15 15 16 16 17 17 18 18 19 19 20 20
REMARK H PARENT
REMARK Flexibility Score: inf
ROOT
ATOM      1  C   UNL     1      34.759  29.127  17.204  1.00  0.00     0.000 C 
ENDROOT
BRANCH   1   2
ATOM      2  C   UNL     1      34.774  28.744  18.698  1.00  0.00     0.000 C 
BRANCH   2   3
ATOM      3  C   UNL     1      36.170  28.514  19.301  1.00  0.00     0.000 C 
BRANCH   3   4
ATOM      4  C   UNL     1      36.119  27.992  20.744  1.00  0.00     0.000 C 
BRANCH   4   5
ATOM      5  C   UNL     1      35.248  28.897  21.624  1.00  0.00     0.000 C 
BRANCH   5   6
ATOM      6  C   UNL     1      36.111  29.728  22.583  1.00  0.00     0.006 C 
BRANCH   6   7
ATOM      7  C   UNL     1      36.581  28.883  23.770  1.00  0.00     0.053 C 
BRANCH   7   8
ATOM      8  C   UNL     1      35.430  28.559  24.670  1.00  0.00     0.041 C 
ATOM      9  O   UNL     1      35.271  27.384  25.094  1.00  0.00    -0.550 OA
ATOM     10  O   UNL     1      34.506  29.542  25.000  1.00  0.00    -0.550 OA
ENDBRANCH   7   8
ENDBRANCH   6   7
ENDBRANCH   5   6
ENDBRANCH   4   5
ENDBRANCH   3   4
ENDBRANCH   2   3
ENDBRANCH   1   2
BRANCH   1  11
ATOM     11  C   UNL     1      35.842  28.455  16.340  1.00  0.00     0.000 C 
BRANCH  11  12
ATOM     12  C   UNL     1      35.491  27.007  15.961  1.00  0.00     0.000 C 
BRANCH  12  13
ATOM     13  C   UNL     1      34.941  26.878  14.528  1.00  0.00     0.000 C 
BRANCH  13  14
ATOM     14  C   UNL     1      36.001  26.885  13.410  1.00  0.00     0.000 C 
BRANCH  14  15
ATOM     15  C   UNL     1      35.387  26.933  12.001  1.00  0.00     0.000 C 
BRANCH  15  16
ATOM     16  C   UNL     1      33.937  27.451  12.001  1.00  0.00     0.006 C 
BRANCH  16  17
ATOM     17  C   UNL     1      33.810  28.981  11.915  1.00  0.00     0.053 C 
BRANCH  17  18
ATOM     18  C   UNL     1      32.908  29.530  12.978  1.00  0.00     0.041 C 
ATOM     19  O   UNL     1      32.497  28.786  13.907  1.00  0.00    -0.550 OA
ATOM     20  O   UNL     1      32.548  30.871  12.957  1.00  0.00    -0.550 OA
ENDBRANCH  17  18
ENDBRANCH  16  17
ENDBRANCH  15  16
ENDBRANCH  14  15
ENDBRANCH  13  14
ENDBRANCH  12  13
ENDBRANCH  11  12
ENDBRANCH   1  11
TORSDOF 15
ENDMDL
MODEL 2
REMARK VINA RESULT:    -3.696      1.120      9.364
REMARK INTER + INTRA:          -7.673
REMARK INTER:                  -7.015
REMARK INTRA:                  -0.658
REMARK UNBOUND:                -0.735
REMARK SMILES O=C([O-])CCCCCCCCCCCCCCC(=O)[O-]
REMARK SMILES IDX 10 1 9 2 8 3 7 4 6 5 5 6 4 7 2 8 1 9 3 10 11 11 12 12 13 13
REMARK SMILES IDX 14 14 15 15 16 16 17 17 18 18 19 19 20 20
REMARK H PARENT
REMARK Flexibility Score: inf
ROOT
ATOM      1  C   UNL     1      35.310  28.318  16.692  1.00  0.00     0.000 C 
ENDROOT
BRANCH   1   2
ATOM      2  C   UNL     1      36.416  27.330  16.266  1.00  0.00     0.000 C 
BRANCH   2   3
ATOM      3  C   UNL     1      36.447  26.990  14.766  1.00  0.00     0.000 C 
BRANCH   3   4
ATOM      4  C   UNL     1      35.054  27.018  14.120  1.00  0.00     0.000 C 
BRANCH   4   5
ATOM      5  C   UNL     1      35.154  26.875  12.597  1.00  0.00     0.000 C 
BRANCH   5   6
ATOM      6  C   UNL     1      34.044  27.669  11.895  1.00  0.00     0.006 C 
BRANCH   6   7
ATOM      7  C   UNL     1      34.097  29.148  12.285  1.00  0.00     0.053 C 
BRANCH   7   8
ATOM      8  C   UNL     1      32.884  29.526  13.074  1.00  0.00     0.041 C 
ATOM      9  O   UNL     1      32.294  28.665  13.779  1.00  0.00    -0.550 OA
ATOM     10  O   UNL     1      32.376  30.816  12.994  1.00  0.00    -0.550 OA
ENDBRANCH   7   8
ENDBRANCH   6   7
ENDBRANCH   5   6
ENDBRANCH   4   5
ENDBRANCH   3   4
ENDBRANCH   2   3
ENDBRANCH   1   2
BRANCH   1  11
ATOM     11  C   UNL     1      35.572  29.075  18.006  1.00  0.00     0.000 C 
BRANCH  11  12
ATOM     12  C   UNL     1      34.717  28.559  19.175  1.00  0.00     0.000 C 
BRANCH  12  13
ATOM     13  C   UNL     1      35.269  27.261  19.796  1.00  0.00     0.000 C 
BRANCH  13  14
ATOM     14  C   UNL     1      36.451  27.443  20.767  1.00  0.00     0.000 C 
BRANCH  14  15
ATOM     15  C   UNL     1      36.025  27.400  22.244  1.00  0.00     0.000 C 
BRANCH  15  16
ATOM     16  C   UNL     1      35.421  28.731  22.728  1.00  0.00     0.006 C 
BRANCH  16  17
ATOM     17  C   UNL     1      36.444  29.716  23.318  1.00  0.00     0.053 C 
BRANCH  17  18
ATOM     18  C   UNL     1      35.863  30.525  24.437  1.00  0.00     0.041 C 
ATOM     19  O   UNL     1      36.425  31.588  24.809  1.00  0.00    -0.550 OA
ATOM     20  O   UNL     1      34.684  30.118  25.048  1.00  0.00    -0.550 OA
ENDBRANCH  17  18
ENDBRANCH  16  17
ENDBRANCH  15  16
ENDBRANCH  14  15
ENDBRANCH  13  14
ENDBRANCH  12  13
ENDBRANCH  11  12
ENDBRANCH   1  11
TORSDOF 15
ENDMDL
MODEL 3
REMARK VINA RESULT:    -3.524      1.746      9.579
REMARK INTER + INTRA:          -7.350
REMARK INTER:                  -6.464
REMARK INTRA:                  -0.887
REMARK UNBOUND:                -0.735
REMARK SMILES O=C([O-])CCCCCCCCCCCCCCC(=O)[O-]
REMARK SMILES IDX 10 1 9 2 8 3 7 4 6 5 5 6 4 7 2 8 1 9 3 10 11 11 12 12 13 13
REMARK SMILES IDX 14 14 15 15 16 16 17 17 18 18 19 19 20 20
REMARK H PARENT
REMARK Flexibility Score: inf
ROOT
ATOM      1  C   UNL     1      34.880  29.130  18.311  1.00  0.00     0.000 C 
ENDROOT
BRANCH   1   2
ATOM      2  C   UNL     1      34.916  28.615  16.857  1.00  0.00     0.000 C 
BRANCH   2   3
ATOM      3  C   UNL     1      36.052  27.627  16.541  1.00  0.00     0.000 C 
BRANCH   3   4
ATOM      4  C   UNL     1      35.840  26.878  15.217  1.00  0.00     0.000 C 
BRANCH   4   5
ATOM      5  C   UNL     1      35.590  27.859  14.066  1.00  0.00     0.000 C 
BRANCH   5   6
ATOM      6  C   UNL     1      34.557  27.298  13.079  1.00  0.00     0.006 C 
BRANCH   6   7
ATOM      7  C   UNL     1      33.911  28.422  12.265  1.00  0.00     0.053 C 
BRANCH   7   8
ATOM      8  C   UNL     1      32.939  29.186  13.107  1.00  0.00     0.041 C 
ATOM      9  O   UNL     1      32.278  28.597  14.003  1.00  0.00    -0.550 OA
ATOM     10  O   UNL     1      32.725  30.538  12.870  1.00  0.00    -0.550 OA
ENDBRANCH   7   8
ENDBRANCH   6   7
ENDBRANCH   5   6
ENDBRANCH   4   5
ENDBRANCH   3   4
ENDBRANCH   2   3
ENDBRANCH   1   2
BRANCH   1  11
ATOM     11  C   UNL     1      35.287  28.104  19.384  1.00  0.00     0.000 C 
BRANCH  11  12
ATOM     12  C   UNL     1      36.648  28.418  20.027  1.00  0.00     0.000 C 
BRANCH  12  13
ATOM     13  C   UNL     1      36.559  28.631  21.550  1.00  0.00     0.000 C 
BRANCH  13  14
ATOM     14  C   UNL     1      35.137  28.834  22.107  1.00  0.00     0.000 C 
BRANCH  14  15
ATOM     15  C   UNL     1      35.120  29.135  23.615  1.00  0.00     0.000 C 
BRANCH  15  16
ATOM     16  C   UNL     1      36.492  29.590  24.146  1.00  0.00     0.006 C 
BRANCH  16  17
ATOM     17  C   UNL     1      36.447  30.853  25.021  1.00  0.00     0.053 C 
BRANCH  17  18
ATOM     18  C   UNL     1      36.722  32.094  24.229  1.00  0.00     0.041 C 
ATOM     19  O   UNL     1      36.833  33.206  24.809  1.00  0.00    -0.550 OA
ATOM     20  O   UNL     1      36.887  32.016  22.851  1.00  0.00    -0.550 OA
ENDBRANCH  17  18
ENDBRANCH  16  17
ENDBRANCH  15  16
ENDBRANCH  14  15
ENDBRANCH  13  14
ENDBRANCH  12  13
ENDBRANCH  11  12
ENDBRANCH   1  11
TORSDOF 15
ENDMDL
MODEL 4
REMARK VINA RESULT:    -3.461      1.679      2.202
REMARK INTER + INTRA:          -7.231
REMARK INTER:                  -6.350
REMARK INTRA:                  -0.881
REMARK UNBOUND:                -0.735
REMARK SMILES O=C([O-])CCCCCCCCCCCCCCC(=O)[O-]
REMARK SMILES IDX 10 1 9 2 8 3 7 4 6 5 5 6 4 7 2 8 1 9 3 10 11 11 12 12 13 13
REMARK SMILES IDX 14 14 15 15 16 16 17 17 18 18 19 19 20 20
REMARK H PARENT
REMARK Flexibility Score: inf
ROOT
ATOM      1  C   UNL     1      34.978  28.536  19.062  1.00  0.00     0.000 C 
ENDROOT
BRANCH   1   2
ATOM      2  C   UNL     1      35.501  27.132  19.429  1.00  0.00     0.000 C 
BRANCH   2   3
ATOM      3  C   UNL     1      35.684  26.875  20.934  1.00  0.00     0.000 C 
BRANCH   3   4
ATOM      4  C   UNL     1      36.624  27.889  21.602  1.00  0.00     0.000 C 
BRANCH   4   5
ATOM      5  C   UNL     1      36.315  28.022  23.097  1.00  0.00     0.000 C 
BRANCH   5   6
ATOM      6  C   UNL     1      35.223  29.072  23.343  1.00  0.00     0.006 C 
BRANCH   6   7
ATOM      7  C   UNL     1      35.597  29.989  24.511  1.00  0.00     0.053 C 
BRANCH   7   8
ATOM      8  C   UNL     1      36.306  31.209  24.013  1.00  0.00     0.041 C 
ATOM      9  O   UNL     1      36.748  32.061  24.829  1.00  0.00    -0.550 OA
ATOM     10  O   UNL     1      36.434  31.431  22.648  1.00  0.00    -0.550 OA
ENDBRANCH   7   8
ENDBRANCH   6   7
ENDBRANCH   5   6
ENDBRANCH   4   5
ENDBRANCH   3   4
ENDBRANCH   2   3
ENDBRANCH   1   2
BRANCH   1  11
ATOM     11  C   UNL     1      35.276  28.995  17.623  1.00  0.00     0.000 C 
BRANCH  11  12
ATOM     12  C   UNL     1      35.646  27.832  16.688  1.00  0.00     0.000 C 
BRANCH  12  13
ATOM     13  C   UNL     1      36.943  28.086  15.897  1.00  0.00     0.000 C 
BRANCH  13  14
ATOM     14  C   UNL     1      36.946  27.565  14.447  1.00  0.00     0.000 C 
BRANCH  14  15
ATOM     15  C   UNL     1      35.629  26.876  14.055  1.00  0.00     0.000 C 
BRANCH  15  16
ATOM     16  C   UNL     1      35.330  26.977  12.548  1.00  0.00     0.006 C 
BRANCH  16  17
ATOM     17  C   UNL     1      33.855  27.245  12.209  1.00  0.00     0.053 C 
BRANCH  17  18
ATOM     18  C   UNL     1      33.435  28.632  12.587  1.00  0.00     0.041 C 
ATOM     19  O   UNL     1      32.506  28.810  13.418  1.00  0.00    -0.550 OA
ATOM     20  O   UNL     1      34.093  29.728  12.043  1.00  0.00    -0.550 OA
ENDBRANCH  17  18
ENDBRANCH  16  17
ENDBRANCH  15  16
ENDBRANCH  14  15
ENDBRANCH  13  14
ENDBRANCH  12  13
ENDBRANCH  11  12
ENDBRANCH   1  11
TORSDOF 15
ENDMDL
MODEL 5
REMARK VINA RESULT:    -3.458      0.893      1.344
REMARK INTER + INTRA:          -7.225
REMARK INTER:                  -6.670
REMARK INTRA:                  -0.555
REMARK UNBOUND:                -0.735
REMARK SMILES O=C([O-])CCCCCCCCCCCCCCC(=O)[O-]
REMARK SMILES IDX 10 1 9 2 8 3 7 4 6 5 5 6 4 7 2 8 1 9 3 10 11 11 12 12 13 13
REMARK SMILES IDX 14 14 15 15 16 16 17 17 18 18 19 19 20 20
REMARK H PARENT
REMARK Flexibility Score: inf
ROOT
ATOM      1  C   UNL     1      34.882  29.055  16.987  1.00  0.00     0.000 C 
ENDROOT
BRANCH   1   2
ATOM      2  C   UNL     1      34.798  28.627  18.467  1.00  0.00     0.000 C 
BRANCH   2   3
ATOM      3  C   UNL     1      35.981  27.781  18.970  1.00  0.00     0.000 C 
BRANCH   3   4
ATOM      4  C   UNL     1      36.758  28.460  20.108  1.00  0.00     0.000 C 
BRANCH   4   5
ATOM      5  C   UNL     1      35.802  29.024  21.165  1.00  0.00     0.000 C 
BRANCH   5   6
ATOM      6  C   UNL     1      36.578  29.624  22.345  1.00  0.00     0.006 C 
BRANCH   6   7
ATOM      7  C   UNL     1      36.220  28.914  23.653  1.00  0.00     0.053 C 
BRANCH   7   8
ATOM      8  C   UNL     1      35.179  29.686  24.401  1.00  0.00     0.041 C 
ATOM      9  O   UNL     1      35.454  30.817  24.883  1.00  0.00    -0.550 OA
ATOM     10  O   UNL     1      33.921  29.137  24.609  1.00  0.00    -0.550 OA
ENDBRANCH   7   8
ENDBRANCH   6   7
ENDBRANCH   5   6
ENDBRANCH   4   5
ENDBRANCH   3   4
ENDBRANCH   2   3
ENDBRANCH   1   2
BRANCH   1  11
ATOM     11  C   UNL     1      36.263  28.889  16.329  1.00  0.00     0.000 C 
BRANCH  11  12
ATOM     12  C   UNL     1      36.414  27.552  15.585  1.00  0.00     0.000 C 
BRANCH  12  13
ATOM     13  C   UNL     1      36.965  27.719  14.156  1.00  0.00     0.000 C 
BRANCH  13  14
ATOM     14  C   UNL     1      36.262  26.875  13.075  1.00  0.00     0.000 C 
BRANCH  14  15
ATOM     15  C   UNL     1      34.729  26.973  13.140  1.00  0.00     0.000 C 
BRANCH  15  16
ATOM     16  C   UNL     1      34.129  27.736  11.945  1.00  0.00     0.006 C 
BRANCH  16  17
ATOM     17  C   UNL     1      34.018  29.255  12.153  1.00  0.00     0.053 C 
BRANCH  17  18
ATOM     18  C   UNL     1      32.872  29.617  13.047  1.00  0.00     0.041 C 
ATOM     19  O   UNL     1      32.378  30.775  13.008  1.00  0.00    -0.550 OA
ATOM     20  O   UNL     1      32.330  28.665  13.901  1.00  0.00    -0.550 OA
ENDBRANCH  17  18
ENDBRANCH  16  17
ENDBRANCH  15  16
ENDBRANCH  14  15
ENDBRANCH  13  14
ENDBRANCH  12  13
ENDBRANCH  11  12
ENDBRANCH   1  11
TORSDOF 15
ENDMDL
MODEL 6
REMARK VINA RESULT:    -3.442      1.285      9.232
REMARK INTER + INTRA:          -7.195
REMARK INTER:                  -6.421
REMARK INTRA:                  -0.774
REMARK UNBOUND:                -0.735
REMARK SMILES O=C([O-])CCCCCCCCCCCCCCC(=O)[O-]
REMARK SMILES IDX 10 1 9 2 8 3 7 4 6 5 5 6 4 7 2 8 1 9 3 10 11 11 12 12 13 13
REMARK SMILES IDX 14 14 15 15 16 16 17 17 18 18 19 19 20 20
REMARK H PARENT
REMARK Flexibility Score: inf
ROOT
ATOM      1  C   UNL     1      35.373  28.709  16.145  1.00  0.00     0.000 C 
ENDROOT
BRANCH   1   2
ATOM      2  C   UNL     1      35.126  27.531  15.180  1.00  0.00     0.000 C 
BRANCH   2   3
ATOM      3  C   UNL     1      36.322  27.154  14.289  1.00  0.00     0.000 C 
BRANCH   3   4
ATOM      4  C   UNL     1      35.917  26.875  12.834  1.00  0.00     0.000 C 
BRANCH   4   5
ATOM      5  C   UNL     1      34.405  27.039  12.644  1.00  0.00     0.000 C 
BRANCH   5   6
ATOM      6  C   UNL     1      34.093  28.155  11.639  1.00  0.00     0.006 C 
BRANCH   6   7
ATOM      7  C   UNL     1      34.073  29.522  12.326  1.00  0.00     0.053 C 
BRANCH   7   8
ATOM      8  C   UNL     1      32.765  29.742  13.019  1.00  0.00     0.041 C 
ATOM      9  O   UNL     1      32.121  30.808  12.831  1.00  0.00    -0.550 OA
ATOM     10  O   UNL     1      32.281  28.793  13.909  1.00  0.00    -0.550 OA
ENDBRANCH   7   8
ENDBRANCH   6   7
ENDBRANCH   5   6
ENDBRANCH   4   5
ENDBRANCH   3   4
ENDBRANCH   2   3
ENDBRANCH   1   2
BRANCH   1  11
ATOM     11  C   UNL     1      36.823  28.865  16.638  1.00  0.00     0.000 C 
BRANCH  11  12
ATOM     12  C   UNL     1      37.088  28.126  17.960  1.00  0.00     0.000 C 
BRANCH  12  13
ATOM     13  C   UNL     1      35.992  28.369  19.015  1.00  0.00     0.000 C 
BRANCH  13  14
ATOM     14  C   UNL     1      36.093  27.502  20.284  1.00  0.00     0.000 C 
BRANCH  14  15
ATOM     15  C   UNL     1      35.556  28.211  21.539  1.00  0.00     0.000 C 
BRANCH  15  16
ATOM     16  C   UNL     1      36.102  29.642  21.693  1.00  0.00     0.006 C 
BRANCH  16  17
ATOM     17  C   UNL     1      36.958  29.864  22.950  1.00  0.00     0.053 C 
BRANCH  17  18
ATOM     18  C   UNL     1      36.415  30.962  23.813  1.00  0.00     0.041 C 
ATOM     19  O   UNL     1      35.642  30.693  24.770  1.00  0.00    -0.550 OA
ATOM     20  O   UNL     1      36.788  32.279  23.577  1.00  0.00    -0.550 OA
ENDBRANCH  17  18
ENDBRANCH  16  17
ENDBRANCH  15  16
ENDBRANCH  14  15
ENDBRANCH  13  14
ENDBRANCH  12  13
ENDBRANCH  11  12
ENDBRANCH   1  11
TORSDOF 15
ENDMDL
MODEL 7
REMARK VINA RESULT:    -2.607      2.245      3.348
REMARK INTER + INTRA:          -5.629
REMARK INTER:                  -5.031
REMARK INTRA:                  -0.598
REMARK UNBOUND:                -0.735
REMARK SMILES O=C([O-])CCCCCCCCCCCCCCC(=O)[O-]
REMARK SMILES IDX 10 1 9 2 8 3 7 4 6 5 5 6 4 7 2 8 1 9 3 10 11 11 12 12 13 13
REMARK SMILES IDX 14 14 15 15 16 16 17 17 18 18 19 19 20 20
REMARK H PARENT
REMARK Flexibility Score: inf
ROOT
ATOM      1  C   UNL     1      34.663  29.076  20.336  1.00  0.00     0.000 C 
ENDROOT
BRANCH   1   2
ATOM      2  C   UNL     1      35.154  27.835  21.109  1.00  0.00     0.000 C 
BRANCH   2   3
ATOM      3  C   UNL     1      35.749  28.122  22.498  1.00  0.00     0.000 C 
BRANCH   3   4
ATOM      4  C   UNL     1      35.175  29.393  23.141  1.00  0.00     0.000 C 
BRANCH   4   5
ATOM      5  C   UNL     1      35.820  29.656  24.507  1.00  0.00     0.000 C 
BRANCH   5   6
ATOM      6  C   UNL     1      37.023  30.599  24.375  1.00  0.00     0.006 C 
BRANCH   6   7
ATOM      7  C   UNL     1      36.567  32.036  24.113  1.00  0.00     0.053 C 
BRANCH   7   8
ATOM      8  C   UNL     1      36.936  32.458  22.726  1.00  0.00     0.041 C 
ATOM      9  O   UNL     1      37.122  31.593  21.829  1.00  0.00    -0.550 OA
ATOM     10  O   UNL     1      37.124  33.803  22.434  1.00  0.00    -0.550 OA
ENDBRANCH   7   8
ENDBRANCH   6   7
ENDBRANCH   5   6
ENDBRANCH   4   5
ENDBRANCH   3   4
ENDBRANCH   2   3
ENDBRANCH   1   2
BRANCH   1  11
ATOM     11  C   UNL     1      35.052  29.123  18.847  1.00  0.00     0.000 C 
BRANCH  11  12
ATOM     12  C   UNL     1      35.014  27.741  18.175  1.00  0.00     0.000 C 
BRANCH  12  13
ATOM     13  C   UNL     1      36.416  27.152  17.931  1.00  0.00     0.000 C 
BRANCH  13  14
ATOM     14  C   UNL     1      36.826  27.013  16.452  1.00  0.00     0.000 C 
BRANCH  14  15
ATOM     15  C   UNL     1      36.226  28.110  15.557  1.00  0.00     0.000 C 
BRANCH  15  16
ATOM     16  C   UNL     1      35.072  27.596  14.678  1.00  0.00     0.006 C 
BRANCH  16  17
ATOM     17  C   UNL     1      35.019  28.218  13.273  1.00  0.00     0.053 C 
BRANCH  17  18
ATOM     18  C   UNL     1      33.630  28.219  12.712  1.00  0.00     0.041 C 
ATOM     19  O   UNL     1      32.685  28.743  13.359  1.00  0.00    -0.550 OA
ATOM     20  O   UNL     1      33.386  27.668  11.460  1.00  0.00    -0.550 OA
ENDBRANCH  17  18
ENDBRANCH  16  17
ENDBRANCH  15  16
ENDBRANCH  14  15
ENDBRANCH  13  14
ENDBRANCH  12  13
ENDBRANCH  11  12
ENDBRANCH   1  11
TORSDOF 15
ENDMDL
MODEL 8
REMARK VINA RESULT:    -2.519      1.125      9.355
REMARK INTER + INTRA:          -5.463
REMARK INTER:                  -4.807
REMARK INTRA:                  -0.656
REMARK UNBOUND:                -0.735
REMARK SMILES O=C([O-])CCCCCCCCCCCCCCC(=O)[O-]
REMARK SMILES IDX 10 1 9 2 8 3 7 4 6 5 5 6 4 7 2 8 1 9 3 10 11 11 12 12 13 13
REMARK SMILES IDX 14 14 15 15 16 16 17 17 18 18 19 19 20 20
REMARK H PARENT
REMARK Flexibility Score: inf
ROOT
ATOM      1  C   UNL     1      35.516  28.274  15.828  1.00  0.00     0.000 C 
ENDROOT
BRANCH   1   2
ATOM      2  C   UNL     1      35.756  27.249  14.700  1.00  0.00     0.000 C 
BRANCH   2   3
ATOM      3  C   UNL     1      34.511  26.879  13.877  1.00  0.00     0.000 C 
BRANCH   3   4
ATOM      4  C   UNL     1      34.775  26.875  12.364  1.00  0.00     0.000 C 
BRANCH   4   5
ATOM      5  C   UNL     1      33.947  27.956  11.660  1.00  0.00     0.000 C 
BRANCH   5   6
ATOM      6  C   UNL     1      33.806  29.204  12.542  1.00  0.00     0.006 C 
BRANCH   6   7
ATOM      7  C   UNL     1      32.402  29.292  13.146  1.00  0.00     0.053 C 
BRANCH   7   8
ATOM      8  C   UNL     1      31.842  30.668  12.971  1.00  0.00     0.041 C 
ATOM      9  O   UNL     1      30.596  30.853  13.001  1.00  0.00    -0.550 OA
ATOM     10  O   UNL     1      32.691  31.739  12.725  1.00  0.00    -0.550 OA
ENDBRANCH   7   8
ENDBRANCH   6   7
ENDBRANCH   5   6
ENDBRANCH   4   5
ENDBRANCH   3   4
ENDBRANCH   2   3
ENDBRANCH   1   2
BRANCH   1  11
ATOM     11  C   UNL     1      36.785  28.797  16.526  1.00  0.00     0.000 C 
BRANCH  11  12
ATOM     12  C   UNL     1      36.556  29.135  18.008  1.00  0.00     0.000 C 
BRANCH  12  13
ATOM     13  C   UNL     1      35.076  29.045  18.424  1.00  0.00     0.000 C 
BRANCH  13  14
ATOM     14  C   UNL     1      34.824  28.636  19.888  1.00  0.00     0.000 C 
BRANCH  14  15
ATOM     15  C   UNL     1      36.009  27.880  20.512  1.00  0.00     0.000 C 
BRANCH  15  16
ATOM     16  C   UNL     1      35.965  27.871  22.051  1.00  0.00     0.006 C 
BRANCH  16  17
ATOM     17  C   UNL     1      35.208  29.057  22.671  1.00  0.00     0.053 C 
BRANCH  17  18
ATOM     18  C   UNL     1      35.096  28.934  24.160  1.00  0.00     0.041 C 
ATOM     19  O   UNL     1      34.889  29.955  24.867  1.00  0.00    -0.550 OA
ATOM     20  O   UNL     1      35.191  27.686  24.763  1.00  0.00    -0.550 OA
ENDBRANCH  17  18
ENDBRANCH  16  17
ENDBRANCH  15  16
ENDBRANCH  14  15
ENDBRANCH  13  14
ENDBRANCH  12  13
ENDBRANCH  11  12
ENDBRANCH   1  11
TORSDOF 15
ENDMDL
