MODEL 1
REMARK VINA RESULT:    -3.752      0.000      0.000
REMARK INTER + INTRA:          -6.925
REMARK INTER:                  -5.945
REMARK INTRA:                  -0.980
REMARK UNBOUND:                -0.980
REMARK SMILES CCCCCCCCCCCC(=O)[O-]
REMARK SMILES IDX 7 1 8 2 9 3 10 4 11 5 12 6 13 7 14 8 6 9 5 10 4 11 3 12 2 13
REMARK SMILES IDX 1 14
REMARK H PARENT
REMARK Flexibility Score: inf
ROOT
ATOM      1  C   UNL     1      38.465  25.785 223.829  1.00  0.00     0.000 C 
ENDROOT
BRANCH   1   2
ATOM      2  C   UNL     1      39.559  24.716 223.686  1.00  0.00     0.000 C 
BRANCH   2   3
ATOM      3  C   UNL     1      39.713  24.281 222.223  1.00  0.00     0.000 C 
BRANCH   3   4
ATOM      4  C   UNL     1      39.986  22.773 222.122  1.00  0.00     0.006 C 
BRANCH   4   5
ATOM      5  C   UNL     1      41.417  22.412 222.539  1.00  0.00     0.053 C 
BRANCH   5   6
ATOM      6  C   UNL     1      41.960  21.272 221.735  1.00  0.00     0.041 C 
ATOM      7  O   UNL     1      41.253  20.732 220.844  1.00  0.00    -0.550 OA
ATOM      8  O   UNL     1      43.261  20.828 221.945  1.00  0.00    -0.550 OA
ENDBRANCH   5   6
ENDBRANCH   4   5
ENDBRANCH   3   4
ENDBRANCH   2   3
ENDBRANCH   1   2
BRANCH   1   9
ATOM      9  C   UNL     1      37.442  25.745 222.683  1.00  0.00     0.000 C 
BRANCH   9  10
ATOM     10  C   UNL     1      36.189  24.924 223.038  1.00  0.00    -0.000 C 
BRANCH  10  11
ATOM     11  C   UNL     1      35.987  23.723 222.100  1.00  0.00    -0.000 C 
BRANCH  11  12
ATOM     12  C   UNL     1      35.024  24.030 220.939  1.00  0.00    -0.000 C 
BRANCH  12  13
ATOM     13  C   UNL     1      35.727  24.015 219.573  1.00  0.00    -0.003 C 
ATOM     14  C   UNL     1      37.122  23.392 219.634  1.00  0.00     0.004 C 
ENDBRANCH  12  13
ENDBRANCH  11  12
ENDBRANCH  10  11
ENDBRANCH   9  10
ENDBRANCH   1   9
TORSDOF 10
ENDMDL
MODEL 2
REMARK VINA RESULT:    -3.709      3.117      5.867
REMARK INTER + INTRA:          -6.857
REMARK INTER:                  -5.553
REMARK INTRA:                  -1.304
REMARK UNBOUND:                -0.980
REMARK SMILES CCCCCCCCCCCC(=O)[O-]
REMARK SMILES IDX 7 1 8 2 9 3 10 4 11 5 12 6 13 7 14 8 6 9 5 10 4 11 3 12 2 13
REMARK SMILES IDX 1 14
REMARK H PARENT
REMARK Flexibility Score: inf
ROOT
ATOM      1  C   UNL     1      40.064  24.094 222.030  1.00  0.00     0.000 C 
ENDROOT
BRANCH   1   2
ATOM      2  C   UNL     1      38.883  23.232 221.557  1.00  0.00     0.000 C 
BRANCH   2   3
ATOM      3  C   UNL     1      37.995  22.821 222.739  1.00  0.00     0.000 C 
BRANCH   3   4
ATOM      4  C   UNL     1      36.527  22.694 222.308  1.00  0.00     0.006 C 
BRANCH   4   5
ATOM      5  C   UNL     1      35.922  24.044 221.900  1.00  0.00     0.053 C 
BRANCH   5   6
ATOM      6  C   UNL     1      35.255  23.972 220.562  1.00  0.00     0.041 C 
ATOM      7  O   UNL     1      35.946  23.974 219.509  1.00  0.00    -0.550 OA
ATOM      8  O   UNL     1      33.872  23.870 220.476  1.00  0.00    -0.550 OA
ENDBRANCH   5   6
ENDBRANCH   4   5
ENDBRANCH   3   4
ENDBRANCH   2   3
ENDBRANCH   1   2
BRANCH   1   9
ATOM      9  C   UNL     1      40.320  23.972 223.541  1.00  0.00     0.000 C 
BRANCH   9  10
ATOM     10  C   UNL     1      41.761  23.537 223.862  1.00  0.00    -0.000 C 
BRANCH  10  11
ATOM     11  C   UNL     1      42.156  22.234 223.148  1.00  0.00    -0.000 C 
BRANCH  11  12
ATOM     12  C   UNL     1      41.352  21.018 223.641  1.00  0.00    -0.000 C 
BRANCH  12  13
ATOM     13  C   UNL     1      40.821  20.157 222.486  1.00  0.00    -0.003 C 
ATOM     14  C   UNL     1      41.427  20.542 221.135  1.00  0.00     0.004 C 
ENDBRANCH  12  13
ENDBRANCH  11  12
ENDBRANCH  10  11
ENDBRANCH   9  10
ENDBRANCH   1   9
TORSDOF 10
ENDMDL
MODEL 3
REMARK VINA RESULT:    -3.643      3.135      5.759
REMARK INTER + INTRA:          -6.752
REMARK INTER:                  -5.343
REMARK INTRA:                  -1.409
REMARK UNBOUND:                -0.980
REMARK SMILES CCCCCCCCCCCC(=O)[O-]
REMARK SMILES IDX 7 1 8 2 9 3 10 4 11 5 12 6 13 7 14 8 6 9 5 10 4 11 3 12 2 13
REMARK SMILES IDX 1 14
REMARK H PARENT
REMARK Flexibility Score: inf
ROOT
ATOM      1  C   UNL     1      40.127  24.062 221.979  1.00  0.00     0.000 C 
ENDROOT
BRANCH   1   2
ATOM      2  C   UNL     1      38.983  23.191 221.437  1.00  0.00     0.000 C 
BRANCH   2   3
ATOM      3  C   UNL     1      38.002  22.816 222.555  1.00  0.00     0.000 C 
BRANCH   3   4
ATOM      4  C   UNL     1      36.549  22.911 222.069  1.00  0.00     0.006 C 
BRANCH   4   5
ATOM      5  C   UNL     1      36.148  24.348 221.714  1.00  0.00     0.053 C 
BRANCH   5   6
ATOM      6  C   UNL     1      36.393  25.290 222.851  1.00  0.00     0.041 C 
ATOM      7  O   UNL     1      35.668  25.244 223.879  1.00  0.00    -0.550 OA
ATOM      8  O   UNL     1      37.444  26.198 222.790  1.00  0.00    -0.550 OA
ENDBRANCH   5   6
ENDBRANCH   4   5
ENDBRANCH   3   4
ENDBRANCH   2   3
ENDBRANCH   1   2
BRANCH   1   9
ATOM      9  C   UNL     1      40.320  23.913 223.497  1.00  0.00     0.000 C 
BRANCH   9  10
ATOM     10  C   UNL     1      41.749  23.482 223.871  1.00  0.00    -0.000 C 
BRANCH  10  11
ATOM     11  C   UNL     1      42.179  22.188 223.162  1.00  0.00    -0.000 C 
BRANCH  11  12
ATOM     12  C   UNL     1      41.398  20.955 223.650  1.00  0.00    -0.000 C 
BRANCH  12  13
ATOM     13  C   UNL     1      40.891  20.084 222.491  1.00  0.00    -0.003 C 
ATOM     14  C   UNL     1      41.486  20.491 221.142  1.00  0.00     0.004 C 
ENDBRANCH  12  13
ENDBRANCH  11  12
ENDBRANCH  10  11
ENDBRANCH   9  10
ENDBRANCH   1   9
TORSDOF 10
ENDMDL
MODEL 4
REMARK VINA RESULT:    -3.585      1.341      1.844
REMARK INTER + INTRA:          -6.660
REMARK INTER:                  -5.540
REMARK INTRA:                  -1.120
REMARK UNBOUND:                -0.980
REMARK SMILES CCCCCCCCCCCC(=O)[O-]
REMARK SMILES IDX 7 1 8 2 9 3 10 4 11 5 12 6 13 7 14 8 6 9 5 10 4 11 3 12 2 13
REMARK SMILES IDX 1 14
REMARK H PARENT
REMARK Flexibility Score: inf
ROOT
ATOM      1  C   UNL     1      37.637  25.887 222.818  1.00  0.00     0.000 C 
ENDROOT
BRANCH   1   2
ATOM      2  C   UNL     1      38.823  24.910 222.829  1.00  0.00     0.000 C 
BRANCH   2   3
ATOM      3  C   UNL     1      39.719  25.148 224.052  1.00  0.00     0.000 C 
BRANCH   3   4
ATOM      4  C   UNL     1      39.915  23.853 224.852  1.00  0.00     0.006 C 
BRANCH   4   5
ATOM      5  C   UNL     1      39.774  22.601 223.977  1.00  0.00     0.053 C 
BRANCH   5   6
ATOM      6  C   UNL     1      41.106  22.037 223.594  1.00  0.00     0.041 C 
ATOM      7  O   UNL     1      41.671  21.189 224.334  1.00  0.00    -0.550 OA
ATOM      8  O   UNL     1      41.711  22.421 222.403  1.00  0.00    -0.550 OA
ENDBRANCH   5   6
ENDBRANCH   4   5
ENDBRANCH   3   4
ENDBRANCH   2   3
ENDBRANCH   1   2
BRANCH   1   9
ATOM      9  C   UNL     1      36.283  25.179 222.981  1.00  0.00     0.000 C 
BRANCH   9  10
ATOM     10  C   UNL     1      36.412  23.645 222.959  1.00  0.00    -0.000 C 
BRANCH  10  11
ATOM     11  C   UNL     1      35.933  23.033 221.633  1.00  0.00    -0.000 C 
BRANCH  11  12
ATOM     12  C   UNL     1      35.279  24.068 220.702  1.00  0.00    -0.000 C 
BRANCH  12  13
ATOM     13  C   UNL     1      35.893  24.063 219.294  1.00  0.00    -0.003 C 
ATOM     14  C   UNL     1      37.192  23.261 219.219  1.00  0.00     0.004 C 
ENDBRANCH  12  13
ENDBRANCH  11  12
ENDBRANCH  10  11
ENDBRANCH   9  10
ENDBRANCH   1   9
TORSDOF 10
ENDMDL
MODEL 5
REMARK VINA RESULT:    -3.577      1.479      3.129
REMARK INTER + INTRA:          -6.648
REMARK INTER:                  -5.105
REMARK INTRA:                  -1.543
REMARK UNBOUND:                -0.980
REMARK SMILES CCCCCCCCCCCC(=O)[O-]
REMARK SMILES IDX 7 1 8 2 9 3 10 4 11 5 12 6 13 7 14 8 6 9 5 10 4 11 3 12 2 13
REMARK SMILES IDX 1 14
REMARK H PARENT
REMARK Flexibility Score: inf
ROOT
ATOM      1  C   UNL     1      36.938  22.438 222.807  1.00  0.00     0.000 C 
ENDROOT
BRANCH   1   2
ATOM      2  C   UNL     1      38.473  22.456 222.881  1.00  0.00     0.000 C 
BRANCH   2   3
ATOM      3  C   UNL     1      39.073  23.174 221.666  1.00  0.00     0.000 C 
BRANCH   3   4
ATOM      4  C   UNL     1      40.503  23.650 221.957  1.00  0.00     0.006 C 
BRANCH   4   5
ATOM      5  C   UNL     1      40.988  23.219 223.347  1.00  0.00     0.053 C 
BRANCH   5   6
ATOM      6  C   UNL     1      42.196  22.339 223.267  1.00  0.00     0.041 C 
ATOM      7  O   UNL     1      42.377  21.602 222.263  1.00  0.00    -0.550 OA
ATOM      8  O   UNL     1      43.141  22.357 224.286  1.00  0.00    -0.550 OA
ENDBRANCH   5   6
ENDBRANCH   4   5
ENDBRANCH   3   4
ENDBRANCH   2   3
ENDBRANCH   1   2
BRANCH   1   9
ATOM      9  C   UNL     1      36.379  23.479 221.825  1.00  0.00     0.000 C 
BRANCH   9  10
ATOM     10  C   UNL     1      35.502  24.536 222.520  1.00  0.00    -0.000 C 
BRANCH  10  11
ATOM     11  C   UNL     1      36.296  25.397 223.516  1.00  0.00    -0.000 C 
BRANCH  11  12
ATOM     12  C   UNL     1      37.530  26.059 222.878  1.00  0.00    -0.000 C 
BRANCH  12  13
ATOM     13  C   UNL     1      38.688  26.227 223.874  1.00  0.00    -0.003 C 
ATOM     14  C   UNL     1      38.479  25.430 225.162  1.00  0.00     0.004 C 
ENDBRANCH  12  13
ENDBRANCH  11  12
ENDBRANCH  10  11
ENDBRANCH   9  10
ENDBRANCH   1   9
TORSDOF 10
ENDMDL
MODEL 6
REMARK VINA RESULT:    -3.497      2.758      5.030
REMARK INTER + INTRA:          -6.521
REMARK INTER:                  -5.034
REMARK INTRA:                  -1.487
REMARK UNBOUND:                -0.980
REMARK SMILES CCCCCCCCCCCC(=O)[O-]
REMARK SMILES IDX 7 1 8 2 9 3 10 4 11 5 12 6 13 7 14 8 6 9 5 10 4 11 3 12 2 13
REMARK SMILES IDX 1 14
REMARK H PARENT
REMARK Flexibility Score: inf
ROOT
ATOM      1  C   UNL     1      38.720  25.914 224.208  1.00  0.00     0.000 C 
ENDROOT
BRANCH   1   2
ATOM      2  C   UNL     1      37.999  25.392 222.955  1.00  0.00     0.000 C 
BRANCH   2   3
ATOM      3  C   UNL     1      36.549  25.010 223.276  1.00  0.00     0.000 C 
BRANCH   3   4
ATOM      4  C   UNL     1      35.866  24.369 222.060  1.00  0.00     0.006 C 
BRANCH   4   5
ATOM      5  C   UNL     1      36.868  23.670 221.131  1.00  0.00     0.053 C 
BRANCH   5   6
ATOM      6  C   UNL     1      36.425  23.713 219.702  1.00  0.00     0.041 C 
ATOM      7  O   UNL     1      35.303  24.198 219.401  1.00  0.00    -0.550 OA
ATOM      8  O   UNL     1      37.266  23.249 218.697  1.00  0.00    -0.550 OA
ENDBRANCH   5   6
ENDBRANCH   4   5
ENDBRANCH   3   4
ENDBRANCH   2   3
ENDBRANCH   1   2
BRANCH   1   9
ATOM      9  C   UNL     1      40.145  25.354 224.350  1.00  0.00     0.000 C 
BRANCH   9  10
ATOM     10  C   UNL     1      40.448  24.245 223.327  1.00  0.00    -0.000 C 
BRANCH  10  11
ATOM     11  C   UNL     1      40.546  22.855 223.977  1.00  0.00    -0.000 C 
BRANCH  11  12
ATOM     12  C   UNL     1      39.631  21.818 223.304  1.00  0.00    -0.000 C 
BRANCH  12  13
ATOM     13  C   UNL     1      38.238  21.757 223.948  1.00  0.00    -0.003 C 
ATOM     14  C   UNL     1      38.251  22.167 225.421  1.00  0.00     0.004 C 
ENDBRANCH  12  13
ENDBRANCH  11  12
ENDBRANCH  10  11
ENDBRANCH   9  10
ENDBRANCH   1   9
TORSDOF 10
ENDMDL
MODEL 7
REMARK VINA RESULT:    -3.475      2.835      5.904
REMARK INTER + INTRA:          -6.486
REMARK INTER:                  -5.335
REMARK INTRA:                  -1.151
REMARK UNBOUND:                -0.980
REMARK SMILES CCCCCCCCCCCC(=O)[O-]
REMARK SMILES IDX 7 1 8 2 9 3 10 4 11 5 12 6 13 7 14 8 6 9 5 10 4 11 3 12 2 13
REMARK SMILES IDX 1 14
REMARK H PARENT
REMARK Flexibility Score: inf
ROOT
ATOM      1  C   UNL     1      40.435  23.308 224.215  1.00  0.00     0.000 C 
ENDROOT
BRANCH   1   2
ATOM      2  C   UNL     1      40.820  23.936 222.866  1.00  0.00     0.000 C 
BRANCH   2   3
ATOM      3  C   UNL     1      39.727  23.696 221.817  1.00  0.00     0.000 C 
BRANCH   3   4
ATOM      4  C   UNL     1      38.362  24.184 222.323  1.00  0.00     0.006 C 
BRANCH   4   5
ATOM      5  C   UNL     1      37.280  23.101 222.213  1.00  0.00     0.053 C 
BRANCH   5   6
ATOM      6  C   UNL     1      36.307  23.397 221.116  1.00  0.00     0.041 C 
ATOM      7  O   UNL     1      35.131  23.754 221.391  1.00  0.00    -0.550 OA
ATOM      8  O   UNL     1      36.706  23.313 219.787  1.00  0.00    -0.550 OA
ENDBRANCH   5   6
ENDBRANCH   4   5
ENDBRANCH   3   4
ENDBRANCH   2   3
ENDBRANCH   1   2
BRANCH   1   9
ATOM      9  C   UNL     1      41.565  22.459 224.819  1.00  0.00     0.000 C 
BRANCH   9  10
ATOM     10  C   UNL     1      42.816  22.418 223.923  1.00  0.00    -0.000 C 
BRANCH  10  11
ATOM     11  C   UNL     1      43.241  20.984 223.571  1.00  0.00    -0.000 C 
BRANCH  11  12
ATOM     12  C   UNL     1      43.335  20.747 222.053  1.00  0.00    -0.000 C 
BRANCH  12  13
ATOM     13  C   UNL     1      41.956  20.691 221.380  1.00  0.00    -0.003 C 
ATOM     14  C   UNL     1      41.012  19.693 222.052  1.00  0.00     0.004 C 
ENDBRANCH  12  13
ENDBRANCH  11  12
ENDBRANCH  10  11
ENDBRANCH   9  10
ENDBRANCH   1   9
TORSDOF 10
ENDMDL
MODEL 8
REMARK VINA RESULT:    -3.439      2.678      5.565
REMARK INTER + INTRA:          -6.429
REMARK INTER:                  -5.417
REMARK INTRA:                  -1.012
REMARK UNBOUND:                -0.980
REMARK SMILES CCCCCCCCCCCC(=O)[O-]
REMARK SMILES IDX 7 1 8 2 9 3 10 4 11 5 12 6 13 7 14 8 6 9 5 10 4 11 3 12 2 13
REMARK SMILES IDX 1 14
REMARK H PARENT
REMARK Flexibility Score: inf
ROOT
ATOM      1  C   UNL     1      39.600  24.731 223.793  1.00  0.00     0.000 C 
ENDROOT
BRANCH   1   2
ATOM      2  C   UNL     1      38.834  26.062 223.744  1.00  0.00     0.000 C 
BRANCH   2   3
ATOM      3  C   UNL     1      37.571  25.937 222.883  1.00  0.00     0.000 C 
BRANCH   3   4
ATOM      4  C   UNL     1      36.502  25.095 223.594  1.00  0.00     0.006 C 
BRANCH   4   5
ATOM      5  C   UNL     1      35.457  24.538 222.617  1.00  0.00     0.053 C 
BRANCH   5   6
ATOM      6  C   UNL     1      35.993  23.387 221.825  1.00  0.00     0.041 C 
ATOM      7  O   UNL     1      36.194  22.275 222.381  1.00  0.00    -0.550 OA
ATOM      8  O   UNL     1      36.240  23.531 220.465  1.00  0.00    -0.550 OA
ENDBRANCH   5   6
ENDBRANCH   4   5
ENDBRANCH   3   4
ENDBRANCH   2   3
ENDBRANCH   1   2
BRANCH   1   9
ATOM      9  C   UNL     1      40.049  24.252 222.403  1.00  0.00     0.000 C 
BRANCH   9  10
ATOM     10  C   UNL     1      39.643  22.794 222.121  1.00  0.00    -0.000 C 
BRANCH  10  11
ATOM     11  C   UNL     1      40.835  21.923 221.696  1.00  0.00    -0.000 C 
BRANCH  11  12
ATOM     12  C   UNL     1      41.440  21.130 222.867  1.00  0.00    -0.000 C 
BRANCH  12  13
ATOM     13  C   UNL     1      42.843  21.625 223.251  1.00  0.00    -0.003 C 
ATOM     14  C   UNL     1      42.818  22.646 224.388  1.00  0.00     0.004 C 
ENDBRANCH  12  13
ENDBRANCH  11  12
ENDBRANCH  10  11
ENDBRANCH   9  10
ENDBRANCH   1   9
TORSDOF 10
ENDMDL
MODEL 9
REMARK VINA RESULT:    -3.429      1.920      2.385
REMARK INTER + INTRA:          -6.413
REMARK INTER:                  -5.656
REMARK INTRA:                  -0.757
REMARK UNBOUND:                -0.980
REMARK SMILES CCCCCCCCCCCC(=O)[O-]
REMARK SMILES IDX 7 1 8 2 9 3 10 4 11 5 12 6 13 7 14 8 6 9 5 10 4 11 3 12 2 13
REMARK SMILES IDX 1 14
REMARK H PARENT
REMARK Flexibility Score: inf
ROOT
ATOM      1  C   UNL     1      38.848  23.953 223.042  1.00  0.00     0.000 C 
ENDROOT
BRANCH   1   2
ATOM      2  C   UNL     1      40.052  24.022 222.090  1.00  0.00     0.000 C 
BRANCH   2   3
ATOM      3  C   UNL     1      40.777  22.672 222.023  1.00  0.00     0.000 C 
BRANCH   3   4
ATOM      4  C   UNL     1      41.809  22.544 223.153  1.00  0.00     0.006 C 
BRANCH   4   5
ATOM      5  C   UNL     1      42.033  21.086 223.574  1.00  0.00     0.053 C 
BRANCH   5   6
ATOM      6  C   UNL     1      40.782  20.465 224.113  1.00  0.00     0.041 C 
ATOM      7  O   UNL     1      40.271  20.893 225.181  1.00  0.00    -0.550 OA
ATOM      8  O   UNL     1      40.160  19.434 223.418  1.00  0.00    -0.550 OA
ENDBRANCH   5   6
ENDBRANCH   4   5
ENDBRANCH   3   4
ENDBRANCH   2   3
ENDBRANCH   1   2
BRANCH   1   9
ATOM      9  C   UNL     1      38.061  22.639 222.911  1.00  0.00     0.000 C 
BRANCH   9  10
ATOM     10  C   UNL     1      36.690  22.836 222.240  1.00  0.00    -0.000 C 
BRANCH  10  11
ATOM     11  C   UNL     1      36.738  23.853 221.089  1.00  0.00    -0.000 C 
BRANCH  11  12
ATOM     12  C   UNL     1      35.362  24.083 220.440  1.00  0.00    -0.000 C 
BRANCH  12  13
ATOM     13  C   UNL     1      35.429  24.092 218.906  1.00  0.00    -0.003 C 
ATOM     14  C   UNL     1      36.758  23.557 218.370  1.00  0.00     0.004 C 
ENDBRANCH  12  13
ENDBRANCH  11  12
ENDBRANCH  10  11
ENDBRANCH   9  10
ENDBRANCH   1   9
TORSDOF 10
ENDMDL
