MODEL 1
REMARK VINA RESULT:    -6.191      0.000      0.000
REMARK INTER + INTRA:          -6.191
REMARK INTER:                  -6.191
REMARK INTRA:                   0.000
REMARK UNBOUND:                 0.000
REMARK SMILES C[C@@H]1C(=O)CC[C@H]2[C@]3(C)CC[C@@]4(C)[C@@H]5CC(C)(C)CC[C@@]5(C)CC[C@]4(C)[C@@H]3CC[C@]21C
REMARK SMILES IDX 1 1 2 2 3 3 4 4 5 5 6 6 7 7 30 8 29 9 28 10 27 11 8 12 10 13
REMARK SMILES IDX 11 14 12 15 25 16 24 17 23 18 21 19 14 20 15 21 16 22 19 23
REMARK SMILES IDX 20 24 17 25 18 26 22 27 26 28 13 29 9 30 31 31
REMARK H PARENT
REMARK Flexibility Score: inf
ROOT
ATOM      1  C   UNL     1     125.014 112.129 123.146  1.00  0.00     0.016 C 
ATOM      2  C   UNL     1     124.283 111.904 121.802  1.00  0.00     0.059 C 
ATOM      3  C   UNL     1     125.270 111.582 120.691  1.00  0.00     0.136 C 
ATOM      4  O   UNL     1     126.412 111.226 120.942  1.00  0.00    -0.299 OA
ATOM      5  C   UNL     1     124.831 111.678 119.258  1.00  0.00     0.076 C 
ATOM      6  C   UNL     1     123.309 111.608 119.174  1.00  0.00     0.012 C 
ATOM      7  C   UNL     1     122.572 112.722 120.007  1.00  0.00     0.002 C 
ATOM      8  C   UNL     1     123.347 113.093 121.358  1.00  0.00    -0.020 C 
ATOM      9  C   UNL     1     122.349 113.431 122.488  1.00  0.00     0.008 C 
ATOM     10  C   UNL     1     121.183 114.271 121.979  1.00  0.00     0.005 C 
ATOM     11  C   UNL     1     120.220 113.390 121.158  1.00  0.00     0.002 C 
ATOM     12  C   UNL     1     120.972 112.467 120.075  1.00  0.00    -0.026 C 
ATOM     13  C   UNL     1     120.416 112.628 118.589  1.00  0.00     0.008 C 
ATOM     14  C   UNL     1     119.204 113.531 118.272  1.00  0.00     0.008 C 
ATOM     15  C   UNL     1     118.967 114.710 119.251  1.00  0.00    -0.024 C 
ATOM     16  C   UNL     1     118.857 114.087 120.706  1.00  0.00    -0.024 C 
ATOM     17  C   UNL     1     118.414 115.198 121.716  1.00  0.00     0.008 C 
ATOM     18  C   UNL     1     117.092 115.898 121.345  1.00  0.00     0.007 C 
ATOM     19  C   UNL     1     117.104 116.523 119.925  1.00  0.00    -0.029 C 
ATOM     20  C   UNL     1     117.612 115.464 118.872  1.00  0.00     0.002 C 
ATOM     21  C   UNL     1     117.517 116.023 117.416  1.00  0.00     0.011 C 
ATOM     22  C   UNL     1     116.091 116.529 117.035  1.00  0.00    -0.035 C 
ATOM     23  C   UNL     1     115.517 117.464 118.132  1.00  0.00     0.007 C 
ATOM     24  C   UNL     1     115.637 116.883 119.552  1.00  0.00     0.007 C 
ATOM     25  C   UNL     1     116.190 117.326 115.716  1.00  0.00     0.011 C 
ATOM     26  C   UNL     1     115.132 115.338 116.788  1.00  0.00     0.011 C 
ATOM     27  C   UNL     1     117.925 117.852 119.972  1.00  0.00     0.011 C 
ATOM     28  C   UNL     1     117.750 112.967 120.788  1.00  0.00     0.012 C 
ATOM     29  C   UNL     1     120.176 115.681 119.097  1.00  0.00     0.012 C 
ATOM     30  C   UNL     1     120.719 110.984 120.514  1.00  0.00     0.012 C 
ATOM     31  C   UNL     1     124.224 114.374 121.130  1.00  0.00     0.012 C 
ENDROOT
TORSDOF 0
ENDMDL
MODEL 2
REMARK VINA RESULT:    -6.179      5.202      8.156
REMARK INTER + INTRA:          -6.179
REMARK INTER:                  -6.179
REMARK INTRA:                   0.000
REMARK UNBOUND:                 0.000
REMARK SMILES C[C@@H]1C(=O)CC[C@H]2[C@]3(C)CC[C@@]4(C)[C@@H]5CC(C)(C)CC[C@@]5(C)CC[C@]4(C)[C@@H]3CC[C@]21C
REMARK SMILES IDX 1 1 2 2 3 3 4 4 5 5 6 6 7 7 30 8 29 9 28 10 27 11 8 12 10 13
REMARK SMILES IDX 11 14 12 15 25 16 24 17 23 18 21 19 14 20 15 21 16 22 19 23
REMARK SMILES IDX 20 24 17 25 18 26 22 27 26 28 13 29 9 30 31 31
REMARK H PARENT
REMARK Flexibility Score: inf
ROOT
ATOM      1  C   UNL     1     121.034 125.030 123.157  1.00  0.00     0.016 C 
ATOM      2  C   UNL     1     121.265 124.307 121.810  1.00  0.00     0.059 C 
ATOM      3  C   UNL     1     121.592 125.300 120.706  1.00  0.00     0.136 C 
ATOM      4  O   UNL     1     121.947 126.441 120.966  1.00  0.00    -0.299 OA
ATOM      5  C   UNL     1     121.504 124.870 119.270  1.00  0.00     0.076 C 
ATOM      6  C   UNL     1     121.574 123.348 119.177  1.00  0.00     0.012 C 
ATOM      7  C   UNL     1     120.457 122.606 120.000  1.00  0.00     0.002 C 
ATOM      8  C   UNL     1     120.078 123.373 121.354  1.00  0.00    -0.020 C 
ATOM      9  C   UNL     1     119.735 122.368 122.477  1.00  0.00     0.008 C 
ATOM     10  C   UNL     1     118.899 121.205 121.956  1.00  0.00     0.005 C 
ATOM     11  C   UNL     1     119.783 120.247 121.134  1.00  0.00     0.002 C 
ATOM     12  C   UNL     1     120.711 121.006 120.060  1.00  0.00    -0.026 C 
ATOM     13  C   UNL     1     120.558 120.459 118.569  1.00  0.00     0.008 C 
ATOM     14  C   UNL     1     119.656 119.248 118.241  1.00  0.00     0.008 C 
ATOM     15  C   UNL     1     118.473 119.006 119.213  1.00  0.00    -0.024 C 
ATOM     16  C   UNL     1     119.089 118.887 120.670  1.00  0.00    -0.024 C 
ATOM     17  C   UNL     1     117.973 118.437 121.671  1.00  0.00     0.008 C 
ATOM     18  C   UNL     1     117.275 117.118 121.290  1.00  0.00     0.007 C 
ATOM     19  C   UNL     1     116.657 117.138 119.866  1.00  0.00    -0.029 C 
ATOM     20  C   UNL     1     117.721 117.653 118.822  1.00  0.00     0.002 C 
ATOM     21  C   UNL     1     117.169 117.567 117.363  1.00  0.00     0.011 C 
ATOM     22  C   UNL     1     116.665 116.143 116.970  1.00  0.00    -0.035 C 
ATOM     23  C   UNL     1     115.725 115.562 118.059  1.00  0.00     0.007 C 
ATOM     24  C   UNL     1     116.300 115.673 119.482  1.00  0.00     0.007 C 
ATOM     25  C   UNL     1     115.875 116.250 115.648  1.00  0.00     0.011 C 
ATOM     26  C   UNL     1     117.858 115.185 116.723  1.00  0.00     0.011 C 
ATOM     27  C   UNL     1     115.328 117.959 119.912  1.00  0.00     0.011 C 
ATOM     28  C   UNL     1     120.209 117.779 120.751  1.00  0.00     0.012 C 
ATOM     29  C   UNL     1     117.503 120.215 119.061  1.00  0.00     0.012 C 
ATOM     30  C   UNL     1     122.192 120.751 120.504  1.00  0.00     0.012 C 
ATOM     31  C   UNL     1     118.799 124.251 121.125  1.00  0.00     0.012 C 
ENDROOT
TORSDOF 0
ENDMDL
MODEL 3
REMARK VINA RESULT:    -6.165      6.244     11.430
REMARK INTER + INTRA:          -6.165
REMARK INTER:                  -6.165
REMARK INTRA:                   0.000
REMARK UNBOUND:                 0.000
REMARK SMILES C[C@@H]1C(=O)CC[C@H]2[C@]3(C)CC[C@@]4(C)[C@@H]5CC(C)(C)CC[C@@]5(C)CC[C@]4(C)[C@@H]3CC[C@]21C
REMARK SMILES IDX 1 1 2 2 3 3 4 4 5 5 6 6 7 7 30 8 29 9 28 10 27 11 8 12 10 13
REMARK SMILES IDX 11 14 12 15 25 16 24 17 23 18 21 19 14 20 15 21 16 22 19 23
REMARK SMILES IDX 20 24 17 25 18 26 22 27 26 28 13 29 9 30 31 31
REMARK H PARENT
REMARK Flexibility Score: inf
ROOT
ATOM      1  C   UNL     1     108.283 120.973 123.229  1.00  0.00     0.016 C 
ATOM      2  C   UNL     1     109.004 121.226 121.885  1.00  0.00     0.059 C 
ATOM      3  C   UNL     1     108.011 121.588 120.792  1.00  0.00     0.136 C 
ATOM      4  O   UNL     1     106.875 121.949 121.063  1.00  0.00    -0.299 OA
ATOM      5  C   UNL     1     108.436 121.527 119.353  1.00  0.00     0.076 C 
ATOM      6  C   UNL     1     109.959 121.583 119.257  1.00  0.00     0.012 C 
ATOM      7  C   UNL     1     110.692 120.440 120.053  1.00  0.00     0.002 C 
ATOM      8  C   UNL     1     109.925 120.040 121.401  1.00  0.00    -0.020 C 
ATOM      9  C   UNL     1     110.929 119.662 122.512  1.00  0.00     0.008 C 
ATOM     10  C   UNL     1     112.082 118.825 121.970  1.00  0.00     0.005 C 
ATOM     11  C   UNL     1     113.047 119.717 121.165  1.00  0.00     0.002 C 
ATOM     12  C   UNL     1     112.295 120.677 120.113  1.00  0.00    -0.026 C 
ATOM     13  C   UNL     1     112.835 120.550 118.619  1.00  0.00     0.008 C 
ATOM     14  C   UNL     1     114.036 119.644 118.267  1.00  0.00     0.008 C 
ATOM     15  C   UNL     1     114.268 118.437 119.212  1.00  0.00    -0.024 C 
ATOM     16  C   UNL     1     114.398 119.019 120.681  1.00  0.00    -0.024 C 
ATOM     17  C   UNL     1     114.839 117.877 121.657  1.00  0.00     0.008 C 
ATOM     18  C   UNL     1     116.150 117.174 121.256  1.00  0.00     0.007 C 
ATOM     19  C   UNL     1     116.119 116.588 119.819  1.00  0.00    -0.029 C 
ATOM     20  C   UNL     1     115.613 117.680 118.800  1.00  0.00     0.002 C 
ATOM     21  C   UNL     1     115.689 117.159 117.329  1.00  0.00     0.011 C 
ATOM     22  C   UNL     1     117.107 116.650 116.921  1.00  0.00    -0.035 C 
ATOM     23  C   UNL     1     117.680 115.680 117.988  1.00  0.00     0.007 C 
ATOM     24  C   UNL     1     117.579 116.224 119.423  1.00  0.00     0.007 C 
ATOM     25  C   UNL     1     116.987 115.890 115.582  1.00  0.00     0.011 C 
ATOM     26  C   UNL     1     118.075 117.837 116.697  1.00  0.00     0.011 C 
ATOM     27  C   UNL     1     115.285 115.266 119.838  1.00  0.00     0.011 C 
ATOM     28  C   UNL     1     115.518 120.126 120.784  1.00  0.00     0.012 C 
ATOM     29  C   UNL     1     113.049 117.483 119.042  1.00  0.00     0.012 C 
ATOM     30  C   UNL     1     112.566 122.145 120.589  1.00  0.00     0.012 C 
ATOM     31  C   UNL     1     109.032 118.775 121.146  1.00  0.00     0.012 C 
ENDROOT
TORSDOF 0
ENDMDL
MODEL 4
REMARK VINA RESULT:    -6.134      5.174      8.152
REMARK INTER + INTRA:          -6.134
REMARK INTER:                  -6.134
REMARK INTRA:                   0.000
REMARK UNBOUND:                 0.000
REMARK SMILES C[C@@H]1C(=O)CC[C@H]2[C@]3(C)CC[C@@]4(C)[C@@H]5CC(C)(C)CC[C@@]5(C)CC[C@]4(C)[C@@H]3CC[C@]21C
REMARK SMILES IDX 1 1 2 2 3 3 4 4 5 5 6 6 7 7 30 8 29 9 28 10 27 11 8 12 10 13
REMARK SMILES IDX 11 14 12 15 25 16 24 17 23 18 21 19 14 20 15 21 16 22 19 23
REMARK SMILES IDX 20 24 17 25 18 26 22 27 26 28 13 29 9 30 31 31
REMARK H PARENT
REMARK Flexibility Score: inf
ROOT
ATOM      1  C   UNL     1     112.065 108.246 123.155  1.00  0.00     0.016 C 
ATOM      2  C   UNL     1     111.845 108.987 121.816  1.00  0.00     0.059 C 
ATOM      3  C   UNL     1     111.495 108.011 120.703  1.00  0.00     0.136 C 
ATOM      4  O   UNL     1     111.118 106.875 120.952  1.00  0.00    -0.299 OA
ATOM      5  C   UNL     1     111.588 108.455 119.272  1.00  0.00     0.076 C 
ATOM      6  C   UNL     1     111.548 109.978 119.195  1.00  0.00     0.012 C 
ATOM      7  C   UNL     1     112.681 110.690 120.022  1.00  0.00     0.002 C 
ATOM      8  C   UNL     1     113.048 109.902 121.367  1.00  0.00    -0.020 C 
ATOM      9  C   UNL     1     113.414 110.888 122.499  1.00  0.00     0.008 C 
ATOM     10  C   UNL     1     114.272 112.040 121.988  1.00  0.00     0.005 C 
ATOM     11  C   UNL     1     113.404 113.024 121.178  1.00  0.00     0.002 C 
ATOM     12  C   UNL     1     112.458 112.295 120.099  1.00  0.00    -0.026 C 
ATOM     13  C   UNL     1     112.618 112.853 118.614  1.00  0.00     0.008 C 
ATOM     14  C   UNL     1     113.542 114.050 118.296  1.00  0.00     0.008 C 
ATOM     15  C   UNL     1     114.733 114.259 119.266  1.00  0.00    -0.024 C 
ATOM     16  C   UNL     1     114.123 114.375 120.726  1.00  0.00    -0.024 C 
ATOM     17  C   UNL     1     115.250 114.792 121.729  1.00  0.00     0.008 C 
ATOM     18  C   UNL     1     115.973 116.101 121.359  1.00  0.00     0.007 C 
ATOM     19  C   UNL     1     116.586 116.084 119.934  1.00  0.00    -0.029 C 
ATOM     20  C   UNL     1     115.510 115.601 118.887  1.00  0.00     0.002 C 
ATOM     21  C   UNL     1     116.060 115.691 117.427  1.00  0.00     0.011 C 
ATOM     22  C   UNL     1     116.590 117.109 117.048  1.00  0.00    -0.035 C 
ATOM     23  C   UNL     1     117.545 117.660 118.141  1.00  0.00     0.007 C 
ATOM     24  C   UNL     1     116.972 117.546 119.564  1.00  0.00     0.007 C 
ATOM     25  C   UNL     1     117.375 117.000 115.723  1.00  0.00     0.011 C 
ATOM     26  C   UNL     1     115.416 118.092 116.814  1.00  0.00     0.011 C 
ATOM     27  C   UNL     1     117.900 115.237 119.967  1.00  0.00     0.011 C 
ATOM     28  C   UNL     1     113.025 115.503 120.822  1.00  0.00     0.012 C 
ATOM     29  C   UNL     1     115.679 113.033 119.099  1.00  0.00     0.012 C 
ATOM     30  C   UNL     1     110.984 112.574 120.550  1.00  0.00     0.012 C 
ATOM     31  C   UNL     1     114.310 109.001 121.125  1.00  0.00     0.012 C 
ENDROOT
TORSDOF 0
ENDMDL
MODEL 5
REMARK VINA RESULT:    -6.002      4.401      7.769
REMARK INTER + INTRA:          -6.002
REMARK INTER:                  -6.002
REMARK INTRA:                   0.000
REMARK UNBOUND:                 0.000
REMARK SMILES C[C@@H]1C(=O)CC[C@H]2[C@]3(C)CC[C@@]4(C)[C@@H]5CC(C)(C)CC[C@@]5(C)CC[C@]4(C)[C@@H]3CC[C@]21C
REMARK SMILES IDX 1 1 2 2 3 3 4 4 5 5 6 6 7 7 30 8 29 9 28 10 27 11 8 12 10 13
REMARK SMILES IDX 11 14 12 15 25 16 24 17 23 18 21 19 14 20 15 21 16 22 19 23
REMARK SMILES IDX 20 24 17 25 18 26 22 27 26 28 13 29 9 30 31 31
REMARK H PARENT
REMARK Flexibility Score: inf
ROOT
ATOM      1  C   UNL     1     112.952 114.322 117.389  1.00  0.00     0.016 C 
ATOM      2  C   UNL     1     114.227 113.995 118.200  1.00  0.00     0.059 C 
ATOM      3  C   UNL     1     113.952 112.919 119.239  1.00  0.00     0.136 C 
ATOM      4  O   UNL     1     112.958 112.211 119.170  1.00  0.00    -0.299 OA
ATOM      5  C   UNL     1     114.930 112.702 120.358  1.00  0.00     0.076 C 
ATOM      6  C   UNL     1     116.292 113.277 119.979  1.00  0.00     0.012 C 
ATOM      7  C   UNL     1     116.261 114.809 119.621  1.00  0.00     0.002 C 
ATOM      8  C   UNL     1     114.905 115.242 118.887  1.00  0.00    -0.020 C 
ATOM      9  C   UNL     1     115.177 116.342 117.837  1.00  0.00     0.008 C 
ATOM     10  C   UNL     1     116.175 117.375 118.347  1.00  0.00     0.005 C 
ATOM     11  C   UNL     1     117.597 116.780 118.343  1.00  0.00     0.002 C 
ATOM     12  C   UNL     1     117.673 115.315 119.005  1.00  0.00    -0.026 C 
ATOM     13  C   UNL     1     118.756 115.184 120.168  1.00  0.00     0.008 C 
ATOM     14  C   UNL     1     119.693 116.357 120.536  1.00  0.00     0.008 C 
ATOM     15  C   UNL     1     119.151 117.776 120.225  1.00  0.00    -0.024 C 
ATOM     16  C   UNL     1     118.778 117.799 118.683  1.00  0.00    -0.024 C 
ATOM     17  C   UNL     1     118.418 119.262 118.257  1.00  0.00     0.008 C 
ATOM     18  C   UNL     1     119.526 120.294 118.543  1.00  0.00     0.007 C 
ATOM     19  C   UNL     1     119.969 120.326 120.029  1.00  0.00    -0.029 C 
ATOM     20  C   UNL     1     120.277 118.864 120.534  1.00  0.00     0.002 C 
ATOM     21  C   UNL     1     120.845 118.876 121.990  1.00  0.00     0.011 C 
ATOM     22  C   UNL     1     122.100 119.787 122.161  1.00  0.00    -0.035 C 
ATOM     23  C   UNL     1     121.862 121.190 121.542  1.00  0.00     0.007 C 
ATOM     24  C   UNL     1     121.295 121.136 120.113  1.00  0.00     0.007 C 
ATOM     25  C   UNL     1     122.377 119.959 123.671  1.00  0.00     0.011 C 
ATOM     26  C   UNL     1     123.351 119.126 121.531  1.00  0.00     0.011 C 
ATOM     27  C   UNL     1     118.886 121.094 120.855  1.00  0.00     0.011 C 
ATOM     28  C   UNL     1     119.993 117.374 117.772  1.00  0.00     0.012 C 
ATOM     29  C   UNL     1     117.921 118.008 121.151  1.00  0.00     0.012 C 
ATOM     30  C   UNL     1     118.097 114.337 117.856  1.00  0.00     0.012 C 
ATOM     31  C   UNL     1     113.908 115.851 119.934  1.00  0.00     0.012 C 
ENDROOT
TORSDOF 0
ENDMDL
MODEL 6
REMARK VINA RESULT:    -5.993      3.503      6.783
REMARK INTER + INTRA:          -5.993
REMARK INTER:                  -5.993
REMARK INTRA:                   0.000
REMARK UNBOUND:                 0.000
REMARK SMILES C[C@@H]1C(=O)CC[C@H]2[C@]3(C)CC[C@@]4(C)[C@@H]5CC(C)(C)CC[C@@]5(C)CC[C@]4(C)[C@@H]3CC[C@]21C
REMARK SMILES IDX 1 1 2 2 3 3 4 4 5 5 6 6 7 7 30 8 29 9 28 10 27 11 8 12 10 13
REMARK SMILES IDX 11 14 12 15 25 16 24 17 23 18 21 19 14 20 15 21 16 22 19 23
REMARK SMILES IDX 20 24 17 25 18 26 22 27 26 28 13 29 9 30 31 31
REMARK H PARENT
REMARK Flexibility Score: inf
ROOT
ATOM      1  C   UNL     1     118.905 112.952 117.433  1.00  0.00     0.016 C 
ATOM      2  C   UNL     1     119.229 114.237 118.229  1.00  0.00     0.059 C 
ATOM      3  C   UNL     1     120.310 113.978 119.267  1.00  0.00     0.136 C 
ATOM      4  O   UNL     1     121.022 112.987 119.205  1.00  0.00    -0.299 OA
ATOM      5  C   UNL     1     120.527 114.968 120.375  1.00  0.00     0.076 C 
ATOM      6  C   UNL     1     119.944 116.323 119.985  1.00  0.00     0.012 C 
ATOM      7  C   UNL     1     118.411 116.282 119.633  1.00  0.00     0.002 C 
ATOM      8  C   UNL     1     117.981 114.916 118.915  1.00  0.00    -0.020 C 
ATOM      9  C   UNL     1     116.876 115.172 117.866  1.00  0.00     0.008 C 
ATOM     10  C   UNL     1     115.840 116.171 118.370  1.00  0.00     0.005 C 
ATOM     11  C   UNL     1     116.428 117.595 118.349  1.00  0.00     0.002 C 
ATOM     12  C   UNL     1     117.895 117.685 119.005  1.00  0.00    -0.026 C 
ATOM     13  C   UNL     1     118.025 118.781 120.156  1.00  0.00     0.008 C 
ATOM     14  C   UNL     1     116.850 119.715 120.519  1.00  0.00     0.008 C 
ATOM     15  C   UNL     1     115.432 119.163 120.219  1.00  0.00    -0.024 C 
ATOM     16  C   UNL     1     115.405 118.774 118.682  1.00  0.00    -0.024 C 
ATOM     17  C   UNL     1     113.942 118.403 118.265  1.00  0.00     0.008 C 
ATOM     18  C   UNL     1     112.906 119.509 118.543  1.00  0.00     0.007 C 
ATOM     19  C   UNL     1     112.877 119.967 120.025  1.00  0.00    -0.029 C 
ATOM     20  C   UNL     1     114.340 120.287 120.521  1.00  0.00     0.002 C 
ATOM     21  C   UNL     1     114.331 120.870 121.971  1.00  0.00     0.011 C 
ATOM     22  C   UNL     1     113.414 122.122 122.133  1.00  0.00    -0.035 C 
ATOM     23  C   UNL     1     112.010 121.870 121.522  1.00  0.00     0.007 C 
ATOM     24  C   UNL     1     112.061 121.289 120.098  1.00  0.00     0.007 C 
ATOM     25  C   UNL     1     113.246 122.413 123.640  1.00  0.00     0.011 C 
ATOM     26  C   UNL     1     114.066 123.370 121.488  1.00  0.00     0.011 C 
ATOM     27  C   UNL     1     112.118 118.889 120.865  1.00  0.00     0.011 C 
ATOM     28  C   UNL     1     115.820 119.982 117.757  1.00  0.00     0.012 C 
ATOM     29  C   UNL     1     115.210 117.941 121.159  1.00  0.00     0.012 C 
ATOM     30  C   UNL     1     118.866 118.101 117.848  1.00  0.00     0.012 C 
ATOM     31  C   UNL     1     117.381 113.927 119.974  1.00  0.00     0.012 C 
ENDROOT
TORSDOF 0
ENDMDL
MODEL 7
REMARK VINA RESULT:    -5.983      3.639      8.644
REMARK INTER + INTRA:          -5.983
REMARK INTER:                  -5.983
REMARK INTRA:                   0.000
REMARK UNBOUND:                 0.000
REMARK SMILES C[C@@H]1C(=O)CC[C@H]2[C@]3(C)CC[C@@]4(C)[C@@H]5CC(C)(C)CC[C@@]5(C)CC[C@]4(C)[C@@H]3CC[C@]21C
REMARK SMILES IDX 1 1 2 2 3 3 4 4 5 5 6 6 7 7 30 8 29 9 28 10 27 11 8 12 10 13
REMARK SMILES IDX 11 14 12 15 25 16 24 17 23 18 21 19 14 20 15 21 16 22 19 23
REMARK SMILES IDX 20 24 17 25 18 26 22 27 26 28 13 29 9 30 31 31
REMARK H PARENT
REMARK Flexibility Score: inf
ROOT
ATOM      1  C   UNL     1     114.321 120.265 117.392  1.00  0.00     0.016 C 
ATOM      2  C   UNL     1     113.996 118.987 118.198  1.00  0.00     0.059 C 
ATOM      3  C   UNL     1     112.918 119.256 119.237  1.00  0.00     0.136 C 
ATOM      4  O   UNL     1     112.207 120.248 119.169  1.00  0.00    -0.299 OA
ATOM      5  C   UNL     1     112.701 118.275 120.353  1.00  0.00     0.076 C 
ATOM      6  C   UNL     1     113.281 116.916 119.971  1.00  0.00     0.012 C 
ATOM      7  C   UNL     1     114.813 116.951 119.616  1.00  0.00     0.002 C 
ATOM      8  C   UNL     1     115.244 118.310 118.886  1.00  0.00    -0.020 C 
ATOM      9  C   UNL     1     116.346 118.045 117.837  1.00  0.00     0.008 C 
ATOM     10  C   UNL     1     117.382 117.048 118.346  1.00  0.00     0.005 C 
ATOM     11  C   UNL     1     116.790 115.624 118.338  1.00  0.00     0.002 C 
ATOM     12  C   UNL     1     115.325 115.542 118.997  1.00  0.00    -0.026 C 
ATOM     13  C   UNL     1     115.195 114.456 120.157  1.00  0.00     0.008 C 
ATOM     14  C   UNL     1     116.369 113.522 120.525  1.00  0.00     0.008 C 
ATOM     15  C   UNL     1     117.787 114.069 120.217  1.00  0.00    -0.024 C 
ATOM     16  C   UNL     1     117.812 114.446 118.677  1.00  0.00    -0.024 C 
ATOM     17  C   UNL     1     119.275 114.811 118.254  1.00  0.00     0.008 C 
ATOM     18  C   UNL     1     120.309 113.705 118.538  1.00  0.00     0.007 C 
ATOM     19  C   UNL     1     120.340 113.258 120.024  1.00  0.00    -0.029 C 
ATOM     20  C   UNL     1     118.878 112.944 120.525  1.00  0.00     0.002 C 
ATOM     21  C   UNL     1     118.890 112.373 121.980  1.00  0.00     0.011 C 
ATOM     22  C   UNL     1     119.804 111.120 122.150  1.00  0.00    -0.035 C 
ATOM     23  C   UNL     1     121.207 111.364 121.533  1.00  0.00     0.007 C 
ATOM     24  C   UNL     1     121.155 111.935 120.105  1.00  0.00     0.007 C 
ATOM     25  C   UNL     1     119.975 110.840 123.658  1.00  0.00     0.011 C 
ATOM     26  C   UNL     1     119.148 109.869 121.515  1.00  0.00     0.011 C 
ATOM     27  C   UNL     1     121.104 114.341 120.854  1.00  0.00     0.011 C 
ATOM     28  C   UNL     1     117.392 113.232 117.762  1.00  0.00     0.012 C 
ATOM     29  C   UNL     1     118.014 115.297 121.147  1.00  0.00     0.012 C 
ATOM     30  C   UNL     1     114.350 115.119 117.846  1.00  0.00     0.012 C 
ATOM     31  C   UNL     1     115.848 119.307 119.937  1.00  0.00     0.012 C 
ENDROOT
TORSDOF 0
ENDMDL
MODEL 8
REMARK VINA RESULT:    -5.980      5.025      7.759
REMARK INTER + INTRA:          -5.980
REMARK INTER:                  -5.980
REMARK INTRA:                   0.000
REMARK UNBOUND:                 0.000
REMARK SMILES C[C@@H]1C(=O)CC[C@H]2[C@]3(C)CC[C@@]4(C)[C@@H]5CC(C)(C)CC[C@@]5(C)CC[C@]4(C)[C@@H]3CC[C@]21C
REMARK SMILES IDX 1 1 2 2 3 3 4 4 5 5 6 6 7 7 30 8 29 9 28 10 27 11 8 12 10 13
REMARK SMILES IDX 11 14 12 15 25 16 24 17 23 18 21 19 14 20 15 21 16 22 19 23
REMARK SMILES IDX 20 24 17 25 18 26 22 27 26 28 13 29 9 30 31 31
REMARK H PARENT
REMARK Flexibility Score: inf
ROOT
ATOM      1  C   UNL     1     120.277 118.899 117.393  1.00  0.00     0.016 C 
ATOM      2  C   UNL     1     119.002 119.222 118.205  1.00  0.00     0.059 C 
ATOM      3  C   UNL     1     119.275 120.301 119.243  1.00  0.00     0.136 C 
ATOM      4  O   UNL     1     120.266 121.012 119.170  1.00  0.00    -0.299 OA
ATOM      5  C   UNL     1     118.298 120.516 120.363  1.00  0.00     0.076 C 
ATOM      6  C   UNL     1     116.938 119.936 119.987  1.00  0.00     0.012 C 
ATOM      7  C   UNL     1     116.973 118.403 119.632  1.00  0.00     0.002 C 
ATOM      8  C   UNL     1     118.330 117.974 118.896  1.00  0.00    -0.020 C 
ATOM      9  C   UNL     1     118.061 116.871 117.848  1.00  0.00     0.008 C 
ATOM     10  C   UNL     1     117.067 115.835 118.362  1.00  0.00     0.005 C 
ATOM     11  C   UNL     1     115.643 116.425 118.359  1.00  0.00     0.002 C 
ATOM     12  C   UNL     1     115.562 117.891 119.019  1.00  0.00    -0.026 C 
ATOM     13  C   UNL     1     114.481 118.019 120.184  1.00  0.00     0.008 C 
ATOM     14  C   UNL     1     113.550 116.844 120.555  1.00  0.00     0.008 C 
ATOM     15  C   UNL     1     114.096 115.426 120.246  1.00  0.00    -0.024 C 
ATOM     16  C   UNL     1     114.467 115.402 118.703  1.00  0.00    -0.024 C 
ATOM     17  C   UNL     1     114.831 113.940 118.279  1.00  0.00     0.008 C 
ATOM     18  C   UNL     1     113.728 112.904 118.568  1.00  0.00     0.007 C 
ATOM     19  C   UNL     1     113.287 112.873 120.056  1.00  0.00    -0.029 C 
ATOM     20  C   UNL     1     112.974 114.335 120.558  1.00  0.00     0.002 C 
ATOM     21  C   UNL     1     112.409 114.323 122.015  1.00  0.00     0.011 C 
ATOM     22  C   UNL     1     111.158 113.407 122.190  1.00  0.00    -0.035 C 
ATOM     23  C   UNL     1     111.401 112.004 121.573  1.00  0.00     0.007 C 
ATOM     24  C   UNL     1     111.965 112.057 120.143  1.00  0.00     0.007 C 
ATOM     25  C   UNL     1     110.884 113.236 123.701  1.00  0.00     0.011 C 
ATOM     26  C   UNL     1     109.903 114.062 121.562  1.00  0.00     0.011 C 
ATOM     27  C   UNL     1     114.374 112.111 120.881  1.00  0.00     0.011 C 
ATOM     28  C   UNL     1     113.248 115.821 117.794  1.00  0.00     0.012 C 
ATOM     29  C   UNL     1     115.329 115.201 121.170  1.00  0.00     0.012 C 
ATOM     30  C   UNL     1     115.133 118.865 117.869  1.00  0.00     0.012 C 
ATOM     31  C   UNL     1     119.331 117.370 119.942  1.00  0.00     0.012 C 
ENDROOT
TORSDOF 0
ENDMDL
MODEL 9
REMARK VINA RESULT:    -5.961      6.227     11.196
REMARK INTER + INTRA:          -5.961
REMARK INTER:                  -5.961
REMARK INTRA:                   0.000
REMARK UNBOUND:                 0.000
REMARK SMILES C[C@@H]1C(=O)CC[C@H]2[C@]3(C)CC[C@@]4(C)[C@@H]5CC(C)(C)CC[C@@]5(C)CC[C@]4(C)[C@@H]3CC[C@]21C
REMARK SMILES IDX 1 1 2 2 3 3 4 4 5 5 6 6 7 7 30 8 29 9 28 10 27 11 8 12 10 13
REMARK SMILES IDX 11 14 12 15 25 16 24 17 23 18 21 19 14 20 15 21 16 22 19 23
REMARK SMILES IDX 20 24 17 25 18 26 22 27 26 28 13 29 9 30 31 31
REMARK H PARENT
REMARK Flexibility Score: inf
ROOT
ATOM      1  C   UNL     1     108.425 120.657 121.268  1.00  0.00     0.016 C 
ATOM      2  C   UNL     1     109.787 121.360 121.468  1.00  0.00     0.059 C 
ATOM      3  C   UNL     1     109.646 122.870 121.345  1.00  0.00     0.136 C 
ATOM      4  O   UNL     1     108.553 123.411 121.424  1.00  0.00    -0.299 OA
ATOM      5  C   UNL     1     110.871 123.716 121.150  1.00  0.00     0.076 C 
ATOM      6  C   UNL     1     112.111 122.950 121.603  1.00  0.00     0.012 C 
ATOM      7  C   UNL     1     112.319 121.577 120.864  1.00  0.00     0.002 C 
ATOM      8  C   UNL     1     110.935 120.851 120.513  1.00  0.00    -0.020 C 
ATOM      9  C   UNL     1     111.075 119.317 120.626  1.00  0.00     0.008 C 
ATOM     10  C   UNL     1     112.401 118.828 120.055  1.00  0.00     0.005 C 
ATOM     11  C   UNL     1     113.551 119.176 121.021  1.00  0.00     0.002 C 
ATOM     12  C   UNL     1     113.506 120.700 121.537  1.00  0.00    -0.026 C 
ATOM     13  C   UNL     1     114.862 121.505 121.302  1.00  0.00     0.008 C 
ATOM     14  C   UNL     1     116.115 120.822 120.711  1.00  0.00     0.008 C 
ATOM     15  C   UNL     1     115.849 119.596 119.800  1.00  0.00    -0.024 C 
ATOM     16  C   UNL     1     114.980 118.573 120.646  1.00  0.00    -0.024 C 
ATOM     17  C   UNL     1     114.850 117.226 119.859  1.00  0.00     0.008 C 
ATOM     18  C   UNL     1     116.197 116.581 119.482  1.00  0.00     0.007 C 
ATOM     19  C   UNL     1     117.123 117.522 118.666  1.00  0.00    -0.029 C 
ATOM     20  C   UNL     1     117.235 118.924 119.380  1.00  0.00     0.002 C 
ATOM     21  C   UNL     1     118.258 119.851 118.649  1.00  0.00     0.011 C 
ATOM     22  C   UNL     1     119.671 119.209 118.483  1.00  0.00    -0.035 C 
ATOM     23  C   UNL     1     119.569 117.771 117.911  1.00  0.00     0.007 C 
ATOM     24  C   UNL     1     118.546 116.892 118.651  1.00  0.00     0.007 C 
ATOM     25  C   UNL     1     120.487 120.072 117.496  1.00  0.00     0.011 C 
ATOM     26  C   UNL     1     120.433 119.200 119.832  1.00  0.00     0.011 C 
ATOM     27  C   UNL     1     116.607 117.572 117.191  1.00  0.00     0.011 C 
ATOM     28  C   UNL     1     115.667 118.203 122.016  1.00  0.00     0.012 C 
ATOM     29  C   UNL     1     115.108 120.120 118.535  1.00  0.00     0.012 C 
ATOM     30  C   UNL     1     113.262 120.631 123.083  1.00  0.00     0.012 C 
ATOM     31  C   UNL     1     110.536 121.162 119.028  1.00  0.00     0.012 C 
ENDROOT
TORSDOF 0
ENDMDL
