MODEL 1
REMARK VINA RESULT:    -3.785      0.000      0.000
REMARK INTER + INTRA:          -4.906
REMARK INTER:                  -4.449
REMARK INTRA:                  -0.457
REMARK UNBOUND:                -0.457
REMARK SMILES CCCC[C@@H]1OC(=O)C2=C1CCC=C2
REMARK SMILES IDX 3 1 2 2 1 3 4 4 5 5 10 6 6 7 9 8 11 9 7 10 14 11 12 12 8 13
REMARK SMILES IDX 13 14
REMARK H PARENT
REMARK Flexibility Score: inf
ROOT
ATOM      1  C   UNL     1      23.882  34.813  41.930  1.00  0.00     0.004 C 
ENDROOT
BRANCH   1   2
ATOM      2  C   UNL     1      23.597  35.274  43.367  1.00  0.00    -0.003 C 
ATOM      3  C   UNL     1      22.259  36.001  43.455  1.00  0.00     0.004 C 
ENDBRANCH   1   2
BRANCH   1   4
ATOM      4  C   UNL     1      22.749  35.161  40.950  1.00  0.00     0.050 C 
BRANCH   4   5
ATOM      5  C   UNL     1      22.245  33.947  40.152  1.00  0.00     0.204 C 
ATOM      6  C   UNL     1      20.851  33.544  40.578  1.00  0.00    -0.015 C 
ATOM      7  O   UNL     1      22.068  34.284  38.773  1.00  0.00    -0.454 OA
ATOM      8  C   UNL     1      19.997  33.670  39.575  1.00  0.00     0.062 C 
ATOM      9  C   UNL     1      20.386  33.176  41.961  1.00  0.00     0.040 C 
ATOM     10  C   UNL     1      20.736  34.131  38.431  1.00  0.00     0.338 C 
ATOM     11  C   UNL     1      18.564  33.386  39.711  1.00  0.00     0.011 C 
ATOM     12  C   UNL     1      19.088  32.337  41.904  1.00  0.00     0.032 C 
ATOM     13  O   UNL     1      20.264  34.365  37.287  1.00  0.00    -0.246 OA
ATOM     14  C   UNL     1      18.120  32.824  40.843  1.00  0.00    -0.026 C 
ENDBRANCH   4   5
ENDBRANCH   1   4
TORSDOF 3
ENDMDL
MODEL 2
REMARK VINA RESULT:    -3.551      1.564      4.681
REMARK INTER + INTRA:          -4.631
REMARK INTER:                  -4.115
REMARK INTRA:                  -0.517
REMARK UNBOUND:                -0.457
REMARK SMILES CCCC[C@@H]1OC(=O)C2=C1CCC=C2
REMARK SMILES IDX 3 1 2 2 1 3 4 4 5 5 10 6 6 7 9 8 11 9 7 10 14 11 12 12 8 13
REMARK SMILES IDX 13 14
REMARK H PARENT
REMARK Flexibility Score: inf
ROOT
ATOM      1  C   UNL     1      19.776  33.238  39.006  1.00  0.00     0.004 C 
ENDROOT
BRANCH   1   2
ATOM      2  C   UNL     1      18.625  33.338  40.017  1.00  0.00    -0.003 C 
ATOM      3  C   UNL     1      19.080  32.921  41.412  1.00  0.00     0.004 C 
ENDBRANCH   1   2
BRANCH   1   4
ATOM      4  C   UNL     1      20.632  34.513  38.939  1.00  0.00     0.050 C 
BRANCH   4   5
ATOM      5  C   UNL     1      22.091  34.287  39.373  1.00  0.00     0.204 C 
ATOM      6  C   UNL     1      22.466  35.176  40.538  1.00  0.00    -0.015 C 
ATOM      7  O   UNL     1      22.261  32.973  39.912  1.00  0.00    -0.454 OA
ATOM      8  C   UNL     1      22.776  34.453  41.601  1.00  0.00     0.062 C 
ATOM      9  C   UNL     1      22.389  36.677  40.607  1.00  0.00     0.040 C 
ATOM     10  C   UNL     1      22.658  33.067  41.235  1.00  0.00     0.338 C 
ATOM     11  C   UNL     1      23.143  35.052  42.890  1.00  0.00     0.011 C 
ATOM     12  C   UNL     1      23.326  37.230  41.705  1.00  0.00     0.032 C 
ATOM     13  O   UNL     1      22.876  32.079  41.984  1.00  0.00    -0.246 OA
ATOM     14  C   UNL     1      23.331  36.376  42.959  1.00  0.00    -0.026 C 
ENDBRANCH   4   5
ENDBRANCH   1   4
TORSDOF 3
ENDMDL
MODEL 3
REMARK VINA RESULT:    -3.164      2.044      5.064
REMARK INTER + INTRA:          -4.176
REMARK INTER:                  -3.890
REMARK INTRA:                  -0.286
REMARK UNBOUND:                -0.457
REMARK SMILES CCCC[C@@H]1OC(=O)C2=C1CCC=C2
REMARK SMILES IDX 3 1 2 2 1 3 4 4 5 5 10 6 6 7 9 8 11 9 7 10 14 11 12 12 8 13
REMARK SMILES IDX 13 14
REMARK H PARENT
REMARK Flexibility Score: inf
ROOT
ATOM      1  C   UNL     1      20.074  33.781  37.880  1.00  0.00     0.004 C 
ENDROOT
BRANCH   1   2
ATOM      2  C   UNL     1      20.197  33.690  36.352  1.00  0.00    -0.003 C 
ATOM      3  C   UNL     1      21.373  32.806  35.947  1.00  0.00     0.004 C 
ENDBRANCH   1   2
BRANCH   1   4
ATOM      4  C   UNL     1      20.841  34.973  38.476  1.00  0.00     0.050 C 
BRANCH   4   5
ATOM      5  C   UNL     1      22.141  34.561  39.187  1.00  0.00     0.204 C 
ATOM      6  C   UNL     1      22.364  35.369  40.446  1.00  0.00    -0.015 C 
ATOM      7  O   UNL     1      22.045  33.223  39.684  1.00  0.00    -0.454 OA
ATOM      8  C   UNL     1      22.361  34.588  41.513  1.00  0.00     0.062 C 
ATOM      9  C   UNL     1      22.445  36.867  40.571  1.00  0.00     0.040 C 
ATOM     10  C   UNL     1      22.165  33.237  41.063  1.00  0.00     0.338 C 
ATOM     11  C   UNL     1      22.516  35.106  42.878  1.00  0.00     0.011 C 
ATOM     12  C   UNL     1      23.189  37.275  41.863  1.00  0.00     0.032 C 
ATOM     13  O   UNL     1      22.108  32.211  41.792  1.00  0.00    -0.246 OA
ATOM     14  C   UNL     1      22.834  36.396  43.048  1.00  0.00    -0.026 C 
ENDBRANCH   4   5
ENDBRANCH   1   4
TORSDOF 3
ENDMDL
MODEL 4
REMARK VINA RESULT:    -3.150      1.983      4.497
REMARK INTER + INTRA:          -4.159
REMARK INTER:                  -3.624
REMARK INTRA:                  -0.535
REMARK UNBOUND:                -0.457
REMARK SMILES CCCC[C@@H]1OC(=O)C2=C1CCC=C2
REMARK SMILES IDX 3 1 2 2 1 3 4 4 5 5 10 6 6 7 9 8 11 9 7 10 14 11 12 12 8 13
REMARK SMILES IDX 13 14
REMARK H PARENT
REMARK Flexibility Score: inf
ROOT
ATOM      1  C   UNL     1      21.422  33.122  37.833  1.00  0.00     0.004 C 
ENDROOT
BRANCH   1   2
ATOM      2  C   UNL     1      20.708  34.431  37.467  1.00  0.00    -0.003 C 
ATOM      3  C   UNL     1      21.065  35.544  38.447  1.00  0.00     0.004 C 
ENDBRANCH   1   2
BRANCH   1   4
ATOM      4  C   UNL     1      22.738  33.347  38.596  1.00  0.00     0.050 C 
BRANCH   4   5
ATOM      5  C   UNL     1      22.689  32.843  40.049  1.00  0.00     0.204 C 
ATOM      6  C   UNL     1      23.019  33.946  41.029  1.00  0.00    -0.015 C 
ATOM      7  O   UNL     1      21.353  32.484  40.416  1.00  0.00    -0.454 OA
ATOM      8  C   UNL     1      21.990  34.195  41.822  1.00  0.00     0.062 C 
ATOM      9  C   UNL     1      24.264  34.790  41.073  1.00  0.00     0.040 C 
ATOM     10  C   UNL     1      20.933  33.290  41.460  1.00  0.00     0.338 C 
ATOM     11  C   UNL     1      22.012  35.245  42.848  1.00  0.00     0.011 C 
ATOM     12  C   UNL     1      24.466  35.406  42.477  1.00  0.00     0.032 C 
ATOM     13  O   UNL     1      19.795  33.224  41.996  1.00  0.00    -0.246 OA
ATOM     14  C   UNL     1      23.167  35.873  43.106  1.00  0.00    -0.026 C 
ENDBRANCH   4   5
ENDBRANCH   1   4
TORSDOF 3
ENDMDL
MODEL 5
REMARK VINA RESULT:    -3.084      1.401      4.750
REMARK INTER + INTRA:          -4.081
REMARK INTER:                  -3.761
REMARK INTRA:                  -0.320
REMARK UNBOUND:                -0.457
REMARK SMILES CCCC[C@@H]1OC(=O)C2=C1CCC=C2
REMARK SMILES IDX 3 1 2 2 1 3 4 4 5 5 10 6 6 7 9 8 11 9 7 10 14 11 12 12 8 13
REMARK SMILES IDX 13 14
REMARK H PARENT
REMARK Flexibility Score: inf
ROOT
ATOM      1  C   UNL     1      19.002  32.720  41.473  1.00  0.00     0.004 C 
ENDROOT
BRANCH   1   2
ATOM      2  C   UNL     1      18.459  33.453  40.238  1.00  0.00    -0.003 C 
ATOM      3  C   UNL     1      17.783  32.482  39.275  1.00  0.00     0.004 C 
ENDBRANCH   1   2
BRANCH   1   4
ATOM      4  C   UNL     1      20.537  32.621  41.488  1.00  0.00     0.050 C 
BRANCH   4   5
ATOM      5  C   UNL     1      21.221  33.688  40.616  1.00  0.00     0.204 C 
ATOM      6  C   UNL     1      22.301  34.419  41.381  1.00  0.00    -0.015 C 
ATOM      7  O   UNL     1      21.950  33.078  39.547  1.00  0.00    -0.454 OA
ATOM      8  C   UNL     1      23.486  34.219  40.830  1.00  0.00     0.062 C 
ATOM      9  C   UNL     1      22.155  35.174  42.675  1.00  0.00     0.040 C 
ATOM     10  C   UNL     1      23.294  33.383  39.676  1.00  0.00     0.338 C 
ATOM     11  C   UNL     1      24.725  34.777  41.385  1.00  0.00     0.011 C 
ATOM     12  C   UNL     1      23.304  36.194  42.853  1.00  0.00     0.032 C 
ATOM     13  O   UNL     1      24.193  32.979  38.893  1.00  0.00    -0.246 OA
ATOM     14  C   UNL     1      24.645  35.655  42.393  1.00  0.00    -0.026 C 
ENDBRANCH   4   5
ENDBRANCH   1   4
TORSDOF 3
ENDMDL
MODEL 6
REMARK VINA RESULT:    -3.053      2.032      2.957
REMARK INTER + INTRA:          -4.045
REMARK INTER:                  -3.692
REMARK INTRA:                  -0.354
REMARK UNBOUND:                -0.457
REMARK SMILES CCCC[C@@H]1OC(=O)C2=C1CCC=C2
REMARK SMILES IDX 3 1 2 2 1 3 4 4 5 5 10 6 6 7 9 8 11 9 7 10 14 11 12 12 8 13
REMARK SMILES IDX 13 14
REMARK H PARENT
REMARK Flexibility Score: inf
ROOT
ATOM      1  C   UNL     1      23.491  34.202  42.275  1.00  0.00     0.004 C 
ENDROOT
BRANCH   1   2
ATOM      2  C   UNL     1      23.512  35.625  41.698  1.00  0.00    -0.003 C 
ATOM      3  C   UNL     1      23.117  36.652  42.754  1.00  0.00     0.004 C 
ENDBRANCH   1   2
BRANCH   1   4
ATOM      4  C   UNL     1      22.495  33.276  41.558  1.00  0.00     0.050 C 
BRANCH   4   5
ATOM      5  C   UNL     1      21.148  33.955  41.254  1.00  0.00     0.204 C 
ATOM      6  C   UNL     1      20.732  33.743  39.816  1.00  0.00    -0.015 C 
ATOM      7  O   UNL     1      20.089  33.328  41.984  1.00  0.00    -0.454 OA
ATOM      8  C   UNL     1      19.603  33.058  39.748  1.00  0.00     0.062 C 
ATOM      9  C   UNL     1      21.507  34.103  38.577  1.00  0.00     0.040 C 
ATOM     10  C   UNL     1      19.177  32.787  41.094  1.00  0.00     0.338 C 
ATOM     11  C   UNL     1      18.983  32.672  38.475  1.00  0.00     0.011 C 
ATOM     12  C   UNL     1      20.568  34.227  37.354  1.00  0.00     0.032 C 
ATOM     13  O   UNL     1      18.140  32.158  41.433  1.00  0.00    -0.246 OA
ATOM     14  C   UNL     1      19.485  33.164  37.335  1.00  0.00    -0.026 C 
ENDBRANCH   4   5
ENDBRANCH   1   4
TORSDOF 3
ENDMDL
MODEL 7
REMARK VINA RESULT:    -2.997      2.812      3.570
REMARK INTER + INTRA:          -3.979
REMARK INTER:                  -3.785
REMARK INTRA:                  -0.194
REMARK UNBOUND:                -0.457
REMARK SMILES CCCC[C@@H]1OC(=O)C2=C1CCC=C2
REMARK SMILES IDX 3 1 2 2 1 3 4 4 5 5 10 6 6 7 9 8 11 9 7 10 14 11 12 12 8 13
REMARK SMILES IDX 13 14
REMARK H PARENT
REMARK Flexibility Score: inf
ROOT
ATOM      1  C   UNL     1      23.134  37.063  42.263  1.00  0.00     0.004 C 
ENDROOT
BRANCH   1   2
ATOM      2  C   UNL     1      24.625  37.131  42.622  1.00  0.00    -0.003 C 
ATOM      3  C   UNL     1      25.122  38.573  42.637  1.00  0.00     0.004 C 
ENDBRANCH   1   2
BRANCH   1   4
ATOM      4  C   UNL     1      22.878  36.480  40.864  1.00  0.00     0.050 C 
BRANCH   4   5
ATOM      5  C   UNL     1      22.236  35.082  40.899  1.00  0.00     0.204 C 
ATOM      6  C   UNL     1      21.909  34.588  39.507  1.00  0.00    -0.015 C 
ATOM      7  O   UNL     1      23.172  34.107  41.367  1.00  0.00    -0.454 OA
ATOM      8  C   UNL     1      22.596  33.495  39.222  1.00  0.00     0.062 C 
ATOM      9  C   UNL     1      21.044  35.262  38.476  1.00  0.00     0.040 C 
ATOM     10  C   UNL     1      23.395  33.170  40.373  1.00  0.00     0.338 C 
ATOM     11  C   UNL     1      22.508  32.817  37.923  1.00  0.00     0.011 C 
ATOM     12  C   UNL     1      20.530  34.242  37.434  1.00  0.00     0.032 C 
ATOM     13  O   UNL     1      24.181  32.192  40.480  1.00  0.00    -0.246 OA
ATOM     14  C   UNL     1      21.580  33.218  37.045  1.00  0.00    -0.026 C 
ENDBRANCH   4   5
ENDBRANCH   1   4
TORSDOF 3
ENDMDL
MODEL 8
REMARK VINA RESULT:    -2.925      2.110      4.035
REMARK INTER + INTRA:          -3.895
REMARK INTER:                  -3.349
REMARK INTRA:                  -0.546
REMARK UNBOUND:                -0.457
REMARK SMILES CCCC[C@@H]1OC(=O)C2=C1CCC=C2
REMARK SMILES IDX 3 1 2 2 1 3 4 4 5 5 10 6 6 7 9 8 11 9 7 10 14 11 12 12 8 13
REMARK SMILES IDX 13 14
REMARK H PARENT
REMARK Flexibility Score: inf
ROOT
ATOM      1  C   UNL     1      19.820  32.783  41.888  1.00  0.00     0.004 C 
ENDROOT
BRANCH   1   2
ATOM      2  C   UNL     1      18.470  32.175  41.483  1.00  0.00    -0.003 C 
ATOM      3  C   UNL     1      17.699  33.114  40.561  1.00  0.00     0.004 C 
ENDBRANCH   1   2
BRANCH   1   4
ATOM      4  C   UNL     1      21.014  31.875  41.551  1.00  0.00     0.050 C 
BRANCH   4   5
ATOM      5  C   UNL     1      22.064  32.562  40.660  1.00  0.00     0.204 C 
ATOM      6  C   UNL     1      21.450  33.074  39.376  1.00  0.00    -0.015 C 
ATOM      7  O   UNL     1      22.548  33.758  41.277  1.00  0.00    -0.454 OA
ATOM      8  C   UNL     1      21.550  34.391  39.299  1.00  0.00     0.062 C 
ATOM      9  C   UNL     1      20.689  32.284  38.346  1.00  0.00     0.040 C 
ATOM     10  C   UNL     1      22.237  34.845  40.478  1.00  0.00     0.338 C 
ATOM     11  C   UNL     1      21.005  35.165  38.178  1.00  0.00     0.011 C 
ATOM     12  C   UNL     1      20.693  33.008  36.979  1.00  0.00     0.032 C 
ATOM     13  O   UNL     1      22.521  36.039  40.760  1.00  0.00    -0.246 OA
ATOM     14  C   UNL     1      20.530  34.511  37.110  1.00  0.00    -0.026 C 
ENDBRANCH   4   5
ENDBRANCH   1   4
TORSDOF 3
ENDMDL
