MODEL 1
REMARK VINA RESULT:    -5.617      0.000      0.000
REMARK INTER + INTRA:          -7.072
REMARK INTER:                  -6.767
REMARK INTRA:                  -0.306
REMARK UNBOUND:                -0.306
REMARK SMILES O=c1c(O)c(-c2ccc(O)c(O)c2)oc2cc(O)cc(O)c12
REMARK SMILES IDX 5 1 3 2 2 3 1 4 22 5 20 6 19 7 17 8 16 9 15 10 14 11 6 12
REMARK SMILES IDX 7 13 8 14 9 15 13 16 11 17 10 18 12 20 4 22 21 24 18 26
REMARK H PARENT 10 19 12 21 4 23 21 25 18 27
REMARK Flexibility Score: inf
ROOT
ATOM      1  C   UNL     1       7.284  26.794   4.269  1.00  0.00     0.180 A 
ATOM      2  C   UNL     1       8.336  27.206   3.428  1.00  0.00     0.208 A 
ATOM      3  C   UNL     1       8.063  27.458   2.075  1.00  0.00     0.238 A 
ATOM      4  O   UNL     1       8.994  27.838   1.314  1.00  0.00    -0.285 OA
ATOM      5  C   UNL     1       6.754  27.277   1.582  1.00  0.00     0.111 A 
ATOM      6  C   UNL     1       6.396  27.506   0.232  1.00  0.00     0.134 A 
ATOM      7  C   UNL     1       5.072  27.294  -0.182  1.00  0.00     0.093 A 
ATOM      8  C   UNL     1       4.103  26.858   0.723  1.00  0.00     0.123 A 
ATOM      9  C   UNL     1       4.451  26.631   2.060  1.00  0.00     0.094 A 
ATOM     10  C   UNL     1       5.763  26.838   2.493  1.00  0.00     0.146 A 
ATOM     11  O   UNL     1       6.066  26.619   3.767  1.00  0.00    -0.452 OA
ENDROOT
BRANCH   1  12
ATOM     12  C   UNL     1       7.490  26.526   5.712  1.00  0.00     0.025 A 
ATOM     13  C   UNL     1       7.157  27.479   6.687  1.00  0.00     0.016 A 
ATOM     14  C   UNL     1       7.338  27.193   8.042  1.00  0.00     0.051 A 
ATOM     15  C   UNL     1       7.839  25.953   8.450  1.00  0.00     0.157 A 
ATOM     16  C   UNL     1       7.972  25.273   6.120  1.00  0.00     0.062 A 
ATOM     17  C   UNL     1       8.157  24.978   7.476  1.00  0.00     0.158 A 
BRANCH  15  18
ATOM     18  O   UNL     1       7.999  25.733   9.820  1.00  0.00    -0.504 OA
ATOM     19  H   UNL     1       8.477  24.933  10.212  1.00  0.00     0.293 HD
ENDBRANCH  15  18
BRANCH  17  20
ATOM     20  O   UNL     1       8.652  23.714   7.807  1.00  0.00    -0.504 OA
ATOM     21  H   UNL     1       9.228  23.527   8.615  1.00  0.00     0.293 HD
ENDBRANCH  17  20
ENDBRANCH   1  12
BRANCH   2  22
ATOM     22  O   UNL     1       9.635  27.330   3.930  1.00  0.00    -0.502 OA
ATOM     23  H   UNL     1      10.092  28.227   4.033  1.00  0.00     0.293 HD
ENDBRANCH   2  22
BRANCH   6  24
ATOM     24  O   UNL     1       7.342  27.941  -0.698  1.00  0.00    -0.507 OA
ATOM     25  H   UNL     1       7.427  27.510  -1.611  1.00  0.00     0.293 HD
ENDBRANCH   6  24
BRANCH   8  26
ATOM     26  O   UNL     1       2.797  26.654   0.286  1.00  0.00    -0.508 OA
ATOM     27  H   UNL     1       2.001  26.857   0.880  1.00  0.00     0.293 HD
ENDBRANCH   8  26
TORSDOF 6
ENDMDL
MODEL 2
REMARK VINA RESULT:    -5.415      1.868      6.985
REMARK INTER + INTRA:          -6.828
REMARK INTER:                  -6.815
REMARK INTRA:                  -0.013
REMARK UNBOUND:                -0.306
REMARK SMILES O=c1c(O)c(-c2ccc(O)c(O)c2)oc2cc(O)cc(O)c12
REMARK SMILES IDX 5 1 3 2 2 3 1 4 22 5 20 6 19 7 17 8 16 9 15 10 14 11 6 12
REMARK SMILES IDX 7 13 8 14 9 15 13 16 11 17 10 18 12 20 4 22 21 24 18 26
REMARK H PARENT 10 19 12 21 4 23 21 25 18 27
REMARK Flexibility Score: inf
ROOT
ATOM      1  C   UNL     1       7.107  26.674   5.198  1.00  0.00     0.180 A 
ATOM      2  C   UNL     1       7.760  25.687   5.963  1.00  0.00     0.208 A 
ATOM      3  C   UNL     1       7.825  25.842   7.356  1.00  0.00     0.238 A 
ATOM      4  O   UNL     1       8.397  24.960   8.053  1.00  0.00    -0.285 OA
ATOM      5  C   UNL     1       7.256  26.984   7.958  1.00  0.00     0.111 A 
ATOM      6  C   UNL     1       7.281  27.216   9.355  1.00  0.00     0.134 A 
ATOM      7  C   UNL     1       6.700  28.383   9.876  1.00  0.00     0.093 A 
ATOM      8  C   UNL     1       6.097  29.318   9.031  1.00  0.00     0.123 A 
ATOM      9  C   UNL     1       6.069  29.092   7.651  1.00  0.00     0.094 A 
ATOM     10  C   UNL     1       6.640  27.936   7.112  1.00  0.00     0.146 A 
ATOM     11  O   UNL     1       6.595  27.744   5.798  1.00  0.00    -0.452 OA
ENDROOT
BRANCH   1  12
ATOM     12  C   UNL     1       6.982  26.572   3.726  1.00  0.00     0.025 A 
ATOM     13  C   UNL     1       8.102  26.341   2.911  1.00  0.00     0.016 A 
ATOM     14  C   UNL     1       7.954  26.225   1.527  1.00  0.00     0.051 A 
ATOM     15  C   UNL     1       6.692  26.322   0.932  1.00  0.00     0.157 A 
ATOM     16  C   UNL     1       5.712  26.648   3.134  1.00  0.00     0.062 A 
ATOM     17  C   UNL     1       5.555  26.533   1.747  1.00  0.00     0.158 A 
BRANCH  15  18
ATOM     18  O   UNL     1       6.615  26.201  -0.456  1.00  0.00    -0.504 OA
ATOM     19  H   UNL     1       5.850  25.754  -0.943  1.00  0.00     0.293 HD
ENDBRANCH  15  18
BRANCH  17  20
ATOM     20  O   UNL     1       4.262  26.631   1.227  1.00  0.00    -0.504 OA
ATOM     21  H   UNL     1       3.464  26.956   1.753  1.00  0.00     0.293 HD
ENDBRANCH  17  20
ENDBRANCH   1  12
BRANCH   2  22
ATOM     22  O   UNL     1       8.359  24.590   5.338  1.00  0.00    -0.502 OA
ATOM     23  H   UNL     1       8.830  24.665   4.445  1.00  0.00     0.293 HD
ENDBRANCH   2  22
BRANCH   6  24
ATOM     24  O   UNL     1       7.877  26.302  10.225  1.00  0.00    -0.507 OA
ATOM     25  H   UNL     1       8.810  26.447  10.592  1.00  0.00     0.293 HD
ENDBRANCH   6  24
BRANCH   8  26
ATOM     26  O   UNL     1       5.530  30.467   9.574  1.00  0.00    -0.508 OA
ATOM     27  H   UNL     1       6.027  31.350   9.585  1.00  0.00     0.293 HD
ENDBRANCH   8  26
TORSDOF 6
ENDMDL
MODEL 3
REMARK VINA RESULT:    -5.235      1.728      6.929
REMARK INTER + INTRA:          -6.611
REMARK INTER:                  -6.470
REMARK INTRA:                  -0.142
REMARK UNBOUND:                -0.306
REMARK SMILES O=c1c(O)c(-c2ccc(O)c(O)c2)oc2cc(O)cc(O)c12
REMARK SMILES IDX 5 1 3 2 2 3 1 4 22 5 20 6 19 7 17 8 16 9 15 10 14 11 6 12
REMARK SMILES IDX 7 13 8 14 9 15 13 16 11 17 10 18 12 20 4 22 21 24 18 26
REMARK H PARENT 10 19 12 21 4 23 21 25 18 27
REMARK Flexibility Score: inf
ROOT
ATOM      1  C   UNL     1       7.323  26.615   5.169  1.00  0.00     0.180 A 
ATOM      2  C   UNL     1       7.895  25.558   5.903  1.00  0.00     0.208 A 
ATOM      3  C   UNL     1       7.886  25.624   7.305  1.00  0.00     0.238 A 
ATOM      4  O   UNL     1       8.384  24.679   7.975  1.00  0.00    -0.285 OA
ATOM      5  C   UNL     1       7.327  26.749   7.947  1.00  0.00     0.111 A 
ATOM      6  C   UNL     1       7.281  26.895   9.354  1.00  0.00     0.134 A 
ATOM      7  C   UNL     1       6.716  28.050   9.916  1.00  0.00     0.093 A 
ATOM      8  C   UNL     1       6.197  29.058   9.101  1.00  0.00     0.123 A 
ATOM      9  C   UNL     1       6.239  28.919   7.709  1.00  0.00     0.094 A 
ATOM     10  C   UNL     1       6.796  27.776   7.130  1.00  0.00     0.146 A 
ATOM     11  O   UNL     1       6.819  27.667   5.806  1.00  0.00    -0.452 OA
ENDROOT
BRANCH   1  12
ATOM     12  C   UNL     1       7.279  26.609   3.688  1.00  0.00     0.025 A 
ATOM     13  C   UNL     1       6.059  26.625   2.993  1.00  0.00     0.016 A 
ATOM     14  C   UNL     1       6.044  26.644   1.597  1.00  0.00     0.051 A 
ATOM     15  C   UNL     1       7.238  26.661   0.869  1.00  0.00     0.157 A 
ATOM     16  C   UNL     1       8.478  26.648   2.960  1.00  0.00     0.062 A 
ATOM     17  C   UNL     1       8.472  26.667   1.560  1.00  0.00     0.158 A 
BRANCH  15  18
ATOM     18  O   UNL     1       7.152  26.675  -0.524  1.00  0.00    -0.504 OA
ATOM     19  H   UNL     1       7.769  26.157  -1.134  1.00  0.00     0.293 HD
ENDBRANCH  15  18
BRANCH  17  20
ATOM     20  O   UNL     1       9.704  26.693   0.903  1.00  0.00    -0.504 OA
ATOM     21  H   UNL     1      10.542  26.253   1.255  1.00  0.00     0.293 HD
ENDBRANCH  17  20
ENDBRANCH   1  12
BRANCH   2  22
ATOM     22  O   UNL     1       8.486  24.478   5.243  1.00  0.00    -0.502 OA
ATOM     23  H   UNL     1       9.290  24.586   4.639  1.00  0.00     0.293 HD
ENDBRANCH   2  22
BRANCH   6  24
ATOM     24  O   UNL     1       7.792  25.905  10.196  1.00  0.00    -0.507 OA
ATOM     25  H   UNL     1       8.375  25.155   9.843  1.00  0.00     0.293 HD
ENDBRANCH   6  24
BRANCH   8  26
ATOM     26  O   UNL     1       5.643  30.195   9.684  1.00  0.00    -0.508 OA
ATOM     27  H   UNL     1       5.180  30.905   9.127  1.00  0.00     0.293 HD
ENDBRANCH   8  26
TORSDOF 6
ENDMDL
MODEL 4
REMARK VINA RESULT:    -5.227      1.566      2.290
REMARK INTER + INTRA:          -6.602
REMARK INTER:                  -6.312
REMARK INTRA:                  -0.291
REMARK UNBOUND:                -0.306
REMARK SMILES O=c1c(O)c(-c2ccc(O)c(O)c2)oc2cc(O)cc(O)c12
REMARK SMILES IDX 5 1 3 2 2 3 1 4 22 5 20 6 19 7 17 8 16 9 15 10 14 11 6 12
REMARK SMILES IDX 7 13 8 14 9 15 13 16 11 17 10 18 12 20 4 22 21 24 18 26
REMARK H PARENT 10 19 12 21 4 23 21 25 18 27
REMARK Flexibility Score: inf
ROOT
ATOM      1  C   UNL     1       7.818  26.706   5.424  1.00  0.00     0.180 A 
ATOM      2  C   UNL     1       8.995  26.524   4.674  1.00  0.00     0.208 A 
ATOM      3  C   UNL     1       8.900  26.412   3.278  1.00  0.00     0.238 A 
ATOM      4  O   UNL     1       9.948  26.260   2.594  1.00  0.00    -0.285 OA
ATOM      5  C   UNL     1       7.633  26.462   2.660  1.00  0.00     0.111 A 
ATOM      6  C   UNL     1       7.450  26.354   1.260  1.00  0.00     0.134 A 
ATOM      7  C   UNL     1       6.155  26.405   0.722  1.00  0.00     0.093 A 
ATOM      8  C   UNL     1       5.043  26.562   1.553  1.00  0.00     0.123 A 
ATOM      9  C   UNL     1       5.219  26.671   2.937  1.00  0.00     0.094 A 
ATOM     10  C   UNL     1       6.500  26.624   3.492  1.00  0.00     0.146 A 
ATOM     11  O   UNL     1       6.639  26.734   4.809  1.00  0.00    -0.452 OA
ENDROOT
BRANCH   1  12
ATOM     12  C   UNL     1       7.839  26.851   6.898  1.00  0.00     0.025 A 
ATOM     13  C   UNL     1       7.974  25.736   7.741  1.00  0.00     0.016 A 
ATOM     14  C   UNL     1       8.016  25.902   9.127  1.00  0.00     0.051 A 
ATOM     15  C   UNL     1       7.939  27.177   9.697  1.00  0.00     0.157 A 
ATOM     16  C   UNL     1       7.784  28.133   7.467  1.00  0.00     0.062 A 
ATOM     17  C   UNL     1       7.825  28.308   8.855  1.00  0.00     0.158 A 
BRANCH  15  18
ATOM     18  O   UNL     1       7.982  27.272  11.089  1.00  0.00    -0.504 OA
ATOM     19  H   UNL     1       8.634  26.764  11.671  1.00  0.00     0.293 HD
ENDBRANCH  15  18
BRANCH  17  20
ATOM     20  O   UNL     1       7.753  29.612   9.351  1.00  0.00    -0.504 OA
ATOM     21  H   UNL     1       8.462  30.315   9.198  1.00  0.00     0.293 HD
ENDBRANCH  17  20
ENDBRANCH   1  12
BRANCH   2  22
ATOM     22  O   UNL     1      10.234  26.428   5.315  1.00  0.00    -0.502 OA
ATOM     23  H   UNL     1      10.856  25.641   5.177  1.00  0.00     0.293 HD
ENDBRANCH   2  22
BRANCH   6  24
ATOM     24  O   UNL     1       8.540  26.195   0.403  1.00  0.00    -0.507 OA
ATOM     25  H   UNL     1       8.879  26.956  -0.174  1.00  0.00     0.293 HD
ENDBRANCH   6  24
BRANCH   8  26
ATOM     26  O   UNL     1       3.769  26.608   0.994  1.00  0.00    -0.508 OA
ATOM     27  H   UNL     1       3.347  25.791   0.567  1.00  0.00     0.293 HD
ENDBRANCH   8  26
TORSDOF 6
ENDMDL
MODEL 5
REMARK VINA RESULT:    -4.877      3.928      6.838
REMARK INTER + INTRA:          -6.180
REMARK INTER:                  -5.930
REMARK INTRA:                  -0.251
REMARK UNBOUND:                -0.306
REMARK SMILES O=c1c(O)c(-c2ccc(O)c(O)c2)oc2cc(O)cc(O)c12
REMARK SMILES IDX 5 1 3 2 2 3 1 4 22 5 20 6 19 7 17 8 16 9 15 10 14 11 6 12
REMARK SMILES IDX 7 13 8 14 9 15 13 16 11 17 10 18 12 20 4 22 21 24 18 26
REMARK H PARENT 10 19 12 21 4 23 21 25 18 27
REMARK Flexibility Score: inf
ROOT
ATOM      1  C   UNL     1       8.553  28.036  10.254  1.00  0.00     0.180 A 
ATOM      2  C   UNL     1       7.615  29.021   9.888  1.00  0.00     0.208 A 
ATOM      3  C   UNL     1       6.957  28.907   8.654  1.00  0.00     0.238 A 
ATOM      4  O   UNL     1       6.107  29.776   8.320  1.00  0.00    -0.285 OA
ATOM      5  C   UNL     1       7.262  27.827   7.799  1.00  0.00     0.111 A 
ATOM      6  C   UNL     1       6.647  27.641   6.537  1.00  0.00     0.134 A 
ATOM      7  C   UNL     1       7.012  26.544   5.741  1.00  0.00     0.093 A 
ATOM      8  C   UNL     1       7.976  25.633   6.180  1.00  0.00     0.123 A 
ATOM      9  C   UNL     1       8.586  25.812   7.427  1.00  0.00     0.094 A 
ATOM     10  C   UNL     1       8.235  26.896   8.235  1.00  0.00     0.146 A 
ATOM     11  O   UNL     1       8.826  27.040   9.417  1.00  0.00    -0.452 OA
ENDROOT
BRANCH   1  12
ATOM     12  C   UNL     1       9.274  28.078  11.548  1.00  0.00     0.025 A 
ATOM     13  C   UNL     1      10.619  28.470  11.623  1.00  0.00     0.016 A 
ATOM     14  C   UNL     1      11.269  28.525  12.858  1.00  0.00     0.051 A 
ATOM     15  C   UNL     1      10.590  28.204  14.038  1.00  0.00     0.157 A 
ATOM     16  C   UNL     1       8.584  27.777  12.732  1.00  0.00     0.062 A 
ATOM     17  C   UNL     1       9.227  27.829  13.974  1.00  0.00     0.158 A 
BRANCH  15  18
ATOM     18  O   UNL     1      11.299  28.275  15.238  1.00  0.00    -0.504 OA
ATOM     19  H   UNL     1      11.851  29.072  15.522  1.00  0.00     0.293 HD
ENDBRANCH  15  18
BRANCH  17  20
ATOM     20  O   UNL     1       8.481  27.505  15.110  1.00  0.00    -0.504 OA
ATOM     21  H   UNL     1       7.954  26.650  15.215  1.00  0.00     0.293 HD
ENDBRANCH  17  20
ENDBRANCH   1  12
BRANCH   2  22
ATOM     22  O   UNL     1       7.367  30.108  10.731  1.00  0.00    -0.502 OA
ATOM     23  H   UNL     1       8.100  30.561  11.262  1.00  0.00     0.293 HD
ENDBRANCH   2  22
BRANCH   6  24
ATOM     24  O   UNL     1       5.682  28.533   6.070  1.00  0.00    -0.507 OA
ATOM     25  H   UNL     1       5.319  28.479   5.125  1.00  0.00     0.293 HD
ENDBRANCH   6  24
BRANCH   8  26
ATOM     26  O   UNL     1       8.320  24.555   5.370  1.00  0.00    -0.508 OA
ATOM     27  H   UNL     1       8.729  24.689   4.453  1.00  0.00     0.293 HD
ENDBRANCH   8  26
TORSDOF 6
ENDMDL
MODEL 6
REMARK VINA RESULT:    -4.843      4.025      6.485
REMARK INTER + INTRA:          -6.139
REMARK INTER:                  -5.937
REMARK INTRA:                  -0.202
REMARK UNBOUND:                -0.306
REMARK SMILES O=c1c(O)c(-c2ccc(O)c(O)c2)oc2cc(O)cc(O)c12
REMARK SMILES IDX 5 1 3 2 2 3 1 4 22 5 20 6 19 7 17 8 16 9 15 10 14 11 6 12
REMARK SMILES IDX 7 13 8 14 9 15 13 16 11 17 10 18 12 20 4 22 21 24 18 26
REMARK H PARENT 10 19 12 21 4 23 21 25 18 27
REMARK Flexibility Score: inf
ROOT
ATOM      1  C   UNL     1       8.099  28.452  10.312  1.00  0.00     0.180 A 
ATOM      2  C   UNL     1       9.133  28.055   9.440  1.00  0.00     0.208 A 
ATOM      3  C   UNL     1       8.827  27.812   8.092  1.00  0.00     0.238 A 
ATOM      4  O   UNL     1       9.745  27.467   7.300  1.00  0.00    -0.285 OA
ATOM      5  C   UNL     1       7.497  27.948   7.643  1.00  0.00     0.111 A 
ATOM      6  C   UNL     1       7.105  27.718   6.302  1.00  0.00     0.134 A 
ATOM      7  C   UNL     1       5.758  27.867   5.937  1.00  0.00     0.093 A 
ATOM      8  C   UNL     1       4.799  28.239   6.881  1.00  0.00     0.123 A 
ATOM      9  C   UNL     1       5.181  28.469   8.208  1.00  0.00     0.094 A 
ATOM     10  C   UNL     1       6.518  28.327   8.592  1.00  0.00     0.146 A 
ATOM     11  O   UNL     1       6.854  28.556   9.857  1.00  0.00    -0.452 OA
ENDROOT
BRANCH   1  12
ATOM     12  C   UNL     1       8.347  28.744  11.743  1.00  0.00     0.025 A 
ATOM     13  C   UNL     1       8.213  30.043  12.257  1.00  0.00     0.016 A 
ATOM     14  C   UNL     1       8.428  30.289  13.615  1.00  0.00     0.051 A 
ATOM     15  C   UNL     1       8.765  29.248  14.485  1.00  0.00     0.157 A 
ATOM     16  C   UNL     1       8.663  27.694  12.618  1.00  0.00     0.062 A 
ATOM     17  C   UNL     1       8.881  27.931  13.980  1.00  0.00     0.158 A 
BRANCH  15  18
ATOM     18  O   UNL     1       8.970  29.562  15.830  1.00  0.00    -0.504 OA
ATOM     19  H   UNL     1       9.845  29.902  16.204  1.00  0.00     0.293 HD
ENDBRANCH  15  18
BRANCH  17  20
ATOM     20  O   UNL     1       9.204  26.839  14.789  1.00  0.00    -0.504 OA
ATOM     21  H   UNL     1       9.855  26.880  15.560  1.00  0.00     0.293 HD
ENDBRANCH  17  20
ENDBRANCH   1  12
BRANCH   2  22
ATOM     22  O   UNL     1      10.433  27.879   9.920  1.00  0.00    -0.502 OA
ATOM     23  H   UNL     1      11.020  27.109   9.627  1.00  0.00     0.293 HD
ENDBRANCH   2  22
BRANCH   6  24
ATOM     24  O   UNL     1       8.038  27.344   5.335  1.00  0.00    -0.507 OA
ATOM     25  H   UNL     1       7.895  27.544   4.352  1.00  0.00     0.293 HD
ENDBRANCH   6  24
BRANCH   8  26
ATOM     26  O   UNL     1       3.470  28.378   6.492  1.00  0.00    -0.508 OA
ATOM     27  H   UNL     1       2.920  29.187   6.760  1.00  0.00     0.293 HD
ENDBRANCH   8  26
TORSDOF 6
ENDMDL
MODEL 7
REMARK VINA RESULT:    -4.819      1.712      6.774
REMARK INTER + INTRA:          -6.111
REMARK INTER:                  -5.783
REMARK INTRA:                  -0.328
REMARK UNBOUND:                -0.306
REMARK SMILES O=c1c(O)c(-c2ccc(O)c(O)c2)oc2cc(O)cc(O)c12
REMARK SMILES IDX 5 1 3 2 2 3 1 4 22 5 20 6 19 7 17 8 16 9 15 10 14 11 6 12
REMARK SMILES IDX 7 13 8 14 9 15 13 16 11 17 10 18 12 20 4 22 21 24 18 26
REMARK H PARENT 10 19 12 21 4 23 21 25 18 27
REMARK Flexibility Score: inf
ROOT
ATOM      1  C   UNL     1       6.868  27.133   3.069  1.00  0.00     0.180 A 
ATOM      2  C   UNL     1       7.348  28.445   3.249  1.00  0.00     0.208 A 
ATOM      3  C   UNL     1       7.988  28.773   4.454  1.00  0.00     0.238 A 
ATOM      4  O   UNL     1       8.433  29.941   4.623  1.00  0.00    -0.285 OA
ATOM      5  C   UNL     1       8.119  27.796   5.463  1.00  0.00     0.111 A 
ATOM      6  C   UNL     1       8.748  28.047   6.707  1.00  0.00     0.134 A 
ATOM      7  C   UNL     1       8.830  27.023   7.662  1.00  0.00     0.093 A 
ATOM      8  C   UNL     1       8.298  25.758   7.401  1.00  0.00     0.123 A 
ATOM      9  C   UNL     1       7.677  25.505   6.173  1.00  0.00     0.094 A 
ATOM     10  C   UNL     1       7.586  26.510   5.207  1.00  0.00     0.146 A 
ATOM     11  O   UNL     1       6.996  26.242   4.047  1.00  0.00    -0.452 OA
ENDROOT
BRANCH   1  12
ATOM     12  C   UNL     1       6.198  26.706   1.818  1.00  0.00     0.025 A 
ATOM     13  C   UNL     1       6.918  26.112   0.770  1.00  0.00     0.016 A 
ATOM     14  C   UNL     1       6.259  25.696  -0.389  1.00  0.00     0.051 A 
ATOM     15  C   UNL     1       4.875  25.849  -0.519  1.00  0.00     0.157 A 
ATOM     16  C   UNL     1       4.806  26.841   1.700  1.00  0.00     0.062 A 
ATOM     17  C   UNL     1       4.138  26.426   0.541  1.00  0.00     0.158 A 
BRANCH  15  18
ATOM     18  O   UNL     1       4.280  25.415  -1.705  1.00  0.00    -0.504 OA
ATOM     19  H   UNL     1       4.581  24.603  -2.225  1.00  0.00     0.293 HD
ENDBRANCH  15  18
BRANCH  17  20
ATOM     20  O   UNL     1       2.753  26.603   0.488  1.00  0.00    -0.504 OA
ATOM     21  H   UNL     1       2.255  26.920  -0.331  1.00  0.00     0.293 HD
ENDBRANCH  17  20
ENDBRANCH   1  12
BRANCH   2  22
ATOM     22  O   UNL     1       7.162  29.408   2.254  1.00  0.00    -0.502 OA
ATOM     23  H   UNL     1       7.054  29.165   1.277  1.00  0.00     0.293 HD
ENDBRANCH   2  22
BRANCH   6  24
ATOM     24  O   UNL     1       9.288  29.300   6.999  1.00  0.00    -0.507 OA
ATOM     25  H   UNL     1      10.165  29.609   6.596  1.00  0.00     0.293 HD
ENDBRANCH   6  24
BRANCH   8  26
ATOM     26  O   UNL     1       8.393  24.760   8.367  1.00  0.00    -0.508 OA
ATOM     27  H   UNL     1       8.441  23.780   8.114  1.00  0.00     0.293 HD
ENDBRANCH   8  26
TORSDOF 6
ENDMDL
MODEL 8
REMARK VINA RESULT:    -4.751      3.851      6.045
REMARK INTER + INTRA:          -6.029
REMARK INTER:                  -5.892
REMARK INTRA:                  -0.138
REMARK UNBOUND:                -0.306
REMARK SMILES O=c1c(O)c(-c2ccc(O)c(O)c2)oc2cc(O)cc(O)c12
REMARK SMILES IDX 5 1 3 2 2 3 1 4 22 5 20 6 19 7 17 8 16 9 15 10 14 11 6 12
REMARK SMILES IDX 7 13 8 14 9 15 13 16 11 17 10 18 12 20 4 22 21 24 18 26
REMARK H PARENT 10 19 12 21 4 23 21 25 18 27
REMARK Flexibility Score: inf
ROOT
ATOM      1  C   UNL     1       8.142  27.081   6.566  1.00  0.00     0.180 A 
ATOM      2  C   UNL     1       8.228  26.199   5.472  1.00  0.00     0.208 A 
ATOM      3  C   UNL     1       9.458  26.057   4.810  1.00  0.00     0.238 A 
ATOM      4  O   UNL     1       9.551  25.262   3.837  1.00  0.00    -0.285 OA
ATOM      5  C   UNL     1      10.570  26.811   5.238  1.00  0.00     0.111 A 
ATOM      6  C   UNL     1      11.844  26.730   4.624  1.00  0.00     0.134 A 
ATOM      7  C   UNL     1      12.899  27.521   5.104  1.00  0.00     0.093 A 
ATOM      8  C   UNL     1      12.707  28.388   6.181  1.00  0.00     0.123 A 
ATOM      9  C   UNL     1      11.452  28.472   6.793  1.00  0.00     0.094 A 
ATOM     10  C   UNL     1      10.388  27.692   6.331  1.00  0.00     0.146 A 
ATOM     11  O   UNL     1       9.207  27.787   6.933  1.00  0.00    -0.452 OA
ENDROOT
BRANCH   1  12
ATOM     12  C   UNL     1       6.884  27.270   7.326  1.00  0.00     0.025 A 
ATOM     13  C   UNL     1       6.802  26.963   8.693  1.00  0.00     0.016 A 
ATOM     14  C   UNL     1       5.612  27.173   9.393  1.00  0.00     0.051 A 
ATOM     15  C   UNL     1       4.490  27.704   8.750  1.00  0.00     0.157 A 
ATOM     16  C   UNL     1       5.766  27.824   6.684  1.00  0.00     0.062 A 
ATOM     17  C   UNL     1       4.569  28.038   7.378  1.00  0.00     0.158 A 
BRANCH  15  18
ATOM     18  O   UNL     1       3.330  27.886   9.506  1.00  0.00    -0.504 OA
ATOM     19  H   UNL     1       2.466  28.256   9.136  1.00  0.00     0.293 HD
ENDBRANCH  15  18
BRANCH  17  20
ATOM     20  O   UNL     1       3.493  28.582   6.671  1.00  0.00    -0.504 OA
ATOM     21  H   UNL     1       2.525  28.448   6.924  1.00  0.00     0.293 HD
ENDBRANCH  17  20
ENDBRANCH   1  12
BRANCH   2  22
ATOM     22  O   UNL     1       7.099  25.500   5.037  1.00  0.00    -0.502 OA
ATOM     23  H   UNL     1       6.484  25.857   4.316  1.00  0.00     0.293 HD
ENDBRANCH   2  22
BRANCH   6  24
ATOM     24  O   UNL     1      12.067  25.874   3.545  1.00  0.00    -0.507 OA
ATOM     25  H   UNL     1      12.700  25.085   3.613  1.00  0.00     0.293 HD
ENDBRANCH   6  24
BRANCH   8  26
ATOM     26  O   UNL     1      13.771  29.162   6.637  1.00  0.00    -0.508 OA
ATOM     27  H   UNL     1      13.636  30.115   6.955  1.00  0.00     0.293 HD
ENDBRANCH   8  26
TORSDOF 6
ENDMDL
MODEL 9
REMARK VINA RESULT:    -4.716      5.945      9.886
REMARK INTER + INTRA:          -5.987
REMARK INTER:                  -5.775
REMARK INTRA:                  -0.212
REMARK UNBOUND:                -0.306
REMARK SMILES O=c1c(O)c(-c2ccc(O)c(O)c2)oc2cc(O)cc(O)c12
REMARK SMILES IDX 5 1 3 2 2 3 1 4 22 5 20 6 19 7 17 8 16 9 15 10 14 11 6 12
REMARK SMILES IDX 7 13 8 14 9 15 13 16 11 17 10 18 12 20 4 22 21 24 18 26
REMARK H PARENT 10 19 12 21 4 23 21 25 18 27
REMARK Flexibility Score: inf
ROOT
ATOM      1  C   UNL     1       8.149  28.121  10.498  1.00  0.00     0.180 A 
ATOM      2  C   UNL     1       9.440  28.092   9.935  1.00  0.00     0.208 A 
ATOM      3  C   UNL     1      10.545  27.903  10.778  1.00  0.00     0.238 A 
ATOM      4  O   UNL     1      11.704  27.864  10.285  1.00  0.00    -0.285 OA
ATOM      5  C   UNL     1      10.345  27.765  12.168  1.00  0.00     0.111 A 
ATOM      6  C   UNL     1      11.405  27.575  13.088  1.00  0.00     0.134 A 
ATOM      7  C   UNL     1      11.123  27.455  14.457  1.00  0.00     0.093 A 
ATOM      8  C   UNL     1       9.809  27.523  14.924  1.00  0.00     0.123 A 
ATOM      9  C   UNL     1       8.758  27.710  14.020  1.00  0.00     0.094 A 
ATOM     10  C   UNL     1       9.016  27.830  12.652  1.00  0.00     0.146 A 
ATOM     11  O   UNL     1       8.000  28.002  11.814  1.00  0.00    -0.452 OA
ENDROOT
BRANCH   1  12
ATOM     12  C   UNL     1       6.933  28.298   9.671  1.00  0.00     0.025 A 
ATOM     13  C   UNL     1       6.004  27.259   9.504  1.00  0.00     0.016 A 
ATOM     14  C   UNL     1       4.854  27.460   8.739  1.00  0.00     0.051 A 
ATOM     15  C   UNL     1       4.600  28.697   8.139  1.00  0.00     0.157 A 
ATOM     16  C   UNL     1       6.671  29.548   9.088  1.00  0.00     0.062 A 
ATOM     17  C   UNL     1       5.520  29.757   8.319  1.00  0.00     0.158 A 
BRANCH  15  18
ATOM     18  O   UNL     1       3.434  28.829   7.383  1.00  0.00    -0.504 OA
ATOM     19  H   UNL     1       3.357  28.565   6.411  1.00  0.00     0.293 HD
ENDBRANCH  15  18
BRANCH  17  20
ATOM     20  O   UNL     1       5.330  31.024   7.760  1.00  0.00    -0.504 OA
ATOM     21  H   UNL     1       5.032  31.182   6.808  1.00  0.00     0.293 HD
ENDBRANCH  17  20
ENDBRANCH   1  12
BRANCH   2  22
ATOM     22  O   UNL     1       9.615  28.280   8.561  1.00  0.00    -0.502 OA
ATOM     23  H   UNL     1       8.840  28.460   7.935  1.00  0.00     0.293 HD
ENDBRANCH   2  22
BRANCH   6  24
ATOM     24  O   UNL     1      12.729  27.504  12.653  1.00  0.00    -0.507 OA
ATOM     25  H   UNL     1      13.016  26.860  11.925  1.00  0.00     0.293 HD
ENDBRANCH   6  24
BRANCH   8  26
ATOM     26  O   UNL     1       9.558  27.403  16.288  1.00  0.00    -0.508 OA
ATOM     27  H   UNL     1       8.634  27.560  16.674  1.00  0.00     0.293 HD
ENDBRANCH   8  26
TORSDOF 6
ENDMDL
