MODEL 1
REMARK VINA RESULT:    -4.503      0.000      0.000
REMARK INTER + INTRA:          -8.026
REMARK INTER:                  -7.136
REMARK INTRA:                  -0.891
REMARK UNBOUND:                -0.891
REMARK SMILES CCCCCCCCCCCC(=O)[O-]
REMARK SMILES IDX 7 1 8 2 9 3 10 4 11 5 12 6 13 7 14 8 6 9 5 10 4 11 3 12 2 13
REMARK SMILES IDX 1 14
REMARK H PARENT
REMARK Flexibility Score: inf
ROOT
ATOM      1  C   UNL     1      -9.456 -33.561  45.469  1.00  0.00     0.000 C 
ENDROOT
BRANCH   1   2
ATOM      2  C   UNL     1      -8.419 -32.463  45.761  1.00  0.00     0.000 C 
BRANCH   2   3
ATOM      3  C   UNL     1      -7.414 -32.280  44.613  1.00  0.00     0.000 C 
BRANCH   3   4
ATOM      4  C   UNL     1      -6.778 -30.881  44.596  1.00  0.00     0.006 C 
BRANCH   4   5
ATOM      5  C   UNL     1      -5.349 -30.923  45.144  1.00  0.00     0.053 C 
BRANCH   5   6
ATOM      6  C   UNL     1      -4.653 -29.623  44.894  1.00  0.00     0.041 C 
ATOM      7  O   UNL     1      -3.407 -29.597  44.707  1.00  0.00    -0.550 OA
ATOM      8  O   UNL     1      -5.384 -28.445  44.816  1.00  0.00    -0.550 OA
ENDBRANCH   5   6
ENDBRANCH   4   5
ENDBRANCH   3   4
ENDBRANCH   2   3
ENDBRANCH   1   2
BRANCH   1   9
ATOM      9  C   UNL     1      -9.270 -34.195  44.080  1.00  0.00     0.000 C 
BRANCH   9  10
ATOM     10  C   UNL     1     -10.294 -33.690  43.054  1.00  0.00    -0.000 C 
BRANCH  10  11
ATOM     11  C   UNL     1      -9.893 -34.098  41.632  1.00  0.00    -0.000 C 
BRANCH  11  12
ATOM     12  C   UNL     1      -9.585 -32.867  40.770  1.00  0.00    -0.000 C 
BRANCH  12  13
ATOM     13  C   UNL     1      -8.199 -32.300  41.097  1.00  0.00    -0.003 C 
ATOM     14  C   UNL     1      -7.135 -33.395  41.067  1.00  0.00     0.004 C 
ENDBRANCH  12  13
ENDBRANCH  11  12
ENDBRANCH  10  11
ENDBRANCH   9  10
ENDBRANCH   1   9
TORSDOF 10
ENDMDL
MODEL 2
REMARK VINA RESULT:    -4.433      2.468      3.875
REMARK INTER + INTRA:          -7.915
REMARK INTER:                  -6.792
REMARK INTRA:                  -1.123
REMARK UNBOUND:                -0.891
REMARK SMILES CCCCCCCCCCCC(=O)[O-]
REMARK SMILES IDX 7 1 8 2 9 3 10 4 11 5 12 6 13 7 14 8 6 9 5 10 4 11 3 12 2 13
REMARK SMILES IDX 1 14
REMARK H PARENT
REMARK Flexibility Score: inf
ROOT
ATOM      1  C   UNL     1      -8.011 -31.217  41.444  1.00  0.00     0.000 C 
ENDROOT
BRANCH   1   2
ATOM      2  C   UNL     1      -7.269 -30.905  42.756  1.00  0.00     0.000 C 
BRANCH   2   3
ATOM      3  C   UNL     1      -7.087 -32.149  43.640  1.00  0.00     0.000 C 
BRANCH   3   4
ATOM      4  C   UNL     1      -6.633 -31.802  45.067  1.00  0.00     0.006 C 
BRANCH   4   5
ATOM      5  C   UNL     1      -7.835 -31.660  46.004  1.00  0.00     0.053 C 
BRANCH   5   6
ATOM      6  C   UNL     1      -7.649 -32.500  47.228  1.00  0.00     0.041 C 
ATOM      7  O   UNL     1      -6.653 -32.315  47.979  1.00  0.00    -0.550 OA
ATOM      8  O   UNL     1      -8.599 -33.453  47.569  1.00  0.00    -0.550 OA
ENDBRANCH   5   6
ENDBRANCH   4   5
ENDBRANCH   3   4
ENDBRANCH   2   3
ENDBRANCH   1   2
BRANCH   1   9
ATOM      9  C   UNL     1      -8.040 -32.722  41.125  1.00  0.00     0.000 C 
BRANCH   9  10
ATOM     10  C   UNL     1      -9.454 -33.236  40.820  1.00  0.00    -0.000 C 
BRANCH  10  11
ATOM     11  C   UNL     1      -9.933 -34.203  41.910  1.00  0.00    -0.000 C 
BRANCH  11  12
ATOM     12  C   UNL     1     -10.637 -33.450  43.045  1.00  0.00    -0.000 C 
BRANCH  12  13
ATOM     13  C   UNL     1     -10.217 -34.000  44.413  1.00  0.00    -0.003 C 
ATOM     14  C   UNL     1     -10.389 -35.515  44.474  1.00  0.00     0.004 C 
ENDBRANCH  12  13
ENDBRANCH  11  12
ENDBRANCH  10  11
ENDBRANCH   9  10
ENDBRANCH   1   9
TORSDOF 10
ENDMDL
MODEL 3
REMARK VINA RESULT:    -4.428      3.929      6.153
REMARK INTER + INTRA:          -7.907
REMARK INTER:                  -7.045
REMARK INTRA:                  -0.862
REMARK UNBOUND:                -0.891
REMARK SMILES CCCCCCCCCCCC(=O)[O-]
REMARK SMILES IDX 7 1 8 2 9 3 10 4 11 5 12 6 13 7 14 8 6 9 5 10 4 11 3 12 2 13
REMARK SMILES IDX 1 14
REMARK H PARENT
REMARK Flexibility Score: inf
ROOT
ATOM      1  C   UNL     1      -9.336 -33.308  40.959  1.00  0.00     0.000 C 
ENDROOT
BRANCH   1   2
ATOM      2  C   UNL     1     -10.196 -34.197  41.875  1.00  0.00     0.000 C 
BRANCH   2   3
ATOM      3  C   UNL     1     -10.601 -33.487  43.176  1.00  0.00     0.000 C 
BRANCH   3   4
ATOM      4  C   UNL     1     -10.286 -34.318  44.430  1.00  0.00     0.006 C 
BRANCH   4   5
ATOM      5  C   UNL     1      -9.387 -35.508  44.086  1.00  0.00     0.053 C 
BRANCH   5   6
ATOM      6  C   UNL     1      -9.854 -36.740  44.794  1.00  0.00     0.041 C 
ATOM      7  O   UNL     1     -10.983 -36.760  45.355  1.00  0.00    -0.550 OA
ATOM      8  O   UNL     1      -9.067 -37.885  44.793  1.00  0.00    -0.550 OA
ENDBRANCH   5   6
ENDBRANCH   4   5
ENDBRANCH   3   4
ENDBRANCH   2   3
ENDBRANCH   1   2
BRANCH   1   9
ATOM      9  C   UNL     1      -7.875 -33.213  41.431  1.00  0.00     0.000 C 
BRANCH   9  10
ATOM     10  C   UNL     1      -7.562 -31.881  42.129  1.00  0.00    -0.000 C 
BRANCH  10  11
ATOM     11  C   UNL     1      -7.157 -32.110  43.589  1.00  0.00    -0.000 C 
BRANCH  11  12
ATOM     12  C   UNL     1      -6.649 -30.813  44.230  1.00  0.00    -0.000 C 
BRANCH  12  13
ATOM     13  C   UNL     1      -5.406 -31.074  45.090  1.00  0.00    -0.003 C 
ATOM     14  C   UNL     1      -4.476 -29.864  45.096  1.00  0.00     0.004 C 
ENDBRANCH  12  13
ENDBRANCH  11  12
ENDBRANCH  10  11
ENDBRANCH   9  10
ENDBRANCH   1   9
TORSDOF 10
ENDMDL
MODEL 4
REMARK VINA RESULT:    -4.422      0.999      2.614
REMARK INTER + INTRA:          -7.898
REMARK INTER:                  -6.854
REMARK INTRA:                  -1.044
REMARK UNBOUND:                -0.891
REMARK SMILES CCCCCCCCCCCC(=O)[O-]
REMARK SMILES IDX 7 1 8 2 9 3 10 4 11 5 12 6 13 7 14 8 6 9 5 10 4 11 3 12 2 13
REMARK SMILES IDX 1 14
REMARK H PARENT
REMARK Flexibility Score: inf
ROOT
ATOM      1  C   UNL     1      -7.605 -31.122  42.550  1.00  0.00     0.000 C 
ENDROOT
BRANCH   1   2
ATOM      2  C   UNL     1      -7.112 -32.243  43.482  1.00  0.00     0.000 C 
BRANCH   2   3
ATOM      3  C   UNL     1      -7.614 -32.074  44.925  1.00  0.00     0.000 C 
BRANCH   3   4
ATOM      4  C   UNL     1      -6.579 -31.400  45.839  1.00  0.00     0.006 C 
BRANCH   4   5
ATOM      5  C   UNL     1      -5.244 -31.214  45.113  1.00  0.00     0.053 C 
BRANCH   5   6
ATOM      6  C   UNL     1      -4.913 -29.761  44.985  1.00  0.00     0.041 C 
ATOM      7  O   UNL     1      -3.741 -29.356  45.210  1.00  0.00    -0.550 OA
ATOM      8  O   UNL     1      -5.884 -28.860  44.569  1.00  0.00    -0.550 OA
ENDBRANCH   5   6
ENDBRANCH   4   5
ENDBRANCH   3   4
ENDBRANCH   2   3
ENDBRANCH   1   2
BRANCH   1   9
ATOM      9  C   UNL     1      -8.053 -31.650  41.177  1.00  0.00     0.000 C 
BRANCH   9  10
ATOM     10  C   UNL     1      -8.209 -33.178  41.150  1.00  0.00    -0.000 C 
BRANCH  10  11
ATOM     11  C   UNL     1      -9.679 -33.576  40.974  1.00  0.00    -0.000 C 
BRANCH  11  12
ATOM     12  C   UNL     1     -10.407 -33.611  42.323  1.00  0.00    -0.000 C 
BRANCH  12  13
ATOM     13  C   UNL     1      -9.893 -34.761  43.197  1.00  0.00    -0.003 C 
ATOM     14  C   UNL     1     -10.469 -34.682  44.608  1.00  0.00     0.004 C 
ENDBRANCH  12  13
ENDBRANCH  11  12
ENDBRANCH  10  11
ENDBRANCH   9  10
ENDBRANCH   1   9
TORSDOF 10
ENDMDL
MODEL 5
REMARK VINA RESULT:    -4.389      1.780      3.006
REMARK INTER + INTRA:          -7.846
REMARK INTER:                  -7.131
REMARK INTRA:                  -0.715
REMARK UNBOUND:                -0.891
REMARK SMILES CCCCCCCCCCCC(=O)[O-]
REMARK SMILES IDX 7 1 8 2 9 3 10 4 11 5 12 6 13 7 14 8 6 9 5 10 4 11 3 12 2 13
REMARK SMILES IDX 1 14
REMARK H PARENT
REMARK Flexibility Score: inf
ROOT
ATOM      1  C   UNL     1      -7.170 -32.155  43.589  1.00  0.00     0.000 C 
ENDROOT
BRANCH   1   2
ATOM      2  C   UNL     1      -6.331 -31.735  44.809  1.00  0.00     0.000 C 
BRANCH   2   3
ATOM      3  C   UNL     1      -5.669 -30.360  44.624  1.00  0.00     0.000 C 
BRANCH   3   4
ATOM      4  C   UNL     1      -4.497 -30.130  45.591  1.00  0.00     0.006 C 
BRANCH   4   5
ATOM      5  C   UNL     1      -3.634 -28.950  45.134  1.00  0.00     0.053 C 
BRANCH   5   6
ATOM      6  C   UNL     1      -2.253 -29.061  45.697  1.00  0.00     0.041 C 
ATOM      7  O   UNL     1      -1.269 -28.597  45.060  1.00  0.00    -0.550 OA
ATOM      8  O   UNL     1      -2.054 -29.632  46.948  1.00  0.00    -0.550 OA
ENDBRANCH   5   6
ENDBRANCH   4   5
ENDBRANCH   3   4
ENDBRANCH   2   3
ENDBRANCH   1   2
BRANCH   1   9
ATOM      9  C   UNL     1      -7.437 -30.987  42.625  1.00  0.00     0.000 C 
BRANCH   9  10
ATOM     10  C   UNL     1      -7.922 -31.455  41.245  1.00  0.00    -0.000 C 
BRANCH  10  11
ATOM     11  C   UNL     1      -8.009 -32.984  41.184  1.00  0.00    -0.000 C 
BRANCH  11  12
ATOM     12  C   UNL     1      -9.458 -33.447  40.989  1.00  0.00    -0.000 C 
BRANCH  12  13
ATOM     13  C   UNL     1      -9.931 -34.288  42.181  1.00  0.00    -0.003 C 
ATOM     14  C   UNL     1     -10.658 -33.425  43.209  1.00  0.00     0.004 C 
ENDBRANCH  12  13
ENDBRANCH  11  12
ENDBRANCH  10  11
ENDBRANCH   9  10
ENDBRANCH   1   9
TORSDOF 10
ENDMDL
MODEL 6
REMARK VINA RESULT:    -4.321      3.145      6.234
REMARK INTER + INTRA:          -7.738
REMARK INTER:                  -7.234
REMARK INTRA:                  -0.504
REMARK UNBOUND:                -0.891
REMARK SMILES CCCCCCCCCCCC(=O)[O-]
REMARK SMILES IDX 7 1 8 2 9 3 10 4 11 5 12 6 13 7 14 8 6 9 5 10 4 11 3 12 2 13
REMARK SMILES IDX 1 14
REMARK H PARENT
REMARK Flexibility Score: inf
ROOT
ATOM      1  C   UNL     1      -7.724 -31.975  42.117  1.00  0.00     0.000 C 
ENDROOT
BRANCH   1   2
ATOM      2  C   UNL     1      -8.011 -33.289  41.370  1.00  0.00     0.000 C 
BRANCH   2   3
ATOM      3  C   UNL     1      -9.510 -33.504  41.109  1.00  0.00     0.000 C 
BRANCH   3   4
ATOM      4  C   UNL     1     -10.321 -33.669  42.404  1.00  0.00     0.006 C 
BRANCH   4   5
ATOM      5  C   UNL     1      -9.795 -34.843  43.234  1.00  0.00     0.053 C 
BRANCH   5   6
ATOM      6  C   UNL     1     -10.120 -34.651  44.681  1.00  0.00     0.041 C 
ATOM      7  O   UNL     1     -10.939 -35.418  45.254  1.00  0.00    -0.550 OA
ATOM      8  O   UNL     1      -9.483 -33.657  45.412  1.00  0.00    -0.550 OA
ENDBRANCH   5   6
ENDBRANCH   4   5
ENDBRANCH   3   4
ENDBRANCH   2   3
ENDBRANCH   1   2
BRANCH   1   9
ATOM      9  C   UNL     1      -7.076 -32.206  43.493  1.00  0.00     0.000 C 
BRANCH   9  10
ATOM     10  C   UNL     1      -6.578 -30.905  44.140  1.00  0.00    -0.000 C 
BRANCH  10  11
ATOM     11  C   UNL     1      -5.475 -31.191  45.166  1.00  0.00    -0.000 C 
BRANCH  11  12
ATOM     12  C   UNL     1      -4.888 -29.888  45.723  1.00  0.00    -0.000 C 
BRANCH  12  13
ATOM     13  C   UNL     1      -3.637 -29.471  44.941  1.00  0.00    -0.003 C 
ATOM     14  C   UNL     1      -3.069 -28.158  45.470  1.00  0.00     0.004 C 
ENDBRANCH  12  13
ENDBRANCH  11  12
ENDBRANCH  10  11
ENDBRANCH   9  10
ENDBRANCH   1   9
TORSDOF 10
ENDMDL
MODEL 7
REMARK VINA RESULT:    -4.304      3.844      5.866
REMARK INTER + INTRA:          -7.711
REMARK INTER:                  -7.090
REMARK INTRA:                  -0.621
REMARK UNBOUND:                -0.891
REMARK SMILES CCCCCCCCCCCC(=O)[O-]
REMARK SMILES IDX 7 1 8 2 9 3 10 4 11 5 12 6 13 7 14 8 6 9 5 10 4 11 3 12 2 13
REMARK SMILES IDX 1 14
REMARK H PARENT
REMARK Flexibility Score: inf
ROOT
ATOM      1  C   UNL     1     -10.291 -34.654  44.831  1.00  0.00     0.000 C 
ENDROOT
BRANCH   1   2
ATOM      2  C   UNL     1      -9.715 -34.725  43.405  1.00  0.00     0.000 C 
BRANCH   2   3
ATOM      3  C   UNL     1     -10.345 -33.688  42.463  1.00  0.00     0.000 C 
BRANCH   3   4
ATOM      4  C   UNL     1      -9.619 -33.593  41.112  1.00  0.00     0.006 C 
BRANCH   4   5
ATOM      5  C   UNL     1      -8.111 -33.413  41.313  1.00  0.00     0.053 C 
BRANCH   5   6
ATOM      6  C   UNL     1      -7.814 -32.056  41.868  1.00  0.00     0.041 C 
ATOM      7  O   UNL     1      -8.085 -31.024  41.198  1.00  0.00    -0.550 OA
ATOM      8  O   UNL     1      -7.283 -31.928  43.145  1.00  0.00    -0.550 OA
ENDBRANCH   5   6
ENDBRANCH   4   5
ENDBRANCH   3   4
ENDBRANCH   2   3
ENDBRANCH   1   2
BRANCH   1   9
ATOM      9  C   UNL     1     -10.798 -36.018  45.331  1.00  0.00     0.000 C 
BRANCH   9  10
ATOM     10  C   UNL     1     -10.706 -37.115  44.260  1.00  0.00    -0.000 C 
BRANCH  10  11
ATOM     11  C   UNL     1     -10.956 -38.499  44.869  1.00  0.00    -0.000 C 
BRANCH  11  12
ATOM     12  C   UNL     1     -11.940 -38.415  46.043  1.00  0.00    -0.000 C 
BRANCH  12  13
ATOM     13  C   UNL     1     -11.815 -39.642  46.954  1.00  0.00    -0.003 C 
ATOM     14  C   UNL     1     -10.840 -39.382  48.098  1.00  0.00     0.004 C 
ENDBRANCH  12  13
ENDBRANCH  11  12
ENDBRANCH  10  11
ENDBRANCH   9  10
ENDBRANCH   1   9
TORSDOF 10
ENDMDL
MODEL 8
REMARK VINA RESULT:    -4.284      2.397      5.381
REMARK INTER + INTRA:          -7.679
REMARK INTER:                  -7.168
REMARK INTRA:                  -0.511
REMARK UNBOUND:                -0.891
REMARK SMILES CCCCCCCCCCCC(=O)[O-]
REMARK SMILES IDX 7 1 8 2 9 3 10 4 11 5 12 6 13 7 14 8 6 9 5 10 4 11 3 12 2 13
REMARK SMILES IDX 1 14
REMARK H PARENT
REMARK Flexibility Score: inf
ROOT
ATOM      1  C   UNL     1      -9.102 -33.040  45.534  1.00  0.00     0.000 C 
ENDROOT
BRANCH   1   2
ATOM      2  C   UNL     1      -9.908 -34.106  44.771  1.00  0.00     0.000 C 
BRANCH   2   3
ATOM      3  C   UNL     1     -10.477 -33.579  43.444  1.00  0.00     0.000 C 
BRANCH   3   4
ATOM      4  C   UNL     1      -9.922 -34.325  42.221  1.00  0.00     0.006 C 
BRANCH   4   5
ATOM      5  C   UNL     1      -9.659 -33.358  41.063  1.00  0.00     0.053 C 
BRANCH   5   6
ATOM      6  C   UNL     1      -8.300 -32.746  41.188  1.00  0.00     0.041 C 
ATOM      7  O   UNL     1      -7.270 -33.468  41.110  1.00  0.00    -0.550 OA
ATOM      8  O   UNL     1      -8.166 -31.372  41.341  1.00  0.00    -0.550 OA
ENDBRANCH   5   6
ENDBRANCH   4   5
ENDBRANCH   3   4
ENDBRANCH   2   3
ENDBRANCH   1   2
BRANCH   1   9
ATOM      9  C   UNL     1      -7.901 -32.518  44.727  1.00  0.00     0.000 C 
BRANCH   9  10
ATOM     10  C   UNL     1      -7.033 -31.534  45.524  1.00  0.00    -0.000 C 
BRANCH  10  11
ATOM     11  C   UNL     1      -5.677 -31.321  44.842  1.00  0.00    -0.000 C 
BRANCH  11  12
ATOM     12  C   UNL     1      -5.338 -29.829  44.741  1.00  0.00    -0.000 C 
BRANCH  12  13
ATOM     13  C   UNL     1      -4.062 -29.501  45.524  1.00  0.00    -0.003 C 
ATOM     14  C   UNL     1      -3.795 -27.998  45.539  1.00  0.00     0.004 C 
ENDBRANCH  12  13
ENDBRANCH  11  12
ENDBRANCH  10  11
ENDBRANCH   9  10
ENDBRANCH   1   9
TORSDOF 10
ENDMDL
MODEL 9
REMARK VINA RESULT:    -4.253      5.192      6.605
REMARK INTER + INTRA:          -7.629
REMARK INTER:                  -6.929
REMARK INTRA:                  -0.700
REMARK UNBOUND:                -0.891
REMARK SMILES CCCCCCCCCCCC(=O)[O-]
REMARK SMILES IDX 7 1 8 2 9 3 10 4 11 5 12 6 13 7 14 8 6 9 5 10 4 11 3 12 2 13
REMARK SMILES IDX 1 14
REMARK H PARENT
REMARK Flexibility Score: inf
ROOT
ATOM      1  C   UNL     1      -9.618 -34.297  44.542  1.00  0.00     0.000 C 
ENDROOT
BRANCH   1   2
ATOM      2  C   UNL     1     -10.671 -35.241  45.148  1.00  0.00     0.000 C 
BRANCH   2   3
ATOM      3  C   UNL     1     -10.647 -36.638  44.509  1.00  0.00     0.000 C 
BRANCH   3   4
ATOM      4  C   UNL     1      -9.810 -37.646  45.314  1.00  0.00     0.006 C 
BRANCH   4   5
ATOM      5  C   UNL     1      -8.694 -38.242  44.453  1.00  0.00     0.053 C 
BRANCH   5   6
ATOM      6  C   UNL     1      -8.990 -39.671  44.126  1.00  0.00     0.041 C 
ATOM      7  O   UNL     1     -10.017 -40.230  44.596  1.00  0.00    -0.550 OA
ATOM      8  O   UNL     1      -8.160 -40.374  43.262  1.00  0.00    -0.550 OA
ENDBRANCH   5   6
ENDBRANCH   4   5
ENDBRANCH   3   4
ENDBRANCH   2   3
ENDBRANCH   1   2
BRANCH   1   9
ATOM      9  C   UNL     1      -9.361 -34.577  43.052  1.00  0.00     0.000 C 
BRANCH   9  10
ATOM     10  C   UNL     1     -10.214 -33.697  42.126  1.00  0.00    -0.000 C 
BRANCH  10  11
ATOM     11  C   UNL     1      -9.451 -33.350  40.843  1.00  0.00    -0.000 C 
BRANCH  11  12
ATOM     12  C   UNL     1      -7.965 -33.107  41.132  1.00  0.00    -0.000 C 
BRANCH  12  13
ATOM     13  C   UNL     1      -7.744 -31.723  41.752  1.00  0.00    -0.003 C 
ATOM     14  C   UNL     1      -8.344 -30.625  40.877  1.00  0.00     0.004 C 
ENDBRANCH  12  13
ENDBRANCH  11  12
ENDBRANCH  10  11
ENDBRANCH   9  10
ENDBRANCH   1   9
TORSDOF 10
ENDMDL
