MODEL 1
REMARK VINA RESULT:    -2.648      0.000      0.000
REMARK INTER + INTRA:          -3.201
REMARK INTER:                  -3.113
REMARK INTRA:                  -0.088
REMARK UNBOUND:                -0.088
REMARK SMILES CCCCC(=O)[O-]
REMARK SMILES IDX 4 1 5 2 6 3 7 4 3 5 2 6 1 7
REMARK H PARENT
REMARK Flexibility Score: inf
ROOT
ATOM      1  C   UNL     1      -1.604  -7.006  31.199  1.00  0.00     0.053 C 
ENDROOT
BRANCH   1   2
ATOM      2  C   UNL     1      -2.955  -7.608  30.954  1.00  0.00     0.041 C 
ATOM      3  O   UNL     1      -3.911  -6.883  30.571  1.00  0.00    -0.550 OA
ATOM      4  O   UNL     1      -3.166  -8.962  31.183  1.00  0.00    -0.550 OA
ENDBRANCH   1   2
BRANCH   1   5
ATOM      5  C   UNL     1      -1.682  -5.489  31.428  1.00  0.00     0.006 C 
BRANCH   5   6
ATOM      6  C   UNL     1      -1.903  -5.084  32.897  1.00  0.00    -0.003 C 
ATOM      7  C   UNL     1      -2.977  -4.010  33.062  1.00  0.00     0.004 C 
ENDBRANCH   5   6
ENDBRANCH   1   5
TORSDOF 3
ENDMDL
MODEL 2
REMARK VINA RESULT:    -2.631      1.033      1.744
REMARK INTER + INTRA:          -3.181
REMARK INTER:                  -3.109
REMARK INTRA:                  -0.071
REMARK UNBOUND:                -0.088
REMARK SMILES CCCCC(=O)[O-]
REMARK SMILES IDX 4 1 5 2 6 3 7 4 3 5 2 6 1 7
REMARK H PARENT
REMARK Flexibility Score: inf
ROOT
ATOM      1  C   UNL     1      -1.152  -5.939  31.729  1.00  0.00     0.053 C 
ENDROOT
BRANCH   1   2
ATOM      2  C   UNL     1      -2.140  -6.742  30.939  1.00  0.00     0.041 C 
ATOM      3  O   UNL     1      -2.528  -7.863  31.361  1.00  0.00    -0.550 OA
ATOM      4  O   UNL     1      -2.605  -6.267  29.718  1.00  0.00    -0.550 OA
ENDBRANCH   1   2
BRANCH   1   5
ATOM      5  C   UNL     1      -1.790  -5.306  32.976  1.00  0.00     0.006 C 
BRANCH   5   6
ATOM      6  C   UNL     1      -3.147  -4.628  32.713  1.00  0.00    -0.003 C 
ATOM      7  C   UNL     1      -3.126  -3.127  33.001  1.00  0.00     0.004 C 
ENDBRANCH   5   6
ENDBRANCH   1   5
TORSDOF 3
ENDMDL
MODEL 3
REMARK VINA RESULT:    -2.617      2.390      3.723
REMARK INTER + INTRA:          -3.164
REMARK INTER:                  -3.117
REMARK INTRA:                  -0.047
REMARK UNBOUND:                -0.088
REMARK SMILES CCCCC(=O)[O-]
REMARK SMILES IDX 4 1 5 2 6 3 7 4 3 5 2 6 1 7
REMARK H PARENT
REMARK Flexibility Score: inf
ROOT
ATOM      1  C   UNL     1      -1.963  -5.049  31.371  1.00  0.00     0.053 C 
ENDROOT
BRANCH   1   2
ATOM      2  C   UNL     1      -2.220  -4.678  32.799  1.00  0.00     0.041 C 
ATOM      3  O   UNL     1      -1.798  -5.413  33.731  1.00  0.00    -0.550 OA
ATOM      4  O   UNL     1      -2.954  -3.537  33.101  1.00  0.00    -0.550 OA
ENDBRANCH   1   2
BRANCH   1   5
ATOM      5  C   UNL     1      -1.335  -6.446  31.243  1.00  0.00     0.006 C 
BRANCH   5   6
ATOM      6  C   UNL     1      -2.360  -7.590  31.143  1.00  0.00    -0.003 C 
ATOM      7  C   UNL     1      -3.438  -7.333  30.090  1.00  0.00     0.004 C 
ENDBRANCH   5   6
ENDBRANCH   1   5
TORSDOF 3
ENDMDL
MODEL 4
REMARK VINA RESULT:    -2.573      2.209      3.741
REMARK INTER + INTRA:          -3.112
REMARK INTER:                  -3.011
REMARK INTRA:                  -0.101
REMARK UNBOUND:                -0.088
REMARK SMILES CCCCC(=O)[O-]
REMARK SMILES IDX 4 1 5 2 6 3 7 4 3 5 2 6 1 7
REMARK H PARENT
REMARK Flexibility Score: inf
ROOT
ATOM      1  C   UNL     1      -1.951  -5.024  32.882  1.00  0.00     0.053 C 
ENDROOT
BRANCH   1   2
ATOM      2  C   UNL     1      -3.200  -4.203  32.998  1.00  0.00     0.041 C 
ATOM      3  O   UNL     1      -4.327  -4.739  32.830  1.00  0.00    -0.550 OA
ATOM      4  O   UNL     1      -3.116  -2.840  33.256  1.00  0.00    -0.550 OA
ENDBRANCH   1   2
BRANCH   1   5
ATOM      5  C   UNL     1      -1.648  -5.410  31.426  1.00  0.00     0.006 C 
BRANCH   5   6
ATOM      6  C   UNL     1      -1.585  -6.928  31.178  1.00  0.00    -0.003 C 
ATOM      7  C   UNL     1      -2.958  -7.543  30.902  1.00  0.00     0.004 C 
ENDBRANCH   5   6
ENDBRANCH   1   5
TORSDOF 3
ENDMDL
MODEL 5
REMARK VINA RESULT:    -2.516     15.082     15.757
REMARK INTER + INTRA:          -3.046
REMARK INTER:                  -2.945
REMARK INTRA:                  -0.101
REMARK UNBOUND:                -0.088
REMARK SMILES CCCCC(=O)[O-]
REMARK SMILES IDX 4 1 5 2 6 3 7 4 3 5 2 6 1 7
REMARK H PARENT
REMARK Flexibility Score: inf
ROOT
ATOM      1  C   UNL     1     -16.874  -0.813  31.241  1.00  0.00     0.053 C 
ENDROOT
BRANCH   1   2
ATOM      2  C   UNL     1     -16.716   0.289  32.244  1.00  0.00     0.041 C 
ATOM      3  O   UNL     1     -16.574   1.480  31.860  1.00  0.00    -0.550 OA
ATOM      4  O   UNL     1     -16.690  -0.003  33.602  1.00  0.00    -0.550 OA
ENDBRANCH   1   2
BRANCH   1   5
ATOM      5  C   UNL     1     -16.522  -2.186  31.834  1.00  0.00     0.006 C 
BRANCH   5   6
ATOM      6  C   UNL     1     -17.736  -3.108  32.051  1.00  0.00    -0.003 C 
ATOM      7  C   UNL     1     -17.971  -3.445  33.523  1.00  0.00     0.004 C 
ENDBRANCH   5   6
ENDBRANCH   1   5
TORSDOF 3
ENDMDL
MODEL 6
REMARK VINA RESULT:    -2.490      1.431      1.998
REMARK INTER + INTRA:          -3.014
REMARK INTER:                  -2.997
REMARK INTRA:                  -0.017
REMARK UNBOUND:                -0.088
REMARK SMILES CCCCC(=O)[O-]
REMARK SMILES IDX 4 1 5 2 6 3 7 4 3 5 2 6 1 7
REMARK H PARENT
REMARK Flexibility Score: inf
ROOT
ATOM      1  C   UNL     1      -3.544  -7.580  30.419  1.00  0.00     0.053 C 
ENDROOT
BRANCH   1   2
ATOM      2  C   UNL     1      -3.895  -9.030  30.285  1.00  0.00     0.041 C 
ATOM      3  O   UNL     1      -4.539  -9.436  29.282  1.00  0.00    -0.550 OA
ATOM      4  O   UNL     1      -3.542  -9.928  31.286  1.00  0.00    -0.550 OA
ENDBRANCH   1   2
BRANCH   1   5
ATOM      5  C   UNL     1      -2.262  -7.371  31.240  1.00  0.00     0.006 C 
BRANCH   5   6
ATOM      6  C   UNL     1      -1.811  -5.902  31.341  1.00  0.00    -0.003 C 
ATOM      7  C   UNL     1      -1.848  -5.367  32.773  1.00  0.00     0.004 C 
ENDBRANCH   5   6
ENDBRANCH   1   5
TORSDOF 3
ENDMDL
MODEL 7
REMARK VINA RESULT:    -2.480      2.500      3.373
REMARK INTER + INTRA:          -3.003
REMARK INTER:                  -2.981
REMARK INTRA:                  -0.023
REMARK UNBOUND:                -0.088
REMARK SMILES CCCCC(=O)[O-]
REMARK SMILES IDX 4 1 5 2 6 3 7 4 3 5 2 6 1 7
REMARK H PARENT
REMARK Flexibility Score: inf
ROOT
ATOM      1  C   UNL     1      -2.662  -4.312  31.994  1.00  0.00     0.053 C 
ENDROOT
BRANCH   1   2
ATOM      2  C   UNL     1      -1.761  -5.377  32.542  1.00  0.00     0.041 C 
ATOM      3  O   UNL     1      -1.723  -5.598  33.781  1.00  0.00    -0.550 OA
ATOM      4  O   UNL     1      -0.939  -6.101  31.687  1.00  0.00    -0.550 OA
ENDBRANCH   1   2
BRANCH   1   5
ATOM      5  C   UNL     1      -3.254  -3.431  33.105  1.00  0.00     0.006 C 
BRANCH   5   6
ATOM      6  C   UNL     1      -3.498  -1.970  32.687  1.00  0.00    -0.003 C 
ATOM      7  C   UNL     1      -3.068  -0.966  33.758  1.00  0.00     0.004 C 
ENDBRANCH   5   6
ENDBRANCH   1   5
TORSDOF 3
ENDMDL
MODEL 8
REMARK VINA RESULT:    -2.468     15.398     16.656
REMARK INTER + INTRA:          -2.988
REMARK INTER:                  -2.933
REMARK INTRA:                  -0.056
REMARK UNBOUND:                -0.088
REMARK SMILES CCCCC(=O)[O-]
REMARK SMILES IDX 4 1 5 2 6 3 7 4 3 5 2 6 1 7
REMARK H PARENT
REMARK Flexibility Score: inf
ROOT
ATOM      1  C   UNL     1     -12.440   7.749  27.821  1.00  0.00     0.053 C 
ENDROOT
BRANCH   1   2
ATOM      2  C   UNL     1     -12.830   6.353  27.440  1.00  0.00     0.041 C 
ATOM      3  O   UNL     1     -13.213   6.100  26.267  1.00  0.00    -0.550 OA
ATOM      4  O   UNL     1     -12.802   5.338  28.389  1.00  0.00    -0.550 OA
ENDBRANCH   1   2
BRANCH   1   5
ATOM      5  C   UNL     1     -11.278   7.768  28.826  1.00  0.00     0.006 C 
BRANCH   5   6
ATOM      6  C   UNL     1      -9.910   8.099  28.200  1.00  0.00    -0.003 C 
ATOM      7  C   UNL     1      -8.848   7.041  28.501  1.00  0.00     0.004 C 
ENDBRANCH   5   6
ENDBRANCH   1   5
TORSDOF 3
ENDMDL
