MODEL 1
REMARK VINA RESULT:    -4.868      0.000      0.000
REMARK INTER + INTRA:          -5.010
REMARK INTER:                  -5.010
REMARK INTRA:                   0.000
REMARK UNBOUND:                 0.000
REMARK SMILES C=C1[C@@H](O)C[C@@]23C[C@@H]1C(C)(C)[C@H]2CC[C@H]3C
REMARK SMILES IDX 16 1 15 2 14 3 13 4 12 5 6 6 7 7 8 8 9 9 10 10 11 11 2 12
REMARK SMILES IDX 1 13 3 14 5 15 4 16
REMARK H PARENT 4 17
REMARK Flexibility Score: inf
ROOT
ATOM      1  C   UNL     1     149.571 134.743 151.041  1.00  0.00     0.008 C 
ATOM      2  C   UNL     1     148.117 135.220 151.160  1.00  0.00    -0.008 C 
ATOM      3  C   UNL     1     147.129 134.084 151.567  1.00  0.00     0.004 C 
ATOM      4  C   UNL     1     145.763 134.420 150.911  1.00  0.00     0.005 C 
ATOM      5  C   UNL     1     146.013 135.811 150.359  1.00  0.00     0.002 C 
ATOM      6  C   UNL     1     147.463 135.806 149.887  1.00  0.00    -0.020 C 
ATOM      7  C   UNL     1     147.598 137.275 149.517  1.00  0.00     0.016 C 
ATOM      8  C   UNL     1     146.344 137.437 148.613  1.00  0.00     0.023 C 
ATOM      9  C   UNL     1     145.202 136.591 149.307  1.00  0.00    -0.025 C 
ATOM     10  C   UNL     1     144.198 137.556 149.985  1.00  0.00     0.012 C 
ATOM     11  C   UNL     1     144.387 135.649 148.385  1.00  0.00     0.012 C 
ATOM     12  C   UNL     1     146.708 136.869 147.261  1.00  0.00    -0.045 C 
ATOM     13  C   UNL     1     146.293 137.464 146.132  1.00  0.00     0.011 C 
ATOM     14  C   UNL     1     147.486 135.567 147.199  1.00  0.00     0.140 C 
ATOM     15  C   UNL     1     147.754 134.917 148.600  1.00  0.00     0.044 C 
ENDROOT
BRANCH  14  16
ATOM     16  O   UNL     1     148.692 135.760 146.501  1.00  0.00    -0.389 OA
ATOM     17  H   UNL     1     149.347 135.096 146.842  1.00  0.00     0.211 HD
ENDBRANCH  14  16
TORSDOF 1
ENDMDL
MODEL 2
REMARK VINA RESULT:    -4.840      3.440      5.236
REMARK INTER + INTRA:          -4.982
REMARK INTER:                  -4.982
REMARK INTRA:                   0.000
REMARK UNBOUND:                 0.000
REMARK SMILES C=C1[C@@H](O)C[C@@]23C[C@@H]1C(C)(C)[C@H]2CC[C@H]3C
REMARK SMILES IDX 16 1 15 2 14 3 13 4 12 5 6 6 7 7 8 8 9 9 10 10 11 11 2 12
REMARK SMILES IDX 1 13 3 14 5 15 4 16
REMARK H PARENT 4 17
REMARK Flexibility Score: inf
ROOT
ATOM      1  C   UNL     1     149.402 138.543 147.116  1.00  0.00     0.008 C 
ATOM      2  C   UNL     1     147.872 138.598 146.999  1.00  0.00    -0.008 C 
ATOM      3  C   UNL     1     147.175 137.268 147.418  1.00  0.00     0.004 C 
ATOM      4  C   UNL     1     145.885 137.149 146.564  1.00  0.00     0.005 C 
ATOM      5  C   UNL     1     145.833 138.503 145.882  1.00  0.00     0.002 C 
ATOM      6  C   UNL     1     147.285 138.869 145.594  1.00  0.00    -0.020 C 
ATOM      7  C   UNL     1     147.076 140.280 145.069  1.00  0.00     0.016 C 
ATOM      8  C   UNL     1     145.975 140.006 144.006  1.00  0.00     0.023 C 
ATOM      9  C   UNL     1     145.010 138.933 144.653  1.00  0.00    -0.025 C 
ATOM     10  C   UNL     1     143.694 139.628 145.082  1.00  0.00     0.012 C 
ATOM     11  C   UNL     1     144.626 137.726 143.760  1.00  0.00     0.012 C 
ATOM     12  C   UNL     1     146.676 139.455 142.787  1.00  0.00    -0.045 C 
ATOM     13  C   UNL     1     146.292 139.813 141.552  1.00  0.00     0.011 C 
ATOM     14  C   UNL     1     147.775 138.425 142.978  1.00  0.00     0.140 C 
ATOM     15  C   UNL     1     147.993 137.994 144.469  1.00  0.00     0.044 C 
ENDROOT
BRANCH  14  16
ATOM     16  O   UNL     1     148.976 138.892 142.413  1.00  0.00    -0.389 OA
ATOM     17  H   UNL     1     149.208 139.746 142.864  1.00  0.00     0.211 HD
ENDBRANCH  14  16
TORSDOF 1
ENDMDL
MODEL 3
REMARK VINA RESULT:    -4.757     16.341     18.917
REMARK INTER + INTRA:          -4.896
REMARK INTER:                  -4.896
REMARK INTRA:                   0.000
REMARK UNBOUND:                 0.000
REMARK SMILES C=C1[C@@H](O)C[C@@]23C[C@@H]1C(C)(C)[C@H]2CC[C@H]3C
REMARK SMILES IDX 16 1 15 2 14 3 13 4 12 5 6 6 7 7 8 8 9 9 10 10 11 11 2 12
REMARK SMILES IDX 1 13 3 14 5 15 4 16
REMARK H PARENT 4 17
REMARK Flexibility Score: inf
ROOT
ATOM      1  C   UNL     1     132.877 148.871 138.847  1.00  0.00     0.008 C 
ATOM      2  C   UNL     1     133.729 149.390 140.014  1.00  0.00    -0.008 C 
ATOM      3  C   UNL     1     135.023 150.125 139.550  1.00  0.00     0.004 C 
ATOM      4  C   UNL     1     136.094 149.884 140.647  1.00  0.00     0.005 C 
ATOM      5  C   UNL     1     135.281 149.215 141.739  1.00  0.00     0.002 C 
ATOM      6  C   UNL     1     134.267 148.339 141.011  1.00  0.00    -0.020 C 
ATOM      7  C   UNL     1     133.452 147.874 142.208  1.00  0.00     0.016 C 
ATOM      8  C   UNL     1     134.598 147.372 143.131  1.00  0.00     0.023 C 
ATOM      9  C   UNL     1     135.777 148.412 142.956  1.00  0.00    -0.025 C 
ATOM     10  C   UNL     1     135.853 149.308 144.217  1.00  0.00     0.012 C 
ATOM     11  C   UNL     1     137.190 147.818 142.724  1.00  0.00     0.012 C 
ATOM     12  C   UNL     1     134.991 146.002 142.629  1.00  0.00    -0.045 C 
ATOM     13  C   UNL     1     135.297 145.018 143.488  1.00  0.00     0.011 C 
ATOM     14  C   UNL     1     135.111 145.778 141.132  1.00  0.00     0.140 C 
ATOM     15  C   UNL     1     134.878 147.068 140.273  1.00  0.00     0.044 C 
ENDROOT
BRANCH  14  16
ATOM     16  O   UNL     1     134.243 144.747 140.729  1.00  0.00    -0.389 OA
ATOM     17  H   UNL     1     133.752 145.064 139.926  1.00  0.00     0.211 HD
ENDBRANCH  14  16
TORSDOF 1
ENDMDL
MODEL 4
REMARK VINA RESULT:    -4.704      1.613      3.466
REMARK INTER + INTRA:          -4.841
REMARK INTER:                  -4.841
REMARK INTRA:                   0.000
REMARK UNBOUND:                 0.000
REMARK SMILES C=C1[C@@H](O)C[C@@]23C[C@@H]1C(C)(C)[C@H]2CC[C@H]3C
REMARK SMILES IDX 16 1 15 2 14 3 13 4 12 5 6 6 7 7 8 8 9 9 10 10 11 11 2 12
REMARK SMILES IDX 1 13 3 14 5 15 4 16
REMARK H PARENT 4 17
REMARK Flexibility Score: inf
ROOT
ATOM      1  C   UNL     1     143.989 134.089 150.362  1.00  0.00     0.008 C 
ATOM      2  C   UNL     1     145.498 133.977 150.619  1.00  0.00    -0.008 C 
ATOM      3  C   UNL     1     145.905 134.371 152.071  1.00  0.00     0.004 C 
ATOM      4  C   UNL     1     147.333 134.973 151.990  1.00  0.00     0.005 C 
ATOM      5  C   UNL     1     147.712 134.690 150.549  1.00  0.00     0.002 C 
ATOM      6  C   UNL     1     146.425 134.859 149.750  1.00  0.00    -0.020 C 
ATOM      7  C   UNL     1     146.927 134.400 148.390  1.00  0.00     0.016 C 
ATOM      8  C   UNL     1     148.201 135.282 148.266  1.00  0.00     0.023 C 
ATOM      9  C   UNL     1     148.846 135.311 149.711  1.00  0.00    -0.025 C 
ATOM     10  C   UNL     1     150.103 134.406 149.722  1.00  0.00     0.012 C 
ATOM     11  C   UNL     1     149.271 136.701 150.247  1.00  0.00     0.012 C 
ATOM     12  C   UNL     1     147.738 136.656 147.841  1.00  0.00    -0.045 C 
ATOM     13  C   UNL     1     148.441 137.373 146.951  1.00  0.00     0.011 C 
ATOM     14  C   UNL     1     146.503 137.248 148.497  1.00  0.00     0.140 C 
ATOM     15  C   UNL     1     145.892 136.354 149.631  1.00  0.00     0.044 C 
ENDROOT
BRANCH  14  16
ATOM     16  O   UNL     1     145.536 137.546 147.522  1.00  0.00    -0.389 OA
ATOM     17  H   UNL     1     144.889 136.792 147.498  1.00  0.00     0.211 HD
ENDBRANCH  14  16
TORSDOF 1
ENDMDL
MODEL 5
REMARK VINA RESULT:    -4.689      1.543      4.179
REMARK INTER + INTRA:          -4.826
REMARK INTER:                  -4.826
REMARK INTRA:                   0.000
REMARK UNBOUND:                 0.000
REMARK SMILES C=C1[C@@H](O)C[C@@]23C[C@@H]1C(C)(C)[C@H]2CC[C@H]3C
REMARK SMILES IDX 16 1 15 2 14 3 13 4 12 5 6 6 7 7 8 8 9 9 10 10 11 11 2 12
REMARK SMILES IDX 1 13 3 14 5 15 4 16
REMARK H PARENT 4 17
REMARK Flexibility Score: inf
ROOT
ATOM      1  C   UNL     1     149.158 138.041 145.802  1.00  0.00     0.008 C 
ATOM      2  C   UNL     1     147.780 137.378 145.932  1.00  0.00    -0.008 C 
ATOM      3  C   UNL     1     146.600 138.394 145.856  1.00  0.00     0.004 C 
ATOM      4  C   UNL     1     145.458 137.823 146.738  1.00  0.00     0.005 C 
ATOM      5  C   UNL     1     145.984 136.441 147.078  1.00  0.00     0.002 C 
ATOM      6  C   UNL     1     147.491 136.610 147.243  1.00  0.00    -0.020 C 
ATOM      7  C   UNL     1     147.876 135.150 147.420  1.00  0.00     0.016 C 
ATOM      8  C   UNL     1     146.875 134.746 148.539  1.00  0.00     0.023 C 
ATOM      9  C   UNL     1     145.517 135.477 148.185  1.00  0.00    -0.025 C 
ATOM     10  C   UNL     1     144.513 134.438 147.628  1.00  0.00     0.012 C 
ATOM     11  C   UNL     1     144.815 136.223 149.348  1.00  0.00     0.012 C 
ATOM     12  C   UNL     1     147.452 135.252 149.841  1.00  0.00    -0.045 C 
ATOM     13  C   UNL     1     147.364 134.519 150.961  1.00  0.00     0.011 C 
ATOM     14  C   UNL     1     148.065 136.640 149.879  1.00  0.00     0.140 C 
ATOM     15  C   UNL     1     147.944 137.429 148.530  1.00  0.00     0.044 C 
ENDROOT
BRANCH  14  16
ATOM     16  O   UNL     1     149.407 136.563 150.293  1.00  0.00    -0.389 OA
ATOM     17  H   UNL     1     149.902 137.299 149.848  1.00  0.00     0.211 HD
ENDBRANCH  14  16
TORSDOF 1
ENDMDL
MODEL 6
REMARK VINA RESULT:    -4.641     15.569     18.063
REMARK INTER + INTRA:          -4.777
REMARK INTER:                  -4.777
REMARK INTRA:                   0.000
REMARK UNBOUND:                 0.000
REMARK SMILES C=C1[C@@H](O)C[C@@]23C[C@@H]1C(C)(C)[C@H]2CC[C@H]3C
REMARK SMILES IDX 16 1 15 2 14 3 13 4 12 5 6 6 7 7 8 8 9 9 10 10 11 11 2 12
REMARK SMILES IDX 1 13 3 14 5 15 4 16
REMARK H PARENT 4 17
REMARK Flexibility Score: inf
ROOT
ATOM      1  C   UNL     1     133.239 146.132 138.083  1.00  0.00     0.008 C 
ATOM      2  C   UNL     1     134.110 145.276 139.013  1.00  0.00    -0.008 C 
ATOM      3  C   UNL     1     133.423 143.945 139.446  1.00  0.00     0.004 C 
ATOM      4  C   UNL     1     133.948 143.609 140.866  1.00  0.00     0.005 C 
ATOM      5  C   UNL     1     135.039 144.647 141.052  1.00  0.00     0.002 C 
ATOM      6  C   UNL     1     134.523 145.906 140.364  1.00  0.00    -0.020 C 
ATOM      7  C   UNL     1     135.763 146.776 140.499  1.00  0.00     0.016 C 
ATOM      8  C   UNL     1     136.036 146.613 142.021  1.00  0.00     0.023 C 
ATOM      9  C   UNL     1     135.731 145.097 142.353  1.00  0.00    -0.025 C 
ATOM     10  C   UNL     1     137.068 144.345 142.559  1.00  0.00     0.012 C 
ATOM     11  C   UNL     1     134.852 144.830 143.601  1.00  0.00     0.012 C 
ATOM     12  C   UNL     1     135.079 147.539 142.735  1.00  0.00    -0.045 C 
ATOM     13  C   UNL     1     135.471 148.232 143.815  1.00  0.00     0.011 C 
ATOM     14  C   UNL     1     133.639 147.613 142.258  1.00  0.00     0.140 C 
ATOM     15  C   UNL     1     133.302 146.622 141.091  1.00  0.00     0.044 C 
ENDROOT
BRANCH  14  16
ATOM     16  O   UNL     1     133.319 148.934 141.899  1.00  0.00    -0.389 OA
ATOM     17  H   UNL     1     132.333 149.033 141.966  1.00  0.00     0.211 HD
ENDBRANCH  14  16
TORSDOF 1
ENDMDL
MODEL 7
REMARK VINA RESULT:    -4.633     14.921     17.188
REMARK INTER + INTRA:          -4.768
REMARK INTER:                  -4.768
REMARK INTRA:                   0.000
REMARK UNBOUND:                 0.000
REMARK SMILES C=C1[C@@H](O)C[C@@]23C[C@@H]1C(C)(C)[C@H]2CC[C@H]3C
REMARK SMILES IDX 16 1 15 2 14 3 13 4 12 5 6 6 7 7 8 8 9 9 10 10 11 11 2 12
REMARK SMILES IDX 1 13 3 14 5 15 4 16
REMARK H PARENT 4 17
REMARK Flexibility Score: inf
ROOT
ATOM      1  C   UNL     1     137.069 143.540 143.855  1.00  0.00     0.008 C 
ATOM      2  C   UNL     1     136.281 143.482 142.539  1.00  0.00    -0.008 C 
ATOM      3  C   UNL     1     137.194 143.405 141.278  1.00  0.00     0.004 C 
ATOM      4  C   UNL     1     136.437 144.122 140.129  1.00  0.00     0.005 C 
ATOM      5  C   UNL     1     135.077 144.368 140.755  1.00  0.00     0.002 C 
ATOM      6  C   UNL     1     135.355 144.680 142.221  1.00  0.00    -0.020 C 
ATOM      7  C   UNL     1     133.923 144.744 142.727  1.00  0.00     0.016 C 
ATOM      8  C   UNL     1     133.317 145.726 141.684  1.00  0.00     0.023 C 
ATOM      9  C   UNL     1     133.963 145.328 140.295  1.00  0.00    -0.025 C 
ATOM     10  C   UNL     1     132.908 144.585 139.440  1.00  0.00     0.012 C 
ATOM     11  C   UNL     1     134.518 146.493 139.437  1.00  0.00     0.012 C 
ATOM     12  C   UNL     1     133.728 147.117 142.107  1.00  0.00    -0.045 C 
ATOM     13  C   UNL     1     132.876 148.147 142.000  1.00  0.00     0.011 C 
ATOM     14  C   UNL     1     135.152 147.346 142.582  1.00  0.00     0.140 C 
ATOM     15  C   UNL     1     136.067 146.076 142.494  1.00  0.00     0.044 C 
ENDROOT
BRANCH  14  16
ATOM     16  O   UNL     1     135.145 147.866 143.888  1.00  0.00    -0.389 OA
ATOM     17  H   UNL     1     135.823 148.592 143.927  1.00  0.00     0.211 HD
ENDBRANCH  14  16
TORSDOF 1
ENDMDL
MODEL 8
REMARK VINA RESULT:    -4.617      1.236      3.896
REMARK INTER + INTRA:          -4.752
REMARK INTER:                  -4.752
REMARK INTRA:                   0.000
REMARK UNBOUND:                 0.000
REMARK SMILES C=C1[C@@H](O)C[C@@]23C[C@@H]1C(C)(C)[C@H]2CC[C@H]3C
REMARK SMILES IDX 16 1 15 2 14 3 13 4 12 5 6 6 7 7 8 8 9 9 10 10 11 11 2 12
REMARK SMILES IDX 1 13 3 14 5 15 4 16
REMARK H PARENT 4 17
REMARK Flexibility Score: inf
ROOT
ATOM      1  C   UNL     1     145.153 138.004 146.246  1.00  0.00     0.008 C 
ATOM      2  C   UNL     1     144.767 137.036 147.372  1.00  0.00    -0.008 C 
ATOM      3  C   UNL     1     143.981 137.722 148.531  1.00  0.00     0.004 C 
ATOM      4  C   UNL     1     144.342 136.959 149.833  1.00  0.00     0.005 C 
ATOM      5  C   UNL     1     145.131 135.779 149.298  1.00  0.00     0.002 C 
ATOM      6  C   UNL     1     145.923 136.324 148.114  1.00  0.00    -0.020 C 
ATOM      7  C   UNL     1     146.521 135.021 147.607  1.00  0.00     0.016 C 
ATOM      8  C   UNL     1     147.121 134.473 148.932  1.00  0.00     0.023 C 
ATOM      9  C   UNL     1     146.065 134.819 150.058  1.00  0.00    -0.025 C 
ATOM     10  C   UNL     1     145.318 133.526 150.466  1.00  0.00     0.012 C 
ATOM     11  C   UNL     1     146.626 135.458 151.354  1.00  0.00     0.012 C 
ATOM     12  C   UNL     1     148.425 135.204 149.153  1.00  0.00    -0.045 C 
ATOM     13  C   UNL     1     149.499 134.561 149.637  1.00  0.00     0.011 C 
ATOM     14  C   UNL     1     148.479 136.698 148.894  1.00  0.00     0.140 C 
ATOM     15  C   UNL     1     147.101 137.326 148.490  1.00  0.00     0.044 C 
ENDROOT
BRANCH  14  16
ATOM     16  O   UNL     1     149.460 136.984 147.928  1.00  0.00    -0.389 OA
ATOM     17  H   UNL     1     149.355 137.937 147.665  1.00  0.00     0.211 HD
ENDBRANCH  14  16
TORSDOF 1
ENDMDL
MODEL 9
REMARK VINA RESULT:    -4.605      1.634      2.531
REMARK INTER + INTRA:          -4.739
REMARK INTER:                  -4.739
REMARK INTRA:                   0.000
REMARK UNBOUND:                 0.000
REMARK SMILES C=C1[C@@H](O)C[C@@]23C[C@@H]1C(C)(C)[C@H]2CC[C@H]3C
REMARK SMILES IDX 16 1 15 2 14 3 13 4 12 5 6 6 7 7 8 8 9 9 10 10 11 11 2 12
REMARK SMILES IDX 1 13 3 14 5 15 4 16
REMARK H PARENT 4 17
REMARK Flexibility Score: inf
ROOT
ATOM      1  C   UNL     1     150.393 138.277 149.638  1.00  0.00     0.008 C 
ATOM      2  C   UNL     1     149.457 137.099 149.941  1.00  0.00    -0.008 C 
ATOM      3  C   UNL     1     150.174 135.715 149.890  1.00  0.00     0.004 C 
ATOM      4  C   UNL     1     149.119 134.679 149.420  1.00  0.00     0.005 C 
ATOM      5  C   UNL     1     147.842 135.499 149.439  1.00  0.00     0.002 C 
ATOM      6  C   UNL     1     148.252 136.898 148.992  1.00  0.00    -0.020 C 
ATOM      7  C   UNL     1     146.929 137.615 149.211  1.00  0.00     0.016 C 
ATOM      8  C   UNL     1     145.977 136.653 148.445  1.00  0.00     0.023 C 
ATOM      9  C   UNL     1     146.489 135.192 148.771  1.00  0.00    -0.025 C 
ATOM     10  C   UNL     1     145.514 134.526 149.773  1.00  0.00     0.012 C 
ATOM     11  C   UNL     1     146.641 134.232 147.564  1.00  0.00     0.012 C 
ATOM     12  C   UNL     1     146.124 136.976 146.976  1.00  0.00    -0.045 C 
ATOM     13  C   UNL     1     145.057 136.976 146.163  1.00  0.00     0.011 C 
ATOM     14  C   UNL     1     147.514 137.222 146.417  1.00  0.00     0.140 C 
ATOM     15  C   UNL     1     148.666 137.025 147.461  1.00  0.00     0.044 C 
ENDROOT
BRANCH  14  16
ATOM     16  O   UNL     1     147.579 138.502 145.837  1.00  0.00    -0.389 OA
ATOM     17  H   UNL     1     148.539 138.745 145.753  1.00  0.00     0.211 HD
ENDBRANCH  14  16
TORSDOF 1
ENDMDL
