MODEL 1
REMARK VINA RESULT:    -4.403      0.000      0.000
REMARK INTER + INTRA:         -14.093
REMARK INTER:                 -11.095
REMARK INTRA:                  -2.997
REMARK UNBOUND:                -2.997
REMARK SMILES CCCCCCCCCCCCCCCCCCCCCCCCCCCC(=O)[O-]
REMARK SMILES IDX 15 1 16 2 17 3 18 4 19 5 20 6 21 7 22 8 23 9 24 10 25 11
REMARK SMILES IDX 26 12 27 13 28 14 29 15 30 16 14 17 13 18 12 19 11 20 10 21
REMARK SMILES IDX 9 22 8 23 7 24 6 25 5 26 4 27 3 28 2 29 1 30
REMARK H PARENT
REMARK Flexibility Score: inf
ROOT
ATOM      1  C   UNL     1      86.620 122.672 130.203  1.00  0.00     0.000 C 
ENDROOT
BRANCH   1   2
ATOM      2  C   UNL     1      87.091 121.336 130.810  1.00  0.00     0.000 C 
BRANCH   2   3
ATOM      3  C   UNL     1      86.015 120.552 131.590  1.00  0.00     0.000 C 
BRANCH   3   4
ATOM      4  C   UNL     1      85.632 119.188 130.989  1.00  0.00     0.000 C 
BRANCH   4   5
ATOM      5  C   UNL     1      85.691 119.176 129.452  1.00  0.00     0.000 C 
BRANCH   5   6
ATOM      6  C   UNL     1      84.321 118.919 128.798  1.00  0.00     0.000 C 
BRANCH   6   7
ATOM      7  C   UNL     1      83.171 119.824 129.282  1.00  0.00     0.000 C 
BRANCH   7   8
ATOM      8  C   UNL     1      83.047 121.126 128.473  1.00  0.00     0.000 C 
BRANCH   8   9
ATOM      9  C   UNL     1      82.167 120.974 127.218  1.00  0.00     0.000 C 
BRANCH   9  10
ATOM     10  C   UNL     1      82.928 120.721 125.903  1.00  0.00     0.000 C 
BRANCH  10  11
ATOM     11  C   UNL     1      83.123 121.997 125.066  1.00  0.00     0.000 C 
BRANCH  11  12
ATOM     12  C   UNL     1      82.605 123.261 125.777  1.00  0.00     0.006 C 
BRANCH  12  13
ATOM     13  C   UNL     1      83.565 124.461 125.722  1.00  0.00     0.053 C 
BRANCH  13  14
ATOM     14  C   UNL     1      84.502 124.491 126.891  1.00  0.00     0.041 C 
ATOM     15  O   UNL     1      84.629 125.541 127.576  1.00  0.00    -0.550 OA
ATOM     16  O   UNL     1      85.254 123.366 127.208  1.00  0.00    -0.550 OA
ENDBRANCH  13  14
ENDBRANCH  12  13
ENDBRANCH  11  12
ENDBRANCH  10  11
ENDBRANCH   9  10
ENDBRANCH   8   9
ENDBRANCH   7   8
ENDBRANCH   6   7
ENDBRANCH   5   6
ENDBRANCH   4   5
ENDBRANCH   3   4
ENDBRANCH   2   3
ENDBRANCH   1   2
BRANCH   1  17
ATOM     17  C   UNL     1      87.198 123.933 130.872  1.00  0.00     0.000 C 
BRANCH  17  18
ATOM     18  C   UNL     1      86.501 124.273 132.200  1.00  0.00     0.000 C 
BRANCH  18  19
ATOM     19  C   UNL     1      85.337 125.261 132.022  1.00  0.00     0.000 C 
BRANCH  19  20
ATOM     20  C   UNL     1      83.970 124.636 132.353  1.00  0.00     0.000 C 
BRANCH  20  21
ATOM     21  C   UNL     1      83.431 123.767 131.204  1.00  0.00     0.000 C 
BRANCH  21  22
ATOM     22  C   UNL     1      82.475 124.534 130.279  1.00  0.00    -0.000 C 
BRANCH  22  23
ATOM     23  C   UNL     1      81.974 125.819 130.954  1.00  0.00    -0.000 C 
BRANCH  23  24
ATOM     24  C   UNL     1      82.285 127.086 130.136  1.00  0.00    -0.000 C 
BRANCH  24  25
ATOM     25  C   UNL     1      83.072 128.170 130.893  1.00  0.00    -0.000 C 
BRANCH  25  26
ATOM     26  C   UNL     1      82.259 129.454 131.121  1.00  0.00    -0.000 C 
BRANCH  26  27
ATOM     27  C   UNL     1      82.656 130.130 132.441  1.00  0.00    -0.000 C 
BRANCH  27  28
ATOM     28  C   UNL     1      83.917 131.002 132.313  1.00  0.00    -0.000 C 
BRANCH  28  29
ATOM     29  C   UNL     1      83.717 132.488 132.661  1.00  0.00    -0.003 C 
ATOM     30  C   UNL     1      82.662 133.168 131.791  1.00  0.00     0.004 C 
ENDBRANCH  28  29
ENDBRANCH  27  28
ENDBRANCH  26  27
ENDBRANCH  25  26
ENDBRANCH  24  25
ENDBRANCH  23  24
ENDBRANCH  22  23
ENDBRANCH  21  22
ENDBRANCH  20  21
ENDBRANCH  19  20
ENDBRANCH  18  19
ENDBRANCH  17  18
ENDBRANCH   1  17
TORSDOF 26
ENDMDL
MODEL 2
REMARK VINA RESULT:    -4.174      2.392      5.642
REMARK INTER + INTRA:         -13.515
REMARK INTER:                  -9.088
REMARK INTRA:                  -4.426
REMARK UNBOUND:                -2.997
REMARK SMILES CCCCCCCCCCCCCCCCCCCCCCCCCCCC(=O)[O-]
REMARK SMILES IDX 15 1 16 2 17 3 18 4 19 5 20 6 21 7 22 8 23 9 24 10 25 11
REMARK SMILES IDX 26 12 27 13 28 14 29 15 30 16 14 17 13 18 12 19 11 20 10 21
REMARK SMILES IDX 9 22 8 23 7 24 6 25 5 26 4 27 3 28 2 29 1 30
REMARK H PARENT
REMARK Flexibility Score: inf
ROOT
ATOM      1  C   UNL     1      84.044 120.165 126.099  1.00  0.00     0.000 C 
ENDROOT
BRANCH   1   2
ATOM      2  C   UNL     1      82.998 119.525 127.033  1.00  0.00     0.000 C 
BRANCH   2   3
ATOM      3  C   UNL     1      83.240 119.746 128.541  1.00  0.00     0.000 C 
BRANCH   3   4
ATOM      4  C   UNL     1      81.985 119.652 129.427  1.00  0.00     0.000 C 
BRANCH   4   5
ATOM      5  C   UNL     1      82.292 119.138 130.843  1.00  0.00     0.000 C 
BRANCH   5   6
ATOM      6  C   UNL     1      82.007 120.181 131.939  1.00  0.00     0.000 C 
BRANCH   6   7
ATOM      7  C   UNL     1      83.240 120.691 132.710  1.00  0.00     0.000 C 
BRANCH   7   8
ATOM      8  C   UNL     1      83.408 122.218 132.638  1.00  0.00     0.000 C 
BRANCH   8   9
ATOM      9  C   UNL     1      84.859 122.676 132.876  1.00  0.00     0.000 C 
BRANCH   9  10
ATOM     10  C   UNL     1      85.295 123.928 132.089  1.00  0.00     0.000 C 
BRANCH  10  11
ATOM     11  C   UNL     1      86.821 124.033 131.925  1.00  0.00     0.000 C 
BRANCH  11  12
ATOM     12  C   UNL     1      87.340 123.286 130.682  1.00  0.00     0.006 C 
BRANCH  12  13
ATOM     13  C   UNL     1      87.592 121.785 130.901  1.00  0.00     0.053 C 
BRANCH  13  14
ATOM     14  C   UNL     1      86.557 120.933 130.232  1.00  0.00     0.041 C 
ATOM     15  O   UNL     1      85.990 121.333 129.180  1.00  0.00    -0.550 OA
ATOM     16  O   UNL     1      86.199 119.710 130.785  1.00  0.00    -0.550 OA
ENDBRANCH  13  14
ENDBRANCH  12  13
ENDBRANCH  11  12
ENDBRANCH  10  11
ENDBRANCH   9  10
ENDBRANCH   8   9
ENDBRANCH   7   8
ENDBRANCH   6   7
ENDBRANCH   5   6
ENDBRANCH   4   5
ENDBRANCH   3   4
ENDBRANCH   2   3
ENDBRANCH   1   2
BRANCH   1  17
ATOM     17  C   UNL     1      83.492 121.227 125.130  1.00  0.00     0.000 C 
BRANCH  17  18
ATOM     18  C   UNL     1      84.441 122.425 124.959  1.00  0.00     0.000 C 
BRANCH  18  19
ATOM     19  C   UNL     1      83.864 123.725 125.543  1.00  0.00     0.000 C 
BRANCH  19  20
ATOM     20  C   UNL     1      82.334 123.679 125.701  1.00  0.00     0.000 C 
BRANCH  20  21
ATOM     21  C   UNL     1      81.876 124.139 127.096  1.00  0.00     0.000 C 
BRANCH  21  22
ATOM     22  C   UNL     1      82.349 123.197 128.214  1.00  0.00    -0.000 C 
BRANCH  22  23
ATOM     23  C   UNL     1      82.363 123.922 129.568  1.00  0.00    -0.000 C 
BRANCH  23  24
ATOM     24  C   UNL     1      82.161 125.442 129.438  1.00  0.00    -0.000 C 
BRANCH  24  25
ATOM     25  C   UNL     1      82.572 126.260 130.674  1.00  0.00    -0.000 C 
BRANCH  25  26
ATOM     26  C   UNL     1      83.527 127.417 130.338  1.00  0.00    -0.000 C 
BRANCH  26  27
ATOM     27  C   UNL     1      84.986 126.938 130.322  1.00  0.00    -0.000 C 
BRANCH  27  28
ATOM     28  C   UNL     1      85.689 127.204 128.979  1.00  0.00    -0.000 C 
BRANCH  28  29
ATOM     29  C   UNL     1      85.428 126.147 127.890  1.00  0.00    -0.003 C 
ATOM     30  C   UNL     1      85.763 124.727 128.344  1.00  0.00     0.004 C 
ENDBRANCH  28  29
ENDBRANCH  27  28
ENDBRANCH  26  27
ENDBRANCH  25  26
ENDBRANCH  24  25
ENDBRANCH  23  24
ENDBRANCH  22  23
ENDBRANCH  21  22
ENDBRANCH  20  21
ENDBRANCH  19  20
ENDBRANCH  18  19
ENDBRANCH  17  18
ENDBRANCH   1  17
TORSDOF 26
ENDMDL
MODEL 3
REMARK VINA RESULT:    -3.110     13.172     16.767
REMARK INTER + INTRA:         -10.833
REMARK INTER:                  -9.434
REMARK INTRA:                  -1.399
REMARK UNBOUND:                -2.997
REMARK SMILES CCCCCCCCCCCCCCCCCCCCCCCCCCCC(=O)[O-]
REMARK SMILES IDX 15 1 16 2 17 3 18 4 19 5 20 6 21 7 22 8 23 9 24 10 25 11
REMARK SMILES IDX 26 12 27 13 28 14 29 15 30 16 14 17 13 18 12 19 11 20 10 21
REMARK SMILES IDX 9 22 8 23 7 24 6 25 5 26 4 27 3 28 2 29 1 30
REMARK H PARENT
REMARK Flexibility Score: inf
ROOT
ATOM      1  C   UNL     1      97.302 125.882 125.137  1.00  0.00     0.000 C 
ENDROOT
BRANCH   1   2
ATOM      2  C   UNL     1      97.618 127.305 125.641  1.00  0.00     0.000 C 
BRANCH   2   3
ATOM      3  C   UNL     1      97.000 127.671 127.005  1.00  0.00     0.000 C 
BRANCH   3   4
ATOM      4  C   UNL     1      97.242 129.119 127.467  1.00  0.00     0.000 C 
BRANCH   4   5
ATOM      5  C   UNL     1      95.987 129.771 128.070  1.00  0.00     0.000 C 
BRANCH   5   6
ATOM      6  C   UNL     1      96.094 131.303 128.178  1.00  0.00     0.000 C 
BRANCH   6   7
ATOM      7  C   UNL     1      95.083 132.103 127.333  1.00  0.00     0.000 C 
BRANCH   7   8
ATOM      8  C   UNL     1      95.750 133.135 126.409  1.00  0.00     0.000 C 
BRANCH   8   9
ATOM      9  C   UNL     1      94.919 133.443 125.150  1.00  0.00     0.000 C 
BRANCH   9  10
ATOM     10  C   UNL     1      95.153 134.834 124.528  1.00  0.00     0.000 C 
BRANCH  10  11
ATOM     11  C   UNL     1      96.604 135.049 124.065  1.00  0.00     0.000 C 
BRANCH  11  12
ATOM     12  C   UNL     1      96.748 135.043 122.532  1.00  0.00     0.006 C 
BRANCH  12  13
ATOM     13  C   UNL     1      97.043 136.421 121.915  1.00  0.00     0.053 C 
BRANCH  13  14
ATOM     14  C   UNL     1      97.492 136.319 120.490  1.00  0.00     0.041 C 
ATOM     15  O   UNL     1      98.633 135.860 120.216  1.00  0.00    -0.550 OA
ATOM     16  O   UNL     1      96.661 136.755 119.466  1.00  0.00    -0.550 OA
ENDBRANCH  13  14
ENDBRANCH  12  13
ENDBRANCH  11  12
ENDBRANCH  10  11
ENDBRANCH   9  10
ENDBRANCH   8   9
ENDBRANCH   7   8
ENDBRANCH   6   7
ENDBRANCH   5   6
ENDBRANCH   4   5
ENDBRANCH   3   4
ENDBRANCH   2   3
ENDBRANCH   1   2
BRANCH   1  17
ATOM     17  C   UNL     1      97.599 124.753 126.141  1.00  0.00     0.000 C 
BRANCH  17  18
ATOM     18  C   UNL     1      97.164 123.371 125.626  1.00  0.00     0.000 C 
BRANCH  18  19
ATOM     19  C   UNL     1      95.969 123.447 124.662  1.00  0.00     0.000 C 
BRANCH  19  20
ATOM     20  C   UNL     1      94.715 122.744 125.211  1.00  0.00     0.000 C 
BRANCH  20  21
ATOM     21  C   UNL     1      93.431 123.192 124.493  1.00  0.00     0.000 C 
BRANCH  21  22
ATOM     22  C   UNL     1      93.623 123.347 122.977  1.00  0.00    -0.000 C 
BRANCH  22  23
ATOM     23  C   UNL     1      92.816 122.287 122.213  1.00  0.00    -0.000 C 
BRANCH  23  24
ATOM     24  C   UNL     1      93.680 121.455 121.247  1.00  0.00    -0.000 C 
BRANCH  24  25
ATOM     25  C   UNL     1      94.748 122.253 120.481  1.00  0.00    -0.000 C 
BRANCH  25  26
ATOM     26  C   UNL     1      94.379 122.490 119.008  1.00  0.00    -0.000 C 
BRANCH  26  27
ATOM     27  C   UNL     1      93.641 121.276 118.424  1.00  0.00    -0.000 C 
BRANCH  27  28
ATOM     28  C   UNL     1      92.284 121.644 117.798  1.00  0.00    -0.000 C 
BRANCH  28  29
ATOM     29  C   UNL     1      92.331 121.975 116.296  1.00  0.00    -0.003 C 
ATOM     30  C   UNL     1      92.898 120.835 115.451  1.00  0.00     0.004 C 
ENDBRANCH  28  29
ENDBRANCH  27  28
ENDBRANCH  26  27
ENDBRANCH  25  26
ENDBRANCH  24  25
ENDBRANCH  23  24
ENDBRANCH  22  23
ENDBRANCH  21  22
ENDBRANCH  20  21
ENDBRANCH  19  20
ENDBRANCH  18  19
ENDBRANCH  17  18
ENDBRANCH   1  17
TORSDOF 26
ENDMDL
MODEL 4
REMARK VINA RESULT:    -2.876     11.912     15.764
REMARK INTER + INTRA:         -10.244
REMARK INTER:                  -8.101
REMARK INTRA:                  -2.144
REMARK UNBOUND:                -2.997
REMARK SMILES CCCCCCCCCCCCCCCCCCCCCCCCCCCC(=O)[O-]
REMARK SMILES IDX 15 1 16 2 17 3 18 4 19 5 20 6 21 7 22 8 23 9 24 10 25 11
REMARK SMILES IDX 26 12 27 13 28 14 29 15 30 16 14 17 13 18 12 19 11 20 10 21
REMARK SMILES IDX 9 22 8 23 7 24 6 25 5 26 4 27 3 28 2 29 1 30
REMARK H PARENT
REMARK Flexibility Score: inf
ROOT
ATOM      1  C   UNL     1      95.444 123.002 125.953  1.00  0.00     0.000 C 
ENDROOT
BRANCH   1   2
ATOM      2  C   UNL     1      96.633 123.460 125.085  1.00  0.00     0.000 C 
BRANCH   2   3
ATOM      3  C   UNL     1      96.516 124.886 124.509  1.00  0.00     0.000 C 
BRANCH   3   4
ATOM      4  C   UNL     1      97.405 125.943 125.189  1.00  0.00     0.000 C 
BRANCH   4   5
ATOM      5  C   UNL     1      97.617 125.668 126.687  1.00  0.00     0.000 C 
BRANCH   5   6
ATOM      6  C   UNL     1      97.150 126.828 127.586  1.00  0.00     0.000 C 
BRANCH   6   7
ATOM      7  C   UNL     1      97.563 128.238 127.121  1.00  0.00     0.000 C 
BRANCH   7   8
ATOM      8  C   UNL     1      96.490 129.304 127.402  1.00  0.00     0.000 C 
BRANCH   8   9
ATOM      9  C   UNL     1      96.821 130.185 128.621  1.00  0.00     0.000 C 
BRANCH   9  10
ATOM     10  C   UNL     1      95.937 131.436 128.792  1.00  0.00     0.000 C 
BRANCH  10  11
ATOM     11  C   UNL     1      95.087 131.745 127.549  1.00  0.00     0.000 C 
BRANCH  11  12
ATOM     12  C   UNL     1      95.577 132.989 126.785  1.00  0.00     0.006 C 
BRANCH  12  13
ATOM     13  C   UNL     1      95.033 133.113 125.352  1.00  0.00     0.053 C 
BRANCH  13  14
ATOM     14  C   UNL     1      95.191 134.498 124.803  1.00  0.00     0.041 C 
ATOM     15  O   UNL     1      96.139 134.764 124.018  1.00  0.00    -0.550 OA
ATOM     16  O   UNL     1      94.306 135.500 125.181  1.00  0.00    -0.550 OA
ENDBRANCH  13  14
ENDBRANCH  12  13
ENDBRANCH  11  12
ENDBRANCH  10  11
ENDBRANCH   9  10
ENDBRANCH   8   9
ENDBRANCH   7   8
ENDBRANCH   6   7
ENDBRANCH   5   6
ENDBRANCH   4   5
ENDBRANCH   3   4
ENDBRANCH   2   3
ENDBRANCH   1   2
BRANCH   1  17
ATOM     17  C   UNL     1      94.364 122.197 125.208  1.00  0.00     0.000 C 
BRANCH  17  18
ATOM     18  C   UNL     1      93.066 122.997 124.999  1.00  0.00     0.000 C 
BRANCH  18  19
ATOM     19  C   UNL     1      93.101 123.858 123.726  1.00  0.00     0.000 C 
BRANCH  19  20
ATOM     20  C   UNL     1      93.713 123.119 122.523  1.00  0.00     0.000 C 
BRANCH  20  21
ATOM     21  C   UNL     1      92.812 121.981 122.016  1.00  0.00     0.000 C 
BRANCH  21  22
ATOM     22  C   UNL     1      92.942 121.752 120.502  1.00  0.00    -0.000 C 
BRANCH  22  23
ATOM     23  C   UNL     1      94.419 121.676 120.086  1.00  0.00    -0.000 C 
BRANCH  23  24
ATOM     24  C   UNL     1      94.611 121.166 118.646  1.00  0.00    -0.000 C 
BRANCH  24  25
ATOM     25  C   UNL     1      93.308 120.874 117.881  1.00  0.00    -0.000 C 
BRANCH  25  26
ATOM     26  C   UNL     1      93.515 120.762 116.363  1.00  0.00    -0.000 C 
BRANCH  26  27
ATOM     27  C   UNL     1      92.449 121.563 115.601  1.00  0.00    -0.000 C 
BRANCH  27  28
ATOM     28  C   UNL     1      91.778 122.643 116.468  1.00  0.00    -0.000 C 
BRANCH  28  29
ATOM     29  C   UNL     1      92.352 124.061 116.298  1.00  0.00    -0.003 C 
ATOM     30  C   UNL     1      93.155 124.530 117.509  1.00  0.00     0.004 C 
ENDBRANCH  28  29
ENDBRANCH  27  28
ENDBRANCH  26  27
ENDBRANCH  25  26
ENDBRANCH  24  25
ENDBRANCH  23  24
ENDBRANCH  22  23
ENDBRANCH  21  22
ENDBRANCH  20  21
ENDBRANCH  19  20
ENDBRANCH  18  19
ENDBRANCH  17  18
ENDBRANCH   1  17
TORSDOF 26
ENDMDL
MODEL 5
REMARK VINA RESULT:    -2.827     13.378     14.683
REMARK INTER + INTRA:         -10.122
REMARK INTER:                  -8.776
REMARK INTRA:                  -1.346
REMARK UNBOUND:                -2.997
REMARK SMILES CCCCCCCCCCCCCCCCCCCCCCCCCCCC(=O)[O-]
REMARK SMILES IDX 15 1 16 2 17 3 18 4 19 5 20 6 21 7 22 8 23 9 24 10 25 11
REMARK SMILES IDX 26 12 27 13 28 14 29 15 30 16 14 17 13 18 12 19 11 20 10 21
REMARK SMILES IDX 9 22 8 23 7 24 6 25 5 26 4 27 3 28 2 29 1 30
REMARK H PARENT
REMARK Flexibility Score: inf
ROOT
ATOM      1  C   UNL     1      97.219 127.714 126.978  1.00  0.00     0.000 C 
ENDROOT
BRANCH   1   2
ATOM      2  C   UNL     1      97.684 127.277 125.574  1.00  0.00     0.000 C 
BRANCH   2   3
ATOM      3  C   UNL     1      97.291 125.841 125.169  1.00  0.00     0.000 C 
BRANCH   3   4
ATOM      4  C   UNL     1      97.827 124.731 126.090  1.00  0.00     0.000 C 
BRANCH   4   5
ATOM      5  C   UNL     1      97.271 123.342 125.734  1.00  0.00     0.000 C 
BRANCH   5   6
ATOM      6  C   UNL     1      95.799 123.156 126.147  1.00  0.00     0.000 C 
BRANCH   6   7
ATOM      7  C   UNL     1      94.842 122.726 125.019  1.00  0.00     0.000 C 
BRANCH   7   8
ATOM      8  C   UNL     1      94.351 123.904 124.161  1.00  0.00     0.000 C 
BRANCH   8   9
ATOM      9  C   UNL     1      93.028 123.608 123.430  1.00  0.00     0.000 C 
BRANCH   9  10
ATOM     10  C   UNL     1      92.939 122.224 122.758  1.00  0.00     0.000 C 
BRANCH  10  11
ATOM     11  C   UNL     1      93.063 122.291 121.227  1.00  0.00     0.000 C 
BRANCH  11  12
ATOM     12  C   UNL     1      94.526 122.327 120.748  1.00  0.00     0.006 C 
BRANCH  12  13
ATOM     13  C   UNL     1      94.719 121.978 119.262  1.00  0.00     0.053 C 
BRANCH  13  14
ATOM     14  C   UNL     1      93.485 122.243 118.454  1.00  0.00     0.041 C 
ATOM     15  O   UNL     1      92.757 121.286 118.076  1.00  0.00    -0.550 OA
ATOM     16  O   UNL     1      93.155 123.544 118.095  1.00  0.00    -0.550 OA
ENDBRANCH  13  14
ENDBRANCH  12  13
ENDBRANCH  11  12
ENDBRANCH  10  11
ENDBRANCH   9  10
ENDBRANCH   8   9
ENDBRANCH   7   8
ENDBRANCH   6   7
ENDBRANCH   5   6
ENDBRANCH   4   5
ENDBRANCH   3   4
ENDBRANCH   2   3
ENDBRANCH   1   2
BRANCH   1  17
ATOM     17  C   UNL     1      97.287 129.228 127.246  1.00  0.00     0.000 C 
BRANCH  17  18
ATOM     18  C   UNL     1      96.256 129.693 128.289  1.00  0.00     0.000 C 
BRANCH  18  19
ATOM     19  C   UNL     1      96.030 131.213 128.262  1.00  0.00     0.000 C 
BRANCH  19  20
ATOM     20  C   UNL     1      95.162 131.665 127.075  1.00  0.00     0.000 C 
BRANCH  20  21
ATOM     21  C   UNL     1      95.436 133.123 126.671  1.00  0.00     0.000 C 
BRANCH  21  22
ATOM     22  C   UNL     1      95.013 133.427 125.225  1.00  0.00    -0.000 C 
BRANCH  22  23
ATOM     23  C   UNL     1      95.333 134.883 124.857  1.00  0.00    -0.000 C 
BRANCH  23  24
ATOM     24  C   UNL     1      96.641 135.026 124.056  1.00  0.00    -0.000 C 
BRANCH  24  25
ATOM     25  C   UNL     1      96.550 135.941 122.823  1.00  0.00    -0.000 C 
BRANCH  25  26
ATOM     26  C   UNL     1      96.809 135.197 121.504  1.00  0.00    -0.000 C 
BRANCH  26  27
ATOM     27  C   UNL     1      97.396 136.143 120.445  1.00  0.00    -0.000 C 
BRANCH  27  28
ATOM     28  C   UNL     1      97.989 137.427 121.052  1.00  0.00    -0.000 C 
BRANCH  28  29
ATOM     29  C   UNL     1      97.459 138.737 120.440  1.00  0.00    -0.003 C 
ATOM     30  C   UNL     1      96.394 138.509 119.370  1.00  0.00     0.004 C 
ENDBRANCH  28  29
ENDBRANCH  27  28
ENDBRANCH  26  27
ENDBRANCH  25  26
ENDBRANCH  24  25
ENDBRANCH  23  24
ENDBRANCH  22  23
ENDBRANCH  21  22
ENDBRANCH  20  21
ENDBRANCH  19  20
ENDBRANCH  18  19
ENDBRANCH  17  18
ENDBRANCH   1  17
TORSDOF 26
ENDMDL
MODEL 6
REMARK VINA RESULT:    -2.792      2.595      5.980
REMARK INTER + INTRA:         -10.032
REMARK INTER:                  -7.366
REMARK INTRA:                  -2.667
REMARK UNBOUND:                -2.997
REMARK SMILES CCCCCCCCCCCCCCCCCCCCCCCCCCCC(=O)[O-]
REMARK SMILES IDX 15 1 16 2 17 3 18 4 19 5 20 6 21 7 22 8 23 9 24 10 25 11
REMARK SMILES IDX 26 12 27 13 28 14 29 15 30 16 14 17 13 18 12 19 11 20 10 21
REMARK SMILES IDX 9 22 8 23 7 24 6 25 5 26 4 27 3 28 2 29 1 30
REMARK H PARENT
REMARK Flexibility Score: inf
ROOT
ATOM      1  C   UNL     1      87.426 123.712 130.547  1.00  0.00     0.000 C 
ENDROOT
BRANCH   1   2
ATOM      2  C   UNL     1      86.179 122.813 130.432  1.00  0.00     0.000 C 
BRANCH   2   3
ATOM      3  C   UNL     1      86.461 121.297 130.425  1.00  0.00     0.000 C 
BRANCH   3   4
ATOM      4  C   UNL     1      86.736 120.675 131.806  1.00  0.00     0.000 C 
BRANCH   4   5
ATOM      5  C   UNL     1      85.983 121.387 132.941  1.00  0.00     0.000 C 
BRANCH   5   6
ATOM      6  C   UNL     1      84.502 120.977 133.034  1.00  0.00     0.000 C 
BRANCH   6   7
ATOM      7  C   UNL     1      83.524 121.818 132.190  1.00  0.00     0.000 C 
BRANCH   7   8
ATOM      8  C   UNL     1      82.051 121.441 132.419  1.00  0.00     0.000 C 
BRANCH   8   9
ATOM      9  C   UNL     1      81.875 120.032 133.016  1.00  0.00     0.000 C 
BRANCH   9  10
ATOM     10  C   UNL     1      81.885 118.876 131.997  1.00  0.00     0.000 C 
BRANCH  10  11
ATOM     11  C   UNL     1      82.864 119.109 130.834  1.00  0.00     0.000 C 
BRANCH  11  12
ATOM     12  C   UNL     1      82.150 119.420 129.506  1.00  0.00     0.006 C 
BRANCH  12  13
ATOM     13  C   UNL     1      82.779 120.568 128.699  1.00  0.00     0.053 C 
BRANCH  13  14
ATOM     14  C   UNL     1      83.521 120.074 127.494  1.00  0.00     0.041 C 
ATOM     15  O   UNL     1      83.087 119.086 126.843  1.00  0.00    -0.550 OA
ATOM     16  O   UNL     1      84.705 120.688 127.107  1.00  0.00    -0.550 OA
ENDBRANCH  13  14
ENDBRANCH  12  13
ENDBRANCH  11  12
ENDBRANCH  10  11
ENDBRANCH   9  10
ENDBRANCH   8   9
ENDBRANCH   7   8
ENDBRANCH   6   7
ENDBRANCH   5   6
ENDBRANCH   4   5
ENDBRANCH   3   4
ENDBRANCH   2   3
ENDBRANCH   1   2
BRANCH   1  17
ATOM     17  C   UNL     1      87.308 124.864 131.563  1.00  0.00     0.000 C 
BRANCH  17  18
ATOM     18  C   UNL     1      86.408 124.512 132.759  1.00  0.00     0.000 C 
BRANCH  18  19
ATOM     19  C   UNL     1      84.956 124.977 132.565  1.00  0.00     0.000 C 
BRANCH  19  20
ATOM     20  C   UNL     1      84.817 126.052 131.473  1.00  0.00     0.000 C 
BRANCH  20  21
ATOM     21  C   UNL     1      83.356 126.486 131.262  1.00  0.00     0.000 C 
BRANCH  21  22
ATOM     22  C   UNL     1      82.379 125.301 131.270  1.00  0.00    -0.000 C 
BRANCH  22  23
ATOM     23  C   UNL     1      82.082 124.828 129.839  1.00  0.00    -0.000 C 
BRANCH  23  24
ATOM     24  C   UNL     1      83.179 125.227 128.835  1.00  0.00    -0.000 C 
BRANCH  24  25
ATOM     25  C   UNL     1      83.517 124.156 127.784  1.00  0.00    -0.000 C 
BRANCH  25  26
ATOM     26  C   UNL     1      82.978 124.497 126.386  1.00  0.00    -0.000 C 
BRANCH  26  27
ATOM     27  C   UNL     1      83.706 123.687 125.302  1.00  0.00    -0.000 C 
BRANCH  27  28
ATOM     28  C   UNL     1      82.798 122.651 124.616  1.00  0.00    -0.000 C 
BRANCH  28  29
ATOM     29  C   UNL     1      83.520 121.387 124.116  1.00  0.00    -0.003 C 
ATOM     30  C   UNL     1      82.562 120.324 123.582  1.00  0.00     0.004 C 
ENDBRANCH  28  29
ENDBRANCH  27  28
ENDBRANCH  26  27
ENDBRANCH  25  26
ENDBRANCH  24  25
ENDBRANCH  23  24
ENDBRANCH  22  23
ENDBRANCH  21  22
ENDBRANCH  20  21
ENDBRANCH  19  20
ENDBRANCH  18  19
ENDBRANCH  17  18
ENDBRANCH   1  17
TORSDOF 26
ENDMDL
MODEL 7
REMARK VINA RESULT:    -2.650     12.893     14.117
REMARK INTER + INTRA:          -9.676
REMARK INTER:                  -8.449
REMARK INTRA:                  -1.227
REMARK UNBOUND:                -2.997
REMARK SMILES CCCCCCCCCCCCCCCCCCCCCCCCCCCC(=O)[O-]
REMARK SMILES IDX 15 1 16 2 17 3 18 4 19 5 20 6 21 7 22 8 23 9 24 10 25 11
REMARK SMILES IDX 26 12 27 13 28 14 29 15 30 16 14 17 13 18 12 19 11 20 10 21
REMARK SMILES IDX 9 22 8 23 7 24 6 25 5 26 4 27 3 28 2 29 1 30
REMARK H PARENT
REMARK Flexibility Score: inf
ROOT
ATOM      1  C   UNL     1      97.586 125.801 125.218  1.00  0.00     0.000 C 
ENDROOT
BRANCH   1   2
ATOM      2  C   UNL     1      97.957 124.839 126.364  1.00  0.00     0.000 C 
BRANCH   2   3
ATOM      3  C   UNL     1      97.803 123.339 126.038  1.00  0.00     0.000 C 
BRANCH   3   4
ATOM      4  C   UNL     1      96.811 123.012 124.907  1.00  0.00     0.000 C 
BRANCH   4   5
ATOM      5  C   UNL     1      95.349 122.998 125.383  1.00  0.00     0.000 C 
BRANCH   5   6
ATOM      6  C   UNL     1      94.372 123.591 124.351  1.00  0.00     0.000 C 
BRANCH   6   7
ATOM      7  C   UNL     1      93.018 122.867 124.224  1.00  0.00     0.000 C 
BRANCH   7   8
ATOM      8  C   UNL     1      92.737 122.358 122.800  1.00  0.00     0.000 C 
BRANCH   8   9
ATOM      9  C   UNL     1      93.866 122.691 121.807  1.00  0.00     0.000 C 
BRANCH   9  10
ATOM     10  C   UNL     1      94.165 121.604 120.757  1.00  0.00     0.000 C 
BRANCH  10  11
ATOM     11  C   UNL     1      94.439 122.180 119.357  1.00  0.00     0.000 C 
BRANCH  11  12
ATOM     12  C   UNL     1      94.065 121.204 118.227  1.00  0.00     0.006 C 
BRANCH  12  13
ATOM     13  C   UNL     1      92.592 121.272 117.788  1.00  0.00     0.053 C 
BRANCH  13  14
ATOM     14  C   UNL     1      92.411 122.076 116.536  1.00  0.00     0.041 C 
ATOM     15  O   UNL     1      92.403 121.506 115.412  1.00  0.00    -0.550 OA
ATOM     16  O   UNL     1      92.277 123.457 116.610  1.00  0.00    -0.550 OA
ENDBRANCH  13  14
ENDBRANCH  12  13
ENDBRANCH  11  12
ENDBRANCH  10  11
ENDBRANCH   9  10
ENDBRANCH   8   9
ENDBRANCH   7   8
ENDBRANCH   6   7
ENDBRANCH   5   6
ENDBRANCH   4   5
ENDBRANCH   3   4
ENDBRANCH   2   3
ENDBRANCH   1   2
BRANCH   1  17
ATOM     17  C   UNL     1      97.627 127.297 125.583  1.00  0.00     0.000 C 
BRANCH  17  18
ATOM     18  C   UNL     1      97.237 127.562 127.048  1.00  0.00     0.000 C 
BRANCH  18  19
ATOM     19  C   UNL     1      97.445 129.028 127.460  1.00  0.00     0.000 C 
BRANCH  19  20
ATOM     20  C   UNL     1      96.234 129.612 128.210  1.00  0.00     0.000 C 
BRANCH  20  21
ATOM     21  C   UNL     1      96.251 131.150 128.239  1.00  0.00     0.000 C 
BRANCH  21  22
ATOM     22  C   UNL     1      95.009 131.769 127.579  1.00  0.00    -0.000 C 
BRANCH  22  23
ATOM     23  C   UNL     1      95.377 133.052 126.819  1.00  0.00    -0.000 C 
BRANCH  23  24
ATOM     24  C   UNL     1      94.770 133.106 125.405  1.00  0.00    -0.000 C 
BRANCH  24  25
ATOM     25  C   UNL     1      94.983 134.434 124.659  1.00  0.00    -0.000 C 
BRANCH  25  26
ATOM     26  C   UNL     1      96.406 134.586 124.098  1.00  0.00    -0.000 C 
BRANCH  26  27
ATOM     27  C   UNL     1      96.518 135.835 123.211  1.00  0.00    -0.000 C 
BRANCH  27  28
ATOM     28  C   UNL     1      96.843 135.501 121.745  1.00  0.00    -0.000 C 
BRANCH  28  29
ATOM     29  C   UNL     1      97.346 136.690 120.905  1.00  0.00    -0.003 C 
ATOM     30  C   UNL     1      97.062 136.530 119.413  1.00  0.00     0.004 C 
ENDBRANCH  28  29
ENDBRANCH  27  28
ENDBRANCH  26  27
ENDBRANCH  25  26
ENDBRANCH  24  25
ENDBRANCH  23  24
ENDBRANCH  22  23
ENDBRANCH  21  22
ENDBRANCH  20  21
ENDBRANCH  19  20
ENDBRANCH  18  19
ENDBRANCH  17  18
ENDBRANCH   1  17
TORSDOF 26
ENDMDL
