MODEL 1
REMARK VINA RESULT:    -5.053      0.000      0.000
REMARK INTER + INTRA:          -5.200
REMARK INTER:                  -5.200
REMARK INTRA:                   0.000
REMARK UNBOUND:                 0.000
REMARK SMILES Oc1ccc2[nH]ccc2c1
REMARK SMILES IDX 3 1 4 2 5 3 9 4 8 5 7 6 6 7 10 8 2 9 1 11
REMARK H PARENT 6 10 1 12
REMARK Flexibility Score: inf
ROOT
ATOM      1  C   UNL     1     135.489 128.408 133.974  1.00  0.00     0.048 A 
ATOM      2  C   UNL     1     135.718 127.077 133.579  1.00  0.00     0.030 A 
ATOM      3  C   UNL     1     136.200 126.188 134.538  1.00  0.00     0.046 A 
ATOM      4  C   UNL     1     136.449 126.583 135.826  1.00  0.00     0.003 A 
ATOM      5  C   UNL     1     136.910 125.481 136.513  1.00  0.00     0.028 A 
ATOM      6  C   UNL     1     136.919 124.449 135.579  1.00  0.00     0.083 A 
ATOM      7  N   UNL     1     136.484 124.886 134.375  1.00  0.00    -0.361 N 
ATOM      8  C   UNL     1     136.233 127.893 136.248  1.00  0.00     0.056 A 
ATOM      9  C   UNL     1     135.745 128.819 135.303  1.00  0.00     0.116 A 
ATOM     10  H   UNL     1     136.390 124.322 133.501  1.00  0.00     0.166 HD
ENDROOT
BRANCH   9  11
ATOM     11  O   UNL     1     135.511 130.142 135.667  1.00  0.00    -0.508 OA
ATOM     12  H   UNL     1     135.178 130.825 134.995  1.00  0.00     0.293 HD
ENDBRANCH   9  11
TORSDOF 1
ENDMDL
MODEL 2
REMARK VINA RESULT:    -5.013      6.255      6.912
REMARK INTER + INTRA:          -5.160
REMARK INTER:                  -5.160
REMARK INTRA:                   0.000
REMARK UNBOUND:                 0.000
REMARK SMILES Oc1ccc2[nH]ccc2c1
REMARK SMILES IDX 3 1 4 2 5 3 9 4 8 5 7 6 6 7 10 8 2 9 1 11
REMARK H PARENT 6 10 1 12
REMARK Flexibility Score: inf
ROOT
ATOM      1  C   UNL     1     129.841 127.649 138.484  1.00  0.00     0.048 A 
ATOM      2  C   UNL     1     130.120 128.162 139.763  1.00  0.00     0.030 A 
ATOM      3  C   UNL     1     131.434 128.088 140.222  1.00  0.00     0.046 A 
ATOM      4  C   UNL     1     132.432 127.535 139.463  1.00  0.00     0.003 A 
ATOM      5  C   UNL     1     133.597 127.615 140.193  1.00  0.00     0.028 A 
ATOM      6  C   UNL     1     133.235 128.228 141.388  1.00  0.00     0.083 A 
ATOM      7  N   UNL     1     131.913 128.515 141.402  1.00  0.00    -0.361 N 
ATOM      8  C   UNL     1     132.189 127.018 138.192  1.00  0.00     0.056 A 
ATOM      9  C   UNL     1     130.869 127.077 137.697  1.00  0.00     0.116 A 
ATOM     10  H   UNL     1     131.380 128.974 142.172  1.00  0.00     0.166 HD
ENDROOT
BRANCH   9  11
ATOM     11  O   UNL     1     130.565 126.575 136.435  1.00  0.00    -0.508 OA
ATOM     12  H   UNL     1     130.049 125.711 136.319  1.00  0.00     0.293 HD
ENDBRANCH   9  11
TORSDOF 1
ENDMDL
MODEL 3
REMARK VINA RESULT:    -4.978      2.652      4.034
REMARK INTER + INTRA:          -5.124
REMARK INTER:                  -5.124
REMARK INTRA:                   0.000
REMARK UNBOUND:                 0.000
REMARK SMILES Oc1ccc2[nH]ccc2c1
REMARK SMILES IDX 3 1 4 2 5 3 9 4 8 5 7 6 6 7 10 8 2 9 1 11
REMARK H PARENT 6 10 1 12
REMARK Flexibility Score: inf
ROOT
ATOM      1  C   UNL     1     137.567 125.982 135.703  1.00  0.00     0.048 A 
ATOM      2  C   UNL     1     137.605 127.266 136.277  1.00  0.00     0.030 A 
ATOM      3  C   UNL     1     136.644 128.190 135.870  1.00  0.00     0.046 A 
ATOM      4  C   UNL     1     135.689 127.873 134.941  1.00  0.00     0.003 A 
ATOM      5  C   UNL     1     134.902 128.990 134.762  1.00  0.00     0.028 A 
ATOM      6  C   UNL     1     135.438 129.951 135.613  1.00  0.00     0.083 A 
ATOM      7  N   UNL     1     136.501 129.458 136.288  1.00  0.00    -0.361 N 
ATOM      8  C   UNL     1     135.624 126.611 134.354  1.00  0.00     0.056 A 
ATOM      9  C   UNL     1     136.581 125.652 134.743  1.00  0.00     0.116 A 
ATOM     10  H   UNL     1     137.087 129.963 136.990  1.00  0.00     0.166 HD
ENDROOT
BRANCH   9  11
ATOM     11  O   UNL     1     136.567 124.374 134.190  1.00  0.00    -0.508 OA
ATOM     12  H   UNL     1     137.217 123.659 134.493  1.00  0.00     0.293 HD
ENDBRANCH   9  11
TORSDOF 1
ENDMDL
MODEL 4
REMARK VINA RESULT:    -4.978      7.303      7.528
REMARK INTER + INTRA:          -5.124
REMARK INTER:                  -5.124
REMARK INTRA:                   0.000
REMARK UNBOUND:                 0.000
REMARK SMILES Oc1ccc2[nH]ccc2c1
REMARK SMILES IDX 3 1 4 2 5 3 9 4 8 5 7 6 6 7 10 8 2 9 1 11
REMARK H PARENT 6 10 1 12
REMARK Flexibility Score: inf
ROOT
ATOM      1  C   UNL     1     130.523 129.803 139.560  1.00  0.00     0.048 A 
ATOM      2  C   UNL     1     131.618 130.116 140.385  1.00  0.00     0.030 A 
ATOM      3  C   UNL     1     132.344 129.060 140.933  1.00  0.00     0.046 A 
ATOM      4  C   UNL     1     132.012 127.754 140.685  1.00  0.00     0.003 A 
ATOM      5  C   UNL     1     132.914 126.964 141.365  1.00  0.00     0.028 A 
ATOM      6  C   UNL     1     133.767 127.857 142.006  1.00  0.00     0.083 A 
ATOM      7  N   UNL     1     133.415 129.136 141.739  1.00  0.00    -0.361 N 
ATOM      8  C   UNL     1     130.934 127.410 139.873  1.00  0.00     0.056 A 
ATOM      9  C   UNL     1     130.178 128.455 139.302  1.00  0.00     0.116 A 
ATOM     10  H   UNL     1     133.883 130.000 142.090  1.00  0.00     0.166 HD
ENDROOT
BRANCH   9  11
ATOM     11  O   UNL     1     129.089 128.173 138.483  1.00  0.00    -0.508 OA
ATOM     12  H   UNL     1     128.529 127.338 138.615  1.00  0.00     0.293 HD
ENDBRANCH   9  11
TORSDOF 1
ENDMDL
MODEL 5
REMARK VINA RESULT:    -4.966      6.387      7.399
REMARK INTER + INTRA:          -5.111
REMARK INTER:                  -5.111
REMARK INTRA:                   0.000
REMARK UNBOUND:                 0.000
REMARK SMILES Oc1ccc2[nH]ccc2c1
REMARK SMILES IDX 3 1 4 2 5 3 9 4 8 5 7 6 6 7 10 8 2 9 1 11
REMARK H PARENT 6 10 1 12
REMARK Flexibility Score: inf
ROOT
ATOM      1  C   UNL     1     130.226 127.201 138.867  1.00  0.00     0.048 A 
ATOM      2  C   UNL     1     130.451 128.039 139.973  1.00  0.00     0.030 A 
ATOM      3  C   UNL     1     131.190 129.203 139.768  1.00  0.00     0.046 A 
ATOM      4  C   UNL     1     131.687 129.532 138.535  1.00  0.00     0.003 A 
ATOM      5  C   UNL     1     132.360 130.727 138.668  1.00  0.00     0.028 A 
ATOM      6  C   UNL     1     132.233 131.068 140.011  1.00  0.00     0.083 A 
ATOM      7  N   UNL     1     131.517 130.135 140.679  1.00  0.00    -0.361 N 
ATOM      8  C   UNL     1     131.482 128.724 137.419  1.00  0.00     0.056 A 
ATOM      9  C   UNL     1     130.739 127.538 137.592  1.00  0.00     0.116 A 
ATOM     10  H   UNL     1     131.271 130.141 141.693  1.00  0.00     0.166 HD
ENDROOT
BRANCH   9  11
ATOM     11  O   UNL     1     130.502 126.689 136.514  1.00  0.00    -0.508 OA
ATOM     12  H   UNL     1     130.456 127.041 135.564  1.00  0.00     0.293 HD
ENDBRANCH   9  11
TORSDOF 1
ENDMDL
MODEL 6
REMARK VINA RESULT:    -4.960      8.537      9.753
REMARK INTER + INTRA:          -5.105
REMARK INTER:                  -5.105
REMARK INTRA:                   0.000
REMARK UNBOUND:                 0.000
REMARK SMILES Oc1ccc2[nH]ccc2c1
REMARK SMILES IDX 3 1 4 2 5 3 9 4 8 5 7 6 6 7 10 8 2 9 1 11
REMARK H PARENT 6 10 1 12
REMARK Flexibility Score: inf
ROOT
ATOM      1  C   UNL     1     133.725 132.883 144.219  1.00  0.00     0.048 A 
ATOM      2  C   UNL     1     133.161 131.754 143.597  1.00  0.00     0.030 A 
ATOM      3  C   UNL     1     133.137 131.722 142.204  1.00  0.00     0.046 A 
ATOM      4  C   UNL     1     133.641 132.750 141.452  1.00  0.00     0.003 A 
ATOM      5  C   UNL     1     133.467 132.414 140.127  1.00  0.00     0.028 A 
ATOM      6  C   UNL     1     132.849 131.168 140.146  1.00  0.00     0.083 A 
ATOM      7  N   UNL     1     132.649 130.750 141.417  1.00  0.00    -0.361 N 
ATOM      8  C   UNL     1     134.206 133.881 142.036  1.00  0.00     0.056 A 
ATOM      9  C   UNL     1     134.247 133.946 143.444  1.00  0.00     0.116 A 
ATOM     10  H   UNL     1     132.208 129.853 141.719  1.00  0.00     0.166 HD
ENDROOT
BRANCH   9  11
ATOM     11  O   UNL     1     134.799 135.052 144.085  1.00  0.00    -0.508 OA
ATOM     12  H   UNL     1     134.707 135.986 143.702  1.00  0.00     0.293 HD
ENDBRANCH   9  11
TORSDOF 1
ENDMDL
MODEL 7
REMARK VINA RESULT:    -4.883      5.902      6.620
REMARK INTER + INTRA:          -5.026
REMARK INTER:                  -5.026
REMARK INTRA:                   0.000
REMARK UNBOUND:                 0.000
REMARK SMILES Oc1ccc2[nH]ccc2c1
REMARK SMILES IDX 3 1 4 2 5 3 9 4 8 5 7 6 6 7 10 8 2 9 1 11
REMARK H PARENT 6 10 1 12
REMARK Flexibility Score: inf
ROOT
ATOM      1  C   UNL     1     132.220 130.428 139.635  1.00  0.00     0.048 A 
ATOM      2  C   UNL     1     130.882 129.999 139.587  1.00  0.00     0.030 A 
ATOM      3  C   UNL     1     130.600 128.818 138.903  1.00  0.00     0.046 A 
ATOM      4  C   UNL     1     131.586 128.090 138.290  1.00  0.00     0.003 A 
ATOM      5  C   UNL     1     130.986 126.993 137.710  1.00  0.00     0.028 A 
ATOM      6  C   UNL     1     129.633 127.118 138.009  1.00  0.00     0.083 A 
ATOM      7  N   UNL     1     129.402 128.235 138.737  1.00  0.00    -0.361 N 
ATOM      8  C   UNL     1     132.920 128.487 138.318  1.00  0.00     0.056 A 
ATOM      9  C   UNL     1     133.240 129.678 139.003  1.00  0.00     0.116 A 
ATOM     10  H   UNL     1     128.481 128.570 139.096  1.00  0.00     0.166 HD
ENDROOT
BRANCH   9  11
ATOM     11  O   UNL     1     134.557 130.126 139.065  1.00  0.00    -0.508 OA
ATOM     12  H   UNL     1     135.100 130.288 138.225  1.00  0.00     0.293 HD
ENDBRANCH   9  11
TORSDOF 1
ENDMDL
MODEL 8
REMARK VINA RESULT:    -4.806      8.542      9.887
REMARK INTER + INTRA:          -4.946
REMARK INTER:                  -4.946
REMARK INTRA:                   0.000
REMARK UNBOUND:                 0.000
REMARK SMILES Oc1ccc2[nH]ccc2c1
REMARK SMILES IDX 3 1 4 2 5 3 9 4 8 5 7 6 6 7 10 8 2 9 1 11
REMARK H PARENT 6 10 1 12
REMARK Flexibility Score: inf
ROOT
ATOM      1  C   UNL     1     133.733 132.599 144.203  1.00  0.00     0.048 A 
ATOM      2  C   UNL     1     134.252 133.674 143.458  1.00  0.00     0.030 A 
ATOM      3  C   UNL     1     134.526 133.459 142.109  1.00  0.00     0.046 A 
ATOM      4  C   UNL     1     134.302 132.245 141.513  1.00  0.00     0.003 A 
ATOM      5  C   UNL     1     134.671 132.362 140.191  1.00  0.00     0.028 A 
ATOM      6  C   UNL     1     135.111 133.674 140.051  1.00  0.00     0.083 A 
ATOM      7  N   UNL     1     135.021 134.340 141.225  1.00  0.00    -0.361 N 
ATOM      8  C   UNL     1     133.789 131.161 142.222  1.00  0.00     0.056 A 
ATOM      9  C   UNL     1     133.501 131.345 143.590  1.00  0.00     0.116 A 
ATOM     10  H   UNL     1     135.282 135.335 141.402  1.00  0.00     0.166 HD
ENDROOT
BRANCH   9  11
ATOM     11  O   UNL     1     132.987 130.298 144.350  1.00  0.00    -0.508 OA
ATOM     12  H   UNL     1     132.399 130.469 145.159  1.00  0.00     0.293 HD
ENDBRANCH   9  11
TORSDOF 1
ENDMDL
MODEL 9
REMARK VINA RESULT:    -4.796      7.497      7.959
REMARK INTER + INTRA:          -4.937
REMARK INTER:                  -4.937
REMARK INTRA:                   0.000
REMARK UNBOUND:                 0.000
REMARK SMILES Oc1ccc2[nH]ccc2c1
REMARK SMILES IDX 3 1 4 2 5 3 9 4 8 5 7 6 6 7 10 8 2 9 1 11
REMARK H PARENT 6 10 1 12
REMARK Flexibility Score: inf
ROOT
ATOM      1  C   UNL     1     130.852 127.474 140.129  1.00  0.00     0.048 A 
ATOM      2  C   UNL     1     131.965 127.755 140.943  1.00  0.00     0.030 A 
ATOM      3  C   UNL     1     132.415 129.072 140.997  1.00  0.00     0.046 A 
ATOM      4  C   UNL     1     131.806 130.071 140.285  1.00  0.00     0.003 A 
ATOM      5  C   UNL     1     132.483 131.241 140.553  1.00  0.00     0.028 A 
ATOM      6  C   UNL     1     133.496 130.879 141.436  1.00  0.00     0.083 A 
ATOM      7  N   UNL     1     133.450 129.554 141.704  1.00  0.00    -0.361 N 
ATOM      8  C   UNL     1     130.703 129.826 139.470  1.00  0.00     0.056 A 
ATOM      9  C   UNL     1     130.221 128.503 139.392  1.00  0.00     0.116 A 
ATOM     10  H   UNL     1     134.089 129.020 142.333  1.00  0.00     0.166 HD
ENDROOT
BRANCH   9  11
ATOM     11  O   UNL     1     129.122 128.197 138.593  1.00  0.00    -0.508 OA
ATOM     12  H   UNL     1     129.193 127.538 137.826  1.00  0.00     0.293 HD
ENDBRANCH   9  11
TORSDOF 1
ENDMDL
