MODEL 1
REMARK VINA RESULT:    -4.799      0.000      0.000
REMARK INTER + INTRA:          -6.003
REMARK INTER:                  -6.763
REMARK INTRA:                   0.760
REMARK UNBOUND:                 0.760
REMARK SMILES CC1=CCC(=C(C)C)C(=O)CC(C)=CCC1
REMARK SMILES IDX 12 1 14 2 13 3 15 4 16 5 2 6 1 7 3 8 11 10 9 11 10 12 5 13
REMARK SMILES IDX 6 14 7 15 8 16 4 17
REMARK H PARENT
REMARK Flexibility Score: 60.00
ROOT
ATOM      1  C   UNL     1      17.478 -31.738  22.125  1.00  0.00    -0.070 C 
ATOM      2  C   UNL     1      18.049 -31.952  20.919  1.00  0.00    -0.027 C 
ATOM      3  C   UNL     1      17.225 -30.312  22.544  1.00  0.00     0.039 C 
ENDROOT
BRANCH   2   4
ATOM      4  C   UNL     1      18.469 -33.297  20.366  1.00  0.00     0.032 C 
BRANCH   4   5
ATOM      5  C   UNL     1      17.512 -33.889  19.310  1.00  0.00     0.034 C 
BRANCH   5   6
ATOM      6  C   UNL     1      16.590 -34.956  19.871  1.00  0.00    -0.077 C 
ATOM      7  C   UNL     1      17.056 -36.389  19.808  1.00  0.00     0.039 C 
ATOM      8  C   UNL     1      15.349 -34.713  20.360  1.00  0.00    -0.023 CG0
ATOM      9  G   UNL     1      14.684 -33.363  20.536  1.00  0.00     0.000 G0
ENDBRANCH   5   6
ENDBRANCH   4   5
ENDBRANCH   2   4
BRANCH   1  10
ATOM     10  C   UNL     1      17.167 -32.851  23.106  1.00  0.00     0.111 C 
BRANCH  10  11
ATOM     11  C   UNL     1      15.819 -33.466  22.839  1.00  0.00     0.163 C 
ATOM     12  O   UNL     1      15.569 -34.593  23.347  1.00  0.00    -0.294 OA
BRANCH  11  13
ATOM     13  C   UNL     1      14.806 -32.822  21.952  1.00  0.00    -0.002 C 
ATOM     14  C   UNL     1      13.971 -31.851  22.433  1.00  0.00    -0.069 C 
ATOM     15  C   UNL     1      12.833 -31.293  21.606  1.00  0.00     0.039 C 
ATOM     16  C   UNL     1      14.146 -31.286  23.825  1.00  0.00     0.039 C 
BRANCH  13  17
ATOM     17  C   UNL     1      14.682 -33.357  20.534  1.00  0.00     0.066 CG0
ATOM     18  G   UNL     1      15.360 -34.701  20.363  1.00  0.00     0.000 G0
ENDBRANCH  13  17
ENDBRANCH  11  13
ENDBRANCH  10  11
ENDBRANCH   1  10
TORSDOF 0
ENDMDL
MODEL 2
REMARK VINA RESULT:    -4.770      2.200      4.249
REMARK INTER + INTRA:          -5.962
REMARK INTER:                  -6.349
REMARK INTRA:                   0.387
REMARK UNBOUND:                 0.760
REMARK SMILES CC1=CCC(=C(C)C)C(=O)CC(C)=CCC1
REMARK SMILES IDX 12 1 14 2 13 3 15 4 16 5 2 6 1 7 3 8 11 10 9 11 10 12 5 13
REMARK SMILES IDX 6 14 7 15 8 16 4 17
REMARK H PARENT
REMARK Flexibility Score: 60.00
ROOT
ATOM      1  C   UNL     1      13.807 -30.827  23.374  1.00  0.00    -0.070 C 
ATOM      2  C   UNL     1      13.463 -31.959  24.030  1.00  0.00    -0.027 C 
ATOM      3  C   UNL     1      12.698 -29.919  22.905  1.00  0.00     0.039 C 
ENDROOT
BRANCH   2   4
ATOM      4  C   UNL     1      14.419 -33.038  24.490  1.00  0.00     0.032 C 
BRANCH   4   5
ATOM      5  C   UNL     1      14.939 -33.962  23.369  1.00  0.00     0.034 C 
BRANCH   5   6
ATOM      6  C   UNL     1      16.420 -34.275  23.492  1.00  0.00    -0.077 C 
ATOM      7  C   UNL     1      16.881 -35.014  24.723  1.00  0.00     0.039 C 
ATOM      8  C   UNL     1      17.361 -33.873  22.603  1.00  0.00    -0.023 CG0
ATOM      9  G   UNL     1      17.132 -33.142  21.296  1.00  0.00     0.000 G0
ENDBRANCH   5   6
ENDBRANCH   4   5
ENDBRANCH   2   4
BRANCH   1  10
ATOM     10  C   UNL     1      15.236 -30.479  23.012  1.00  0.00     0.111 C 
BRANCH  10  11
ATOM     11  C   UNL     1      15.639 -31.092  21.697  1.00  0.00     0.163 C 
ATOM     12  O   UNL     1      14.767 -31.179  20.789  1.00  0.00    -0.294 OA
BRANCH  11  13
ATOM     13  C   UNL     1      17.002 -31.651  21.457  1.00  0.00    -0.002 C 
ATOM     14  C   UNL     1      18.081 -30.823  21.306  1.00  0.00    -0.069 C 
ATOM     15  C   UNL     1      19.443 -31.347  20.907  1.00  0.00     0.039 C 
ATOM     16  C   UNL     1      17.962 -29.331  21.532  1.00  0.00     0.039 C 
BRANCH  13  17
ATOM     17  C   UNL     1      17.119 -33.158  21.296  1.00  0.00     0.066 CG0
ATOM     18  G   UNL     1      17.352 -33.863  22.617  1.00  0.00     0.000 G0
ENDBRANCH  13  17
ENDBRANCH  11  13
ENDBRANCH  10  11
ENDBRANCH   1  10
TORSDOF 0
ENDMDL
MODEL 3
REMARK VINA RESULT:    -4.744      2.175      3.846
REMARK INTER + INTRA:          -5.926
REMARK INTER:                  -6.105
REMARK INTRA:                   0.180
REMARK UNBOUND:                 0.760
REMARK SMILES CC1=CCC(=C(C)C)C(=O)CC(C)=CCC1
REMARK SMILES IDX 12 1 14 2 13 3 15 4 16 5 2 6 1 7 3 8 11 10 9 11 10 12 5 13
REMARK SMILES IDX 6 14 7 15 8 16 4 17
REMARK H PARENT
REMARK Flexibility Score: 60.00
ROOT
ATOM      1  C   UNL     1      14.610 -32.941  21.931  1.00  0.00    -0.070 C 
ATOM      2  C   UNL     1      14.643 -33.269  20.620  1.00  0.00    -0.027 C 
ATOM      3  C   UNL     1      14.088 -31.576  22.304  1.00  0.00     0.039 C 
ENDROOT
BRANCH   2   4
ATOM      4  C   UNL     1      15.219 -34.544  20.042  1.00  0.00     0.032 C 
BRANCH   4   5
ATOM      5  C   UNL     1      16.723 -34.480  19.706  1.00  0.00     0.034 C 
BRANCH   5   6
ATOM      6  C   UNL     1      17.491 -35.708  20.163  1.00  0.00    -0.077 C 
ATOM      7  C   UNL     1      17.308 -36.982  19.376  1.00  0.00     0.039 C 
ATOM      8  C   UNL     1      18.274 -35.751  21.268  1.00  0.00    -0.023 CG0
ATOM      9  G   UNL     1      18.616 -34.600  22.192  1.00  0.00     0.000 G0
ENDBRANCH   5   6
ENDBRANCH   4   5
ENDBRANCH   2   4
BRANCH   1  10
ATOM     10  C   UNL     1      15.154 -33.836  23.025  1.00  0.00     0.111 C 
BRANCH  10  11
ATOM     11  C   UNL     1      16.584 -33.500  23.357  1.00  0.00     0.163 C 
ATOM     12  O   UNL     1      16.879 -32.289  23.555  1.00  0.00    -0.294 OA
BRANCH  11  13
ATOM     13  C   UNL     1      17.663 -34.531  23.395  1.00  0.00    -0.002 C 
ATOM     14  C   UNL     1      17.842 -35.315  24.501  1.00  0.00    -0.069 C 
ATOM     15  C   UNL     1      19.019 -36.257  24.633  1.00  0.00     0.039 C 
ATOM     16  C   UNL     1      16.864 -35.277  25.656  1.00  0.00     0.039 C 
BRANCH  13  17
ATOM     17  C   UNL     1      18.600 -34.603  22.200  1.00  0.00     0.066 CG0
ATOM     18  G   UNL     1      18.255 -35.745  21.265  1.00  0.00     0.000 G0
ENDBRANCH  13  17
ENDBRANCH  11  13
ENDBRANCH  10  11
ENDBRANCH   1  10
TORSDOF 0
ENDMDL
MODEL 4
REMARK VINA RESULT:    -4.742      2.053      4.042
REMARK INTER + INTRA:          -5.923
REMARK INTER:                  -6.097
REMARK INTRA:                   0.174
REMARK UNBOUND:                 0.760
REMARK SMILES CC1=CCC(=C(C)C)C(=O)CC(C)=CCC1
REMARK SMILES IDX 12 1 14 2 13 3 15 4 16 5 2 6 1 7 3 8 11 10 9 11 10 12 5 13
REMARK SMILES IDX 6 14 7 15 8 16 4 17
REMARK H PARENT
REMARK Flexibility Score: 60.00
ROOT
ATOM      1  C   UNL     1      14.157 -30.850  21.797  1.00  0.00    -0.070 C 
ATOM      2  C   UNL     1      13.662 -32.079  21.526  1.00  0.00    -0.027 C 
ATOM      3  C   UNL     1      13.273 -29.880  22.538  1.00  0.00     0.039 C 
ENDROOT
BRANCH   2   4
ATOM      4  C   UNL     1      14.354 -33.151  20.713  1.00  0.00     0.032 C 
BRANCH   4   5
ATOM      5  C   UNL     1      15.389 -33.988  21.493  1.00  0.00     0.034 C 
BRANCH   5   6
ATOM      6  C   UNL     1      16.720 -34.117  20.773  1.00  0.00    -0.077 C 
ATOM      7  C   UNL     1      16.769 -34.986  19.542  1.00  0.00     0.039 C 
ATOM      8  C   UNL     1      17.877 -33.557  21.202  1.00  0.00    -0.023 CG0
ATOM      9  G   UNL     1      18.063 -32.637  22.392  1.00  0.00     0.000 G0
ENDBRANCH   5   6
ENDBRANCH   4   5
ENDBRANCH   2   4
BRANCH   1  10
ATOM     10  C   UNL     1      15.513 -30.376  21.314  1.00  0.00     0.111 C 
BRANCH  10  11
ATOM     11  C   UNL     1      16.572 -30.556  22.369  1.00  0.00     0.163 C 
ATOM     12  O   UNL     1      16.335 -30.120  23.529  1.00  0.00    -0.294 OA
BRANCH  11  13
ATOM     13  C   UNL     1      17.901 -31.167  22.074  1.00  0.00    -0.002 C 
ATOM     14  C   UNL     1      18.881 -30.444  21.451  1.00  0.00    -0.069 C 
ATOM     15  C   UNL     1      20.179 -31.077  20.998  1.00  0.00     0.039 C 
ATOM     16  C   UNL     1      18.713 -28.964  21.183  1.00  0.00     0.039 C 
BRANCH  13  17
ATOM     17  C   UNL     1      18.080 -32.640  22.407  1.00  0.00     0.066 CG0
ATOM     18  G   UNL     1      17.881 -33.532  21.199  1.00  0.00     0.000 G0
ENDBRANCH  13  17
ENDBRANCH  11  13
ENDBRANCH  10  11
ENDBRANCH   1  10
TORSDOF 0
ENDMDL
MODEL 5
REMARK VINA RESULT:    -4.734      1.889      2.415
REMARK INTER + INTRA:          -5.912
REMARK INTER:                  -6.054
REMARK INTRA:                   0.142
REMARK UNBOUND:                 0.760
REMARK SMILES CC1=CCC(=C(C)C)C(=O)CC(C)=CCC1
REMARK SMILES IDX 12 1 14 2 13 3 15 4 16 5 2 6 1 7 3 8 11 10 9 11 10 12 5 13
REMARK SMILES IDX 6 14 7 15 8 16 4 17
REMARK H PARENT
REMARK Flexibility Score: 60.00
ROOT
ATOM      1  C   UNL     1      19.077 -31.318  21.460  1.00  0.00    -0.070 C 
ATOM      2  C   UNL     1      19.378 -32.538  20.960  1.00  0.00    -0.027 C 
ATOM      3  C   UNL     1      20.194 -30.512  22.074  1.00  0.00     0.039 C 
ENDROOT
BRANCH   2   4
ATOM      4  C   UNL     1      18.385 -33.530  20.396  1.00  0.00     0.032 C 
BRANCH   4   5
ATOM      5  C   UNL     1      17.710 -34.438  21.445  1.00  0.00     0.034 C 
BRANCH   5   6
ATOM      6  C   UNL     1      16.197 -34.468  21.326  1.00  0.00    -0.077 C 
ATOM      7  C   UNL     1      15.599 -35.225  20.166  1.00  0.00     0.039 C 
ATOM      8  C   UNL     1      15.353 -33.802  22.152  1.00  0.00    -0.023 CG0
ATOM      9  G   UNL     1      15.722 -33.000  23.383  1.00  0.00     0.000 G0
ENDBRANCH   5   6
ENDBRANCH   4   5
ENDBRANCH   2   4
BRANCH   1  10
ATOM     10  C   UNL     1      17.667 -30.767  21.516  1.00  0.00     0.111 C 
BRANCH  10  11
ATOM     11  C   UNL     1      17.075 -30.895  22.895  1.00  0.00     0.163 C 
ATOM     12  O   UNL     1      17.770 -30.514  23.877  1.00  0.00    -0.294 OA
BRANCH  11  13
ATOM     13  C   UNL     1      15.737 -31.508  23.140  1.00  0.00    -0.002 C 
ATOM     14  C   UNL     1      14.614 -30.731  23.213  1.00  0.00    -0.069 C 
ATOM     15  C   UNL     1      13.270 -31.300  23.615  1.00  0.00     0.039 C 
ATOM     16  C   UNL     1      14.662 -29.253  22.894  1.00  0.00     0.039 C 
BRANCH  13  17
ATOM     17  C   UNL     1      15.694 -33.007  23.396  1.00  0.00     0.066 CG0
ATOM     18  G   UNL     1      15.349 -33.795  22.149  1.00  0.00     0.000 G0
ENDBRANCH  13  17
ENDBRANCH  11  13
ENDBRANCH  10  11
ENDBRANCH   1  10
TORSDOF 0
ENDMDL
MODEL 6
REMARK VINA RESULT:    -4.651      2.219      4.796
REMARK INTER + INTRA:          -5.794
REMARK INTER:                  -6.010
REMARK INTRA:                   0.216
REMARK UNBOUND:                 0.760
REMARK SMILES CC1=CCC(=C(C)C)C(=O)CC(C)=CCC1
REMARK SMILES IDX 12 1 14 2 13 3 15 4 16 5 2 6 1 7 3 8 11 10 9 11 10 12 5 13
REMARK SMILES IDX 6 14 7 15 8 16 4 17
REMARK H PARENT
REMARK Flexibility Score: 60.00
ROOT
ATOM      1  C   UNL     1      15.943 -34.777  20.767  1.00  0.00    -0.070 C 
ATOM      2  C   UNL     1      14.996 -33.957  20.258  1.00  0.00    -0.027 C 
ATOM      3  C   UNL     1      16.495 -35.858  19.873  1.00  0.00     0.039 C 
ENDROOT
BRANCH   2   4
ATOM      4  C   UNL     1      14.256 -32.881  21.023  1.00  0.00     0.032 C 
BRANCH   4   5
ATOM      5  C   UNL     1      15.101 -31.639  21.375  1.00  0.00     0.034 C 
BRANCH   5   6
ATOM      6  C   UNL     1      15.081 -31.302  22.855  1.00  0.00    -0.077 C 
ATOM      7  C   UNL     1      13.753 -30.947  23.475  1.00  0.00     0.039 C 
ATOM      8  C   UNL     1      16.186 -31.232  23.637  1.00  0.00    -0.023 CG0
ATOM      9  G   UNL     1      17.610 -31.561  23.239  1.00  0.00     0.000 G0
ENDBRANCH   5   6
ENDBRANCH   4   5
ENDBRANCH   2   4
BRANCH   1  10
ATOM     10  C   UNL     1      16.405 -34.719  22.209  1.00  0.00     0.111 C 
BRANCH  10  11
ATOM     11  C   UNL     1      17.712 -33.982  22.344  1.00  0.00     0.163 C 
ATOM     12  O   UNL     1      18.622 -34.229  21.506  1.00  0.00    -0.294 OA
BRANCH  11  13
ATOM     13  C   UNL     1      17.984 -33.030  23.461  1.00  0.00    -0.002 C 
ATOM     14  C   UNL     1      18.453 -33.480  24.664  1.00  0.00    -0.069 C 
ATOM     15  C   UNL     1      18.590 -32.566  25.863  1.00  0.00     0.039 C 
ATOM     16  C   UNL     1      18.861 -34.924  24.856  1.00  0.00     0.039 C 
BRANCH  13  17
ATOM     17  C   UNL     1      17.629 -31.569  23.233  1.00  0.00     0.066 CG0
ATOM     18  G   UNL     1      16.201 -31.254  23.631  1.00  0.00     0.000 G0
ENDBRANCH  13  17
ENDBRANCH  11  13
ENDBRANCH  10  11
ENDBRANCH   1  10
TORSDOF 0
ENDMDL
MODEL 7
REMARK VINA RESULT:    -4.630      2.076      4.110
REMARK INTER + INTRA:          -5.765
REMARK INTER:                  -5.950
REMARK INTRA:                   0.184
REMARK UNBOUND:                 0.760
REMARK SMILES CC1=CCC(=C(C)C)C(=O)CC(C)=CCC1
REMARK SMILES IDX 12 1 14 2 13 3 15 4 16 5 2 6 1 7 3 8 11 10 9 11 10 12 5 13
REMARK SMILES IDX 6 14 7 15 8 16 4 17
REMARK H PARENT
REMARK Flexibility Score: 60.00
ROOT
ATOM      1  C   UNL     1      15.455 -31.083  23.146  1.00  0.00    -0.070 C 
ATOM      2  C   UNL     1      16.032 -30.124  22.386  1.00  0.00    -0.027 C 
ATOM      3  C   UNL     1      13.990 -30.941  23.468  1.00  0.00     0.039 C 
ENDROOT
BRANCH   2   4
ATOM      4  C   UNL     1      17.502 -30.039  22.038  1.00  0.00     0.032 C 
BRANCH   4   5
ATOM      5  C   UNL     1      17.947 -30.954  20.878  1.00  0.00     0.034 C 
BRANCH   5   6
ATOM      6  C   UNL     1      19.174 -31.784  21.209  1.00  0.00    -0.077 C 
ATOM      7  C   UNL     1      20.490 -31.062  21.357  1.00  0.00     0.039 C 
ATOM      8  C   UNL     1      19.176 -33.136  21.311  1.00  0.00    -0.023 CG0
ATOM      9  G   UNL     1      17.981 -34.062  21.220  1.00  0.00     0.000 G0
ENDBRANCH   5   6
ENDBRANCH   4   5
ENDBRANCH   2   4
BRANCH   1  10
ATOM     10  C   UNL     1      16.228 -32.233  23.760  1.00  0.00     0.111 C 
BRANCH  10  11
ATOM     11  C   UNL     1      16.132 -33.478  22.917  1.00  0.00     0.163 C 
ATOM     12  O   UNL     1      14.989 -33.847  22.532  1.00  0.00    -0.294 OA
BRANCH  11  13
ATOM     13  C   UNL     1      17.323 -34.313  22.583  1.00  0.00    -0.002 C 
ATOM     14  C   UNL     1      17.835 -35.196  23.494  1.00  0.00    -0.069 C 
ATOM     15  C   UNL     1      19.130 -35.940  23.246  1.00  0.00     0.039 C 
ATOM     16  C   UNL     1      17.128 -35.472  24.802  1.00  0.00     0.039 C 
BRANCH  13  17
ATOM     17  C   UNL     1      17.987 -34.071  21.237  1.00  0.00     0.066 CG0
ATOM     18  G   UNL     1      19.167 -33.126  21.338  1.00  0.00     0.000 G0
ENDBRANCH  13  17
ENDBRANCH  11  13
ENDBRANCH  10  11
ENDBRANCH   1  10
TORSDOF 0
ENDMDL
MODEL 8
REMARK VINA RESULT:    -4.568      1.476      3.935
REMARK INTER + INTRA:          -5.678
REMARK INTER:                  -6.124
REMARK INTRA:                   0.447
REMARK UNBOUND:                 0.760
REMARK SMILES CC1=CCC(=C(C)C)C(=O)CC(C)=CCC1
REMARK SMILES IDX 12 1 14 2 13 3 15 4 16 5 2 6 1 7 3 8 11 10 9 11 10 12 5 13
REMARK SMILES IDX 6 14 7 15 8 16 4 17
REMARK H PARENT
REMARK Flexibility Score: 60.00
ROOT
ATOM      1  C   UNL     1      17.966 -31.746  23.774  1.00  0.00    -0.070 C 
ATOM      2  C   UNL     1      17.172 -30.745  23.331  1.00  0.00    -0.027 C 
ATOM      3  C   UNL     1      18.448 -31.685  25.201  1.00  0.00     0.039 C 
ENDROOT
BRANCH   2   4
ATOM      4  C   UNL     1      16.669 -30.578  21.914  1.00  0.00     0.032 C 
BRANCH   4   5
ATOM      5  C   UNL     1      15.138 -30.690  21.753  1.00  0.00     0.034 C 
BRANCH   5   6
ATOM      6  C   UNL     1      14.540 -31.856  22.518  1.00  0.00    -0.077 C 
ATOM      7  C   UNL     1      13.633 -31.541  23.681  1.00  0.00     0.039 C 
ATOM      8  C   UNL     1      14.822 -33.158  22.267  1.00  0.00    -0.023 CG0
ATOM      9  G   UNL     1      15.682 -33.709  21.148  1.00  0.00     0.000 G0
ENDBRANCH   5   6
ENDBRANCH   4   5
ENDBRANCH   2   4
BRANCH   1  10
ATOM     10  C   UNL     1      18.464 -32.867  22.884  1.00  0.00     0.111 C 
BRANCH  10  11
ATOM     11  C   UNL     1      17.531 -34.049  22.906  1.00  0.00     0.163 C 
ATOM     12  O   UNL     1      17.375 -34.663  23.997  1.00  0.00    -0.294 OA
BRANCH  11  13
ATOM     13  C   UNL     1      16.842 -34.549  21.680  1.00  0.00    -0.002 C 
ATOM     14  C   UNL     1      17.299 -35.661  21.026  1.00  0.00    -0.069 C 
ATOM     15  C   UNL     1      16.723 -36.102  19.698  1.00  0.00     0.039 C 
ATOM     16  C   UNL     1      18.410 -36.509  21.605  1.00  0.00     0.039 C 
BRANCH  13  17
ATOM     17  C   UNL     1      15.685 -33.722  21.144  1.00  0.00     0.066 CG0
ATOM     18  G   UNL     1      14.814 -33.164  22.251  1.00  0.00     0.000 G0
ENDBRANCH  13  17
ENDBRANCH  11  13
ENDBRANCH  10  11
ENDBRANCH   1  10
TORSDOF 0
ENDMDL
MODEL 9
REMARK VINA RESULT:    -4.528      2.070      3.832
REMARK INTER + INTRA:          -5.622
REMARK INTER:                  -5.810
REMARK INTRA:                   0.189
REMARK UNBOUND:                 0.760
REMARK SMILES CC1=CCC(=C(C)C)C(=O)CC(C)=CCC1
REMARK SMILES IDX 12 1 14 2 13 3 15 4 16 5 2 6 1 7 3 8 11 10 9 11 10 12 5 13
REMARK SMILES IDX 6 14 7 15 8 16 4 17
REMARK H PARENT
REMARK Flexibility Score: 60.00
ROOT
ATOM      1  C   UNL     1      14.634 -32.800  21.239  1.00  0.00    -0.070 C 
ATOM      2  C   UNL     1      14.531 -33.734  20.266  1.00  0.00    -0.027 C 
ATOM      3  C   UNL     1      13.725 -31.600  21.165  1.00  0.00     0.039 C 
ENDROOT
BRANCH   2   4
ATOM      4  C   UNL     1      15.417 -34.951  20.113  1.00  0.00     0.032 C 
BRANCH   4   5
ATOM      5  C   UNL     1      16.818 -34.664  19.534  1.00  0.00     0.034 C 
BRANCH   5   6
ATOM      6  C   UNL     1      17.936 -35.328  20.318  1.00  0.00    -0.077 C 
ATOM      7  C   UNL     1      17.955 -36.835  20.372  1.00  0.00     0.039 C 
ATOM      8  C   UNL     1      18.875 -34.655  21.026  1.00  0.00    -0.023 CG0
ATOM      9  G   UNL     1      19.062 -33.153  21.103  1.00  0.00     0.000 G0
ENDBRANCH   5   6
ENDBRANCH   4   5
ENDBRANCH   2   4
BRANCH   1  10
ATOM     10  C   UNL     1      15.675 -32.858  22.339  1.00  0.00     0.111 C 
BRANCH  10  11
ATOM     11  C   UNL     1      16.901 -32.058  21.984  1.00  0.00     0.163 C 
ATOM     12  O   UNL     1      16.742 -30.969  21.367  1.00  0.00    -0.294 OA
BRANCH  11  13
ATOM     13  C   UNL     1      18.283 -32.537  22.278  1.00  0.00    -0.002 C 
ATOM     14  C   UNL     1      18.840 -32.352  23.514  1.00  0.00    -0.069 C 
ATOM     15  C   UNL     1      20.289 -32.683  23.798  1.00  0.00     0.039 C 
ATOM     16  C   UNL     1      18.026 -31.802  24.665  1.00  0.00     0.039 C 
BRANCH  13  17
ATOM     17  C   UNL     1      19.069 -33.147  21.128  1.00  0.00     0.066 CG0
ATOM     18  G   UNL     1      18.875 -34.646  21.028  1.00  0.00     0.000 G0
ENDBRANCH  13  17
ENDBRANCH  11  13
ENDBRANCH  10  11
ENDBRANCH   1  10
TORSDOF 0
ENDMDL
