MODEL 1
REMARK VINA RESULT:    -1.266      0.000      0.000
REMARK INTER + INTRA:          -2.142
REMARK INTER:                  -1.932
REMARK INTRA:                  -0.209
REMARK UNBOUND:                -0.209
REMARK SMILES CC(=O)CCC=C(C)CCC=C(C)CCC=C(C)C
REMARK SMILES IDX 10 1 11 2 12 3 13 4 14 5 15 6 16 7 18 8 17 9 19 10 9 11 7 12
REMARK SMILES IDX 6 13 8 14 5 15 4 16 2 17 3 18 1 19
REMARK H PARENT
REMARK Flexibility Score: inf
ROOT
ATOM      1  C   UNL     1      32.008  23.522  26.945  1.00  0.00     0.032 C 
ENDROOT
BRANCH   1   2
ATOM      2  C   UNL     1      31.728  24.304  28.206  1.00  0.00    -0.028 C 
ATOM      3  C   UNL     1      30.682  24.038  29.019  1.00  0.00    -0.077 C 
ATOM      4  C   UNL     1      29.703  22.931  28.708  1.00  0.00     0.039 C 
BRANCH   3   5
ATOM      5  C   UNL     1      30.489  24.867  30.273  1.00  0.00     0.034 C 
BRANCH   5   6
ATOM      6  C   UNL     1      31.480  24.473  31.378  1.00  0.00     0.032 C 
BRANCH   6   7
ATOM      7  C   UNL     1      30.891  24.673  32.755  1.00  0.00    -0.028 C 
ATOM      8  C   UNL     1      30.879  25.125  35.169  1.00  0.00     0.039 C 
ATOM      9  C   UNL     1      31.615  24.894  33.874  1.00  0.00    -0.080 C 
ATOM     10  C   UNL     1      33.125  24.896  33.866  1.00  0.00     0.039 C 
ENDBRANCH   6   7
ENDBRANCH   5   6
ENDBRANCH   3   5
ENDBRANCH   1   2
BRANCH   1  11
ATOM     11  C   UNL     1      33.145  22.516  27.156  1.00  0.00     0.034 C 
BRANCH  11  12
ATOM     12  C   UNL     1      34.356  23.193  27.759  1.00  0.00    -0.077 C 
ATOM     13  C   UNL     1      34.175  24.252  28.582  1.00  0.00    -0.028 C 
ATOM     14  C   UNL     1      35.732  22.657  27.442  1.00  0.00     0.039 C 
BRANCH  13  15
ATOM     15  C   UNL     1      35.293  25.050  29.202  1.00  0.00     0.035 C 
BRANCH  15  16
ATOM     16  C   UNL     1      35.161  25.068  30.727  1.00  0.00     0.079 C 
BRANCH  16  17
ATOM     17  C   UNL     1      36.425  24.578  31.378  1.00  0.00     0.130 C 
ATOM     18  O   UNL     1      37.093  23.712  30.831  1.00  0.00    -0.300 OA
ATOM     19  C   UNL     1      36.858  25.125  32.704  1.00  0.00     0.087 C 
ENDBRANCH  16  17
ENDBRANCH  15  16
ENDBRANCH  13  15
ENDBRANCH  11  12
ENDBRANCH   1  11
TORSDOF 9
ENDMDL
