MODEL 1
REMARK VINA RESULT:    -6.182      0.000      0.000
REMARK INTER + INTRA:          -9.440
REMARK INTER:                  -8.531
REMARK INTRA:                  -0.909
REMARK UNBOUND:                -0.909
REMARK SMILES CCCCc1cccc(O)c1CCCC
REMARK SMILES IDX 5 1 11 2 9 3 8 4 7 5 6 6 4 7 3 8 2 9 1 10 12 11 13 12 14 13
REMARK SMILES IDX 15 14 10 15
REMARK H PARENT 10 16
REMARK Flexibility Score: inf
ROOT
ATOM      1  C   UNL     1     370.594 242.573 276.772  1.00  0.00    -0.041 A 
ATOM      2  C   UNL     1     371.546 241.968 275.902  1.00  0.00    -0.003 A 
ATOM      3  C   UNL     1     371.390 240.608 275.552  1.00  0.00     0.119 A 
ATOM      4  C   UNL     1     370.299 239.875 276.034  1.00  0.00     0.046 A 
ATOM      5  C   UNL     1     369.364 240.475 276.872  1.00  0.00     0.004 A 
ATOM      6  C   UNL     1     369.510 241.810 277.241  1.00  0.00     0.004 A 
ENDROOT
BRANCH   1   7
ATOM      7  C   UNL     1     370.680 244.026 277.198  1.00  0.00     0.036 C 
BRANCH   7   8
ATOM      8  C   UNL     1     369.424 244.485 277.957  1.00  0.00     0.004 C 
BRANCH   8   9
ATOM      9  C   UNL     1     368.569 245.464 277.139  1.00  0.00    -0.003 C 
ATOM     10  C   UNL     1     367.232 244.837 276.754  1.00  0.00     0.004 C 
ENDBRANCH   8   9
ENDBRANCH   7   8
ENDBRANCH   1   7
BRANCH   2  11
ATOM     11  C   UNL     1     372.766 242.717 275.399  1.00  0.00     0.040 C 
BRANCH  11  12
ATOM     12  C   UNL     1     373.875 242.715 276.457  1.00  0.00     0.005 C 
BRANCH  12  13
ATOM     13  C   UNL     1     374.436 244.125 276.670  1.00  0.00    -0.003 C 
ATOM     14  C   UNL     1     374.030 245.057 275.532  1.00  0.00     0.004 C 
ENDBRANCH  12  13
ENDBRANCH  11  12
ENDBRANCH   2  11
BRANCH   3  15
ATOM     15  O   UNL     1     372.327 239.983 274.727  1.00  0.00    -0.508 OA
ATOM     16  H   UNL     1     373.141 240.474 274.379  1.00  0.00     0.293 HD
ENDBRANCH   3  15
TORSDOF 7
ENDMDL
MODEL 2
REMARK VINA RESULT:    -6.168      1.776      4.257
REMARK INTER + INTRA:          -9.420
REMARK INTER:                  -8.118
REMARK INTRA:                  -1.303
REMARK UNBOUND:                -0.909
REMARK SMILES CCCCc1cccc(O)c1CCCC
REMARK SMILES IDX 5 1 11 2 9 3 8 4 7 5 6 6 4 7 3 8 2 9 1 10 12 11 13 12 14 13
REMARK SMILES IDX 15 14 10 15
REMARK H PARENT 10 16
REMARK Flexibility Score: inf
ROOT
ATOM      1  C   UNL     1     371.870 241.605 275.943  1.00  0.00    -0.041 A 
ATOM      2  C   UNL     1     372.334 242.900 276.312  1.00  0.00    -0.003 A 
ATOM      3  C   UNL     1     373.694 243.070 276.657  1.00  0.00     0.119 A 
ATOM      4  C   UNL     1     374.576 241.984 276.609  1.00  0.00     0.046 A 
ATOM      5  C   UNL     1     374.120 240.724 276.234  1.00  0.00     0.004 A 
ATOM      6  C   UNL     1     372.780 240.534 275.907  1.00  0.00     0.004 A 
ENDROOT
BRANCH   1   7
ATOM      7  C   UNL     1     370.430 241.329 275.554  1.00  0.00     0.036 C 
BRANCH   7   8
ATOM      8  C   UNL     1     369.854 240.104 276.282  1.00  0.00     0.004 C 
BRANCH   8   9
ATOM      9  C   UNL     1     368.849 240.490 277.377  1.00  0.00    -0.003 C 
ATOM     10  C   UNL     1     369.547 240.687 278.720  1.00  0.00     0.004 C 
ENDBRANCH   8   9
ENDBRANCH   7   8
ENDBRANCH   1   7
BRANCH   2  11
ATOM     11  C   UNL     1     371.397 244.089 276.422  1.00  0.00     0.040 C 
BRANCH  11  12
ATOM     12  C   UNL     1     370.693 244.099 277.783  1.00  0.00     0.005 C 
BRANCH  12  13
ATOM     13  C   UNL     1     369.378 244.882 277.718  1.00  0.00    -0.003 C 
ATOM     14  C   UNL     1     368.252 244.023 277.149  1.00  0.00     0.004 C 
ENDBRANCH  12  13
ENDBRANCH  11  12
ENDBRANCH   2  11
BRANCH   3  15
ATOM     15  O   UNL     1     374.166 244.322 277.054  1.00  0.00    -0.508 OA
ATOM     16  H   UNL     1     375.061 244.431 277.516  1.00  0.00     0.293 HD
ENDBRANCH   3  15
TORSDOF 7
ENDMDL
MODEL 3
REMARK VINA RESULT:    -6.025      1.268      3.734
REMARK INTER + INTRA:          -9.223
REMARK INTER:                  -8.245
REMARK INTRA:                  -0.977
REMARK UNBOUND:                -0.909
REMARK SMILES CCCCc1cccc(O)c1CCCC
REMARK SMILES IDX 5 1 11 2 9 3 8 4 7 5 6 6 4 7 3 8 2 9 1 10 12 11 13 12 14 13
REMARK SMILES IDX 15 14 10 15
REMARK H PARENT 10 16
REMARK Flexibility Score: inf
ROOT
ATOM      1  C   UNL     1     370.958 243.501 277.147  1.00  0.00    -0.041 A 
ATOM      2  C   UNL     1     370.846 242.237 276.501  1.00  0.00    -0.003 A 
ATOM      3  C   UNL     1     371.868 241.823 275.618  1.00  0.00     0.119 A 
ATOM      4  C   UNL     1     372.989 242.634 275.405  1.00  0.00     0.046 A 
ATOM      5  C   UNL     1     373.101 243.862 276.049  1.00  0.00     0.004 A 
ATOM      6  C   UNL     1     372.095 244.295 276.910  1.00  0.00     0.004 A 
ENDROOT
BRANCH   1   7
ATOM      7  C   UNL     1     369.912 244.026 278.112  1.00  0.00     0.036 C 
BRANCH   7   8
ATOM      8  C   UNL     1     368.980 245.057 277.456  1.00  0.00     0.004 C 
BRANCH   8   9
ATOM      9  C   UNL     1     367.653 244.438 276.994  1.00  0.00    -0.003 C 
ATOM     10  C   UNL     1     366.756 245.485 276.338  1.00  0.00     0.004 C 
ENDBRANCH   8   9
ENDBRANCH   7   8
ENDBRANCH   1   7
BRANCH   2  11
ATOM     11  C   UNL     1     369.624 241.353 276.670  1.00  0.00     0.040 C 
BRANCH  11  12
ATOM     12  C   UNL     1     369.816 240.384 277.842  1.00  0.00     0.005 C 
BRANCH  12  13
ATOM     13  C   UNL     1     368.820 240.678 278.970  1.00  0.00    -0.003 C 
ATOM     14  C   UNL     1     369.543 240.966 280.282  1.00  0.00     0.004 C 
ENDBRANCH  12  13
ENDBRANCH  11  12
ENDBRANCH   2  11
BRANCH   3  15
ATOM     15  O   UNL     1     371.766 240.603 274.947  1.00  0.00    -0.508 OA
ATOM     16  H   UNL     1     371.527 239.747 275.433  1.00  0.00     0.293 HD
ENDBRANCH   3  15
TORSDOF 7
ENDMDL
MODEL 4
REMARK VINA RESULT:    -5.972      1.677      4.653
REMARK INTER + INTRA:          -9.150
REMARK INTER:                  -8.547
REMARK INTRA:                  -0.603
REMARK UNBOUND:                -0.909
REMARK SMILES CCCCc1cccc(O)c1CCCC
REMARK SMILES IDX 5 1 11 2 9 3 8 4 7 5 6 6 4 7 3 8 2 9 1 10 12 11 13 12 14 13
REMARK SMILES IDX 15 14 10 15
REMARK H PARENT 10 16
REMARK Flexibility Score: inf
ROOT
ATOM      1  C   UNL     1     371.146 242.702 276.422  1.00  0.00    -0.041 A 
ATOM      2  C   UNL     1     370.138 242.540 277.415  1.00  0.00    -0.003 A 
ATOM      3  C   UNL     1     369.404 241.332 277.459  1.00  0.00     0.119 A 
ATOM      4  C   UNL     1     369.686 240.302 276.555  1.00  0.00     0.046 A 
ATOM      5  C   UNL     1     370.682 240.460 275.596  1.00  0.00     0.004 A 
ATOM      6  C   UNL     1     371.403 241.649 275.526  1.00  0.00     0.004 A 
ENDROOT
BRANCH   1   7
ATOM      7  C   UNL     1     371.983 243.961 276.302  1.00  0.00     0.036 C 
BRANCH   7   8
ATOM      8  C   UNL     1     373.369 243.682 275.698  1.00  0.00     0.004 C 
BRANCH   8   9
ATOM      9  C   UNL     1     374.414 243.328 276.765  1.00  0.00    -0.003 C 
ATOM     10  C   UNL     1     374.708 241.830 276.771  1.00  0.00     0.004 C 
ENDBRANCH   8   9
ENDBRANCH   7   8
ENDBRANCH   1   7
BRANCH   2  11
ATOM     11  C   UNL     1     369.772 243.652 278.380  1.00  0.00     0.040 C 
BRANCH  11  12
ATOM     12  C   UNL     1     369.100 244.812 277.638  1.00  0.00     0.005 C 
BRANCH  12  13
ATOM     13  C   UNL     1     367.782 244.365 276.995  1.00  0.00    -0.003 C 
ATOM     14  C   UNL     1     366.971 245.563 276.510  1.00  0.00     0.004 C 
ENDBRANCH  12  13
ENDBRANCH  11  12
ENDBRANCH   2  11
BRANCH   3  15
ATOM     15  O   UNL     1     368.389 241.161 278.402  1.00  0.00    -0.508 OA
ATOM     16  H   UNL     1     367.461 241.540 278.260  1.00  0.00     0.293 HD
ENDBRANCH   3  15
TORSDOF 7
ENDMDL
MODEL 5
REMARK VINA RESULT:    -5.869      1.845      4.468
REMARK INTER + INTRA:          -9.007
REMARK INTER:                  -8.037
REMARK INTRA:                  -0.970
REMARK UNBOUND:                -0.909
REMARK SMILES CCCCc1cccc(O)c1CCCC
REMARK SMILES IDX 5 1 11 2 9 3 8 4 7 5 6 6 4 7 3 8 2 9 1 10 12 11 13 12 14 13
REMARK SMILES IDX 15 14 10 15
REMARK H PARENT 10 16
REMARK Flexibility Score: inf
ROOT
ATOM      1  C   UNL     1     369.835 243.856 277.369  1.00  0.00    -0.041 A 
ATOM      2  C   UNL     1     369.209 242.577 277.390  1.00  0.00    -0.003 A 
ATOM      3  C   UNL     1     367.812 242.492 277.188  1.00  0.00     0.119 A 
ATOM      4  C   UNL     1     367.063 243.648 276.943  1.00  0.00     0.046 A 
ATOM      5  C   UNL     1     367.682 244.894 276.909  1.00  0.00     0.004 A 
ATOM      6  C   UNL     1     369.054 244.999 277.122  1.00  0.00     0.004 A 
ENDROOT
BRANCH   1   7
ATOM      7  C   UNL     1     371.326 244.043 277.573  1.00  0.00     0.036 C 
BRANCH   7   8
ATOM      8  C   UNL     1     372.107 243.980 276.250  1.00  0.00     0.004 C 
BRANCH   8   9
ATOM      9  C   UNL     1     373.492 243.338 276.417  1.00  0.00    -0.003 C 
ATOM     10  C   UNL     1     374.565 244.398 276.652  1.00  0.00     0.004 C 
ENDBRANCH   8   9
ENDBRANCH   7   8
ENDBRANCH   1   7
BRANCH   2  11
ATOM     11  C   UNL     1     369.981 241.309 277.701  1.00  0.00     0.040 C 
BRANCH  11  12
ATOM     12  C   UNL     1     370.351 240.570 276.409  1.00  0.00     0.005 C 
BRANCH  12  13
ATOM     13  C   UNL     1     371.772 240.001 276.487  1.00  0.00    -0.003 C 
ATOM     14  C   UNL     1     372.498 240.148 275.154  1.00  0.00     0.004 C 
ENDBRANCH  12  13
ENDBRANCH  11  12
ENDBRANCH   2  11
BRANCH   3  15
ATOM     15  O   UNL     1     367.170 241.254 277.237  1.00  0.00    -0.508 OA
ATOM     16  H   UNL     1     367.550 240.438 276.772  1.00  0.00     0.293 HD
ENDBRANCH   3  15
TORSDOF 7
ENDMDL
MODEL 6
REMARK VINA RESULT:    -5.740      2.311      4.317
REMARK INTER + INTRA:          -8.830
REMARK INTER:                  -7.584
REMARK INTRA:                  -1.246
REMARK UNBOUND:                -0.909
REMARK SMILES CCCCc1cccc(O)c1CCCC
REMARK SMILES IDX 5 1 11 2 9 3 8 4 7 5 6 6 4 7 3 8 2 9 1 10 12 11 13 12 14 13
REMARK SMILES IDX 15 14 10 15
REMARK H PARENT 10 16
REMARK Flexibility Score: inf
ROOT
ATOM      1  C   UNL     1     368.714 242.187 277.556  1.00  0.00    -0.041 A 
ATOM      2  C   UNL     1     368.953 243.591 277.571  1.00  0.00    -0.003 A 
ATOM      3  C   UNL     1     367.929 244.468 277.145  1.00  0.00     0.119 A 
ATOM      4  C   UNL     1     366.688 243.961 276.742  1.00  0.00     0.046 A 
ATOM      5  C   UNL     1     366.455 242.589 276.744  1.00  0.00     0.004 A 
ATOM      6  C   UNL     1     367.457 241.709 277.143  1.00  0.00     0.004 A 
ENDROOT
BRANCH   1   7
ATOM      7  C   UNL     1     369.752 241.174 277.998  1.00  0.00     0.036 C 
BRANCH   7   8
ATOM      8  C   UNL     1     370.097 240.171 276.885  1.00  0.00     0.004 C 
BRANCH   8   9
ATOM      9  C   UNL     1     371.503 240.392 276.311  1.00  0.00    -0.003 C 
ATOM     10  C   UNL     1     371.442 241.117 274.970  1.00  0.00     0.004 C 
ENDBRANCH   8   9
ENDBRANCH   7   8
ENDBRANCH   1   7
BRANCH   2  11
ATOM     11  C   UNL     1     370.300 244.174 277.955  1.00  0.00     0.040 C 
BRANCH  11  12
ATOM     12  C   UNL     1     371.195 244.328 276.720  1.00  0.00     0.005 C 
BRANCH  12  13
ATOM     13  C   UNL     1     372.646 243.952 277.040  1.00  0.00    -0.003 C 
ATOM     14  C   UNL     1     373.540 244.115 275.815  1.00  0.00     0.004 C 
ENDBRANCH  12  13
ENDBRANCH  11  12
ENDBRANCH   2  11
BRANCH   3  15
ATOM     15  O   UNL     1     368.150 245.846 277.119  1.00  0.00    -0.508 OA
ATOM     16  H   UNL     1     368.980 246.244 276.697  1.00  0.00     0.293 HD
ENDBRANCH   3  15
TORSDOF 7
ENDMDL
MODEL 7
REMARK VINA RESULT:    -5.607      2.292      5.212
REMARK INTER + INTRA:          -8.647
REMARK INTER:                  -7.656
REMARK INTRA:                  -0.992
REMARK UNBOUND:                -0.909
REMARK SMILES CCCCc1cccc(O)c1CCCC
REMARK SMILES IDX 5 1 11 2 9 3 8 4 7 5 6 6 4 7 3 8 2 9 1 10 12 11 13 12 14 13
REMARK SMILES IDX 15 14 10 15
REMARK H PARENT 10 16
REMARK Flexibility Score: inf
ROOT
ATOM      1  C   UNL     1     368.744 244.189 277.339  1.00  0.00    -0.041 A 
ATOM      2  C   UNL     1     367.788 243.154 277.139  1.00  0.00    -0.003 A 
ATOM      3  C   UNL     1     366.486 243.495 276.707  1.00  0.00     0.119 A 
ATOM      4  C   UNL     1     366.154 244.831 276.453  1.00  0.00     0.046 A 
ATOM      5  C   UNL     1     367.097 245.837 276.636  1.00  0.00     0.004 A 
ATOM      6  C   UNL     1     368.379 245.522 277.078  1.00  0.00     0.004 A 
ENDROOT
BRANCH   1   7
ATOM      7  C   UNL     1     370.164 243.917 277.798  1.00  0.00     0.036 C 
BRANCH   7   8
ATOM      8  C   UNL     1     371.126 243.702 276.619  1.00  0.00     0.004 C 
BRANCH   8   9
ATOM      9  C   UNL     1     372.573 244.083 276.965  1.00  0.00    -0.003 C 
ATOM     10  C   UNL     1     373.435 244.168 275.709  1.00  0.00     0.004 C 
ENDBRANCH   8   9
ENDBRANCH   7   8
ENDBRANCH   1   7
BRANCH   2  11
ATOM     11  C   UNL     1     368.097 241.701 277.450  1.00  0.00     0.040 C 
BRANCH  11  12
ATOM     12  C   UNL     1     368.542 240.960 276.184  1.00  0.00     0.005 C 
BRANCH  12  13
ATOM     13  C   UNL     1     369.842 240.186 276.427  1.00  0.00    -0.003 C 
ATOM     14  C   UNL     1     370.203 240.166 277.910  1.00  0.00     0.004 C 
ENDBRANCH  12  13
ENDBRANCH  11  12
ENDBRANCH   2  11
BRANCH   3  15
ATOM     15  O   UNL     1     365.520 242.502 276.534  1.00  0.00    -0.508 OA
ATOM     16  H   UNL     1     364.529 242.709 276.582  1.00  0.00     0.293 HD
ENDBRANCH   3  15
TORSDOF 7
ENDMDL
MODEL 8
REMARK VINA RESULT:    -5.493      1.929      4.148
REMARK INTER + INTRA:          -8.489
REMARK INTER:                  -7.285
REMARK INTRA:                  -1.205
REMARK UNBOUND:                -0.909
REMARK SMILES CCCCc1cccc(O)c1CCCC
REMARK SMILES IDX 5 1 11 2 9 3 8 4 7 5 6 6 4 7 3 8 2 9 1 10 12 11 13 12 14 13
REMARK SMILES IDX 15 14 10 15
REMARK H PARENT 10 16
REMARK Flexibility Score: inf
ROOT
ATOM      1  C   UNL     1     369.932 241.509 277.572  1.00  0.00    -0.041 A 
ATOM      2  C   UNL     1     370.460 242.810 277.334  1.00  0.00    -0.003 A 
ATOM      3  C   UNL     1     371.427 242.983 276.317  1.00  0.00     0.119 A 
ATOM      4  C   UNL     1     371.836 241.894 275.539  1.00  0.00     0.046 A 
ATOM      5  C   UNL     1     371.305 240.628 275.766  1.00  0.00     0.004 A 
ATOM      6  C   UNL     1     370.364 240.435 276.774  1.00  0.00     0.004 A 
ENDROOT
BRANCH   1   7
ATOM      7  C   UNL     1     368.890 241.230 278.638  1.00  0.00     0.036 C 
BRANCH   7   8
ATOM      8  C   UNL     1     367.855 240.188 278.183  1.00  0.00     0.004 C 
BRANCH   8   9
ATOM      9  C   UNL     1     366.684 240.819 277.419  1.00  0.00    -0.003 C 
ATOM     10  C   UNL     1     366.690 240.393 275.953  1.00  0.00     0.004 C 
ENDBRANCH   8   9
ENDBRANCH   7   8
ENDBRANCH   1   7
BRANCH   2  11
ATOM     11  C   UNL     1     370.077 244.003 278.188  1.00  0.00     0.040 C 
BRANCH  11  12
ATOM     12  C   UNL     1     369.160 244.954 277.411  1.00  0.00     0.005 C 
BRANCH  12  13
ATOM     13  C   UNL     1     367.803 244.301 277.127  1.00  0.00    -0.003 C 
ATOM     14  C   UNL     1     367.624 244.026 275.637  1.00  0.00     0.004 C 
ENDBRANCH  12  13
ENDBRANCH  11  12
ENDBRANCH   2  11
BRANCH   3  15
ATOM     15  O   UNL     1     371.985 244.241 276.085  1.00  0.00    -0.508 OA
ATOM     16  H   UNL     1     372.925 244.348 275.722  1.00  0.00     0.293 HD
ENDBRANCH   3  15
TORSDOF 7
ENDMDL
MODEL 9
REMARK VINA RESULT:    -5.378      2.675      4.408
REMARK INTER + INTRA:          -8.331
REMARK INTER:                  -7.518
REMARK INTRA:                  -0.813
REMARK UNBOUND:                -0.909
REMARK SMILES CCCCc1cccc(O)c1CCCC
REMARK SMILES IDX 5 1 11 2 9 3 8 4 7 5 6 6 4 7 3 8 2 9 1 10 12 11 13 12 14 13
REMARK SMILES IDX 15 14 10 15
REMARK H PARENT 10 16
REMARK Flexibility Score: inf
ROOT
ATOM      1  C   UNL     1     368.661 242.259 277.252  1.00  0.00    -0.041 A 
ATOM      2  C   UNL     1     368.980 243.632 277.457  1.00  0.00    -0.003 A 
ATOM      3  C   UNL     1     368.008 244.615 277.162  1.00  0.00     0.119 A 
ATOM      4  C   UNL     1     366.741 244.239 276.702  1.00  0.00     0.046 A 
ATOM      5  C   UNL     1     366.430 242.895 276.517  1.00  0.00     0.004 A 
ATOM      6  C   UNL     1     367.380 241.914 276.786  1.00  0.00     0.004 A 
ENDROOT
BRANCH   1   7
ATOM      7  C   UNL     1     369.640 241.138 277.544  1.00  0.00     0.036 C 
BRANCH   7   8
ATOM      8  C   UNL     1     369.201 240.279 278.741  1.00  0.00     0.004 C 
BRANCH   8   9
ATOM      9  C   UNL     1     369.388 241.004 280.082  1.00  0.00    -0.003 C 
ATOM     10  C   UNL     1     370.048 240.092 281.112  1.00  0.00     0.004 C 
ENDBRANCH   8   9
ENDBRANCH   7   8
ENDBRANCH   1   7
BRANCH   2  11
ATOM     11  C   UNL     1     370.358 244.080 277.908  1.00  0.00     0.040 C 
BRANCH  11  12
ATOM     12  C   UNL     1     371.259 244.358 276.699  1.00  0.00     0.005 C 
BRANCH  12  13
ATOM     13  C   UNL     1     372.520 243.488 276.741  1.00  0.00    -0.003 C 
ATOM     14  C   UNL     1     373.671 244.151 275.990  1.00  0.00     0.004 C 
ENDBRANCH  12  13
ENDBRANCH  11  12
ENDBRANCH   2  11
BRANCH   3  15
ATOM     15  O   UNL     1     368.306 245.969 277.323  1.00  0.00    -0.508 OA
ATOM     16  H   UNL     1     369.082 246.279 277.896  1.00  0.00     0.293 HD
ENDBRANCH   3  15
TORSDOF 7
ENDMDL
