MODEL 1
REMARK VINA RESULT:    -5.824      0.000      0.000
REMARK INTER + INTRA:         -11.851
REMARK INTER:                 -10.250
REMARK INTRA:                  -1.601
REMARK UNBOUND:                -1.601
REMARK SMILES CCCCCCCCCCCCCCC(=O)[O-]
REMARK SMILES IDX 9 1 10 2 11 3 12 4 13 5 14 6 15 7 16 8 17 9 8 10 7 11 6 12
REMARK SMILES IDX 5 13 4 14 3 15 2 16 1 17
REMARK H PARENT
REMARK Flexibility Score: inf
ROOT
ATOM      1  C   UNL     1      11.223 -14.886  37.038  1.00  0.00     0.000 C 
ENDROOT
BRANCH   1   2
ATOM      2  C   UNL     1      10.151 -14.549  38.093  1.00  0.00     0.000 C 
BRANCH   2   3
ATOM      3  C   UNL     1       9.319 -13.287  37.794  1.00  0.00     0.000 C 
BRANCH   3   4
ATOM      4  C   UNL     1       7.808 -13.555  37.794  1.00  0.00     0.000 C 
BRANCH   4   5
ATOM      5  C   UNL     1       7.258 -13.601  36.361  1.00  0.00     0.006 C 
BRANCH   5   6
ATOM      6  C   UNL     1       7.613 -12.339  35.561  1.00  0.00     0.053 C 
BRANCH   6   7
ATOM      7  C   UNL     1       8.085 -12.671  34.178  1.00  0.00     0.041 C 
ATOM      8  O   UNL     1       9.026 -12.019  33.657  1.00  0.00    -0.550 OA
ATOM      9  O   UNL     1       7.507 -13.724  33.480  1.00  0.00    -0.550 OA
ENDBRANCH   6   7
ENDBRANCH   5   6
ENDBRANCH   4   5
ENDBRANCH   3   4
ENDBRANCH   2   3
ENDBRANCH   1   2
BRANCH   1  10
ATOM     10  C   UNL     1      12.608 -14.257  37.292  1.00  0.00     0.000 C 
BRANCH  10  11
ATOM     11  C   UNL     1      13.117 -13.384  36.125  1.00  0.00    -0.000 C 
BRANCH  11  12
ATOM     12  C   UNL     1      12.001 -12.532  35.497  1.00  0.00    -0.000 C 
BRANCH  12  13
ATOM     13  C   UNL     1      12.491 -11.140  35.065  1.00  0.00    -0.000 C 
BRANCH  13  14
ATOM     14  C   UNL     1      13.550 -10.566  36.020  1.00  0.00    -0.000 C 
BRANCH  14  15
ATOM     15  C   UNL     1      12.891  -9.741  37.136  1.00  0.00    -0.000 C 
BRANCH  15  16
ATOM     16  C   UNL     1      12.897 -10.468  38.489  1.00  0.00    -0.003 C 
ATOM     17  C   UNL     1      11.510 -10.533  39.131  1.00  0.00     0.004 C 
ENDBRANCH  15  16
ENDBRANCH  14  15
ENDBRANCH  13  14
ENDBRANCH  12  13
ENDBRANCH  11  12
ENDBRANCH  10  11
ENDBRANCH   1  10
TORSDOF 13
ENDMDL
MODEL 2
REMARK VINA RESULT:    -5.773      2.492      5.830
REMARK INTER + INTRA:         -11.762
REMARK INTER:                 -10.140
REMARK INTRA:                  -1.622
REMARK UNBOUND:                -1.601
REMARK SMILES CCCCCCCCCCCCCCC(=O)[O-]
REMARK SMILES IDX 9 1 10 2 11 3 12 4 13 5 14 6 15 7 16 8 17 9 8 10 7 11 6 12
REMARK SMILES IDX 5 13 4 14 3 15 2 16 1 17
REMARK H PARENT
REMARK Flexibility Score: inf
ROOT
ATOM      1  C   UNL     1      11.820 -13.511  37.067  1.00  0.00     0.000 C 
ENDROOT
BRANCH   1   2
ATOM      2  C   UNL     1      12.590 -13.139  35.785  1.00  0.00     0.000 C 
BRANCH   2   3
ATOM      3  C   UNL     1      12.310 -11.723  35.247  1.00  0.00     0.000 C 
BRANCH   3   4
ATOM      4  C   UNL     1      13.509 -10.776  35.404  1.00  0.00     0.000 C 
BRANCH   4   5
ATOM      5  C   UNL     1      13.677 -10.342  36.867  1.00  0.00     0.006 C 
BRANCH   5   6
ATOM      6  C   UNL     1      12.364  -9.835  37.479  1.00  0.00     0.053 C 
BRANCH   6   7
ATOM      7  C   UNL     1      12.235 -10.225  38.920  1.00  0.00     0.041 C 
ATOM      8  O   UNL     1      11.126 -10.612  39.375  1.00  0.00    -0.550 OA
ATOM      9  O   UNL     1      13.347 -10.193  39.751  1.00  0.00    -0.550 OA
ENDBRANCH   6   7
ENDBRANCH   5   6
ENDBRANCH   4   5
ENDBRANCH   3   4
ENDBRANCH   2   3
ENDBRANCH   1   2
BRANCH   1  10
ATOM     10  C   UNL     1      10.882 -14.727  36.934  1.00  0.00     0.000 C 
BRANCH  10  11
ATOM     11  C   UNL     1       9.898 -14.886  38.112  1.00  0.00    -0.000 C 
BRANCH  11  12
ATOM     12  C   UNL     1       9.031 -13.633  38.326  1.00  0.00    -0.000 C 
BRANCH  12  13
ATOM     13  C   UNL     1       7.557 -13.863  37.953  1.00  0.00    -0.000 C 
BRANCH  13  14
ATOM     14  C   UNL     1       7.251 -13.479  36.496  1.00  0.00    -0.000 C 
BRANCH  14  15
ATOM     15  C   UNL     1       8.118 -12.293  36.049  1.00  0.00    -0.000 C 
BRANCH  15  16
ATOM     16  C   UNL     1       8.729 -12.501  34.655  1.00  0.00    -0.003 C 
ATOM     17  C   UNL     1       7.885 -13.418  33.770  1.00  0.00     0.004 C 
ENDBRANCH  15  16
ENDBRANCH  14  15
ENDBRANCH  13  14
ENDBRANCH  12  13
ENDBRANCH  11  12
ENDBRANCH  10  11
ENDBRANCH   1  10
TORSDOF 13
ENDMDL
MODEL 3
REMARK VINA RESULT:    -5.763      1.343      1.885
REMARK INTER + INTRA:         -11.744
REMARK INTER:                  -9.302
REMARK INTRA:                  -2.442
REMARK UNBOUND:                -1.601
REMARK SMILES CCCCCCCCCCCCCCC(=O)[O-]
REMARK SMILES IDX 9 1 10 2 11 3 12 4 13 5 14 6 15 7 16 8 17 9 8 10 7 11 6 12
REMARK SMILES IDX 5 13 4 14 3 15 2 16 1 17
REMARK H PARENT
REMARK Flexibility Score: inf
ROOT
ATOM      1  C   UNL     1      12.350 -14.461  37.566  1.00  0.00     0.000 C 
ENDROOT
BRANCH   1   2
ATOM      2  C   UNL     1      11.282 -15.028  36.611  1.00  0.00     0.000 C 
BRANCH   2   3
ATOM      3  C   UNL     1       9.835 -14.612  36.934  1.00  0.00     0.000 C 
BRANCH   3   4
ATOM      4  C   UNL     1       9.750 -13.557  38.046  1.00  0.00     0.000 C 
BRANCH   4   5
ATOM      5  C   UNL     1       8.388 -12.849  38.029  1.00  0.00     0.006 C 
BRANCH   5   6
ATOM      6  C   UNL     1       7.519 -13.289  36.842  1.00  0.00     0.053 C 
BRANCH   6   7
ATOM      7  C   UNL     1       7.327 -12.180  35.852  1.00  0.00     0.041 C 
ATOM      8  O   UNL     1       7.618 -12.356  34.640  1.00  0.00    -0.550 OA
ATOM      9  O   UNL     1       6.795 -10.965  36.264  1.00  0.00    -0.550 OA
ENDBRANCH   6   7
ENDBRANCH   5   6
ENDBRANCH   4   5
ENDBRANCH   3   4
ENDBRANCH   2   3
ENDBRANCH   1   2
BRANCH   1  10
ATOM     10  C   UNL     1      13.269 -13.386  36.954  1.00  0.00     0.000 C 
BRANCH  10  11
ATOM     11  C   UNL     1      13.020 -13.138  35.450  1.00  0.00    -0.000 C 
BRANCH  11  12
ATOM     12  C   UNL     1      12.586 -11.691  35.158  1.00  0.00    -0.000 C 
BRANCH  12  13
ATOM     13  C   UNL     1      11.061 -11.505  35.226  1.00  0.00    -0.000 C 
BRANCH  13  14
ATOM     14  C   UNL     1      10.645 -10.411  36.223  1.00  0.00    -0.000 C 
BRANCH  14  15
ATOM     15  C   UNL     1      11.839  -9.969  37.081  1.00  0.00    -0.000 C 
BRANCH  15  16
ATOM     16  C   UNL     1      11.691 -10.378  38.554  1.00  0.00    -0.003 C 
ATOM     17  C   UNL     1      13.029 -10.418  39.294  1.00  0.00     0.004 C 
ENDBRANCH  15  16
ENDBRANCH  14  15
ENDBRANCH  13  14
ENDBRANCH  12  13
ENDBRANCH  11  12
ENDBRANCH  10  11
ENDBRANCH   1  10
TORSDOF 13
ENDMDL
MODEL 4
REMARK VINA RESULT:    -5.682      2.683      5.900
REMARK INTER + INTRA:         -11.601
REMARK INTER:                  -9.680
REMARK INTRA:                  -1.922
REMARK UNBOUND:                -1.601
REMARK SMILES CCCCCCCCCCCCCCC(=O)[O-]
REMARK SMILES IDX 9 1 10 2 11 3 12 4 13 5 14 6 15 7 16 8 17 9 8 10 7 11 6 12
REMARK SMILES IDX 5 13 4 14 3 15 2 16 1 17
REMARK H PARENT
REMARK Flexibility Score: inf
ROOT
ATOM      1  C   UNL     1       8.864 -12.056  34.693  1.00  0.00     0.000 C 
ENDROOT
BRANCH   1   2
ATOM      2  C   UNL     1      10.402 -12.029  34.792  1.00  0.00     0.000 C 
BRANCH   2   3
ATOM      3  C   UNL     1      10.974 -10.965  35.747  1.00  0.00     0.000 C 
BRANCH   3   4
ATOM      4  C   UNL     1      12.453 -10.652  35.476  1.00  0.00     0.000 C 
BRANCH   4   5
ATOM      5  C   UNL     1      13.131 -10.082  36.730  1.00  0.00     0.006 C 
BRANCH   5   6
ATOM      6  C   UNL     1      13.205 -11.108  37.870  1.00  0.00     0.053 C 
BRANCH   6   7
ATOM      7  C   UNL     1      12.613 -10.573  39.138  1.00  0.00     0.041 C 
ATOM      8  O   UNL     1      13.362 -10.141  40.054  1.00  0.00    -0.550 OA
ATOM      9  O   UNL     1      11.234 -10.520  39.294  1.00  0.00    -0.550 OA
ENDBRANCH   6   7
ENDBRANCH   5   6
ENDBRANCH   4   5
ENDBRANCH   3   4
ENDBRANCH   2   3
ENDBRANCH   1   2
BRANCH   1  10
ATOM     10  C   UNL     1       8.216 -13.423  34.984  1.00  0.00     0.000 C 
BRANCH  10  11
ATOM     11  C   UNL     1       7.237 -13.406  36.178  1.00  0.00    -0.000 C 
BRANCH  11  12
ATOM     12  C   UNL     1       7.554 -12.284  37.182  1.00  0.00    -0.000 C 
BRANCH  12  13
ATOM     13  C   UNL     1       8.364 -12.782  38.390  1.00  0.00    -0.000 C 
BRANCH  13  14
ATOM     14  C   UNL     1       8.266 -14.305  38.577  1.00  0.00    -0.000 C 
BRANCH  14  15
ATOM     15  C   UNL     1       9.661 -14.927  38.741  1.00  0.00    -0.000 C 
BRANCH  15  16
ATOM     16  C   UNL     1      10.682 -14.357  37.744  1.00  0.00    -0.003 C 
ATOM     17  C   UNL     1      10.919 -15.281  36.549  1.00  0.00     0.004 C 
ENDBRANCH  15  16
ENDBRANCH  14  15
ENDBRANCH  13  14
ENDBRANCH  12  13
ENDBRANCH  11  12
ENDBRANCH  10  11
ENDBRANCH   1  10
TORSDOF 13
ENDMDL
MODEL 5
REMARK VINA RESULT:    -5.677      1.766      5.144
REMARK INTER + INTRA:         -11.593
REMARK INTER:                  -9.731
REMARK INTRA:                  -1.861
REMARK UNBOUND:                -1.601
REMARK SMILES CCCCCCCCCCCCCCC(=O)[O-]
REMARK SMILES IDX 9 1 10 2 11 3 12 4 13 5 14 6 15 7 16 8 17 9 8 10 7 11 6 12
REMARK SMILES IDX 5 13 4 14 3 15 2 16 1 17
REMARK H PARENT
REMARK Flexibility Score: inf
ROOT
ATOM      1  C   UNL     1      11.543 -13.828  36.386  1.00  0.00     0.000 C 
ENDROOT
BRANCH   1   2
ATOM      2  C   UNL     1      12.870 -13.750  37.166  1.00  0.00     0.000 C 
BRANCH   2   3
ATOM      3  C   UNL     1      13.153 -12.390  37.833  1.00  0.00     0.000 C 
BRANCH   3   4
ATOM      4  C   UNL     1      11.935 -11.456  37.825  1.00  0.00     0.000 C 
BRANCH   4   5
ATOM      5  C   UNL     1      12.261 -10.136  37.109  1.00  0.00     0.006 C 
BRANCH   5   6
ATOM      6  C   UNL     1      13.506 -10.249  36.218  1.00  0.00     0.053 C 
BRANCH   6   7
ATOM      7  C   UNL     1      13.165 -10.749  34.847  1.00  0.00     0.041 C 
ATOM      8  O   UNL     1      14.049 -11.289  34.132  1.00  0.00    -0.550 OA
ATOM      9  O   UNL     1      11.863 -10.649  34.375  1.00  0.00    -0.550 OA
ENDBRANCH   6   7
ENDBRANCH   5   6
ENDBRANCH   4   5
ENDBRANCH   3   4
ENDBRANCH   2   3
ENDBRANCH   1   2
BRANCH   1  10
ATOM     10  C   UNL     1      10.649 -15.033  36.740  1.00  0.00     0.000 C 
BRANCH  10  11
ATOM     11  C   UNL     1       9.928 -14.895  38.098  1.00  0.00    -0.000 C 
BRANCH  11  12
ATOM     12  C   UNL     1       9.055 -13.630  38.174  1.00  0.00    -0.000 C 
BRANCH  12  13
ATOM     13  C   UNL     1       7.588 -13.900  37.802  1.00  0.00    -0.000 C 
BRANCH  13  14
ATOM     14  C   UNL     1       7.166 -13.184  36.510  1.00  0.00    -0.000 C 
BRANCH  14  15
ATOM     15  C   UNL     1       8.233 -12.169  36.073  1.00  0.00    -0.000 C 
BRANCH  15  16
ATOM     16  C   UNL     1       8.647 -12.343  34.604  1.00  0.00    -0.003 C 
ATOM     17  C   UNL     1       7.813 -13.397  33.876  1.00  0.00     0.004 C 
ENDBRANCH  15  16
ENDBRANCH  14  15
ENDBRANCH  13  14
ENDBRANCH  12  13
ENDBRANCH  11  12
ENDBRANCH  10  11
ENDBRANCH   1  10
TORSDOF 13
ENDMDL
MODEL 6
REMARK VINA RESULT:    -5.667      0.951      2.745
REMARK INTER + INTRA:         -11.574
REMARK INTER:                 -10.038
REMARK INTRA:                  -1.536
REMARK UNBOUND:                -1.601
REMARK SMILES CCCCCCCCCCCCCCC(=O)[O-]
REMARK SMILES IDX 9 1 10 2 11 3 12 4 13 5 14 6 15 7 16 8 17 9 8 10 7 11 6 12
REMARK SMILES IDX 5 13 4 14 3 15 2 16 1 17
REMARK H PARENT
REMARK Flexibility Score: inf
ROOT
ATOM      1  C   UNL     1      11.050 -10.977  38.963  1.00  0.00     0.000 C 
ENDROOT
BRANCH   1   2
ATOM      2  C   UNL     1      10.345 -11.674  37.784  1.00  0.00     0.000 C 
BRANCH   2   3
ATOM      3  C   UNL     1       8.905 -12.139  38.069  1.00  0.00     0.000 C 
BRANCH   3   4
ATOM      4  C   UNL     1       8.616 -13.550  37.537  1.00  0.00     0.000 C 
BRANCH   4   5
ATOM      5  C   UNL     1       7.375 -13.551  36.632  1.00  0.00     0.006 C 
BRANCH   5   6
ATOM      6  C   UNL     1       7.371 -12.373  35.648  1.00  0.00     0.053 C 
BRANCH   6   7
ATOM      7  C   UNL     1       8.161 -12.679  34.412  1.00  0.00     0.041 C 
ATOM      8  O   UNL     1       9.302 -12.171  34.247  1.00  0.00    -0.550 OA
ATOM      9  O   UNL     1       7.652 -13.552  33.459  1.00  0.00    -0.550 OA
ENDBRANCH   6   7
ENDBRANCH   5   6
ENDBRANCH   4   5
ENDBRANCH   3   4
ENDBRANCH   2   3
ENDBRANCH   1   2
BRANCH   1  10
ATOM     10  C   UNL     1      12.102  -9.924  38.565  1.00  0.00     0.000 C 
BRANCH  10  11
ATOM     11  C   UNL     1      13.255 -10.491  37.708  1.00  0.00    -0.000 C 
BRANCH  11  12
ATOM     12  C   UNL     1      13.326  -9.840  36.315  1.00  0.00    -0.000 C 
BRANCH  12  13
ATOM     13  C   UNL     1      12.868 -10.788  35.195  1.00  0.00    -0.000 C 
BRANCH  13  14
ATOM     14  C   UNL     1      14.040 -11.538  34.541  1.00  0.00    -0.000 C 
BRANCH  14  15
ATOM     15  C   UNL     1      14.065 -13.008  34.984  1.00  0.00    -0.000 C 
BRANCH  15  16
ATOM     16  C   UNL     1      12.773 -13.430  35.701  1.00  0.00    -0.003 C 
ATOM     17  C   UNL     1      13.039 -14.119  37.039  1.00  0.00     0.004 C 
ENDBRANCH  15  16
ENDBRANCH  14  15
ENDBRANCH  13  14
ENDBRANCH  12  13
ENDBRANCH  11  12
ENDBRANCH  10  11
ENDBRANCH   1  10
TORSDOF 13
ENDMDL
MODEL 7
REMARK VINA RESULT:    -5.541      2.167      5.424
REMARK INTER + INTRA:         -11.353
REMARK INTER:                  -9.778
REMARK INTRA:                  -1.575
REMARK UNBOUND:                -1.601
REMARK SMILES CCCCCCCCCCCCCCC(=O)[O-]
REMARK SMILES IDX 9 1 10 2 11 3 12 4 13 5 14 6 15 7 16 8 17 9 8 10 7 11 6 12
REMARK SMILES IDX 5 13 4 14 3 15 2 16 1 17
REMARK H PARENT
REMARK Flexibility Score: inf
ROOT
ATOM      1  C   UNL     1      10.865 -14.932  36.851  1.00  0.00     0.000 C 
ENDROOT
BRANCH   1   2
ATOM      2  C   UNL     1      12.394 -14.736  36.870  1.00  0.00     0.000 C 
BRANCH   2   3
ATOM      3  C   UNL     1      12.862 -13.268  36.839  1.00  0.00     0.000 C 
BRANCH   3   4
ATOM      4  C   UNL     1      13.407 -12.844  35.468  1.00  0.00     0.000 C 
BRANCH   4   5
ATOM      5  C   UNL     1      13.429 -11.314  35.337  1.00  0.00     0.006 C 
BRANCH   5   6
ATOM      6  C   UNL     1      13.516 -10.614  36.700  1.00  0.00     0.053 C 
BRANCH   6   7
ATOM      7  C   UNL     1      12.346  -9.707  36.936  1.00  0.00     0.041 C 
ATOM      8  O   UNL     1      12.026  -9.378  38.108  1.00  0.00    -0.550 OA
ATOM      9  O   UNL     1      11.632  -9.200  35.858  1.00  0.00    -0.550 OA
ENDBRANCH   6   7
ENDBRANCH   5   6
ENDBRANCH   4   5
ENDBRANCH   3   4
ENDBRANCH   2   3
ENDBRANCH   1   2
BRANCH   1  10
ATOM     10  C   UNL     1      10.153 -14.628  38.183  1.00  0.00     0.000 C 
BRANCH  10  11
ATOM     11  C   UNL     1       9.511 -13.225  38.240  1.00  0.00    -0.000 C 
BRANCH  11  12
ATOM     12  C   UNL     1       7.988 -13.283  38.450  1.00  0.00    -0.000 C 
BRANCH  12  13
ATOM     13  C   UNL     1       7.237 -13.782  37.205  1.00  0.00    -0.000 C 
BRANCH  13  14
ATOM     14  C   UNL     1       7.197 -12.734  36.082  1.00  0.00    -0.000 C 
BRANCH  14  15
ATOM     15  C   UNL     1       7.692 -13.332  34.757  1.00  0.00    -0.000 C 
BRANCH  15  16
ATOM     16  C   UNL     1       8.611 -12.374  33.984  1.00  0.00    -0.003 C 
ATOM     17  C   UNL     1       9.860 -11.985  34.776  1.00  0.00     0.004 C 
ENDBRANCH  15  16
ENDBRANCH  14  15
ENDBRANCH  13  14
ENDBRANCH  12  13
ENDBRANCH  11  12
ENDBRANCH  10  11
ENDBRANCH   1  10
TORSDOF 13
ENDMDL
MODEL 8
REMARK VINA RESULT:    -5.533      2.034      3.354
REMARK INTER + INTRA:         -11.340
REMARK INTER:                  -9.820
REMARK INTRA:                  -1.520
REMARK UNBOUND:                -1.601
REMARK SMILES CCCCCCCCCCCCCCC(=O)[O-]
REMARK SMILES IDX 9 1 10 2 11 3 12 4 13 5 14 6 15 7 16 8 17 9 8 10 7 11 6 12
REMARK SMILES IDX 5 13 4 14 3 15 2 16 1 17
REMARK H PARENT
REMARK Flexibility Score: inf
ROOT
ATOM      1  C   UNL     1       9.034 -12.039  33.965  1.00  0.00     0.000 C 
ENDROOT
BRANCH   1   2
ATOM      2  C   UNL     1       7.788 -12.810  34.442  1.00  0.00     0.000 C 
BRANCH   2   3
ATOM      3  C   UNL     1       7.271 -12.411  35.838  1.00  0.00     0.000 C 
BRANCH   3   4
ATOM      4  C   UNL     1       7.325 -13.567  36.847  1.00  0.00     0.000 C 
BRANCH   4   5
ATOM      5  C   UNL     1       7.992 -13.121  38.156  1.00  0.00     0.006 C 
BRANCH   5   6
ATOM      6  C   UNL     1       9.517 -13.300  38.122  1.00  0.00     0.053 C 
BRANCH   6   7
ATOM      7  C   UNL     1       9.904 -14.731  37.900  1.00  0.00     0.041 C 
ATOM      8  O   UNL     1       9.797 -15.568  38.834  1.00  0.00    -0.550 OA
ATOM      9  O   UNL     1      10.351 -15.145  36.652  1.00  0.00    -0.550 OA
ENDBRANCH   6   7
ENDBRANCH   5   6
ENDBRANCH   4   5
ENDBRANCH   3   4
ENDBRANCH   2   3
ENDBRANCH   1   2
BRANCH   1  10
ATOM     10  C   UNL     1      10.206 -12.011  34.966  1.00  0.00     0.000 C 
BRANCH  10  11
ATOM     11  C   UNL     1      11.198 -10.852  34.729  1.00  0.00    -0.000 C 
BRANCH  11  12
ATOM     12  C   UNL     1      12.659 -11.270  34.976  1.00  0.00    -0.000 C 
BRANCH  12  13
ATOM     13  C   UNL     1      12.773 -12.589  35.756  1.00  0.00    -0.000 C 
BRANCH  13  14
ATOM     14  C   UNL     1      12.993 -12.368  37.261  1.00  0.00    -0.000 C 
BRANCH  14  15
ATOM     15  C   UNL     1      13.343 -10.901  37.553  1.00  0.00    -0.000 C 
BRANCH  15  16
ATOM     16  C   UNL     1      12.994 -10.486  38.990  1.00  0.00    -0.003 C 
ATOM     17  C   UNL     1      11.487 -10.383  39.226  1.00  0.00     0.004 C 
ENDBRANCH  15  16
ENDBRANCH  14  15
ENDBRANCH  13  14
ENDBRANCH  12  13
ENDBRANCH  11  12
ENDBRANCH  10  11
ENDBRANCH   1  10
TORSDOF 13
ENDMDL
MODEL 9
REMARK VINA RESULT:    -5.531      0.939      2.089
REMARK INTER + INTRA:         -11.336
REMARK INTER:                  -9.501
REMARK INTRA:                  -1.836
REMARK UNBOUND:                -1.601
REMARK SMILES CCCCCCCCCCCCCCC(=O)[O-]
REMARK SMILES IDX 9 1 10 2 11 3 12 4 13 5 14 6 15 7 16 8 17 9 8 10 7 11 6 12
REMARK SMILES IDX 5 13 4 14 3 15 2 16 1 17
REMARK H PARENT
REMARK Flexibility Score: inf
ROOT
ATOM      1  C   UNL     1      11.285 -13.771  36.245  1.00  0.00     0.000 C 
ENDROOT
BRANCH   1   2
ATOM      2  C   UNL     1      10.181 -14.707  36.774  1.00  0.00     0.000 C 
BRANCH   2   3
ATOM      3  C   UNL     1       9.487 -14.230  38.064  1.00  0.00     0.000 C 
BRANCH   3   4
ATOM      4  C   UNL     1       8.275 -13.328  37.792  1.00  0.00     0.000 C 
BRANCH   4   5
ATOM      5  C   UNL     1       7.606 -13.696  36.459  1.00  0.00     0.006 C 
BRANCH   5   6
ATOM      6  C   UNL     1       7.451 -12.483  35.531  1.00  0.00     0.053 C 
BRANCH   6   7
ATOM      7  C   UNL     1       8.145 -12.694  34.220  1.00  0.00     0.041 C 
ATOM      8  O   UNL     1       9.209 -12.074  33.960  1.00  0.00    -0.550 OA
ATOM      9  O   UNL     1       7.635 -13.602  33.301  1.00  0.00    -0.550 OA
ENDBRANCH   6   7
ENDBRANCH   5   6
ENDBRANCH   4   5
ENDBRANCH   3   4
ENDBRANCH   2   3
ENDBRANCH   1   2
BRANCH   1  10
ATOM     10  C   UNL     1      12.682 -14.001  36.853  1.00  0.00     0.000 C 
BRANCH  10  11
ATOM     11  C   UNL     1      13.149 -12.863  37.786  1.00  0.00    -0.000 C 
BRANCH  11  12
ATOM     12  C   UNL     1      12.132 -11.712  37.865  1.00  0.00    -0.000 C 
BRANCH  12  13
ATOM     13  C   UNL     1      12.804 -10.335  37.981  1.00  0.00    -0.000 C 
BRANCH  13  14
ATOM     14  C   UNL     1      13.175  -9.742  36.612  1.00  0.00    -0.000 C 
BRANCH  14  15
ATOM     15  C   UNL     1      12.167 -10.177  35.537  1.00  0.00    -0.000 C 
BRANCH  15  16
ATOM     16  C   UNL     1      12.829 -10.950  34.386  1.00  0.00    -0.003 C 
ATOM     17  C   UNL     1      14.314 -11.220  34.632  1.00  0.00     0.004 C 
ENDBRANCH  15  16
ENDBRANCH  14  15
ENDBRANCH  13  14
ENDBRANCH  12  13
ENDBRANCH  11  12
ENDBRANCH  10  11
ENDBRANCH   1  10
TORSDOF 13
ENDMDL
