MODEL 1
REMARK VINA RESULT:    -2.454      0.000      0.000
REMARK INTER + INTRA:          -7.566
REMARK INTER:                  -6.183
REMARK INTRA:                  -1.382
REMARK UNBOUND:                -1.382
REMARK SMILES CCCCCCCCCCCCCCCCCCCCCCCCCCCC(=O)[O-]
REMARK SMILES IDX 15 1 16 2 17 3 18 4 19 5 20 6 21 7 22 8 23 9 24 10 25 11
REMARK SMILES IDX 26 12 27 13 28 14 29 15 30 16 14 17 13 18 12 19 11 20 10 21
REMARK SMILES IDX 9 22 8 23 7 24 6 25 5 26 4 27 3 28 2 29 1 30
REMARK H PARENT
REMARK Flexibility Score: inf
ROOT
ATOM      1  C   UNL     1       0.869 -22.029  16.642  1.00  0.00     0.000 C 
ENDROOT
BRANCH   1   2
ATOM      2  C   UNL     1       2.069 -22.130  15.679  1.00  0.00     0.000 C 
BRANCH   2   3
ATOM      3  C   UNL     1       3.184 -23.039  16.228  1.00  0.00     0.000 C 
BRANCH   3   4
ATOM      4  C   UNL     1       4.590 -22.472  15.964  1.00  0.00     0.000 C 
BRANCH   4   5
ATOM      5  C   UNL     1       5.479 -22.498  17.221  1.00  0.00     0.000 C 
BRANCH   5   6
ATOM      6  C   UNL     1       6.324 -21.222  17.371  1.00  0.00     0.000 C 
BRANCH   6   7
ATOM      7  C   UNL     1       7.745 -21.393  16.801  1.00  0.00     0.000 C 
BRANCH   7   8
ATOM      8  C   UNL     1       8.078 -22.857  16.471  1.00  0.00     0.000 C 
BRANCH   8   9
ATOM      9  C   UNL     1       8.895 -23.003  15.177  1.00  0.00     0.000 C 
BRANCH   9  10
ATOM     10  C   UNL     1       8.428 -21.994  14.115  1.00  0.00     0.000 C 
BRANCH  10  11
ATOM     11  C   UNL     1       7.157 -22.448  13.372  1.00  0.00     0.000 C 
BRANCH  11  12
ATOM     12  C   UNL     1       6.870 -21.702  12.052  1.00  0.00     0.006 C 
BRANCH  12  13
ATOM     13  C   UNL     1       7.644 -20.386  11.881  1.00  0.00     0.053 C 
BRANCH  13  14
ATOM     14  C   UNL     1       7.775 -19.993  10.442  1.00  0.00     0.041 C 
ATOM     15  O   UNL     1       8.859 -20.187   9.829  1.00  0.00    -0.550 OA
ATOM     16  O   UNL     1       6.692 -19.443   9.767  1.00  0.00    -0.550 OA
ENDBRANCH  13  14
ENDBRANCH  12  13
ENDBRANCH  11  12
ENDBRANCH  10  11
ENDBRANCH   9  10
ENDBRANCH   8   9
ENDBRANCH   7   8
ENDBRANCH   6   7
ENDBRANCH   5   6
ENDBRANCH   4   5
ENDBRANCH   3   4
ENDBRANCH   2   3
ENDBRANCH   1   2
BRANCH   1  17
ATOM     17  C   UNL     1      -0.499 -21.999  15.938  1.00  0.00     0.000 C 
BRANCH  17  18
ATOM     18  C   UNL     1      -1.525 -22.945  16.575  1.00  0.00     0.000 C 
BRANCH  18  19
ATOM     19  C   UNL     1      -2.908 -22.790  15.923  1.00  0.00     0.000 C 
BRANCH  19  20
ATOM     20  C   UNL     1      -4.057 -23.112  16.903  1.00  0.00     0.000 C 
BRANCH  20  21
ATOM     21  C   UNL     1      -5.458 -22.800  16.346  1.00  0.00     0.000 C 
BRANCH  21  22
ATOM     22  C   UNL     1      -6.283 -21.897  17.277  1.00  0.00    -0.000 C 
BRANCH  22  23
ATOM     23  C   UNL     1      -7.602 -22.547  17.725  1.00  0.00    -0.000 C 
BRANCH  23  24
ATOM     24  C   UNL     1      -7.689 -22.732  19.253  1.00  0.00    -0.000 C 
BRANCH  24  25
ATOM     25  C   UNL     1      -9.058 -22.333  19.823  1.00  0.00    -0.000 C 
BRANCH  25  26
ATOM     26  C   UNL     1      -9.620 -21.056  19.178  1.00  0.00    -0.000 C 
BRANCH  26  27
ATOM     27  C   UNL     1      -9.786 -19.943  20.223  1.00  0.00    -0.000 C 
BRANCH  27  28
ATOM     28  C   UNL     1     -10.115 -20.484  21.627  1.00  0.00    -0.000 C 
BRANCH  28  29
ATOM     29  C   UNL     1      -8.900 -20.622  22.565  1.00  0.00    -0.003 C 
ATOM     30  C   UNL     1      -8.975 -21.860  23.461  1.00  0.00     0.004 C 
ENDBRANCH  28  29
ENDBRANCH  27  28
ENDBRANCH  26  27
ENDBRANCH  25  26
ENDBRANCH  24  25
ENDBRANCH  23  24
ENDBRANCH  22  23
ENDBRANCH  21  22
ENDBRANCH  20  21
ENDBRANCH  19  20
ENDBRANCH  18  19
ENDBRANCH  17  18
ENDBRANCH   1  17
TORSDOF 26
ENDMDL
MODEL 2
REMARK VINA RESULT:    -2.189      5.729     15.892
REMARK INTER + INTRA:          -6.899
REMARK INTER:                  -5.608
REMARK INTRA:                  -1.291
REMARK UNBOUND:                -1.382
REMARK SMILES CCCCCCCCCCCCCCCCCCCCCCCCCCCC(=O)[O-]
REMARK SMILES IDX 15 1 16 2 17 3 18 4 19 5 20 6 21 7 22 8 23 9 24 10 25 11
REMARK SMILES IDX 26 12 27 13 28 14 29 15 30 16 14 17 13 18 12 19 11 20 10 21
REMARK SMILES IDX 9 22 8 23 7 24 6 25 5 26 4 27 3 28 2 29 1 30
REMARK H PARENT
REMARK Flexibility Score: inf
ROOT
ATOM      1  C   UNL     1      -3.247 -22.249  15.990  1.00  0.00     0.000 C 
ENDROOT
BRANCH   1   2
ATOM      2  C   UNL     1      -4.420 -23.118  16.489  1.00  0.00     0.000 C 
BRANCH   2   3
ATOM      3  C   UNL     1      -5.598 -22.270  17.004  1.00  0.00     0.000 C 
BRANCH   3   4
ATOM      4  C   UNL     1      -6.803 -22.296  16.049  1.00  0.00     0.000 C 
BRANCH   4   5
ATOM      5  C   UNL     1      -7.303 -20.883  15.696  1.00  0.00     0.000 C 
BRANCH   5   6
ATOM      6  C   UNL     1      -8.384 -20.896  14.602  1.00  0.00     0.000 C 
BRANCH   6   7
ATOM      7  C   UNL     1      -9.787 -21.176  15.172  1.00  0.00     0.000 C 
BRANCH   7   8
ATOM      8  C   UNL     1     -10.313 -20.025  16.045  1.00  0.00     0.000 C 
BRANCH   8   9
ATOM      9  C   UNL     1     -11.031 -20.519  17.310  1.00  0.00     0.000 C 
BRANCH   9  10
ATOM     10  C   UNL     1     -10.400 -21.820  17.829  1.00  0.00     0.000 C 
BRANCH  10  11
ATOM     11  C   UNL     1     -11.125 -22.390  19.064  1.00  0.00     0.000 C 
BRANCH  11  12
ATOM     12  C   UNL     1     -10.414 -22.146  20.411  1.00  0.00     0.006 C 
BRANCH  12  13
ATOM     13  C   UNL     1     -10.641 -20.748  21.008  1.00  0.00     0.053 C 
BRANCH  13  14
ATOM     14  C   UNL     1     -10.126 -20.646  22.411  1.00  0.00     0.041 C 
ATOM     15  O   UNL     1      -9.006 -20.114  22.637  1.00  0.00    -0.550 OA
ATOM     16  O   UNL     1     -10.895 -21.108  23.472  1.00  0.00    -0.550 OA
ENDBRANCH  13  14
ENDBRANCH  12  13
ENDBRANCH  11  12
ENDBRANCH  10  11
ENDBRANCH   9  10
ENDBRANCH   8   9
ENDBRANCH   7   8
ENDBRANCH   6   7
ENDBRANCH   5   6
ENDBRANCH   4   5
ENDBRANCH   3   4
ENDBRANCH   2   3
ENDBRANCH   1   2
BRANCH   1  17
ATOM     17  C   UNL     1      -1.943 -23.032  15.756  1.00  0.00     0.000 C 
BRANCH  17  18
ATOM     18  C   UNL     1      -0.727 -22.396  16.444  1.00  0.00     0.000 C 
BRANCH  18  19
ATOM     19  C   UNL     1       0.586 -23.017  15.943  1.00  0.00     0.000 C 
BRANCH  19  20
ATOM     20  C   UNL     1       1.769 -22.028  16.019  1.00  0.00     0.000 C 
BRANCH  20  21
ATOM     21  C   UNL     1       3.147 -22.707  16.102  1.00  0.00     0.000 C 
BRANCH  21  22
ATOM     22  C   UNL     1       4.272 -21.732  16.482  1.00  0.00    -0.000 C 
BRANCH  22  23
ATOM     23  C   UNL     1       5.354 -22.381  17.361  1.00  0.00    -0.000 C 
BRANCH  23  24
ATOM     24  C   UNL     1       6.713 -21.661  17.266  1.00  0.00    -0.000 C 
BRANCH  24  25
ATOM     25  C   UNL     1       7.859 -22.604  16.869  1.00  0.00    -0.000 C 
BRANCH  25  26
ATOM     26  C   UNL     1       8.831 -21.966  15.863  1.00  0.00    -0.000 C 
BRANCH  26  27
ATOM     27  C   UNL     1       8.122 -21.664  14.535  1.00  0.00    -0.000 C 
BRANCH  27  28
ATOM     28  C   UNL     1       8.806 -20.540  13.734  1.00  0.00    -0.000 C 
BRANCH  28  29
ATOM     29  C   UNL     1       8.711 -20.689  12.203  1.00  0.00    -0.003 C 
ATOM     30  C   UNL     1       7.643 -19.789  11.580  1.00  0.00     0.004 C 
ENDBRANCH  28  29
ENDBRANCH  27  28
ENDBRANCH  26  27
ENDBRANCH  25  26
ENDBRANCH  24  25
ENDBRANCH  23  24
ENDBRANCH  22  23
ENDBRANCH  21  22
ENDBRANCH  20  21
ENDBRANCH  19  20
ENDBRANCH  18  19
ENDBRANCH  17  18
ENDBRANCH   1  17
TORSDOF 26
ENDMDL
MODEL 3
REMARK VINA RESULT:    -2.163      1.514      2.594
REMARK INTER + INTRA:          -6.833
REMARK INTER:                  -5.036
REMARK INTRA:                  -1.798
REMARK UNBOUND:                -1.382
REMARK SMILES CCCCCCCCCCCCCCCCCCCCCCCCCCCC(=O)[O-]
REMARK SMILES IDX 15 1 16 2 17 3 18 4 19 5 20 6 21 7 22 8 23 9 24 10 25 11
REMARK SMILES IDX 26 12 27 13 28 14 29 15 30 16 14 17 13 18 12 19 11 20 10 21
REMARK SMILES IDX 9 22 8 23 7 24 6 25 5 26 4 27 3 28 2 29 1 30
REMARK H PARENT
REMARK Flexibility Score: inf
ROOT
ATOM      1  C   UNL     1       0.465 -21.004  17.210  1.00  0.00     0.000 C 
ENDROOT
BRANCH   1   2
ATOM      2  C   UNL     1       2.002 -21.106  17.150  1.00  0.00     0.000 C 
BRANCH   2   3
ATOM      3  C   UNL     1       2.482 -22.072  16.051  1.00  0.00     0.000 C 
BRANCH   3   4
ATOM      4  C   UNL     1       3.723 -22.877  16.474  1.00  0.00     0.000 C 
BRANCH   4   5
ATOM      5  C   UNL     1       5.036 -22.126  16.186  1.00  0.00     0.000 C 
BRANCH   5   6
ATOM      6  C   UNL     1       5.878 -21.903  17.453  1.00  0.00     0.000 C 
BRANCH   6   7
ATOM      7  C   UNL     1       7.346 -22.329  17.261  1.00  0.00     0.000 C 
BRANCH   7   8
ATOM      8  C   UNL     1       7.574 -23.090  15.945  1.00  0.00     0.000 C 
BRANCH   8   9
ATOM      9  C   UNL     1       8.975 -22.855  15.358  1.00  0.00     0.000 C 
BRANCH   9  10
ATOM     10  C   UNL     1       8.958 -22.984  13.826  1.00  0.00     0.000 C 
BRANCH  10  11
ATOM     11  C   UNL     1       7.716 -22.338  13.182  1.00  0.00     0.000 C 
BRANCH  11  12
ATOM     12  C   UNL     1       7.700 -20.796  13.193  1.00  0.00     0.006 C 
BRANCH  12  13
ATOM     13  C   UNL     1       8.766 -20.140  12.301  1.00  0.00     0.053 C 
BRANCH  13  14
ATOM     14  C   UNL     1       8.238 -19.822  10.935  1.00  0.00     0.041 C 
ATOM     15  O   UNL     1       7.192 -19.132  10.806  1.00  0.00    -0.550 OA
ATOM     16  O   UNL     1       8.919 -20.258   9.805  1.00  0.00    -0.550 OA
ENDBRANCH  13  14
ENDBRANCH  12  13
ENDBRANCH  11  12
ENDBRANCH  10  11
ENDBRANCH   9  10
ENDBRANCH   8   9
ENDBRANCH   7   8
ENDBRANCH   6   7
ENDBRANCH   5   6
ENDBRANCH   4   5
ENDBRANCH   3   4
ENDBRANCH   2   3
ENDBRANCH   1   2
BRANCH   1  17
ATOM     17  C   UNL     1      -0.268 -22.218  16.614  1.00  0.00     0.000 C 
BRANCH  17  18
ATOM     18  C   UNL     1      -1.653 -21.869  16.052  1.00  0.00     0.000 C 
BRANCH  18  19
ATOM     19  C   UNL     1      -2.532 -23.123  15.916  1.00  0.00     0.000 C 
BRANCH  19  20
ATOM     20  C   UNL     1      -3.804 -23.044  16.788  1.00  0.00     0.000 C 
BRANCH  20  21
ATOM     21  C   UNL     1      -4.882 -22.095  16.234  1.00  0.00     0.000 C 
BRANCH  21  22
ATOM     22  C   UNL     1      -6.235 -22.790  16.016  1.00  0.00    -0.000 C 
BRANCH  22  23
ATOM     23  C   UNL     1      -6.956 -23.121  17.333  1.00  0.00    -0.000 C 
BRANCH  23  24
ATOM     24  C   UNL     1      -7.234 -21.873  18.193  1.00  0.00    -0.000 C 
BRANCH  24  25
ATOM     25  C   UNL     1      -8.600 -21.925  18.894  1.00  0.00    -0.000 C 
BRANCH  25  26
ATOM     26  C   UNL     1      -9.374 -20.602  18.783  1.00  0.00    -0.000 C 
BRANCH  26  27
ATOM     27  C   UNL     1     -10.773 -20.834  18.196  1.00  0.00    -0.000 C 
BRANCH  27  28
ATOM     28  C   UNL     1     -10.922 -20.281  16.766  1.00  0.00    -0.000 C 
BRANCH  28  29
ATOM     29  C   UNL     1      -9.787 -20.675  15.801  1.00  0.00    -0.003 C 
ATOM     30  C   UNL     1     -10.176 -20.530  14.329  1.00  0.00     0.004 C 
ENDBRANCH  28  29
ENDBRANCH  27  28
ENDBRANCH  26  27
ENDBRANCH  25  26
ENDBRANCH  24  25
ENDBRANCH  23  24
ENDBRANCH  22  23
ENDBRANCH  21  22
ENDBRANCH  20  21
ENDBRANCH  19  20
ENDBRANCH  18  19
ENDBRANCH  17  18
ENDBRANCH   1  17
TORSDOF 26
ENDMDL
MODEL 4
REMARK VINA RESULT:    -1.794      2.073      4.747
REMARK INTER + INTRA:          -5.902
REMARK INTER:                  -4.603
REMARK INTRA:                  -1.299
REMARK UNBOUND:                -1.382
REMARK SMILES CCCCCCCCCCCCCCCCCCCCCCCCCCCC(=O)[O-]
REMARK SMILES IDX 15 1 16 2 17 3 18 4 19 5 20 6 21 7 22 8 23 9 24 10 25 11
REMARK SMILES IDX 26 12 27 13 28 14 29 15 30 16 14 17 13 18 12 19 11 20 10 21
REMARK SMILES IDX 9 22 8 23 7 24 6 25 5 26 4 27 3 28 2 29 1 30
REMARK H PARENT
REMARK Flexibility Score: inf
ROOT
ATOM      1  C   UNL     1      -4.706 -22.176  15.982  1.00  0.00     0.000 C 
ENDROOT
BRANCH   1   2
ATOM      2  C   UNL     1      -3.362 -22.671  16.555  1.00  0.00     0.000 C 
BRANCH   2   3
ATOM      3  C   UNL     1      -2.153 -22.032  15.848  1.00  0.00     0.000 C 
BRANCH   3   4
ATOM      4  C   UNL     1      -0.812 -22.495  16.440  1.00  0.00     0.000 C 
BRANCH   4   5
ATOM      5  C   UNL     1       0.184 -22.948  15.356  1.00  0.00     0.000 C 
BRANCH   5   6
ATOM      6  C   UNL     1       1.618 -23.089  15.894  1.00  0.00     0.000 C 
BRANCH   6   7
ATOM      7  C   UNL     1       2.677 -22.805  14.814  1.00  0.00     0.000 C 
BRANCH   7   8
ATOM      8  C   UNL     1       4.112 -22.862  15.362  1.00  0.00     0.000 C 
BRANCH   8   9
ATOM      9  C   UNL     1       4.358 -21.849  16.491  1.00  0.00     0.000 C 
BRANCH   9  10
ATOM     10  C   UNL     1       5.524 -22.296  17.387  1.00  0.00     0.000 C 
BRANCH  10  11
ATOM     11  C   UNL     1       6.752 -21.371  17.281  1.00  0.00     0.000 C 
BRANCH  11  12
ATOM     12  C   UNL     1       8.117 -22.086  17.345  1.00  0.00     0.006 C 
BRANCH  12  13
ATOM     13  C   UNL     1       8.766 -22.346  15.976  1.00  0.00     0.053 C 
BRANCH  13  14
ATOM     14  C   UNL     1       8.206 -21.455  14.910  1.00  0.00     0.041 C 
ATOM     15  O   UNL     1       8.590 -20.258  14.820  1.00  0.00    -0.550 OA
ATOM     16  O   UNL     1       7.287 -21.954  13.996  1.00  0.00    -0.550 OA
ENDBRANCH  13  14
ENDBRANCH  12  13
ENDBRANCH  11  12
ENDBRANCH  10  11
ENDBRANCH   9  10
ENDBRANCH   8   9
ENDBRANCH   7   8
ENDBRANCH   6   7
ENDBRANCH   5   6
ENDBRANCH   4   5
ENDBRANCH   3   4
ENDBRANCH   2   3
ENDBRANCH   1   2
BRANCH   1  17
ATOM     17  C   UNL     1      -5.889 -23.124  16.249  1.00  0.00     0.000 C 
BRANCH  17  18
ATOM     18  C   UNL     1      -6.845 -22.604  17.330  1.00  0.00     0.000 C 
BRANCH  18  19
ATOM     19  C   UNL     1      -8.302 -22.619  16.841  1.00  0.00     0.000 C 
BRANCH  19  20
ATOM     20  C   UNL     1      -8.986 -21.244  16.995  1.00  0.00     0.000 C 
BRANCH  20  21
ATOM     21  C   UNL     1     -10.522 -21.300  16.930  1.00  0.00     0.000 C 
BRANCH  21  22
ATOM     22  C   UNL     1     -11.100 -22.587  17.539  1.00  0.00    -0.000 C 
BRANCH  22  23
ATOM     23  C   UNL     1     -11.113 -22.568  19.076  1.00  0.00    -0.000 C 
BRANCH  23  24
ATOM     24  C   UNL     1      -9.790 -23.064  19.692  1.00  0.00    -0.000 C 
BRANCH  24  25
ATOM     25  C   UNL     1      -9.445 -22.356  21.011  1.00  0.00    -0.000 C 
BRANCH  25  26
ATOM     26  C   UNL     1     -10.665 -21.681  21.658  1.00  0.00    -0.000 C 
BRANCH  26  27
ATOM     27  C   UNL     1     -10.515 -20.153  21.647  1.00  0.00    -0.000 C 
BRANCH  27  28
ATOM     28  C   UNL     1     -10.177 -19.595  20.252  1.00  0.00    -0.000 C 
BRANCH  28  29
ATOM     29  C   UNL     1     -11.016 -18.375  19.825  1.00  0.00    -0.003 C 
ATOM     30  C   UNL     1     -11.125 -18.226  18.306  1.00  0.00     0.004 C 
ENDBRANCH  28  29
ENDBRANCH  27  28
ENDBRANCH  26  27
ENDBRANCH  25  26
ENDBRANCH  24  25
ENDBRANCH  23  24
ENDBRANCH  22  23
ENDBRANCH  21  22
ENDBRANCH  20  21
ENDBRANCH  19  20
ENDBRANCH  18  19
ENDBRANCH  17  18
ENDBRANCH   1  17
TORSDOF 26
ENDMDL
MODEL 5
REMARK VINA RESULT:    -1.553      5.768     15.423
REMARK INTER + INTRA:          -5.296
REMARK INTER:                  -4.053
REMARK INTRA:                  -1.244
REMARK UNBOUND:                -1.382
REMARK SMILES CCCCCCCCCCCCCCCCCCCCCCCCCCCC(=O)[O-]
REMARK SMILES IDX 15 1 16 2 17 3 18 4 19 5 20 6 21 7 22 8 23 9 24 10 25 11
REMARK SMILES IDX 26 12 27 13 28 14 29 15 30 16 14 17 13 18 12 19 11 20 10 21
REMARK SMILES IDX 9 22 8 23 7 24 6 25 5 26 4 27 3 28 2 29 1 30
REMARK H PARENT
REMARK Flexibility Score: inf
ROOT
ATOM      1  C   UNL     1       0.353 -21.642  16.541  1.00  0.00     0.000 C 
ENDROOT
BRANCH   1   2
ATOM      2  C   UNL     1      -0.913 -22.519  16.454  1.00  0.00     0.000 C 
BRANCH   2   3
ATOM      3  C   UNL     1      -1.855 -22.077  15.320  1.00  0.00     0.000 C 
BRANCH   3   4
ATOM      4  C   UNL     1      -3.331 -22.384  15.627  1.00  0.00     0.000 C 
BRANCH   4   5
ATOM      5  C   UNL     1      -3.540 -22.878  17.071  1.00  0.00     0.000 C 
BRANCH   5   6
ATOM      6  C   UNL     1      -5.024 -23.090  17.413  1.00  0.00     0.000 C 
BRANCH   6   7
ATOM      7  C   UNL     1      -5.926 -22.007  16.792  1.00  0.00     0.000 C 
BRANCH   7   8
ATOM      8  C   UNL     1      -7.256 -22.573  16.270  1.00  0.00     0.000 C 
BRANCH   8   9
ATOM      9  C   UNL     1      -8.153 -21.496  15.638  1.00  0.00     0.000 C 
BRANCH   9  10
ATOM     10  C   UNL     1      -9.512 -21.424  16.351  1.00  0.00     0.000 C 
BRANCH  10  11
ATOM     11  C   UNL     1     -10.250 -20.094  16.107  1.00  0.00     0.000 C 
BRANCH  11  12
ATOM     12  C   UNL     1     -10.881 -19.455  17.362  1.00  0.00     0.006 C 
BRANCH  12  13
ATOM     13  C   UNL     1     -10.495 -20.134  18.686  1.00  0.00     0.053 C 
BRANCH  13  14
ATOM     14  C   UNL     1     -10.751 -19.249  19.867  1.00  0.00     0.041 C 
ATOM     15  O   UNL     1     -10.622 -19.701  21.036  1.00  0.00    -0.550 OA
ATOM     16  O   UNL     1     -11.100 -17.918  19.679  1.00  0.00    -0.550 OA
ENDBRANCH  13  14
ENDBRANCH  12  13
ENDBRANCH  11  12
ENDBRANCH  10  11
ENDBRANCH   9  10
ENDBRANCH   8   9
ENDBRANCH   7   8
ENDBRANCH   6   7
ENDBRANCH   5   6
ENDBRANCH   4   5
ENDBRANCH   3   4
ENDBRANCH   2   3
ENDBRANCH   1   2
BRANCH   1  17
ATOM     17  C   UNL     1       1.668 -22.419  16.358  1.00  0.00     0.000 C 
BRANCH  17  18
ATOM     18  C   UNL     1       2.914 -21.560  16.609  1.00  0.00     0.000 C 
BRANCH  18  19
ATOM     19  C   UNL     1       4.187 -22.421  16.650  1.00  0.00     0.000 C 
BRANCH  19  20
ATOM     20  C   UNL     1       5.180 -21.948  17.734  1.00  0.00     0.000 C 
BRANCH  20  21
ATOM     21  C   UNL     1       6.604 -21.699  17.210  1.00  0.00     0.000 C 
BRANCH  21  22
ATOM     22  C   UNL     1       6.930 -22.518  15.951  1.00  0.00    -0.000 C 
BRANCH  22  23
ATOM     23  C   UNL     1       8.202 -22.036  15.236  1.00  0.00    -0.000 C 
BRANCH  23  24
ATOM     24  C   UNL     1       8.805 -23.105  14.303  1.00  0.00    -0.000 C 
BRANCH  24  25
ATOM     25  C   UNL     1       8.584 -22.790  12.816  1.00  0.00    -0.000 C 
BRANCH  25  26
ATOM     26  C   UNL     1       7.096 -22.709  12.442  1.00  0.00    -0.000 C 
BRANCH  26  27
ATOM     27  C   UNL     1       6.800 -21.427  11.650  1.00  0.00    -0.000 C 
BRANCH  27  28
ATOM     28  C   UNL     1       7.380 -21.457  10.224  1.00  0.00    -0.000 C 
BRANCH  28  29
ATOM     29  C   UNL     1       7.454 -20.083   9.529  1.00  0.00    -0.003 C 
ATOM     30  C   UNL     1       6.785 -18.969  10.335  1.00  0.00     0.004 C 
ENDBRANCH  28  29
ENDBRANCH  27  28
ENDBRANCH  26  27
ENDBRANCH  25  26
ENDBRANCH  24  25
ENDBRANCH  23  24
ENDBRANCH  22  23
ENDBRANCH  21  22
ENDBRANCH  20  21
ENDBRANCH  19  20
ENDBRANCH  18  19
ENDBRANCH  17  18
ENDBRANCH   1  17
TORSDOF 26
ENDMDL
MODEL 6
REMARK VINA RESULT:    -1.528      1.283      2.018
REMARK INTER + INTRA:          -5.233
REMARK INTER:                  -4.245
REMARK INTRA:                  -0.988
REMARK UNBOUND:                -1.382
REMARK SMILES CCCCCCCCCCCCCCCCCCCCCCCCCCCC(=O)[O-]
REMARK SMILES IDX 15 1 16 2 17 3 18 4 19 5 20 6 21 7 22 8 23 9 24 10 25 11
REMARK SMILES IDX 26 12 27 13 28 14 29 15 30 16 14 17 13 18 12 19 11 20 10 21
REMARK SMILES IDX 9 22 8 23 7 24 6 25 5 26 4 27 3 28 2 29 1 30
REMARK H PARENT
REMARK Flexibility Score: inf
ROOT
ATOM      1  C   UNL     1       1.728 -23.121  15.846  1.00  0.00     0.000 C 
ENDROOT
BRANCH   1   2
ATOM      2  C   UNL     1       3.015 -22.281  15.725  1.00  0.00     0.000 C 
BRANCH   2   3
ATOM      3  C   UNL     1       3.640 -21.967  17.097  1.00  0.00     0.000 C 
BRANCH   3   4
ATOM      4  C   UNL     1       5.175 -22.063  17.081  1.00  0.00     0.000 C 
BRANCH   4   5
ATOM      5  C   UNL     1       5.720 -22.535  15.720  1.00  0.00     0.000 C 
BRANCH   5   6
ATOM      6  C   UNL     1       7.252 -22.665  15.711  1.00  0.00     0.000 C 
BRANCH   6   7
ATOM      7  C   UNL     1       7.949 -21.340  15.350  1.00  0.00     0.000 C 
BRANCH   7   8
ATOM      8  C   UNL     1       9.123 -21.534  14.378  1.00  0.00     0.000 C 
BRANCH   8   9
ATOM      9  C   UNL     1       9.016 -22.836  13.568  1.00  0.00     0.000 C 
BRANCH   9  10
ATOM     10  C   UNL     1       8.657 -22.545  12.103  1.00  0.00     0.000 C 
BRANCH  10  11
ATOM     11  C   UNL     1       9.084 -21.137  11.647  1.00  0.00     0.000 C 
BRANCH  11  12
ATOM     12  C   UNL     1       7.924 -20.184  11.290  1.00  0.00     0.006 C 
BRANCH  12  13
ATOM     13  C   UNL     1       7.221 -20.506   9.961  1.00  0.00     0.053 C 
BRANCH  13  14
ATOM     14  C   UNL     1       8.181 -20.996   8.921  1.00  0.00     0.041 C 
ATOM     15  O   UNL     1       8.266 -22.227   8.669  1.00  0.00    -0.550 OA
ATOM     16  O   UNL     1       8.957 -20.091   8.207  1.00  0.00    -0.550 OA
ENDBRANCH  13  14
ENDBRANCH  12  13
ENDBRANCH  11  12
ENDBRANCH  10  11
ENDBRANCH   9  10
ENDBRANCH   8   9
ENDBRANCH   7   8
ENDBRANCH   6   7
ENDBRANCH   5   6
ENDBRANCH   4   5
ENDBRANCH   3   4
ENDBRANCH   2   3
ENDBRANCH   1   2
BRANCH   1  17
ATOM     17  C   UNL     1       0.464 -22.293  16.138  1.00  0.00     0.000 C 
BRANCH  17  18
ATOM     18  C   UNL     1      -0.828 -23.116  16.048  1.00  0.00     0.000 C 
BRANCH  18  19
ATOM     19  C   UNL     1      -2.070 -22.211  16.081  1.00  0.00     0.000 C 
BRANCH  19  20
ATOM     20  C   UNL     1      -3.385 -23.020  16.083  1.00  0.00     0.000 C 
BRANCH  20  21
ATOM     21  C   UNL     1      -4.061 -23.109  17.462  1.00  0.00     0.000 C 
BRANCH  21  22
ATOM     22  C   UNL     1      -5.594 -23.047  17.381  1.00  0.00    -0.000 C 
BRANCH  22  23
ATOM     23  C   UNL     1      -6.099 -21.989  16.387  1.00  0.00    -0.000 C 
BRANCH  23  24
ATOM     24  C   UNL     1      -7.636 -21.877  16.361  1.00  0.00    -0.000 C 
BRANCH  24  25
ATOM     25  C   UNL     1      -8.332 -23.090  16.998  1.00  0.00    -0.000 C 
BRANCH  25  26
ATOM     26  C   UNL     1      -8.524 -22.933  18.515  1.00  0.00    -0.000 C 
BRANCH  26  27
ATOM     27  C   UNL     1      -9.699 -21.994  18.824  1.00  0.00    -0.000 C 
BRANCH  27  28
ATOM     28  C   UNL     1     -10.119 -22.028  20.305  1.00  0.00    -0.000 C 
BRANCH  28  29
ATOM     29  C   UNL     1     -10.503 -20.658  20.897  1.00  0.00    -0.003 C 
ATOM     30  C   UNL     1     -10.040 -20.481  22.345  1.00  0.00     0.004 C 
ENDBRANCH  28  29
ENDBRANCH  27  28
ENDBRANCH  26  27
ENDBRANCH  25  26
ENDBRANCH  24  25
ENDBRANCH  23  24
ENDBRANCH  22  23
ENDBRANCH  21  22
ENDBRANCH  20  21
ENDBRANCH  19  20
ENDBRANCH  18  19
ENDBRANCH  17  18
ENDBRANCH   1  17
TORSDOF 26
ENDMDL
MODEL 7
REMARK VINA RESULT:    -1.051      1.889      4.159
REMARK INTER + INTRA:          -4.032
REMARK INTER:                  -3.465
REMARK INTRA:                  -0.567
REMARK UNBOUND:                -1.382
REMARK SMILES CCCCCCCCCCCCCCCCCCCCCCCCCCCC(=O)[O-]
REMARK SMILES IDX 15 1 16 2 17 3 18 4 19 5 20 6 21 7 22 8 23 9 24 10 25 11
REMARK SMILES IDX 26 12 27 13 28 14 29 15 30 16 14 17 13 18 12 19 11 20 10 21
REMARK SMILES IDX 9 22 8 23 7 24 6 25 5 26 4 27 3 28 2 29 1 30
REMARK H PARENT
REMARK Flexibility Score: inf
ROOT
ATOM      1  C   UNL     1      -4.582 -22.591  15.849  1.00  0.00     0.000 C 
ENDROOT
BRANCH   1   2
ATOM      2  C   UNL     1      -3.284 -22.929  16.611  1.00  0.00     0.000 C 
BRANCH   2   3
ATOM      3  C   UNL     1      -2.080 -22.112  16.107  1.00  0.00     0.000 C 
BRANCH   3   4
ATOM      4  C   UNL     1      -0.748 -22.594  16.706  1.00  0.00     0.000 C 
BRANCH   4   5
ATOM      5  C   UNL     1       0.302 -22.911  15.626  1.00  0.00     0.000 C 
BRANCH   5   6
ATOM      6  C   UNL     1       1.743 -22.736  16.134  1.00  0.00     0.000 C 
BRANCH   6   7
ATOM      7  C   UNL     1       2.762 -22.658  14.983  1.00  0.00     0.000 C 
BRANCH   7   8
ATOM      8  C   UNL     1       4.166 -23.125  15.402  1.00  0.00     0.000 C 
BRANCH   8   9
ATOM      9  C   UNL     1       4.978 -22.018  16.092  1.00  0.00     0.000 C 
BRANCH   9  10
ATOM     10  C   UNL     1       6.319 -22.562  16.612  1.00  0.00     0.000 C 
BRANCH  10  11
ATOM     11  C   UNL     1       7.417 -21.484  16.685  1.00  0.00     0.000 C 
BRANCH  11  12
ATOM     12  C   UNL     1       8.420 -21.490  15.512  1.00  0.00     0.006 C 
BRANCH  12  13
ATOM     13  C   UNL     1       8.058 -22.451  14.368  1.00  0.00     0.053 C 
BRANCH  13  14
ATOM     14  C   UNL     1       8.019 -21.756  13.042  1.00  0.00     0.041 C 
ATOM     15  O   UNL     1       8.401 -20.559  12.943  1.00  0.00    -0.550 OA
ATOM     16  O   UNL     1       7.593 -22.439  11.909  1.00  0.00    -0.550 OA
ENDBRANCH  13  14
ENDBRANCH  12  13
ENDBRANCH  11  12
ENDBRANCH  10  11
ENDBRANCH   9  10
ENDBRANCH   8   9
ENDBRANCH   7   8
ENDBRANCH   6   7
ENDBRANCH   5   6
ENDBRANCH   4   5
ENDBRANCH   3   4
ENDBRANCH   2   3
ENDBRANCH   1   2
BRANCH   1  17
ATOM     17  C   UNL     1      -5.866 -23.043  16.567  1.00  0.00     0.000 C 
BRANCH  17  18
ATOM     18  C   UNL     1      -6.792 -21.876  16.935  1.00  0.00     0.000 C 
BRANCH  18  19
ATOM     19  C   UNL     1      -8.043 -21.853  16.043  1.00  0.00     0.000 C 
BRANCH  19  20
ATOM     20  C   UNL     1      -8.221 -20.501  15.318  1.00  0.00     0.000 C 
BRANCH  20  21
ATOM     21  C   UNL     1      -9.538 -20.385  14.530  1.00  0.00     0.000 C 
BRANCH  21  22
ATOM     22  C   UNL     1     -10.671 -21.231  15.131  1.00  0.00    -0.000 C 
BRANCH  22  23
ATOM     23  C   UNL     1     -10.831 -21.028  16.646  1.00  0.00    -0.000 C 
BRANCH  23  24
ATOM     24  C   UNL     1     -10.996 -22.354  17.414  1.00  0.00    -0.000 C 
BRANCH  24  25
ATOM     25  C   UNL     1     -10.079 -22.447  18.643  1.00  0.00    -0.000 C 
BRANCH  25  26
ATOM     26  C   UNL     1     -10.759 -21.948  19.929  1.00  0.00    -0.000 C 
BRANCH  26  27
ATOM     27  C   UNL     1     -10.589 -20.430  20.083  1.00  0.00    -0.000 C 
BRANCH  27  28
ATOM     28  C   UNL     1     -10.288 -20.005  21.532  1.00  0.00    -0.000 C 
BRANCH  28  29
ATOM     29  C   UNL     1     -10.017 -21.171  22.503  1.00  0.00    -0.003 C 
ATOM     30  C   UNL     1      -8.578 -21.194  23.021  1.00  0.00     0.004 C 
ENDBRANCH  28  29
ENDBRANCH  27  28
ENDBRANCH  26  27
ENDBRANCH  25  26
ENDBRANCH  24  25
ENDBRANCH  23  24
ENDBRANCH  22  23
ENDBRANCH  21  22
ENDBRANCH  20  21
ENDBRANCH  19  20
ENDBRANCH  18  19
ENDBRANCH  17  18
ENDBRANCH   1  17
TORSDOF 26
ENDMDL
MODEL 8
REMARK VINA RESULT:    -0.781      5.173     15.395
REMARK INTER + INTRA:          -3.351
REMARK INTER:                  -1.559
REMARK INTRA:                  -1.792
REMARK UNBOUND:                -1.382
REMARK SMILES CCCCCCCCCCCCCCCCCCCCCCCCCCCC(=O)[O-]
REMARK SMILES IDX 15 1 16 2 17 3 18 4 19 5 20 6 21 7 22 8 23 9 24 10 25 11
REMARK SMILES IDX 26 12 27 13 28 14 29 15 30 16 14 17 13 18 12 19 11 20 10 21
REMARK SMILES IDX 9 22 8 23 7 24 6 25 5 26 4 27 3 28 2 29 1 30
REMARK H PARENT
REMARK Flexibility Score: inf
ROOT
ATOM      1  C   UNL     1      -3.881 -21.399  15.121  1.00  0.00     0.000 C 
ENDROOT
BRANCH   1   2
ATOM      2  C   UNL     1      -4.796 -22.374  15.889  1.00  0.00     0.000 C 
BRANCH   2   3
ATOM      3  C   UNL     1      -5.675 -21.655  16.929  1.00  0.00     0.000 C 
BRANCH   3   4
ATOM      4  C   UNL     1      -6.733 -22.584  17.548  1.00  0.00     0.000 C 
BRANCH   4   5
ATOM      5  C   UNL     1      -8.155 -22.274  17.044  1.00  0.00     0.000 C 
BRANCH   5   6
ATOM      6  C   UNL     1      -9.239 -23.021  17.839  1.00  0.00     0.000 C 
BRANCH   6   7
ATOM      7  C   UNL     1     -10.634 -22.397  17.652  1.00  0.00     0.000 C 
BRANCH   7   8
ATOM      8  C   UNL     1     -10.573 -20.899  17.315  1.00  0.00     0.000 C 
BRANCH   8   9
ATOM      9  C   UNL     1     -10.223 -20.029  18.533  1.00  0.00     0.000 C 
BRANCH   9  10
ATOM     10  C   UNL     1     -11.103 -20.394  19.740  1.00  0.00     0.000 C 
BRANCH  10  11
ATOM     11  C   UNL     1     -10.430 -20.083  21.090  1.00  0.00     0.000 C 
BRANCH  11  12
ATOM     12  C   UNL     1     -10.518 -21.210  22.140  1.00  0.00     0.006 C 
BRANCH  12  13
ATOM     13  C   UNL     1     -10.026 -22.581  21.648  1.00  0.00     0.053 C 
BRANCH  13  14
ATOM     14  C   UNL     1      -8.577 -22.802  21.956  1.00  0.00     0.041 C 
ATOM     15  O   UNL     1      -8.193 -22.905  23.152  1.00  0.00    -0.550 OA
ATOM     16  O   UNL     1      -7.656 -22.928  20.923  1.00  0.00    -0.550 OA
ENDBRANCH  13  14
ENDBRANCH  12  13
ENDBRANCH  11  12
ENDBRANCH  10  11
ENDBRANCH   9  10
ENDBRANCH   8   9
ENDBRANCH   7   8
ENDBRANCH   6   7
ENDBRANCH   5   6
ENDBRANCH   4   5
ENDBRANCH   3   4
ENDBRANCH   2   3
ENDBRANCH   1   2
BRANCH   1  17
ATOM     17  C   UNL     1      -2.435 -21.898  14.951  1.00  0.00     0.000 C 
BRANCH  17  18
ATOM     18  C   UNL     1      -1.794 -22.345  16.272  1.00  0.00     0.000 C 
BRANCH  18  19
ATOM     19  C   UNL     1      -0.297 -22.641  16.093  1.00  0.00     0.000 C 
BRANCH  19  20
ATOM     20  C   UNL     1       0.593 -21.673  16.902  1.00  0.00     0.000 C 
BRANCH  20  21
ATOM     21  C   UNL     1       2.048 -21.600  16.407  1.00  0.00     0.000 C 
BRANCH  21  22
ATOM     22  C   UNL     1       2.664 -22.986  16.155  1.00  0.00    -0.000 C 
BRANCH  22  23
ATOM     23  C   UNL     1       3.621 -23.006  14.952  1.00  0.00    -0.000 C 
BRANCH  23  24
ATOM     24  C   UNL     1       5.100 -23.124  15.367  1.00  0.00    -0.000 C 
BRANCH  24  25
ATOM     25  C   UNL     1       5.598 -21.900  16.152  1.00  0.00    -0.000 C 
BRANCH  25  26
ATOM     26  C   UNL     1       6.448 -22.285  17.373  1.00  0.00    -0.000 C 
BRANCH  26  27
ATOM     27  C   UNL     1       7.945 -22.232  17.036  1.00  0.00    -0.000 C 
BRANCH  27  28
ATOM     28  C   UNL     1       8.251 -21.354  15.807  1.00  0.00    -0.000 C 
BRANCH  28  29
ATOM     29  C   UNL     1       9.070 -22.052  14.704  1.00  0.00    -0.003 C 
ATOM     30  C   UNL     1       8.683 -21.600  13.295  1.00  0.00     0.004 C 
ENDBRANCH  28  29
ENDBRANCH  27  28
ENDBRANCH  26  27
ENDBRANCH  25  26
ENDBRANCH  24  25
ENDBRANCH  23  24
ENDBRANCH  22  23
ENDBRANCH  21  22
ENDBRANCH  20  21
ENDBRANCH  19  20
ENDBRANCH  18  19
ENDBRANCH  17  18
ENDBRANCH   1  17
TORSDOF 26
ENDMDL
