MODEL 1
REMARK VINA RESULT:    -3.808      0.000      0.000
REMARK INTER + INTRA:          -6.866
REMARK INTER:                  -5.812
REMARK INTRA:                  -1.055
REMARK UNBOUND:                -1.055
REMARK SMILES CCCCCCCCCCC(=O)[O-]
REMARK SMILES IDX 7 1 8 2 9 3 10 4 11 5 12 6 13 7 6 8 5 9 4 10 3 11 2 12 1 13
REMARK H PARENT
REMARK Flexibility Score: inf
ROOT
ATOM      1  C   UNL     1      99.191   1.346 -25.361  1.00  0.00     0.000 C 
ENDROOT
BRANCH   1   2
ATOM      2  C   UNL     1      99.764   0.446 -26.466  1.00  0.00     0.000 C 
BRANCH   2   3
ATOM      3  C   UNL     1      99.849   1.157 -27.825  1.00  0.00     0.006 C 
BRANCH   3   4
ATOM      4  C   UNL     1      98.938   0.519 -28.883  1.00  0.00     0.053 C 
BRANCH   4   5
ATOM      5  C   UNL     1      98.823   1.412 -30.078  1.00  0.00     0.041 C 
ATOM      6  O   UNL     1      97.833   2.181 -30.201  1.00  0.00    -0.550 OA
ATOM      7  O   UNL     1      99.831   1.430 -31.032  1.00  0.00    -0.550 OA
ENDBRANCH   4   5
ENDBRANCH   3   4
ENDBRANCH   2   3
ENDBRANCH   1   2
BRANCH   1   8
ATOM      8  C   UNL     1      97.682   1.548 -25.544  1.00  0.00     0.000 C 
BRANCH   8   9
ATOM      9  C   UNL     1      97.305   3.029 -25.427  1.00  0.00    -0.000 C 
BRANCH   9  10
ATOM     10  C   UNL     1      98.504   3.930 -25.767  1.00  0.00    -0.000 C 
BRANCH  10  11
ATOM     11  C   UNL     1      98.455   4.461 -27.208  1.00  0.00    -0.000 C 
BRANCH  11  12
ATOM     12  C   UNL     1      99.792   5.062 -27.661  1.00  0.00    -0.003 C 
ATOM     13  C   UNL     1     100.105   4.677 -29.106  1.00  0.00     0.004 C 
ENDBRANCH  11  12
ENDBRANCH  10  11
ENDBRANCH   9  10
ENDBRANCH   8   9
ENDBRANCH   1   8
TORSDOF 9
ENDMDL
MODEL 2
REMARK VINA RESULT:    -3.672      2.474      4.749
REMARK INTER + INTRA:          -6.659
REMARK INTER:                  -5.356
REMARK INTRA:                  -1.303
REMARK UNBOUND:                -1.055
REMARK SMILES CCCCCCCCCCC(=O)[O-]
REMARK SMILES IDX 7 1 8 2 9 3 10 4 11 5 12 6 13 7 6 8 5 9 4 10 3 11 2 12 1 13
REMARK H PARENT
REMARK Flexibility Score: inf
ROOT
ATOM      1  C   UNL     1      98.837   4.651 -27.156  1.00  0.00     0.000 C 
ENDROOT
BRANCH   1   2
ATOM      2  C   UNL     1      98.625   3.805 -25.892  1.00  0.00     0.000 C 
BRANCH   2   3
ATOM      3  C   UNL     1      97.217   3.193 -25.818  1.00  0.00     0.006 C 
BRANCH   3   4
ATOM      4  C   UNL     1      96.285   3.722 -26.916  1.00  0.00     0.053 C 
BRANCH   4   5
ATOM      5  C   UNL     1      94.877   3.287 -26.658  1.00  0.00     0.041 C 
ATOM      6  O   UNL     1      94.442   3.216 -25.478  1.00  0.00    -0.550 OA
ATOM      7  O   UNL     1      94.029   3.006 -27.721  1.00  0.00    -0.550 OA
ENDBRANCH   4   5
ENDBRANCH   3   4
ENDBRANCH   2   3
ENDBRANCH   1   2
BRANCH   1   8
ATOM      8  C   UNL     1      99.839   3.982 -28.105  1.00  0.00     0.000 C 
BRANCH   8   9
ATOM      9  C   UNL     1      99.150   3.503 -29.388  1.00  0.00    -0.000 C 
BRANCH   9  10
ATOM     10  C   UNL     1      98.727   2.030 -29.268  1.00  0.00    -0.000 C 
BRANCH  10  11
ATOM     11  C   UNL     1      99.735   1.188 -28.469  1.00  0.00    -0.000 C 
BRANCH  11  12
ATOM     12  C   UNL     1      99.064   0.335 -27.385  1.00  0.00    -0.003 C 
ATOM     13  C   UNL     1      99.866   0.368 -26.086  1.00  0.00     0.004 C 
ENDBRANCH  11  12
ENDBRANCH  10  11
ENDBRANCH   9  10
ENDBRANCH   8   9
ENDBRANCH   1   8
TORSDOF 9
ENDMDL
MODEL 3
REMARK VINA RESULT:    -3.627      2.992      4.448
REMARK INTER + INTRA:          -6.590
REMARK INTER:                  -5.496
REMARK INTRA:                  -1.095
REMARK UNBOUND:                -1.055
REMARK SMILES CCCCCCCCCCC(=O)[O-]
REMARK SMILES IDX 7 1 8 2 9 3 10 4 11 5 12 6 13 7 6 8 5 9 4 10 3 11 2 12 1 13
REMARK H PARENT
REMARK Flexibility Score: inf
ROOT
ATOM      1  C   UNL     1     100.064   1.782 -28.719  1.00  0.00     0.000 C 
ENDROOT
BRANCH   1   2
ATOM      2  C   UNL     1      99.205   0.776 -27.938  1.00  0.00     0.000 C 
BRANCH   2   3
ATOM      3  C   UNL     1      99.748   0.503 -26.527  1.00  0.00     0.006 C 
BRANCH   3   4
ATOM      4  C   UNL     1      98.770  -0.306 -25.665  1.00  0.00     0.053 C 
BRANCH   4   5
ATOM      5  C   UNL     1      99.159  -0.226 -24.222  1.00  0.00     0.041 C 
ATOM      6  O   UNL     1      99.398  -1.278 -23.572  1.00  0.00    -0.550 OA
ATOM      7  O   UNL     1      99.306   1.010 -23.608  1.00  0.00    -0.550 OA
ENDBRANCH   4   5
ENDBRANCH   3   4
ENDBRANCH   2   3
ENDBRANCH   1   2
BRANCH   1   8
ATOM      8  C   UNL     1      99.192   2.872 -29.354  1.00  0.00     0.000 C 
BRANCH   8   9
ATOM      9  C   UNL     1      99.884   4.239 -29.290  1.00  0.00    -0.000 C 
BRANCH   9  10
ATOM     10  C   UNL     1      99.788   4.838 -27.878  1.00  0.00    -0.000 C 
BRANCH  10  11
ATOM     11  C   UNL     1      98.422   4.586 -27.220  1.00  0.00    -0.000 C 
BRANCH  11  12
ATOM     12  C   UNL     1      98.544   3.929 -25.839  1.00  0.00    -0.003 C 
ATOM     13  C   UNL     1      97.274   3.159 -25.484  1.00  0.00     0.004 C 
ENDBRANCH  11  12
ENDBRANCH  10  11
ENDBRANCH   9  10
ENDBRANCH   8   9
ENDBRANCH   1   8
TORSDOF 9
ENDMDL
MODEL 4
REMARK VINA RESULT:    -3.618      2.251      3.957
REMARK INTER + INTRA:          -6.576
REMARK INTER:                  -5.815
REMARK INTRA:                  -0.761
REMARK UNBOUND:                -1.055
REMARK SMILES CCCCCCCCCCC(=O)[O-]
REMARK SMILES IDX 7 1 8 2 9 3 10 4 11 5 12 6 13 7 6 8 5 9 4 10 3 11 2 12 1 13
REMARK H PARENT
REMARK Flexibility Score: inf
ROOT
ATOM      1  C   UNL     1      98.137   3.851 -26.358  1.00  0.00     0.000 C 
ENDROOT
BRANCH   1   2
ATOM      2  C   UNL     1      98.611   3.678 -24.907  1.00  0.00     0.000 C 
BRANCH   2   3
ATOM      3  C   UNL     1      98.893   2.212 -24.546  1.00  0.00     0.006 C 
BRANCH   3   4
ATOM      4  C   UNL     1      99.537   1.433 -25.700  1.00  0.00     0.053 C 
BRANCH   4   5
ATOM      5  C   UNL     1      98.758   0.188 -25.988  1.00  0.00     0.041 C 
ATOM      6  O   UNL     1      98.903  -0.409 -27.088  1.00  0.00    -0.550 OA
ATOM      7  O   UNL     1      97.909  -0.340 -25.025  1.00  0.00    -0.550 OA
ENDBRANCH   4   5
ENDBRANCH   3   4
ENDBRANCH   2   3
ENDBRANCH   1   2
BRANCH   1   8
ATOM      8  C   UNL     1      99.032   4.840 -27.114  1.00  0.00     0.000 C 
BRANCH   8   9
ATOM      9  C   UNL     1      98.397   5.250 -28.448  1.00  0.00    -0.000 C 
BRANCH   9  10
ATOM     10  C   UNL     1      98.552   4.136 -29.496  1.00  0.00    -0.000 C 
BRANCH  10  11
ATOM     11  C   UNL     1      99.998   3.627 -29.609  1.00  0.00    -0.000 C 
BRANCH  11  12
ATOM     12  C   UNL     1     100.125   2.132 -29.288  1.00  0.00    -0.003 C 
ATOM     13  C   UNL     1      99.774   1.278 -30.505  1.00  0.00     0.004 C 
ENDBRANCH  11  12
ENDBRANCH  10  11
ENDBRANCH   9  10
ENDBRANCH   8   9
ENDBRANCH   1   8
TORSDOF 9
ENDMDL
MODEL 5
REMARK VINA RESULT:    -3.589      2.954      4.428
REMARK INTER + INTRA:          -6.532
REMARK INTER:                  -5.417
REMARK INTRA:                  -1.116
REMARK UNBOUND:                -1.055
REMARK SMILES CCCCCCCCCCC(=O)[O-]
REMARK SMILES IDX 7 1 8 2 9 3 10 4 11 5 12 6 13 7 6 8 5 9 4 10 3 11 2 12 1 13
REMARK H PARENT
REMARK Flexibility Score: inf
ROOT
ATOM      1  C   UNL     1      97.299   3.457 -26.125  1.00  0.00     0.000 C 
ENDROOT
BRANCH   1   2
ATOM      2  C   UNL     1      98.403   3.444 -25.057  1.00  0.00     0.000 C 
BRANCH   2   3
ATOM      3  C   UNL     1      98.901   2.026 -24.737  1.00  0.00     0.006 C 
BRANCH   3   4
ATOM      4  C   UNL     1      97.973   0.936 -25.289  1.00  0.00     0.053 C 
BRANCH   4   5
ATOM      5  C   UNL     1      97.662  -0.071 -24.227  1.00  0.00     0.041 C 
ATOM      6  O   UNL     1      97.491   0.299 -23.035  1.00  0.00    -0.550 OA
ATOM      7  O   UNL     1      97.512  -1.410 -24.560  1.00  0.00    -0.550 OA
ENDBRANCH   4   5
ENDBRANCH   3   4
ENDBRANCH   2   3
ENDBRANCH   1   2
BRANCH   1   8
ATOM      8  C   UNL     1      97.609   4.479 -27.225  1.00  0.00     0.000 C 
BRANCH   8   9
ATOM      9  C   UNL     1      99.105   4.814 -27.261  1.00  0.00    -0.000 C 
BRANCH   9  10
ATOM     10  C   UNL     1      99.604   4.945 -28.709  1.00  0.00    -0.000 C 
BRANCH  10  11
ATOM     11  C   UNL     1      99.529   3.620 -29.483  1.00  0.00    -0.000 C 
BRANCH  11  12
ATOM     12  C   UNL     1     100.125   2.443 -28.698  1.00  0.00    -0.003 C 
ATOM     13  C   UNL     1      99.211   1.222 -28.762  1.00  0.00     0.004 C 
ENDBRANCH  11  12
ENDBRANCH  10  11
ENDBRANCH   9  10
ENDBRANCH   8   9
ENDBRANCH   1   8
TORSDOF 9
ENDMDL
MODEL 6
REMARK VINA RESULT:    -3.534      4.101      5.761
REMARK INTER + INTRA:          -6.448
REMARK INTER:                  -5.633
REMARK INTRA:                  -0.814
REMARK UNBOUND:                -1.055
REMARK SMILES CCCCCCCCCCC(=O)[O-]
REMARK SMILES IDX 7 1 8 2 9 3 10 4 11 5 12 6 13 7 6 8 5 9 4 10 3 11 2 12 1 13
REMARK H PARENT
REMARK Flexibility Score: inf
ROOT
ATOM      1  C   UNL     1      95.915   3.123 -26.461  1.00  0.00     0.000 C 
ENDROOT
BRANCH   1   2
ATOM      2  C   UNL     1      94.793   4.167 -26.365  1.00  0.00     0.000 C 
BRANCH   2   3
ATOM      3  C   UNL     1      93.872   3.938 -25.156  1.00  0.00     0.006 C 
BRANCH   3   4
ATOM      4  C   UNL     1      92.908   5.108 -24.918  1.00  0.00     0.053 C 
BRANCH   4   5
ATOM      5  C   UNL     1      92.090   5.366 -26.144  1.00  0.00     0.041 C 
ATOM      6  O   UNL     1      91.264   4.504 -26.547  1.00  0.00    -0.550 OA
ATOM      7  O   UNL     1      92.203   6.576 -26.814  1.00  0.00    -0.550 OA
ENDBRANCH   4   5
ENDBRANCH   3   4
ENDBRANCH   2   3
ENDBRANCH   1   2
BRANCH   1   8
ATOM      8  C   UNL     1      96.694   3.030 -25.144  1.00  0.00     0.000 C 
BRANCH   8   9
ATOM      9  C   UNL     1      98.118   3.573 -25.305  1.00  0.00    -0.000 C 
BRANCH   9  10
ATOM     10  C   UNL     1      98.622   3.376 -26.744  1.00  0.00    -0.000 C 
BRANCH  10  11
ATOM     11  C   UNL     1      99.304   4.632 -27.309  1.00  0.00    -0.000 C 
BRANCH  11  12
ATOM     12  C   UNL     1      98.508   5.270 -28.456  1.00  0.00    -0.003 C 
ATOM     13  C   UNL     1      98.041   4.213 -29.454  1.00  0.00     0.004 C 
ENDBRANCH  11  12
ENDBRANCH  10  11
ENDBRANCH   9  10
ENDBRANCH   8   9
ENDBRANCH   1   8
TORSDOF 9
ENDMDL
MODEL 7
REMARK VINA RESULT:    -3.490      2.893      4.238
REMARK INTER + INTRA:          -6.382
REMARK INTER:                  -5.116
REMARK INTRA:                  -1.266
REMARK UNBOUND:                -1.055
REMARK SMILES CCCCCCCCCCC(=O)[O-]
REMARK SMILES IDX 7 1 8 2 9 3 10 4 11 5 12 6 13 7 6 8 5 9 4 10 3 11 2 12 1 13
REMARK H PARENT
REMARK Flexibility Score: inf
ROOT
ATOM      1  C   UNL     1      99.717   1.367 -26.675  1.00  0.00     0.000 C 
ENDROOT
BRANCH   1   2
ATOM      2  C   UNL     1      98.591   1.566 -25.650  1.00  0.00     0.000 C 
BRANCH   2   3
ATOM      3  C   UNL     1      98.080   3.014 -25.604  1.00  0.00     0.006 C 
BRANCH   3   4
ATOM      4  C   UNL     1      96.751   3.195 -26.348  1.00  0.00     0.053 C 
BRANCH   4   5
ATOM      5  C   UNL     1      95.619   3.302 -25.375  1.00  0.00     0.041 C 
ATOM      6  O   UNL     1      95.725   2.803 -24.224  1.00  0.00    -0.550 OA
ATOM      7  O   UNL     1      94.467   3.995 -25.721  1.00  0.00    -0.550 OA
ENDBRANCH   4   5
ENDBRANCH   3   4
ENDBRANCH   2   3
ENDBRANCH   1   2
BRANCH   1   8
ATOM      8  C   UNL     1      99.183   0.731 -27.964  1.00  0.00     0.000 C 
BRANCH   8   9
ATOM      9  C   UNL     1      99.529   1.587 -29.187  1.00  0.00    -0.000 C 
BRANCH   9  10
ATOM     10  C   UNL     1      98.294   2.351 -29.691  1.00  0.00    -0.000 C 
BRANCH  10  11
ATOM     11  C   UNL     1      98.437   3.874 -29.535  1.00  0.00    -0.000 C 
BRANCH  11  12
ATOM     12  C   UNL     1      99.880   4.304 -29.238  1.00  0.00    -0.003 C 
ATOM     13  C   UNL     1      99.944   5.193 -27.998  1.00  0.00     0.004 C 
ENDBRANCH  11  12
ENDBRANCH  10  11
ENDBRANCH   9  10
ENDBRANCH   8   9
ENDBRANCH   1   8
TORSDOF 9
ENDMDL
MODEL 8
REMARK VINA RESULT:    -3.478      1.494      4.083
REMARK INTER + INTRA:          -6.362
REMARK INTER:                  -5.594
REMARK INTRA:                  -0.768
REMARK UNBOUND:                -1.055
REMARK SMILES CCCCCCCCCCC(=O)[O-]
REMARK SMILES IDX 7 1 8 2 9 3 10 4 11 5 12 6 13 7 6 8 5 9 4 10 3 11 2 12 1 13
REMARK H PARENT
REMARK Flexibility Score: inf
ROOT
ATOM      1  C   UNL     1      98.132   3.722 -26.505  1.00  0.00     0.000 C 
ENDROOT
BRANCH   1   2
ATOM      2  C   UNL     1      99.076   4.780 -27.095  1.00  0.00     0.000 C 
BRANCH   2   3
ATOM      3  C   UNL     1      99.932   4.233 -28.248  1.00  0.00     0.006 C 
BRANCH   3   4
ATOM      4  C   UNL     1      99.771   2.718 -28.435  1.00  0.00     0.053 C 
BRANCH   4   5
ATOM      5  C   UNL     1      99.180   2.418 -29.776  1.00  0.00     0.041 C 
ATOM      6  O   UNL     1      99.863   1.820 -30.649  1.00  0.00    -0.550 OA
ATOM      7  O   UNL     1      97.861   2.755 -30.047  1.00  0.00    -0.550 OA
ENDBRANCH   4   5
ENDBRANCH   3   4
ENDBRANCH   2   3
ENDBRANCH   1   2
BRANCH   1   8
ATOM      8  C   UNL     1      98.402   3.517 -25.009  1.00  0.00     0.000 C 
BRANCH   8   9
ATOM      9  C   UNL     1      98.997   2.130 -24.741  1.00  0.00    -0.000 C 
BRANCH   9  10
ATOM     10  C   UNL     1      98.170   1.034 -25.431  1.00  0.00    -0.000 C 
BRANCH  10  11
ATOM     11  C   UNL     1      99.013  -0.194 -25.808  1.00  0.00    -0.000 C 
BRANCH  11  12
ATOM     12  C   UNL     1      98.561  -1.467 -25.080  1.00  0.00    -0.003 C 
ATOM     13  C   UNL     1      99.616  -1.931 -24.079  1.00  0.00     0.004 C 
ENDBRANCH  11  12
ENDBRANCH  10  11
ENDBRANCH   9  10
ENDBRANCH   8   9
ENDBRANCH   1   8
TORSDOF 9
ENDMDL
