MODEL 1
REMARK VINA RESULT:    -4.647      0.000      0.000
REMARK INTER + INTRA:          -6.393
REMARK INTER:                  -6.006
REMARK INTRA:                  -0.387
REMARK UNBOUND:                -0.387
REMARK SMILES CCO[C@H]1O[C@@H](CO)[C@@H](O)[C@H](O)[C@H]1O
REMARK SMILES IDX 4 1 13 2 11 3 9 4 6 5 5 6 3 7 2 8 1 9 14 10 12 12 7 14 8 15
REMARK SMILES IDX 10 17
REMARK H PARENT 14 11 12 13 8 16 10 18
REMARK Flexibility Score: inf
ROOT
ATOM      1  C   UNL     1      11.295  -5.273  37.252  1.00  0.00     0.281 C 
ATOM      2  C   UNL     1      11.173  -5.166  35.712  1.00  0.00     0.202 C 
ATOM      3  C   UNL     1      11.963  -3.944  35.180  1.00  0.00     0.179 C 
ATOM      4  C   UNL     1      11.960  -2.773  36.198  1.00  0.00     0.177 C 
ATOM      5  C   UNL     1      10.769  -2.921  37.180  1.00  0.00     0.178 C 
ATOM      6  O   UNL     1      10.833  -4.116  37.954  1.00  0.00    -0.341 OA
ENDROOT
BRANCH   1   7
ATOM      7  O   UNL     1      12.645  -5.528  37.599  1.00  0.00    -0.350 OA
BRANCH   7   8
ATOM      8  C   UNL     1      12.739  -5.937  38.949  1.00  0.00     0.160 C 
ATOM      9  C   UNL     1      13.905  -6.903  39.094  1.00  0.00     0.035 C 
ENDBRANCH   7   8
ENDBRANCH   1   7
BRANCH   2  10
ATOM     10  O   UNL     1      11.581  -6.355  35.079  1.00  0.00    -0.385 OA
ATOM     11  H   UNL     1      11.172  -6.379  34.175  1.00  0.00     0.211 HD
ENDBRANCH   2  10
BRANCH   3  12
ATOM     12  O   UNL     1      11.448  -3.535  33.937  1.00  0.00    -0.387 OA
ATOM     13  H   UNL     1      12.117  -3.769  33.241  1.00  0.00     0.211 HD
ENDBRANCH   3  12
BRANCH   5  14
ATOM     14  C   UNL     1      10.686  -1.719  38.131  1.00  0.00     0.191 C 
BRANCH  14  15
ATOM     15  O   UNL     1      11.525  -0.686  37.688  1.00  0.00    -0.394 OA
ATOM     16  H   UNL     1      10.949   0.113  37.553  1.00  0.00     0.210 HD
ENDBRANCH  14  15
ENDBRANCH   5  14
BRANCH   4  17
ATOM     17  O   UNL     1      13.174  -2.774  36.910  1.00  0.00    -0.387 OA
ATOM     18  H   UNL     1      13.747  -3.482  36.515  1.00  0.00     0.211 HD
ENDBRANCH   4  17
TORSDOF 7
ENDMDL
MODEL 2
REMARK VINA RESULT:    -4.279      1.911      3.935
REMARK INTER + INTRA:          -5.917
REMARK INTER:                  -5.599
REMARK INTRA:                  -0.318
REMARK UNBOUND:                -0.387
REMARK SMILES CCO[C@H]1O[C@@H](CO)[C@@H](O)[C@H](O)[C@H]1O
REMARK SMILES IDX 4 1 13 2 11 3 9 4 6 5 5 6 3 7 2 8 1 9 14 10 12 12 7 14 8 15
REMARK SMILES IDX 10 17
REMARK H PARENT 14 11 12 13 8 16 10 18
REMARK Flexibility Score: inf
ROOT
ATOM      1  C   UNL     1      10.509  -4.665  34.827  1.00  0.00     0.281 C 
ATOM      2  C   UNL     1      10.867  -6.053  35.414  1.00  0.00     0.202 C 
ATOM      3  C   UNL     1      11.291  -5.931  36.898  1.00  0.00     0.179 C 
ATOM      4  C   UNL     1      12.013  -4.588  37.180  1.00  0.00     0.177 C 
ATOM      5  C   UNL     1      12.582  -4.000  35.862  1.00  0.00     0.178 C 
ATOM      6  O   UNL     1      11.571  -3.711  34.901  1.00  0.00    -0.341 OA
ENDROOT
BRANCH   1   7
ATOM      7  O   UNL     1       9.367  -4.154  35.494  1.00  0.00    -0.350 OA
BRANCH   7   8
ATOM      8  C   UNL     1       8.301  -3.977  34.584  1.00  0.00     0.160 C 
ATOM      9  C   UNL     1       7.115  -3.374  35.321  1.00  0.00     0.035 C 
ENDBRANCH   7   8
ENDBRANCH   1   7
BRANCH   2  10
ATOM     10  O   UNL     1       9.809  -6.967  35.255  1.00  0.00    -0.385 OA
ATOM     11  H   UNL     1       9.545  -6.971  34.299  1.00  0.00     0.211 HD
ENDBRANCH   2  10
BRANCH   3  12
ATOM     12  O   UNL     1      12.095  -7.025  37.266  1.00  0.00    -0.387 OA
ATOM     13  H   UNL     1      11.500  -7.811  37.387  1.00  0.00     0.211 HD
ENDBRANCH   3  12
BRANCH   5  14
ATOM     14  C   UNL     1      13.390  -2.723  36.132  1.00  0.00     0.191 C 
BRANCH  14  15
ATOM     15  O   UNL     1      12.545  -1.694  36.572  1.00  0.00    -0.394 OA
ATOM     16  H   UNL     1      12.447  -1.059  35.813  1.00  0.00     0.210 HD
ENDBRANCH  14  15
ENDBRANCH   5  14
BRANCH   4  17
ATOM     17  O   UNL     1      11.102  -3.682  37.755  1.00  0.00    -0.387 OA
ATOM     18  H   UNL     1      11.054  -3.888  38.726  1.00  0.00     0.211 HD
ENDBRANCH   4  17
TORSDOF 7
ENDMDL
MODEL 3
REMARK VINA RESULT:    -4.236      3.342      4.898
REMARK INTER + INTRA:          -5.862
REMARK INTER:                  -5.417
REMARK INTRA:                  -0.445
REMARK UNBOUND:                -0.387
REMARK SMILES CCO[C@H]1O[C@@H](CO)[C@@H](O)[C@H](O)[C@H]1O
REMARK SMILES IDX 4 1 13 2 11 3 9 4 6 5 5 6 3 7 2 8 1 9 14 10 12 12 7 14 8 15
REMARK SMILES IDX 10 17
REMARK H PARENT 14 11 12 13 8 16 10 18
REMARK Flexibility Score: inf
ROOT
ATOM      1  C   UNL     1       8.490  -6.453  35.774  1.00  0.00     0.281 C 
ATOM      2  C   UNL     1       7.516  -5.279  36.044  1.00  0.00     0.202 C 
ATOM      3  C   UNL     1       7.587  -4.231  34.906  1.00  0.00     0.179 C 
ATOM      4  C   UNL     1       9.012  -4.137  34.301  1.00  0.00     0.177 C 
ATOM      5  C   UNL     1      10.058  -4.681  35.310  1.00  0.00     0.178 C 
ATOM      6  O   UNL     1       9.856  -6.054  35.632  1.00  0.00    -0.341 OA
ENDROOT
BRANCH   1   7
ATOM      7  O   UNL     1       8.077  -7.146  34.610  1.00  0.00    -0.350 OA
BRANCH   7   8
ATOM      8  C   UNL     1       8.777  -8.368  34.488  1.00  0.00     0.160 C 
ATOM      9  C   UNL     1       9.531  -8.377  33.167  1.00  0.00     0.035 C 
ENDBRANCH   7   8
ENDBRANCH   1   7
BRANCH   2  10
ATOM     10  O   UNL     1       6.200  -5.737  36.239  1.00  0.00    -0.385 OA
ATOM     11  H   UNL     1       5.655  -4.976  36.571  1.00  0.00     0.211 HD
ENDBRANCH   2  10
BRANCH   3  12
ATOM     12  O   UNL     1       7.151  -2.977  35.371  1.00  0.00    -0.387 OA
ATOM     13  H   UNL     1       7.296  -2.952  36.354  1.00  0.00     0.211 HD
ENDBRANCH   3  12
BRANCH   5  14
ATOM     14  C   UNL     1      11.485  -4.502  34.774  1.00  0.00     0.191 C 
BRANCH  14  15
ATOM     15  O   UNL     1      11.521  -3.488  33.806  1.00  0.00    -0.394 OA
ATOM     16  H   UNL     1      11.798  -2.656  34.273  1.00  0.00     0.210 HD
ENDBRANCH  14  15
ENDBRANCH   5  14
BRANCH   4  17
ATOM     17  O   UNL     1       9.061  -4.883  33.109  1.00  0.00    -0.387 OA
ATOM     18  H   UNL     1       9.987  -5.229  33.015  1.00  0.00     0.211 HD
ENDBRANCH   4  17
TORSDOF 7
ENDMDL
MODEL 4
REMARK VINA RESULT:    -4.218      2.516      4.351
REMARK INTER + INTRA:          -5.838
REMARK INTER:                  -5.385
REMARK INTRA:                  -0.453
REMARK UNBOUND:                -0.387
REMARK SMILES CCO[C@H]1O[C@@H](CO)[C@@H](O)[C@H](O)[C@H]1O
REMARK SMILES IDX 4 1 13 2 11 3 9 4 6 5 5 6 3 7 2 8 1 9 14 10 12 12 7 14 8 15
REMARK SMILES IDX 10 17
REMARK H PARENT 14 11 12 13 8 16 10 18
REMARK Flexibility Score: inf
ROOT
ATOM      1  C   UNL     1       8.542  -5.199  35.643  1.00  0.00     0.281 C 
ATOM      2  C   UNL     1       9.182  -4.176  34.672  1.00  0.00     0.202 C 
ATOM      3  C   UNL     1      10.618  -4.606  34.285  1.00  0.00     0.179 C 
ATOM      4  C   UNL     1      11.325  -5.355  35.446  1.00  0.00     0.177 C 
ATOM      5  C   UNL     1      10.650  -5.004  36.797  1.00  0.00     0.178 C 
ATOM      6  O   UNL     1       9.280  -5.393  36.852  1.00  0.00    -0.341 OA
ENDROOT
BRANCH   1   7
ATOM      7  O   UNL     1       8.388  -6.442  34.979  1.00  0.00    -0.350 OA
BRANCH   7   8
ATOM      8  C   UNL     1       7.233  -7.110  35.445  1.00  0.00     0.160 C 
ATOM      9  C   UNL     1       6.115  -6.096  35.633  1.00  0.00     0.035 C 
ENDBRANCH   7   8
ENDBRANCH   1   7
BRANCH   2  10
ATOM     10  O   UNL     1       8.381  -3.978  33.532  1.00  0.00    -0.385 OA
ATOM     11  H   UNL     1       8.520  -4.747  32.921  1.00  0.00     0.211 HD
ENDBRANCH   2  10
BRANCH   3  12
ATOM     12  O   UNL     1      11.367  -3.489  33.874  1.00  0.00    -0.387 OA
ATOM     13  H   UNL     1      11.571  -3.601  32.908  1.00  0.00     0.211 HD
ENDBRANCH   3  12
BRANCH   5  14
ATOM     14  C   UNL     1      11.398  -5.652  37.972  1.00  0.00     0.191 C 
BRANCH  14  15
ATOM     15  O   UNL     1      12.732  -5.904  37.622  1.00  0.00    -0.394 OA
ATOM     16  H   UNL     1      13.128  -6.430  38.366  1.00  0.00     0.210 HD
ENDBRANCH  14  15
ENDBRANCH   5  14
BRANCH   4  17
ATOM     17  O   UNL     1      11.251  -6.741  35.217  1.00  0.00    -0.387 OA
ATOM     18  H   UNL     1      12.150  -7.040  34.921  1.00  0.00     0.211 HD
ENDBRANCH   4  17
TORSDOF 7
ENDMDL
MODEL 5
REMARK VINA RESULT:    -4.194      1.646      2.130
REMARK INTER + INTRA:          -5.807
REMARK INTER:                  -5.637
REMARK INTRA:                  -0.170
REMARK UNBOUND:                -0.387
REMARK SMILES CCO[C@H]1O[C@@H](CO)[C@@H](O)[C@H](O)[C@H]1O
REMARK SMILES IDX 4 1 13 2 11 3 9 4 6 5 5 6 3 7 2 8 1 9 14 10 12 12 7 14 8 15
REMARK SMILES IDX 10 17
REMARK H PARENT 14 11 12 13 8 16 10 18
REMARK Flexibility Score: inf
ROOT
ATOM      1  C   UNL     1      10.667  -5.314  37.042  1.00  0.00     0.281 C 
ATOM      2  C   UNL     1       9.570  -5.066  35.976  1.00  0.00     0.202 C 
ATOM      3  C   UNL     1      10.200  -4.811  34.585  1.00  0.00     0.179 C 
ATOM      4  C   UNL     1      11.568  -4.088  34.698  1.00  0.00     0.177 C 
ATOM      5  C   UNL     1      11.674  -3.355  36.061  1.00  0.00     0.178 C 
ATOM      6  O   UNL     1      11.602  -4.241  37.175  1.00  0.00    -0.341 OA
ENDROOT
BRANCH   1   7
ATOM      7  O   UNL     1      11.361  -6.509  36.729  1.00  0.00    -0.350 OA
BRANCH   7   8
ATOM      8  C   UNL     1      11.323  -7.404  37.822  1.00  0.00     0.160 C 
ATOM      9  C   UNL     1      12.696  -7.449  38.475  1.00  0.00     0.035 C 
ENDBRANCH   7   8
ENDBRANCH   1   7
BRANCH   2  10
ATOM     10  O   UNL     1       8.644  -6.124  35.935  1.00  0.00    -0.385 OA
ATOM     11  H   UNL     1       9.069  -6.887  35.463  1.00  0.00     0.211 HD
ENDBRANCH   2  10
BRANCH   3  12
ATOM     12  O   UNL     1       9.310  -4.086  33.772  1.00  0.00    -0.387 OA
ATOM     13  H   UNL     1       8.411  -4.497  33.868  1.00  0.00     0.211 HD
ENDBRANCH   3  12
BRANCH   5  14
ATOM     14  C   UNL     1      12.976  -2.547  36.153  1.00  0.00     0.191 C 
BRANCH  14  15
ATOM     15  O   UNL     1      12.762  -1.353  36.856  1.00  0.00    -0.394 OA
ATOM     16  H   UNL     1      11.921  -1.471  37.372  1.00  0.00     0.210 HD
ENDBRANCH  14  15
ENDBRANCH   5  14
BRANCH   4  17
ATOM     17  O   UNL     1      12.604  -5.033  34.579  1.00  0.00    -0.387 OA
ATOM     18  H   UNL     1      12.710  -5.469  35.465  1.00  0.00     0.211 HD
ENDBRANCH   4  17
TORSDOF 7
ENDMDL
MODEL 6
REMARK VINA RESULT:    -4.160      2.005      3.902
REMARK INTER + INTRA:          -5.764
REMARK INTER:                  -5.329
REMARK INTRA:                  -0.435
REMARK UNBOUND:                -0.387
REMARK SMILES CCO[C@H]1O[C@@H](CO)[C@@H](O)[C@H](O)[C@H]1O
REMARK SMILES IDX 4 1 13 2 11 3 9 4 6 5 5 6 3 7 2 8 1 9 14 10 12 12 7 14 8 15
REMARK SMILES IDX 10 17
REMARK H PARENT 14 11 12 13 8 16 10 18
REMARK Flexibility Score: inf
ROOT
ATOM      1  C   UNL     1      10.188  -5.474  35.030  1.00  0.00     0.281 C 
ATOM      2  C   UNL     1      10.935  -4.120  35.126  1.00  0.00     0.202 C 
ATOM      3  C   UNL     1      12.021  -4.166  36.229  1.00  0.00     0.179 C 
ATOM      4  C   UNL     1      11.602  -5.084  37.407  1.00  0.00     0.177 C 
ATOM      5  C   UNL     1      10.061  -5.259  37.428  1.00  0.00     0.178 C 
ATOM      6  O   UNL     1       9.557  -5.878  36.247  1.00  0.00    -0.341 OA
ENDROOT
BRANCH   1   7
ATOM      7  O   UNL     1      11.095  -6.479  34.611  1.00  0.00    -0.350 OA
BRANCH   7   8
ATOM      8  C   UNL     1      10.508  -7.758  34.742  1.00  0.00     0.160 C 
ATOM      9  C   UNL     1      10.718  -8.534  33.451  1.00  0.00     0.035 C 
ENDBRANCH   7   8
ENDBRANCH   1   7
BRANCH   2  10
ATOM     10  O   UNL     1      11.480  -3.743  33.885  1.00  0.00    -0.385 OA
ATOM     11  H   UNL     1      11.289  -2.779  33.745  1.00  0.00     0.211 HD
ENDBRANCH   2  10
BRANCH   3  12
ATOM     12  O   UNL     1      12.313  -2.866  36.680  1.00  0.00    -0.387 OA
ATOM     13  H   UNL     1      13.280  -2.702  36.521  1.00  0.00     0.211 HD
ENDBRANCH   3  12
BRANCH   5  14
ATOM     14  C   UNL     1       9.615  -6.079  38.647  1.00  0.00     0.191 C 
BRANCH  14  15
ATOM     15  O   UNL     1       9.662  -7.450  38.357  1.00  0.00    -0.394 OA
ATOM     16  H   UNL     1       8.720  -7.762  38.297  1.00  0.00     0.210 HD
ENDBRANCH  14  15
ENDBRANCH   5  14
BRANCH   4  17
ATOM     17  O   UNL     1      12.226  -6.337  37.265  1.00  0.00    -0.387 OA
ATOM     18  H   UNL     1      12.857  -6.267  36.501  1.00  0.00     0.211 HD
ENDBRANCH   4  17
TORSDOF 7
ENDMDL
MODEL 7
REMARK VINA RESULT:    -4.139      2.203      4.623
REMARK INTER + INTRA:          -5.735
REMARK INTER:                  -5.214
REMARK INTRA:                  -0.521
REMARK UNBOUND:                -0.387
REMARK SMILES CCO[C@H]1O[C@@H](CO)[C@@H](O)[C@H](O)[C@H]1O
REMARK SMILES IDX 4 1 13 2 11 3 9 4 6 5 5 6 3 7 2 8 1 9 14 10 12 12 7 14 8 15
REMARK SMILES IDX 10 17
REMARK H PARENT 14 11 12 13 8 16 10 18
REMARK Flexibility Score: inf
ROOT
ATOM      1  C   UNL     1      10.080  -4.284  37.053  1.00  0.00     0.281 C 
ATOM      2  C   UNL     1      11.447  -3.566  36.931  1.00  0.00     0.202 C 
ATOM      3  C   UNL     1      11.872  -3.438  35.447  1.00  0.00     0.179 C 
ATOM      4  C   UNL     1      11.373  -4.640  34.603  1.00  0.00     0.177 C 
ATOM      5  C   UNL     1      11.081  -5.855  35.522  1.00  0.00     0.178 C 
ATOM      6  O   UNL     1      10.058  -5.593  36.479  1.00  0.00    -0.341 OA
ENDROOT
BRANCH   1   7
ATOM      7  O   UNL     1       9.076  -3.486  36.451  1.00  0.00    -0.350 OA
BRANCH   7   8
ATOM      8  C   UNL     1       7.830  -4.151  36.486  1.00  0.00     0.160 C 
ATOM      9  C   UNL     1       6.950  -3.614  35.368  1.00  0.00     0.035 C 
ENDBRANCH   7   8
ENDBRANCH   1   7
BRANCH   2  10
ATOM     10  O   UNL     1      11.429  -2.312  37.569  1.00  0.00    -0.385 OA
ATOM     11  H   UNL     1      10.841  -1.708  37.045  1.00  0.00     0.211 HD
ENDBRANCH   2  10
BRANCH   3  12
ATOM     12  O   UNL     1      13.268  -3.297  35.350  1.00  0.00    -0.387 OA
ATOM     13  H   UNL     1      13.514  -3.376  34.391  1.00  0.00     0.211 HD
ENDBRANCH   3  12
BRANCH   5  14
ATOM     14  C   UNL     1      10.685  -7.088  34.697  1.00  0.00     0.191 C 
BRANCH  14  15
ATOM     15  O   UNL     1       9.323  -7.039  34.368  1.00  0.00    -0.394 OA
ATOM     16  H   UNL     1       9.246  -6.480  33.550  1.00  0.00     0.210 HD
ENDBRANCH  14  15
ENDBRANCH   5  14
BRANCH   4  17
ATOM     17  O   UNL     1      10.206  -4.269  33.910  1.00  0.00    -0.387 OA
ATOM     18  H   UNL     1      10.172  -4.810  33.078  1.00  0.00     0.211 HD
ENDBRANCH   4  17
TORSDOF 7
ENDMDL
MODEL 8
REMARK VINA RESULT:    -4.084     13.482     14.833
REMARK INTER + INTRA:          -5.665
REMARK INTER:                  -5.249
REMARK INTRA:                  -0.417
REMARK UNBOUND:                -0.387
REMARK SMILES CCO[C@H]1O[C@@H](CO)[C@@H](O)[C@H](O)[C@H]1O
REMARK SMILES IDX 4 1 13 2 11 3 9 4 6 5 5 6 3 7 2 8 1 9 14 10 12 12 7 14 8 15
REMARK SMILES IDX 10 17
REMARK H PARENT 14 11 12 13 8 16 10 18
REMARK Flexibility Score: inf
ROOT
ATOM      1  C   UNL     1      20.249   2.085  28.266  1.00  0.00     0.281 C 
ATOM      2  C   UNL     1      19.167   2.150  27.159  1.00  0.00     0.202 C 
ATOM      3  C   UNL     1      19.754   2.727  25.847  1.00  0.00     0.179 C 
ATOM      4  C   UNL     1      20.863   3.775  26.128  1.00  0.00     0.177 C 
ATOM      5  C   UNL     1      20.709   4.345  27.562  1.00  0.00     0.178 C 
ATOM      6  O   UNL     1      20.844   3.349  28.573  1.00  0.00    -0.341 OA
ENDROOT
BRANCH   1   7
ATOM      7  O   UNL     1      21.259   1.169  27.881  1.00  0.00    -0.350 OA
BRANCH   7   8
ATOM      8  C   UNL     1      21.808   0.533  29.017  1.00  0.00     0.160 C 
ATOM      9  C   UNL     1      21.412  -0.936  29.003  1.00  0.00     0.035 C 
ENDBRANCH   7   8
ENDBRANCH   1   7
BRANCH   2  10
ATOM     10  O   UNL     1      18.573   0.893  26.946  1.00  0.00    -0.385 OA
ATOM     11  H   UNL     1      18.708   0.346  27.763  1.00  0.00     0.211 HD
ENDBRANCH   2  10
BRANCH   3  12
ATOM     12  O   UNL     1      18.730   3.274  25.054  1.00  0.00    -0.387 OA
ATOM     13  H   UNL     1      17.935   3.407  25.636  1.00  0.00     0.211 HD
ENDBRANCH   3  12
BRANCH   5  14
ATOM     14  C   UNL     1      21.732   5.459  27.826  1.00  0.00     0.191 C 
BRANCH  14  15
ATOM     15  O   UNL     1      22.104   6.076  26.622  1.00  0.00    -0.394 OA
ATOM     16  H   UNL     1      21.849   7.033  26.700  1.00  0.00     0.210 HD
ENDBRANCH  14  15
ENDBRANCH   5  14
BRANCH   4  17
ATOM     17  O   UNL     1      22.124   3.168  25.984  1.00  0.00    -0.387 OA
ATOM     18  H   UNL     1      21.994   2.189  26.091  1.00  0.00     0.211 HD
ENDBRANCH   4  17
TORSDOF 7
ENDMDL
MODEL 9
REMARK VINA RESULT:    -4.070      2.022      3.307
REMARK INTER + INTRA:          -5.646
REMARK INTER:                  -5.434
REMARK INTRA:                  -0.213
REMARK UNBOUND:                -0.387
REMARK SMILES CCO[C@H]1O[C@@H](CO)[C@@H](O)[C@H](O)[C@H]1O
REMARK SMILES IDX 4 1 13 2 11 3 9 4 6 5 5 6 3 7 2 8 1 9 14 10 12 12 7 14 8 15
REMARK SMILES IDX 10 17
REMARK H PARENT 14 11 12 13 8 16 10 18
REMARK Flexibility Score: inf
ROOT
ATOM      1  C   UNL     1      10.542  -5.027  34.829  1.00  0.00     0.281 C 
ATOM      2  C   UNL     1      11.708  -4.024  35.006  1.00  0.00     0.202 C 
ATOM      3  C   UNL     1      11.986  -3.760  36.506  1.00  0.00     0.179 C 
ATOM      4  C   UNL     1      10.687  -3.836  37.351  1.00  0.00     0.177 C 
ATOM      5  C   UNL     1       9.447  -3.615  36.447  1.00  0.00     0.178 C 
ATOM      6  O   UNL     1       9.316  -4.607  35.432  1.00  0.00    -0.341 OA
ENDROOT
BRANCH   1   7
ATOM      7  O   UNL     1      10.922  -6.285  35.359  1.00  0.00    -0.350 OA
BRANCH   7   8
ATOM      8  C   UNL     1       9.976  -7.275  35.008  1.00  0.00     0.160 C 
ATOM      9  C   UNL     1      10.604  -8.225  34.000  1.00  0.00     0.035 C 
ENDBRANCH   7   8
ENDBRANCH   1   7
BRANCH   2  10
ATOM     10  O   UNL     1      12.868  -4.459  34.338  1.00  0.00    -0.385 OA
ATOM     11  H   UNL     1      12.818  -4.145  33.398  1.00  0.00     0.211 HD
ENDBRANCH   2  10
BRANCH   3  12
ATOM     12  O   UNL     1      12.625  -2.518  36.672  1.00  0.00    -0.387 OA
ATOM     13  H   UNL     1      13.274  -2.410  35.927  1.00  0.00     0.211 HD
ENDBRANCH   3  12
BRANCH   5  14
ATOM     14  C   UNL     1       8.157  -3.583  37.279  1.00  0.00     0.191 C 
BRANCH  14  15
ATOM     15  O   UNL     1       7.937  -2.296  37.792  1.00  0.00    -0.394 OA
ATOM     16  H   UNL     1       6.967  -2.231  37.994  1.00  0.00     0.210 HD
ENDBRANCH  14  15
ENDBRANCH   5  14
BRANCH   4  17
ATOM     17  O   UNL     1      10.611  -5.096  37.973  1.00  0.00    -0.387 OA
ATOM     18  H   UNL     1      11.013  -5.005  38.876  1.00  0.00     0.211 HD
ENDBRANCH   4  17
TORSDOF 7
ENDMDL
