MODEL 1
REMARK VINA RESULT:    -4.020      0.000      0.000
REMARK INTER + INTRA:          -8.194
REMARK INTER:                  -7.309
REMARK INTRA:                  -0.885
REMARK UNBOUND:                -0.885
REMARK SMILES CCCCCCCCCCCCCC[C@@H](C)C(=O)[O-]
REMARK SMILES IDX 9 1 10 2 11 3 12 4 13 5 14 6 15 7 16 8 17 9 18 10 19 11 8 12
REMARK SMILES IDX 7 13 6 14 5 15 4 16 3 17 2 18 1 19
REMARK H PARENT
REMARK Flexibility Score: inf
ROOT
ATOM      1  C   UNL     1      13.861   3.178  -2.657  1.00  0.00     0.000 C 
ENDROOT
BRANCH   1   2
ATOM      2  C   UNL     1      12.531   3.862  -2.292  1.00  0.00     0.000 C 
BRANCH   2   3
ATOM      3  C   UNL     1      12.635   4.728  -1.028  1.00  0.00     0.000 C 
BRANCH   3   4
ATOM      4  C   UNL     1      11.267   5.227  -0.538  1.00  0.00     0.000 C 
BRANCH   4   5
ATOM      5  C   UNL     1      10.200   5.061  -1.631  1.00  0.00     0.001 C 
BRANCH   5   6
ATOM      6  C   UNL     1       9.885   6.379  -2.365  1.00  0.00     0.009 C 
BRANCH   6   7
ATOM      7  C   UNL     1       9.188   7.444  -1.489  1.00  0.00     0.032 C 
ATOM      8  C   UNL     1       9.727   8.840  -1.815  1.00  0.00     0.014 C 
BRANCH   7   9
ATOM      9  C   UNL     1       7.695   7.424  -1.676  1.00  0.00     0.044 C 
ATOM     10  O   UNL     1       7.178   6.691  -2.561  1.00  0.00    -0.550 OA
ATOM     11  O   UNL     1       6.875   8.206  -0.871  1.00  0.00    -0.550 OA
ENDBRANCH   7   9
ENDBRANCH   6   7
ENDBRANCH   5   6
ENDBRANCH   4   5
ENDBRANCH   3   4
ENDBRANCH   2   3
ENDBRANCH   1   2
BRANCH   1  12
ATOM     12  C   UNL     1      14.897   3.281  -1.518  1.00  0.00     0.000 C 
BRANCH  12  13
ATOM     13  C   UNL     1      15.806   2.044  -1.399  1.00  0.00    -0.000 C 
BRANCH  13  14
ATOM     14  C   UNL     1      15.655   1.075  -2.579  1.00  0.00    -0.000 C 
BRANCH  14  15
ATOM     15  C   UNL     1      17.008   0.470  -2.972  1.00  0.00    -0.000 C 
BRANCH  15  16
ATOM     16  C   UNL     1      18.139   1.495  -2.799  1.00  0.00    -0.000 C 
BRANCH  16  17
ATOM     17  C   UNL     1      19.535   0.865  -2.923  1.00  0.00    -0.000 C 
BRANCH  17  18
ATOM     18  C   UNL     1      20.630   1.719  -2.267  1.00  0.00    -0.003 C 
ATOM     19  C   UNL     1      21.498   0.877  -1.336  1.00  0.00     0.004 C 
ENDBRANCH  17  18
ENDBRANCH  16  17
ENDBRANCH  15  16
ENDBRANCH  14  15
ENDBRANCH  13  14
ENDBRANCH  12  13
ENDBRANCH   1  12
TORSDOF 14
ENDMDL
MODEL 2
REMARK VINA RESULT:    -3.742      2.986      5.276
REMARK INTER + INTRA:          -7.690
REMARK INTER:                  -6.618
REMARK INTRA:                  -1.072
REMARK UNBOUND:                -0.885
REMARK SMILES CCCCCCCCCCCCCC[C@@H](C)C(=O)[O-]
REMARK SMILES IDX 9 1 10 2 11 3 12 4 13 5 14 6 15 7 16 8 17 9 18 10 19 11 8 12
REMARK SMILES IDX 7 13 6 14 5 15 4 16 3 17 2 18 1 19
REMARK H PARENT
REMARK Flexibility Score: inf
ROOT
ATOM      1  C   UNL     1       9.434   6.136  -2.010  1.00  0.00     0.000 C 
ENDROOT
BRANCH   1   2
ATOM      2  C   UNL     1       9.795   7.431  -1.260  1.00  0.00     0.000 C 
BRANCH   2   3
ATOM      3  C   UNL     1      10.301   8.539  -2.197  1.00  0.00     0.000 C 
BRANCH   3   4
ATOM      4  C   UNL     1      11.732   8.987  -1.865  1.00  0.00     0.000 C 
BRANCH   4   5
ATOM      5  C   UNL     1      11.748  10.440  -1.365  1.00  0.00     0.001 C 
BRANCH   5   6
ATOM      6  C   UNL     1      10.380  11.135  -1.501  1.00  0.00     0.009 C 
BRANCH   6   7
ATOM      7  C   UNL     1      10.250  12.447  -0.695  1.00  0.00     0.032 C 
ATOM      8  C   UNL     1      11.515  13.297  -0.851  1.00  0.00     0.014 C 
BRANCH   7   9
ATOM      9  C   UNL     1       9.050  13.246  -1.127  1.00  0.00     0.044 C 
ATOM     10  O   UNL     1       9.045  13.827  -2.244  1.00  0.00    -0.550 OA
ATOM     11  O   UNL     1       7.936  13.342  -0.301  1.00  0.00    -0.550 OA
ENDBRANCH   7   9
ENDBRANCH   6   7
ENDBRANCH   5   6
ENDBRANCH   4   5
ENDBRANCH   3   4
ENDBRANCH   2   3
ENDBRANCH   1   2
BRANCH   1  12
ATOM     12  C   UNL     1      10.300   4.942  -1.557  1.00  0.00     0.000 C 
BRANCH  12  13
ATOM     13  C   UNL     1      11.448   5.337  -0.611  1.00  0.00    -0.000 C 
BRANCH  13  14
ATOM     14  C   UNL     1      12.758   4.600  -0.920  1.00  0.00    -0.000 C 
BRANCH  14  15
ATOM     15  C   UNL     1      12.685   3.894  -2.279  1.00  0.00    -0.000 C 
BRANCH  15  16
ATOM     16  C   UNL     1      14.088   3.511  -2.776  1.00  0.00    -0.000 C 
BRANCH  16  17
ATOM     17  C   UNL     1      14.279   1.991  -2.898  1.00  0.00    -0.000 C 
BRANCH  17  18
ATOM     18  C   UNL     1      15.413   1.464  -2.006  1.00  0.00    -0.003 C 
ATOM     19  C   UNL     1      16.150   2.611  -1.320  1.00  0.00     0.004 C 
ENDBRANCH  17  18
ENDBRANCH  16  17
ENDBRANCH  15  16
ENDBRANCH  14  15
ENDBRANCH  13  14
ENDBRANCH  12  13
ENDBRANCH   1  12
TORSDOF 14
ENDMDL
MODEL 3
REMARK VINA RESULT:    -3.633      2.351      3.782
REMARK INTER + INTRA:          -7.491
REMARK INTER:                  -6.605
REMARK INTRA:                  -0.886
REMARK UNBOUND:                -0.885
REMARK SMILES CCCCCCCCCCCCCC[C@@H](C)C(=O)[O-]
REMARK SMILES IDX 9 1 10 2 11 3 12 4 13 5 14 6 15 7 16 8 17 9 18 10 19 11 8 12
REMARK SMILES IDX 7 13 6 14 5 15 4 16 3 17 2 18 1 19
REMARK H PARENT
REMARK Flexibility Score: inf
ROOT
ATOM      1  C   UNL     1      11.841   5.132  -0.439  1.00  0.00     0.000 C 
ENDROOT
BRANCH   1   2
ATOM      2  C   UNL     1      10.505   4.895  -1.166  1.00  0.00     0.000 C 
BRANCH   2   3
ATOM      3  C   UNL     1       9.925   6.181  -1.775  1.00  0.00     0.000 C 
BRANCH   3   4
ATOM      4  C   UNL     1      10.869   7.384  -1.631  1.00  0.00     0.000 C 
BRANCH   4   5
ATOM      5  C   UNL     1      10.830   8.265  -2.888  1.00  0.00     0.001 C 
BRANCH   5   6
ATOM      6  C   UNL     1      10.520   9.742  -2.575  1.00  0.00     0.009 C 
BRANCH   6   7
ATOM      7  C   UNL     1      11.471  10.386  -1.540  1.00  0.00     0.032 C 
ATOM      8  C   UNL     1      12.865  10.578  -2.144  1.00  0.00     0.014 C 
BRANCH   7   9
ATOM      9  C   UNL     1      10.945  11.708  -1.053  1.00  0.00     0.044 C 
ATOM     10  O   UNL     1      11.339  12.178   0.047  1.00  0.00    -0.550 OA
ATOM     11  O   UNL     1      10.028  12.424  -1.813  1.00  0.00    -0.550 OA
ENDBRANCH   7   9
ENDBRANCH   6   7
ENDBRANCH   5   6
ENDBRANCH   4   5
ENDBRANCH   3   4
ENDBRANCH   2   3
ENDBRANCH   1   2
BRANCH   1  12
ATOM     12  C   UNL     1      13.042   4.584  -1.238  1.00  0.00     0.000 C 
BRANCH  12  13
ATOM     13  C   UNL     1      12.636   3.716  -2.442  1.00  0.00    -0.000 C 
BRANCH  13  14
ATOM     14  C   UNL     1      13.688   2.655  -2.796  1.00  0.00    -0.000 C 
BRANCH  14  15
ATOM     15  C   UNL     1      14.955   2.833  -1.950  1.00  0.00    -0.000 C 
BRANCH  15  16
ATOM     16  C   UNL     1      15.557   1.472  -1.569  1.00  0.00    -0.000 C 
BRANCH  16  17
ATOM     17  C   UNL     1      16.337   0.824  -2.724  1.00  0.00    -0.000 C 
BRANCH  17  18
ATOM     18  C   UNL     1      17.660   1.546  -3.021  1.00  0.00    -0.003 C 
ATOM     19  C   UNL     1      18.852   0.616  -2.809  1.00  0.00     0.004 C 
ENDBRANCH  17  18
ENDBRANCH  16  17
ENDBRANCH  15  16
ENDBRANCH  14  15
ENDBRANCH  13  14
ENDBRANCH  12  13
ENDBRANCH   1  12
TORSDOF 14
ENDMDL
MODEL 4
REMARK VINA RESULT:    -3.618      1.741      2.073
REMARK INTER + INTRA:          -7.464
REMARK INTER:                  -6.561
REMARK INTRA:                  -0.903
REMARK UNBOUND:                -0.885
REMARK SMILES CCCCCCCCCCCCCC[C@@H](C)C(=O)[O-]
REMARK SMILES IDX 9 1 10 2 11 3 12 4 13 5 14 6 15 7 16 8 17 9 18 10 19 11 8 12
REMARK SMILES IDX 7 13 6 14 5 15 4 16 3 17 2 18 1 19
REMARK H PARENT
REMARK Flexibility Score: inf
ROOT
ATOM      1  C   UNL     1      13.467   3.630  -1.817  1.00  0.00     0.000 C 
ENDROOT
BRANCH   1   2
ATOM      2  C   UNL     1      12.221   3.831  -2.697  1.00  0.00     0.000 C 
BRANCH   2   3
ATOM      3  C   UNL     1      11.038   4.432  -1.922  1.00  0.00     0.000 C 
BRANCH   3   4
ATOM      4  C   UNL     1      11.455   5.022  -0.567  1.00  0.00     0.000 C 
BRANCH   4   5
ATOM      5  C   UNL     1      11.060   6.504  -0.469  1.00  0.00     0.001 C 
BRANCH   5   6
ATOM      6  C   UNL     1      11.346   7.286  -1.766  1.00  0.00     0.009 C 
BRANCH   6   7
ATOM      7  C   UNL     1      10.208   8.237  -2.199  1.00  0.00     0.032 C 
ATOM      8  C   UNL     1       8.915   7.898  -1.451  1.00  0.00     0.014 C 
BRANCH   7   9
ATOM      9  C   UNL     1      10.568   9.678  -1.957  1.00  0.00     0.044 C 
ATOM     10  O   UNL     1      11.766  10.054  -2.051  1.00  0.00    -0.550 OA
ATOM     11  O   UNL     1       9.583  10.604  -1.636  1.00  0.00    -0.550 OA
ENDBRANCH   7   9
ENDBRANCH   6   7
ENDBRANCH   5   6
ENDBRANCH   4   5
ENDBRANCH   3   4
ENDBRANCH   2   3
ENDBRANCH   1   2
BRANCH   1  12
ATOM     12  C   UNL     1      14.699   3.204  -2.643  1.00  0.00     0.000 C 
BRANCH  12  13
ATOM     13  C   UNL     1      15.537   2.099  -1.976  1.00  0.00    -0.000 C 
BRANCH  13  14
ATOM     14  C   UNL     1      15.759   0.885  -2.888  1.00  0.00    -0.000 C 
BRANCH  14  15
ATOM     15  C   UNL     1      17.240   0.488  -2.926  1.00  0.00    -0.000 C 
BRANCH  15  16
ATOM     16  C   UNL     1      18.128   1.628  -2.401  1.00  0.00    -0.000 C 
BRANCH  16  17
ATOM     17  C   UNL     1      19.582   1.517  -2.885  1.00  0.00    -0.000 C 
BRANCH  17  18
ATOM     18  C   UNL     1      20.418   0.551  -2.032  1.00  0.00    -0.003 C 
ATOM     19  C   UNL     1      21.852   0.466  -2.546  1.00  0.00     0.004 C 
ENDBRANCH  17  18
ENDBRANCH  16  17
ENDBRANCH  15  16
ENDBRANCH  14  15
ENDBRANCH  13  14
ENDBRANCH  12  13
ENDBRANCH   1  12
TORSDOF 14
ENDMDL
MODEL 5
REMARK VINA RESULT:    -3.606      4.998      7.949
REMARK INTER + INTRA:          -7.442
REMARK INTER:                  -6.552
REMARK INTRA:                  -0.890
REMARK UNBOUND:                -0.885
REMARK SMILES CCCCCCCCCCCCCC[C@@H](C)C(=O)[O-]
REMARK SMILES IDX 9 1 10 2 11 3 12 4 13 5 14 6 15 7 16 8 17 9 18 10 19 11 8 12
REMARK SMILES IDX 7 13 6 14 5 15 4 16 3 17 2 18 1 19
REMARK H PARENT
REMARK Flexibility Score: inf
ROOT
ATOM      1  C   UNL     1      11.541   8.866  -1.668  1.00  0.00     0.000 C 
ENDROOT
BRANCH   1   2
ATOM      2  C   UNL     1      11.546  10.403  -1.587  1.00  0.00     0.000 C 
BRANCH   2   3
ATOM      3  C   UNL     1      10.138  11.008  -1.702  1.00  0.00     0.000 C 
BRANCH   3   4
ATOM      4  C   UNL     1      10.007  12.349  -0.965  1.00  0.00     0.000 C 
BRANCH   4   5
ATOM      5  C   UNL     1      11.389  12.892  -0.567  1.00  0.00     0.001 C 
BRANCH   5   6
ATOM      6  C   UNL     1      11.748  14.204  -1.293  1.00  0.00     0.009 C 
BRANCH   6   7
ATOM      7  C   UNL     1      12.877  15.015  -0.618  1.00  0.00     0.032 C 
ATOM      8  C   UNL     1      14.091  15.115  -1.546  1.00  0.00     0.014 C 
BRANCH   7   9
ATOM      9  C   UNL     1      12.416  16.396  -0.240  1.00  0.00     0.044 C 
ATOM     10  O   UNL     1      12.882  16.959   0.786  1.00  0.00    -0.550 OA
ATOM     11  O   UNL     1      11.480  17.064  -1.021  1.00  0.00    -0.550 OA
ENDBRANCH   7   9
ENDBRANCH   6   7
ENDBRANCH   5   6
ENDBRANCH   4   5
ENDBRANCH   3   4
ENDBRANCH   2   3
ENDBRANCH   1   2
BRANCH   1  12
ATOM     12  C   UNL     1      10.142   8.305  -1.996  1.00  0.00     0.000 C 
BRANCH  12  13
ATOM     13  C   UNL     1       9.888   6.903  -1.415  1.00  0.00    -0.000 C 
BRANCH  13  14
ATOM     14  C   UNL     1      10.996   6.443  -0.458  1.00  0.00    -0.000 C 
BRANCH  14  15
ATOM     15  C   UNL     1      11.422   5.002  -0.762  1.00  0.00    -0.000 C 
BRANCH  15  16
ATOM     16  C   UNL     1      12.853   4.958  -1.320  1.00  0.00    -0.000 C 
BRANCH  16  17
ATOM     17  C   UNL     1      12.983   4.043  -2.548  1.00  0.00    -0.000 C 
BRANCH  17  18
ATOM     18  C   UNL     1      14.250   3.175  -2.508  1.00  0.00    -0.003 C 
ATOM     19  C   UNL     1      14.914   3.237  -1.136  1.00  0.00     0.004 C 
ENDBRANCH  17  18
ENDBRANCH  16  17
ENDBRANCH  15  16
ENDBRANCH  14  15
ENDBRANCH  13  14
ENDBRANCH  12  13
ENDBRANCH   1  12
TORSDOF 14
ENDMDL
MODEL 6
REMARK VINA RESULT:    -3.600      3.075      5.230
REMARK INTER + INTRA:          -7.431
REMARK INTER:                  -6.314
REMARK INTRA:                  -1.117
REMARK UNBOUND:                -0.885
REMARK SMILES CCCCCCCCCCCCCC[C@@H](C)C(=O)[O-]
REMARK SMILES IDX 9 1 10 2 11 3 12 4 13 5 14 6 15 7 16 8 17 9 18 10 19 11 8 12
REMARK SMILES IDX 7 13 6 14 5 15 4 16 3 17 2 18 1 19
REMARK H PARENT
REMARK Flexibility Score: inf
ROOT
ATOM      1  C   UNL     1      10.281   6.611  -0.505  1.00  0.00     0.000 C 
ENDROOT
BRANCH   1   2
ATOM      2  C   UNL     1       9.496   7.069  -1.747  1.00  0.00     0.000 C 
BRANCH   2   3
ATOM      3  C   UNL     1       8.194   7.802  -1.390  1.00  0.00     0.000 C 
BRANCH   3   4
ATOM      4  C   UNL     1       8.115   9.206  -2.008  1.00  0.00     0.000 C 
BRANCH   4   5
ATOM      5  C   UNL     1       9.513   9.711  -2.399  1.00  0.00     0.001 C 
BRANCH   5   6
ATOM      6  C   UNL     1       9.896  11.022  -1.687  1.00  0.00     0.009 C 
BRANCH   6   7
ATOM      7  C   UNL     1      11.375  11.096  -1.243  1.00  0.00     0.032 C 
ATOM      8  C   UNL     1      12.112   9.808  -1.624  1.00  0.00     0.014 C 
BRANCH   7   9
ATOM      9  C   UNL     1      12.078  12.278  -1.854  1.00  0.00     0.044 C 
ATOM     10  O   UNL     1      12.803  12.126  -2.873  1.00  0.00    -0.550 OA
ATOM     11  O   UNL     1      11.927  13.546  -1.305  1.00  0.00    -0.550 OA
ENDBRANCH   7   9
ENDBRANCH   6   7
ENDBRANCH   5   6
ENDBRANCH   4   5
ENDBRANCH   3   4
ENDBRANCH   2   3
ENDBRANCH   1   2
BRANCH   1  12
ATOM     12  C   UNL     1      11.211   5.419  -0.813  1.00  0.00     0.000 C 
BRANCH  12  13
ATOM     13  C   UNL     1      10.894   4.718  -2.146  1.00  0.00    -0.000 C 
BRANCH  13  14
ATOM     14  C   UNL     1      12.020   3.787  -2.615  1.00  0.00    -0.000 C 
BRANCH  14  15
ATOM     15  C   UNL     1      13.247   3.904  -1.703  1.00  0.00    -0.000 C 
BRANCH  15  16
ATOM     16  C   UNL     1      14.454   3.170  -2.307  1.00  0.00    -0.000 C 
BRANCH  16  17
ATOM     17  C   UNL     1      15.528   2.834  -1.261  1.00  0.00    -0.000 C 
BRANCH  17  18
ATOM     18  C   UNL     1      16.643   1.940  -1.824  1.00  0.00    -0.003 C 
ATOM     19  C   UNL     1      16.074   0.876  -2.759  1.00  0.00     0.004 C 
ENDBRANCH  17  18
ENDBRANCH  16  17
ENDBRANCH  15  16
ENDBRANCH  14  15
ENDBRANCH  13  14
ENDBRANCH  12  13
ENDBRANCH   1  12
TORSDOF 14
ENDMDL
MODEL 7
REMARK VINA RESULT:    -3.583      5.839      9.201
REMARK INTER + INTRA:          -7.400
REMARK INTER:                  -6.500
REMARK INTRA:                  -0.900
REMARK UNBOUND:                -0.885
REMARK SMILES CCCCCCCCCCCCCC[C@@H](C)C(=O)[O-]
REMARK SMILES IDX 9 1 10 2 11 3 12 4 13 5 14 6 15 7 16 8 17 9 18 10 19 11 8 12
REMARK SMILES IDX 7 13 6 14 5 15 4 16 3 17 2 18 1 19
REMARK H PARENT
REMARK Flexibility Score: inf
ROOT
ATOM      1  C   UNL     1      12.143  10.208  -1.251  1.00  0.00     0.000 C 
ENDROOT
BRANCH   1   2
ATOM      2  C   UNL     1      11.408  11.457  -1.769  1.00  0.00     0.000 C 
BRANCH   2   3
ATOM      3  C   UNL     1      10.882  12.350  -0.634  1.00  0.00     0.000 C 
BRANCH   3   4
ATOM      4  C   UNL     1      11.059  13.847  -0.929  1.00  0.00     0.000 C 
BRANCH   4   5
ATOM      5  C   UNL     1      12.536  14.185  -1.180  1.00  0.00     0.001 C 
BRANCH   5   6
ATOM      6  C   UNL     1      12.790  15.700  -1.311  1.00  0.00     0.009 C 
BRANCH   6   7
ATOM      7  C   UNL     1      13.483  16.337  -0.085  1.00  0.00     0.032 C 
ATOM      8  C   UNL     1      14.551  17.338  -0.537  1.00  0.00     0.014 C 
BRANCH   7   9
ATOM      9  C   UNL     1      12.494  17.027   0.814  1.00  0.00     0.044 C 
ATOM     10  O   UNL     1      11.358  17.349   0.375  1.00  0.00    -0.550 OA
ATOM     11  O   UNL     1      12.821  17.307   2.136  1.00  0.00    -0.550 OA
ENDBRANCH   7   9
ENDBRANCH   6   7
ENDBRANCH   5   6
ENDBRANCH   4   5
ENDBRANCH   3   4
ENDBRANCH   2   3
ENDBRANCH   1   2
BRANCH   1  12
ATOM     12  C   UNL     1      11.556   8.905  -1.833  1.00  0.00     0.000 C 
BRANCH  12  13
ATOM     13  C   UNL     1      10.019   8.901  -1.906  1.00  0.00    -0.000 C 
BRANCH  13  14
ATOM     14  C   UNL     1       9.402   7.569  -1.457  1.00  0.00    -0.000 C 
BRANCH  14  15
ATOM     15  C   UNL     1      10.462   6.656  -0.828  1.00  0.00    -0.000 C 
BRANCH  15  16
ATOM     16  C   UNL     1      10.256   5.197  -1.259  1.00  0.00    -0.000 C 
BRANCH  16  17
ATOM     17  C   UNL     1      11.503   4.594  -1.926  1.00  0.00    -0.000 C 
BRANCH  17  18
ATOM     18  C   UNL     1      12.756   4.700  -1.043  1.00  0.00    -0.003 C 
ATOM     19  C   UNL     1      13.875   3.805  -1.569  1.00  0.00     0.004 C 
ENDBRANCH  17  18
ENDBRANCH  16  17
ENDBRANCH  15  16
ENDBRANCH  14  15
ENDBRANCH  13  14
ENDBRANCH  12  13
ENDBRANCH   1  12
TORSDOF 14
ENDMDL
MODEL 8
REMARK VINA RESULT:    -3.582      5.119      9.206
REMARK INTER + INTRA:          -7.398
REMARK INTER:                  -5.837
REMARK INTRA:                  -1.561
REMARK UNBOUND:                -0.885
REMARK SMILES CCCCCCCCCCCCCC[C@@H](C)C(=O)[O-]
REMARK SMILES IDX 9 1 10 2 11 3 12 4 13 5 14 6 15 7 16 8 17 9 18 10 19 11 8 12
REMARK SMILES IDX 7 13 6 14 5 15 4 16 3 17 2 18 1 19
REMARK H PARENT
REMARK Flexibility Score: inf
ROOT
ATOM      1  C   UNL     1      12.110  10.303  -1.269  1.00  0.00     0.000 C 
ENDROOT
BRANCH   1   2
ATOM      2  C   UNL     1      10.858  10.722  -2.061  1.00  0.00     0.000 C 
BRANCH   2   3
ATOM      3  C   UNL     1       9.681   9.754  -1.868  1.00  0.00     0.000 C 
BRANCH   3   4
ATOM      4  C   UNL     1       9.888   8.418  -2.598  1.00  0.00     0.000 C 
BRANCH   4   5
ATOM      5  C   UNL     1       9.544   7.234  -1.680  1.00  0.00     0.001 C 
BRANCH   5   6
ATOM      6  C   UNL     1      10.697   6.861  -0.727  1.00  0.00     0.009 C 
BRANCH   6   7
ATOM      7  C   UNL     1      11.221   5.417  -0.898  1.00  0.00     0.032 C 
ATOM      8  C   UNL     1      10.250   4.594  -1.750  1.00  0.00     0.014 C 
BRANCH   7   9
ATOM      9  C   UNL     1      12.587   5.394  -1.526  1.00  0.00     0.044 C 
ATOM     10  O   UNL     1      13.361   4.422  -1.322  1.00  0.00    -0.550 OA
ATOM     11  O   UNL     1      13.004   6.440  -2.341  1.00  0.00    -0.550 OA
ENDBRANCH   7   9
ENDBRANCH   6   7
ENDBRANCH   5   6
ENDBRANCH   4   5
ENDBRANCH   3   4
ENDBRANCH   2   3
ENDBRANCH   1   2
BRANCH   1  12
ATOM     12  C   UNL     1      13.301   9.977  -2.195  1.00  0.00     0.000 C 
BRANCH  12  13
ATOM     13  C   UNL     1      13.769  11.174  -3.042  1.00  0.00    -0.000 C 
BRANCH  13  14
ATOM     14  C   UNL     1      15.250  11.515  -2.829  1.00  0.00    -0.000 C 
BRANCH  14  15
ATOM     15  C   UNL     1      15.498  13.019  -2.991  1.00  0.00    -0.000 C 
BRANCH  15  16
ATOM     16  C   UNL     1      14.226  13.822  -2.677  1.00  0.00    -0.000 C 
BRANCH  16  17
ATOM     17  C   UNL     1      14.451  14.891  -1.596  1.00  0.00    -0.000 C 
BRANCH  17  18
ATOM     18  C   UNL     1      13.184  15.180  -0.777  1.00  0.00    -0.003 C 
ATOM     19  C   UNL     1      12.099  14.146  -1.062  1.00  0.00     0.004 C 
ENDBRANCH  17  18
ENDBRANCH  16  17
ENDBRANCH  15  16
ENDBRANCH  14  15
ENDBRANCH  13  14
ENDBRANCH  12  13
ENDBRANCH   1  12
TORSDOF 14
ENDMDL
MODEL 9
REMARK VINA RESULT:    -3.534      5.498      8.619
REMARK INTER + INTRA:          -7.312
REMARK INTER:                  -5.939
REMARK INTRA:                  -1.372
REMARK UNBOUND:                -0.885
REMARK SMILES CCCCCCCCCCCCCC[C@@H](C)C(=O)[O-]
REMARK SMILES IDX 9 1 10 2 11 3 12 4 13 5 14 6 15 7 16 8 17 9 18 10 19 11 8 12
REMARK SMILES IDX 7 13 6 14 5 15 4 16 3 17 2 18 1 19
REMARK H PARENT
REMARK Flexibility Score: inf
ROOT
ATOM      1  C   UNL     1      13.335   9.782  -1.991  1.00  0.00     0.000 C 
ENDROOT
BRANCH   1   2
ATOM      2  C   UNL     1      13.748  11.014  -2.817  1.00  0.00     0.000 C 
BRANCH   2   3
ATOM      3  C   UNL     1      12.697  12.134  -2.780  1.00  0.00     0.000 C 
BRANCH   3   4
ATOM      4  C   UNL     1      11.636  11.916  -1.690  1.00  0.00     0.000 C 
BRANCH   4   5
ATOM      5  C   UNL     1      11.471  13.176  -0.827  1.00  0.00     0.001 C 
BRANCH   5   6
ATOM      6  C   UNL     1      11.990  14.450  -1.523  1.00  0.00     0.009 C 
BRANCH   6   7
ATOM      7  C   UNL     1      13.054  15.227  -0.716  1.00  0.00     0.032 C 
ATOM      8  C   UNL     1      14.419  15.134  -1.404  1.00  0.00     0.014 C 
BRANCH   7   9
ATOM      9  C   UNL     1      12.672  16.672  -0.545  1.00  0.00     0.044 C 
ATOM     10  O   UNL     1      13.359  17.576  -1.091  1.00  0.00    -0.550 OA
ATOM     11  O   UNL     1      11.558  17.021   0.209  1.00  0.00    -0.550 OA
ENDBRANCH   7   9
ENDBRANCH   6   7
ENDBRANCH   5   6
ENDBRANCH   4   5
ENDBRANCH   3   4
ENDBRANCH   2   3
ENDBRANCH   1   2
BRANCH   1  12
ATOM     12  C   UNL     1      13.100   8.541  -2.877  1.00  0.00     0.000 C 
BRANCH  12  13
ATOM     13  C   UNL     1      11.644   8.044  -2.869  1.00  0.00    -0.000 C 
BRANCH  13  14
ATOM     14  C   UNL     1      11.166   7.613  -1.476  1.00  0.00    -0.000 C 
BRANCH  14  15
ATOM     15  C   UNL     1      10.004   6.617  -1.576  1.00  0.00    -0.000 C 
BRANCH  15  16
ATOM     16  C   UNL     1      10.457   5.203  -1.184  1.00  0.00    -0.000 C 
BRANCH  16  17
ATOM     17  C   UNL     1      11.794   5.197  -0.426  1.00  0.00    -0.000 C 
BRANCH  17  18
ATOM     18  C   UNL     1      12.936   4.576  -1.246  1.00  0.00    -0.003 C 
ATOM     19  C   UNL     1      12.394   3.809  -2.448  1.00  0.00     0.004 C 
ENDBRANCH  17  18
ENDBRANCH  16  17
ENDBRANCH  15  16
ENDBRANCH  14  15
ENDBRANCH  13  14
ENDBRANCH  12  13
ENDBRANCH   1  12
TORSDOF 14
ENDMDL
