MODEL 1
REMARK VINA RESULT:    -6.512      0.000      0.000
REMARK INTER + INTRA:          -8.215
REMARK INTER:                  -7.464
REMARK INTRA:                  -0.751
REMARK UNBOUND:                -0.751
REMARK SMILES C=C(C)[C@@H]1CC[C@@]2(C(=O)[O-])CC[C@@]3(C)[C@H](CC[C@H]4[C@]5(C)CC[C@H](O)C(C)(C)[C@@H]5CC[C@]43C)[C@@H]12
REMARK SMILES IDX 7 1 6 2 33 3 11 4 5 5 15 6 4 7 12 8 16 9 13 10 17 11 31 12
REMARK SMILES IDX 14 13 18 14 30 15 32 16 19 17 29 18 21 19 20 20 28 21 22 22
REMARK SMILES IDX 25 23 23 24 26 25 27 26 8 27 9 28 10 29 2 30 3 31 1 32 24 33
REMARK H PARENT 24 34
REMARK Flexibility Score: inf
ROOT
ATOM      1  C   UNL     1      30.552  11.627 -24.695  1.00  0.00     0.014 C 
ATOM      2  C   UNL     1      30.170  10.911 -26.064  1.00  0.00     0.014 C 
ATOM      3  C   UNL     1      29.181  11.639 -23.972  1.00  0.00     0.012 C 
ATOM      4  C   UNL     1      30.902  13.160 -24.820  1.00  0.00     0.014 C 
ATOM      5  C   UNL     1      28.638  10.810 -26.125  1.00  0.00     0.009 C 
ATOM      6  C   UNL     1      29.206  12.433 -22.574  1.00  0.00     0.000 C 
ATOM      7  C   UNL     1      28.228  11.940 -25.192  1.00  0.00     0.018 C 
ATOM      8  C   UNL     1      30.813  13.987 -23.494  1.00  0.00     0.008 C 
ATOM      9  C   UNL     1      30.017  11.655 -21.513  1.00  0.00     0.005 C 
ATOM     10  C   UNL     1      29.577  13.962 -22.495  1.00  0.00    -0.024 C 
ATOM     11  C   UNL     1      31.397  12.318 -20.783  1.00  0.00     0.005 C 
ATOM     12  C   UNL     1      29.895  14.404 -20.914  1.00  0.00    -0.024 C 
ATOM     13  C   UNL     1      28.416  14.825 -23.043  1.00  0.00     0.012 C 
ATOM     14  C   UNL     1      31.515  13.936 -20.543  1.00  0.00     0.002 C 
ATOM     15  C   UNL     1      29.662  15.960 -20.566  1.00  0.00     0.008 C 
ATOM     16  C   UNL     1      28.625  13.792 -20.054  1.00  0.00     0.012 C 
ATOM     17  C   UNL     1      33.069  15.066 -20.883  1.00  0.00    -0.026 C 
ATOM     18  C   UNL     1      30.764  16.205 -19.456  1.00  0.00     0.005 C 
ATOM     19  C   UNL     1      34.580  16.126 -20.525  1.00  0.00     0.010 C 
ATOM     20  C   UNL     1      33.674  14.074 -22.248  1.00  0.00     0.012 C 
ATOM     21  C   UNL     1      32.081  16.474 -20.455  1.00  0.00     0.003 C 
ATOM     22  C   UNL     1      34.877  17.711 -20.123  1.00  0.00     0.033 C 
ATOM     23  C   UNL     1      32.394  17.999 -19.901  1.00  0.00    -0.006 C 
ATOM     24  C   UNL     1      33.701  18.558 -20.565  1.00  0.00     0.120 C 
ATOM     25  C   UNL     1      32.588  18.050 -18.254  1.00  0.00     0.014 C 
ATOM     26  C   UNL     1      31.111  19.001 -20.099  1.00  0.00     0.014 C 
ENDROOT
BRANCH   1  27
ATOM     27  C   UNL     1      31.431  10.694 -23.887  1.00  0.00     0.048 C 
ATOM     28  O   UNL     1      32.742  10.689 -23.864  1.00  0.00    -0.550 OA
ATOM     29  O   UNL     1      32.877  10.800 -23.963  1.00  0.00    -0.550 OA
ENDBRANCH   1  27
BRANCH   7  30
ATOM     30  C   UNL     1      26.747  12.110 -24.957  1.00  0.00    -0.077 C 
ATOM     31  C   UNL     1      25.978  10.967 -24.273  1.00  0.00     0.039 C 
ATOM     32  C   UNL     1      26.110  13.219 -25.348  1.00  0.00     0.008 C 
ENDBRANCH   7  30
BRANCH  24  33
ATOM     33  O   UNL     1      33.725  20.122 -20.334  1.00  0.00    -0.393 OA
ATOM     34  H   UNL     1      34.269  20.791 -19.501  1.00  0.00     0.210 HD
ENDBRANCH  24  33
TORSDOF 3
ENDMDL
MODEL 2
REMARK VINA RESULT:    -6.306      4.659      8.212
REMARK INTER + INTRA:          -7.979
REMARK INTER:                  -7.888
REMARK INTRA:                  -0.091
REMARK UNBOUND:                -0.751
REMARK SMILES C=C(C)[C@@H]1CC[C@@]2(C(=O)[O-])CC[C@@]3(C)[C@H](CC[C@H]4[C@]5(C)CC[C@H](O)C(C)(C)[C@@H]5CC[C@]43C)[C@@H]12
REMARK SMILES IDX 7 1 6 2 33 3 11 4 5 5 15 6 4 7 12 8 16 9 13 10 17 11 31 12
REMARK SMILES IDX 14 13 18 14 30 15 32 16 19 17 29 18 21 19 20 20 28 21 22 22
REMARK SMILES IDX 25 23 23 24 26 25 27 26 8 27 9 28 10 29 2 30 3 31 1 32 24 33
REMARK H PARENT 24 34
REMARK Flexibility Score: inf
ROOT
ATOM      1  C   UNL     1      33.559  17.301 -20.059  1.00  0.00     0.014 C 
ATOM      2  C   UNL     1      33.444  18.871 -20.295  1.00  0.00     0.014 C 
ATOM      3  C   UNL     1      32.514  17.092 -18.934  1.00  0.00     0.012 C 
ATOM      4  C   UNL     1      34.904  16.825 -19.388  1.00  0.00     0.014 C 
ATOM      5  C   UNL     1      32.579  19.450 -19.165  1.00  0.00     0.009 C 
ATOM      6  C   UNL     1      32.480  15.587 -18.369  1.00  0.00     0.000 C 
ATOM      7  C   UNL     1      32.760  18.397 -18.082  1.00  0.00     0.018 C 
ATOM      8  C   UNL     1      34.865  15.410 -18.719  1.00  0.00     0.008 C 
ATOM      9  C   UNL     1      31.885  14.619 -19.417  1.00  0.00     0.005 C 
ATOM     10  C   UNL     1      33.744  14.923 -17.705  1.00  0.00    -0.024 C 
ATOM     11  C   UNL     1      32.778  13.316 -20.035  1.00  0.00     0.005 C 
ATOM     12  C   UNL     1      33.532  13.268 -17.575  1.00  0.00    -0.024 C 
ATOM     13  C   UNL     1      33.985  15.518 -16.297  1.00  0.00     0.012 C 
ATOM     14  C   UNL     1      33.899  12.561 -19.107  1.00  0.00     0.002 C 
ATOM     15  C   UNL     1      34.373  12.548 -16.403  1.00  0.00     0.008 C 
ATOM     16  C   UNL     1      32.032  13.098 -16.907  1.00  0.00     0.012 C 
ATOM     17  C   UNL     1      35.694  12.014 -19.640  1.00  0.00    -0.026 C 
ATOM     18  C   UNL     1      34.649  11.126 -17.040  1.00  0.00     0.005 C 
ATOM     19  C   UNL     1      37.107  10.879 -20.140  1.00  0.00     0.010 C 
ATOM     20  C   UNL     1      35.908  13.349 -20.818  1.00  0.00     0.012 C 
ATOM     21  C   UNL     1      35.989  11.511 -17.967  1.00  0.00     0.003 C 
ATOM     22  C   UNL     1      38.229   9.931 -19.362  1.00  0.00     0.033 C 
ATOM     23  C   UNL     1      37.009  10.442 -17.228  1.00  0.00    -0.006 C 
ATOM     24  C   UNL     1      38.404  10.442 -17.945  1.00  0.00     0.120 C 
ATOM     25  C   UNL     1      36.421   8.890 -17.241  1.00  0.00     0.014 C 
ATOM     26  C   UNL     1      37.131  10.720 -15.617  1.00  0.00     0.014 C 
ENDROOT
BRANCH   1  27
ATOM     27  C   UNL     1      33.000  16.586 -21.272  1.00  0.00     0.048 C 
ATOM     28  O   UNL     1      31.990  16.980 -22.009  1.00  0.00    -0.550 OA
ATOM     29  O   UNL     1      31.868  17.139 -21.993  1.00  0.00    -0.550 OA
ENDBRANCH   1  27
BRANCH   7  30
ATOM     30  C   UNL     1      31.985  18.610 -16.804  1.00  0.00    -0.077 C 
ATOM     31  C   UNL     1      30.470  18.857 -16.899  1.00  0.00     0.039 C 
ATOM     32  C   UNL     1      32.600  18.602 -15.617  1.00  0.00     0.008 C 
ENDBRANCH   7  30
BRANCH  24  33
ATOM     33  O   UNL     1      39.440   9.741 -16.978  1.00  0.00    -0.393 OA
ATOM     34  H   UNL     1      40.527  10.081 -16.602  1.00  0.00     0.210 HD
ENDBRANCH  24  33
TORSDOF 3
ENDMDL
MODEL 3
REMARK VINA RESULT:    -6.285      4.843      8.226
REMARK INTER + INTRA:          -7.955
REMARK INTER:                  -7.193
REMARK INTRA:                  -0.762
REMARK UNBOUND:                -0.751
REMARK SMILES C=C(C)[C@@H]1CC[C@@]2(C(=O)[O-])CC[C@@]3(C)[C@H](CC[C@H]4[C@]5(C)CC[C@H](O)C(C)(C)[C@@H]5CC[C@]43C)[C@@H]12
REMARK SMILES IDX 7 1 6 2 33 3 11 4 5 5 15 6 4 7 12 8 16 9 13 10 17 11 31 12
REMARK SMILES IDX 14 13 18 14 30 15 32 16 19 17 29 18 21 19 20 20 28 21 22 22
REMARK SMILES IDX 25 23 23 24 26 25 27 26 8 27 9 28 10 29 2 30 3 31 1 32 24 33
REMARK H PARENT 24 34
REMARK Flexibility Score: inf
ROOT
ATOM      1  C   UNL     1      30.866  16.104 -20.197  1.00  0.00     0.014 C 
ATOM      2  C   UNL     1      31.642  15.643 -21.508  1.00  0.00     0.014 C 
ATOM      3  C   UNL     1      31.298  17.590 -20.101  1.00  0.00     0.012 C 
ATOM      4  C   UNL     1      31.409  15.489 -18.850  1.00  0.00     0.014 C 
ATOM      5  C   UNL     1      32.615  16.768 -21.893  1.00  0.00     0.009 C 
ATOM      6  C   UNL     1      30.768  18.323 -18.773  1.00  0.00     0.000 C 
ATOM      7  C   UNL     1      32.805  17.469 -20.556  1.00  0.00     0.018 C 
ATOM      8  C   UNL     1      31.012  16.255 -17.545  1.00  0.00     0.008 C 
ATOM      9  C   UNL     1      29.238  18.533 -18.833  1.00  0.00     0.005 C 
ATOM     10  C   UNL     1      31.169  17.822 -17.334  1.00  0.00    -0.024 C 
ATOM     11  C   UNL     1      28.198  17.849 -17.680  1.00  0.00     0.005 C 
ATOM     12  C   UNL     1      30.179  18.516 -16.178  1.00  0.00    -0.024 C 
ATOM     13  C   UNL     1      32.642  18.187 -17.030  1.00  0.00     0.012 C 
ATOM     14  C   UNL     1      28.701  17.625 -16.136  1.00  0.00     0.002 C 
ATOM     15  C   UNL     1      30.811  18.635 -14.700  1.00  0.00     0.008 C 
ATOM     16  C   UNL     1      30.180  20.125 -16.549  1.00  0.00     0.012 C 
ATOM     17  C   UNL     1      28.426  16.044 -15.026  1.00  0.00    -0.026 C 
ATOM     18  C   UNL     1      29.524  18.476 -13.792  1.00  0.00     0.005 C 
ATOM     19  C   UNL     1      27.713  14.952 -13.672  1.00  0.00     0.010 C 
ATOM     20  C   UNL     1      28.444  14.895 -16.404  1.00  0.00     0.012 C 
ATOM     21  C   UNL     1      29.424  16.804 -13.775  1.00  0.00     0.003 C 
ATOM     22  C   UNL     1      27.984  14.704 -12.051  1.00  0.00     0.033 C 
ATOM     23  C   UNL     1      29.565  16.651 -12.136  1.00  0.00    -0.006 C 
ATOM     24  C   UNL     1      29.393  15.149 -11.716  1.00  0.00     0.120 C 
ATOM     25  C   UNL     1      28.437  17.550 -11.315  1.00  0.00     0.014 C 
ATOM     26  C   UNL     1      30.959  17.305 -11.574  1.00  0.00     0.014 C 
ENDROOT
BRANCH   1  27
ATOM     27  C   UNL     1      29.381  16.130 -20.494  1.00  0.00     0.048 C 
ATOM     28  O   UNL     1      28.499  15.238 -20.117  1.00  0.00    -0.550 OA
ATOM     29  O   UNL     1      28.519  15.066 -20.014  1.00  0.00    -0.550 OA
ENDBRANCH   1  27
BRANCH   7  30
ATOM     30  C   UNL     1      33.682  18.697 -20.562  1.00  0.00    -0.077 C 
ATOM     31  C   UNL     1      35.157  18.544 -20.154  1.00  0.00     0.039 C 
ATOM     32  C   UNL     1      33.189  19.894 -20.897  1.00  0.00     0.008 C 
ENDBRANCH   7  30
BRANCH  24  33
ATOM     33  O   UNL     1      29.937  14.999 -10.239  1.00  0.00    -0.393 OA
ATOM     34  H   UNL     1      29.409  15.183  -9.179  1.00  0.00     0.210 HD
ENDBRANCH  24  33
TORSDOF 3
ENDMDL
MODEL 4
REMARK VINA RESULT:    -6.106      4.389      7.051
REMARK INTER + INTRA:          -7.749
REMARK INTER:                  -6.964
REMARK INTRA:                  -0.785
REMARK UNBOUND:                -0.751
REMARK SMILES C=C(C)[C@@H]1CC[C@@]2(C(=O)[O-])CC[C@@]3(C)[C@H](CC[C@H]4[C@]5(C)CC[C@H](O)C(C)(C)[C@@H]5CC[C@]43C)[C@@H]12
REMARK SMILES IDX 7 1 6 2 33 3 11 4 5 5 15 6 4 7 12 8 16 9 13 10 17 11 31 12
REMARK SMILES IDX 14 13 18 14 30 15 32 16 19 17 29 18 21 19 20 20 28 21 22 22
REMARK SMILES IDX 25 23 23 24 26 25 27 26 8 27 9 28 10 29 2 30 3 31 1 32 24 33
REMARK H PARENT 24 34
REMARK Flexibility Score: inf
ROOT
ATOM      1  C   UNL     1      35.641  10.285 -18.239  1.00  0.00     0.014 C 
ATOM      2  C   UNL     1      36.622   9.158 -17.691  1.00  0.00     0.014 C 
ATOM      3  C   UNL     1      35.986  10.272 -19.750  1.00  0.00     0.012 C 
ATOM      4  C   UNL     1      36.006  11.756 -17.804  1.00  0.00     0.014 C 
ATOM      5  C   UNL     1      37.589   8.790 -18.827  1.00  0.00     0.009 C 
ATOM      6  C   UNL     1      35.232  11.420 -20.585  1.00  0.00     0.000 C 
ATOM      7  C   UNL     1      37.547  10.052 -19.675  1.00  0.00     0.018 C 
ATOM      8  C   UNL     1      35.385  12.897 -18.677  1.00  0.00     0.008 C 
ATOM      9  C   UNL     1      33.719  11.120 -20.693  1.00  0.00     0.005 C 
ATOM     10  C   UNL     1      35.438  12.949 -20.264  1.00  0.00    -0.024 C 
ATOM     11  C   UNL     1      32.553  12.184 -20.072  1.00  0.00     0.005 C 
ATOM     12  C   UNL     1      34.257  13.866 -21.014  1.00  0.00    -0.024 C 
ATOM     13  C   UNL     1      36.831  13.415 -20.749  1.00  0.00     0.012 C 
ATOM     14  C   UNL     1      32.831  13.799 -20.043  1.00  0.00     0.002 C 
ATOM     15  C   UNL     1      34.658  15.396 -21.327  1.00  0.00     0.008 C 
ATOM     16  C   UNL     1      34.240  13.319 -22.572  1.00  0.00     0.012 C 
ATOM     17  C   UNL     1      32.468  15.031 -18.574  1.00  0.00    -0.026 C 
ATOM     18  C   UNL     1      33.260  16.124 -21.186  1.00  0.00     0.005 C 
ATOM     19  C   UNL     1      31.613  16.385 -17.590  1.00  0.00     0.010 C 
ATOM     20  C   UNL     1      32.742  13.809 -17.290  1.00  0.00     0.012 C 
ATOM     21  C   UNL     1      33.235  16.317 -19.522  1.00  0.00     0.003 C 
ATOM     22  C   UNL     1      31.653  18.045 -17.531  1.00  0.00     0.033 C 
ATOM     23  C   UNL     1      33.138  17.966 -19.553  1.00  0.00    -0.006 C 
ATOM     24  C   UNL     1      32.975  18.524 -18.095  1.00  0.00     0.120 C 
ATOM     25  C   UNL     1      31.861  18.511 -20.461  1.00  0.00     0.014 C 
ATOM     26  C   UNL     1      34.403  18.642 -20.347  1.00  0.00     0.014 C 
ENDROOT
BRANCH   1  27
ATOM     27  C   UNL     1      34.216   9.779 -18.141  1.00  0.00     0.048 C 
ATOM     28  O   UNL     1      33.326  10.133 -17.246  1.00  0.00    -0.550 OA
ATOM     29  O   UNL     1      33.338  10.258 -17.089  1.00  0.00    -0.550 OA
ENDBRANCH   1  27
BRANCH   7  30
ATOM     30  C   UNL     1      38.358  10.032 -20.947  1.00  0.00    -0.077 C 
ATOM     31  C   UNL     1      37.977   9.021 -22.042  1.00  0.00     0.039 C 
ATOM     32  C   UNL     1      39.395  10.859 -21.116  1.00  0.00     0.008 C 
ENDBRANCH   7  30
BRANCH  24  33
ATOM     33  O   UNL     1      33.301  20.071 -18.136  1.00  0.00    -0.393 OA
ATOM     34  H   UNL     1      33.983  20.717 -18.881  1.00  0.00     0.210 HD
ENDBRANCH  24  33
TORSDOF 3
ENDMDL
MODEL 5
REMARK VINA RESULT:    -6.098      2.701      7.793
REMARK INTER + INTRA:          -7.741
REMARK INTER:                  -6.939
REMARK INTRA:                  -0.802
REMARK UNBOUND:                -0.751
REMARK SMILES C=C(C)[C@@H]1CC[C@@]2(C(=O)[O-])CC[C@@]3(C)[C@H](CC[C@H]4[C@]5(C)CC[C@H](O)C(C)(C)[C@@H]5CC[C@]43C)[C@@H]12
REMARK SMILES IDX 7 1 6 2 33 3 11 4 5 5 15 6 4 7 12 8 16 9 13 10 17 11 31 12
REMARK SMILES IDX 14 13 18 14 30 15 32 16 19 17 29 18 21 19 20 20 28 21 22 22
REMARK SMILES IDX 25 23 23 24 26 25 27 26 8 27 9 28 10 29 2 30 3 31 1 32 24 33
REMARK H PARENT 24 34
REMARK Flexibility Score: inf
ROOT
ATOM      1  C   UNL     1      32.878  15.501 -16.703  1.00  0.00     0.014 C 
ATOM      2  C   UNL     1      32.647  15.629 -15.133  1.00  0.00     0.014 C 
ATOM      3  C   UNL     1      32.596  16.953 -17.165  1.00  0.00     0.012 C 
ATOM      4  C   UNL     1      31.784  14.665 -17.471  1.00  0.00     0.014 C 
ATOM      5  C   UNL     1      32.028  17.009 -14.864  1.00  0.00     0.009 C 
ATOM      6  C   UNL     1      32.623  17.130 -18.762  1.00  0.00     0.000 C 
ATOM      7  C   UNL     1      31.392  17.318 -16.212  1.00  0.00     0.018 C 
ATOM      8  C   UNL     1      31.703  14.909 -19.015  1.00  0.00     0.008 C 
ATOM      9  C   UNL     1      34.063  16.992 -19.308  1.00  0.00     0.005 C 
ATOM     10  C   UNL     1      31.634  16.341 -19.700  1.00  0.00    -0.024 C 
ATOM     11  C   UNL     1      34.482  15.785 -20.423  1.00  0.00     0.005 C 
ATOM     12  C   UNL     1      32.146  16.425 -21.290  1.00  0.00    -0.024 C 
ATOM     13  C   UNL     1      30.207  16.929 -19.591  1.00  0.00     0.012 C 
ATOM     14  C   UNL     1      33.386  15.245 -21.517  1.00  0.00     0.002 C 
ATOM     15  C   UNL     1      30.992  16.254 -22.403  1.00  0.00     0.008 C 
ATOM     16  C   UNL     1      32.454  18.029 -21.537  1.00  0.00     0.012 C 
ATOM     17  C   UNL     1      33.034  13.393 -22.016  1.00  0.00    -0.026 C 
ATOM     18  C   UNL     1      31.786  15.549 -23.577  1.00  0.00     0.005 C 
ATOM     19  C   UNL     1      33.034  11.824 -23.051  1.00  0.00     0.010 C 
ATOM     20  C   UNL     1      33.451  12.727 -20.403  1.00  0.00     0.012 C 
ATOM     21  C   UNL     1      31.702  13.967 -23.034  1.00  0.00     0.003 C 
ATOM     22  C   UNL     1      32.115  11.187 -24.281  1.00  0.00     0.033 C 
ATOM     23  C   UNL     1      30.904  13.385 -24.358  1.00  0.00    -0.006 C 
ATOM     24  C   UNL     1      30.742  11.828 -24.249  1.00  0.00     0.120 C 
ATOM     25  C   UNL     1      31.696  13.724 -25.776  1.00  0.00     0.014 C 
ATOM     26  C   UNL     1      29.476  14.150 -24.603  1.00  0.00     0.014 C 
ENDROOT
BRANCH   1  27
ATOM     27  C   UNL     1      34.353  15.271 -16.960  1.00  0.00     0.048 C 
ATOM     28  O   UNL     1      34.914  14.133 -17.293  1.00  0.00    -0.550 OA
ATOM     29  O   UNL     1      34.837  13.950 -17.318  1.00  0.00    -0.550 OA
ENDBRANCH   1  27
BRANCH   7  30
ATOM     30  C   UNL     1      30.719  18.662 -16.342  1.00  0.00    -0.077 C 
ATOM     31  C   UNL     1      29.182  18.709 -16.394  1.00  0.00     0.039 C 
ATOM     32  C   UNL     1      31.437  19.787 -16.428  1.00  0.00     0.008 C 
ENDBRANCH   7  30
BRANCH  24  33
ATOM     33  O   UNL     1      29.642  11.387 -25.296  1.00  0.00    -0.393 OA
ATOM     34  H   UNL     1      28.821  12.021 -25.896  1.00  0.00     0.210 HD
ENDBRANCH  24  33
TORSDOF 3
ENDMDL
MODEL 6
REMARK VINA RESULT:    -6.098      4.688      7.864
REMARK INTER + INTRA:          -7.740
REMARK INTER:                  -6.950
REMARK INTRA:                  -0.790
REMARK UNBOUND:                -0.751
REMARK SMILES C=C(C)[C@@H]1CC[C@@]2(C(=O)[O-])CC[C@@]3(C)[C@H](CC[C@H]4[C@]5(C)CC[C@H](O)C(C)(C)[C@@H]5CC[C@]43C)[C@@H]12
REMARK SMILES IDX 7 1 6 2 33 3 11 4 5 5 15 6 4 7 12 8 16 9 13 10 17 11 31 12
REMARK SMILES IDX 14 13 18 14 30 15 32 16 19 17 29 18 21 19 20 20 28 21 22 22
REMARK SMILES IDX 25 23 23 24 26 25 27 26 8 27 9 28 10 29 2 30 3 31 1 32 24 33
REMARK H PARENT 24 34
REMARK Flexibility Score: inf
ROOT
ATOM      1  C   UNL     1      33.474  17.222 -20.178  1.00  0.00     0.014 C 
ATOM      2  C   UNL     1      33.600  18.647 -20.875  1.00  0.00     0.014 C 
ATOM      3  C   UNL     1      32.136  17.381 -19.412  1.00  0.00     0.012 C 
ATOM      4  C   UNL     1      34.514  16.950 -19.024  1.00  0.00     0.014 C 
ATOM      5  C   UNL     1      32.515  19.556 -20.276  1.00  0.00     0.009 C 
ATOM      6  C   UNL     1      31.782  16.121 -18.479  1.00  0.00     0.000 C 
ATOM      7  C   UNL     1      32.267  18.880 -18.935  1.00  0.00     0.018 C 
ATOM      8  C   UNL     1      34.135  15.808 -18.023  1.00  0.00     0.008 C 
ATOM      9  C   UNL     1      31.410  14.889 -19.336  1.00  0.00     0.005 C 
ATOM     10  C   UNL     1      32.727  15.670 -17.302  1.00  0.00    -0.024 C 
ATOM     11  C   UNL     1      32.297  13.446 -19.254  1.00  0.00     0.005 C 
ATOM     12  C   UNL     1      32.312  14.137 -16.776  1.00  0.00    -0.024 C 
ATOM     13  C   UNL     1      32.620  16.662 -16.119  1.00  0.00     0.012 C 
ATOM     14  C   UNL     1      33.021  12.991 -17.855  1.00  0.00     0.002 C 
ATOM     15  C   UNL     1      32.703  13.795 -15.250  1.00  0.00     0.008 C 
ATOM     16  C   UNL     1      30.674  14.202 -16.575  1.00  0.00     0.012 C 
ATOM     17  C   UNL     1      34.824  12.280 -17.640  1.00  0.00    -0.026 C 
ATOM     18  C   UNL     1      32.994  12.242 -15.339  1.00  0.00     0.005 C 
ATOM     19  C   UNL     1      36.191  11.024 -17.341  1.00  0.00     0.010 C 
ATOM     20  C   UNL     1      35.506  13.189 -19.027  1.00  0.00     0.012 C 
ATOM     21  C   UNL     1      34.576  12.306 -15.885  1.00  0.00     0.003 C 
ATOM     22  C   UNL     1      36.937  10.340 -16.022  1.00  0.00     0.033 C 
ATOM     23  C   UNL     1      35.223  11.496 -14.599  1.00  0.00    -0.006 C 
ATOM     24  C   UNL     1      36.757  11.255 -14.828  1.00  0.00     0.120 C 
ATOM     25  C   UNL     1      34.501  10.024 -14.346  1.00  0.00     0.014 C 
ATOM     26  C   UNL     1      34.911  12.249 -13.177  1.00  0.00     0.014 C 
ENDROOT
BRANCH   1  27
ATOM     27  C   UNL     1      33.211  16.180 -21.246  1.00  0.00     0.048 C 
ATOM     28  O   UNL     1      34.058  15.276 -21.673  1.00  0.00    -0.550 OA
ATOM     29  O   UNL     1      34.249  15.240 -21.624  1.00  0.00    -0.550 OA
ENDBRANCH   1  27
BRANCH   7  30
ATOM     30  C   UNL     1      31.189  19.484 -18.070  1.00  0.00    -0.077 C 
ATOM     31  C   UNL     1      29.727  19.364 -18.531  1.00  0.00     0.039 C 
ATOM     32  C   UNL     1      31.494  20.125 -16.936  1.00  0.00     0.008 C 
ENDBRANCH   7  30
BRANCH  24  33
ATOM     33  O   UNL     1      37.394  10.866 -13.433  1.00  0.00    -0.393 OA
ATOM     34  H   UNL     1      38.537  10.783 -13.081  1.00  0.00     0.210 HD
ENDBRANCH  24  33
TORSDOF 3
ENDMDL
MODEL 7
REMARK VINA RESULT:    -6.018      3.314      7.852
REMARK INTER + INTRA:          -7.649
REMARK INTER:                  -6.842
REMARK INTRA:                  -0.806
REMARK UNBOUND:                -0.751
REMARK SMILES C=C(C)[C@@H]1CC[C@@]2(C(=O)[O-])CC[C@@]3(C)[C@H](CC[C@H]4[C@]5(C)CC[C@H](O)C(C)(C)[C@@H]5CC[C@]43C)[C@@H]12
REMARK SMILES IDX 7 1 6 2 33 3 11 4 5 5 15 6 4 7 12 8 16 9 13 10 17 11 31 12
REMARK SMILES IDX 14 13 18 14 30 15 32 16 19 17 29 18 21 19 20 20 28 21 22 22
REMARK SMILES IDX 25 23 23 24 26 25 27 26 8 27 9 28 10 29 2 30 3 31 1 32 24 33
REMARK H PARENT 24 34
REMARK Flexibility Score: inf
ROOT
ATOM      1  C   UNL     1      31.753  19.153 -17.619  1.00  0.00     0.014 C 
ATOM      2  C   UNL     1      31.469  20.125 -16.391  1.00  0.00     0.014 C 
ATOM      3  C   UNL     1      30.315  18.706 -17.984  1.00  0.00     0.012 C 
ATOM      4  C   UNL     1      32.463  17.795 -17.244  1.00  0.00     0.014 C 
ATOM      5  C   UNL     1      29.992  19.963 -16.001  1.00  0.00     0.009 C 
ATOM      6  C   UNL     1      30.269  17.589 -19.139  1.00  0.00     0.000 C 
ATOM      7  C   UNL     1      29.692  18.572 -16.540  1.00  0.00     0.018 C 
ATOM      8  C   UNL     1      32.330  16.646 -18.298  1.00  0.00     0.008 C 
ATOM      9  C   UNL     1      30.675  18.191 -20.504  1.00  0.00     0.005 C 
ATOM     10  C   UNL     1      30.962  16.185 -18.963  1.00  0.00    -0.024 C 
ATOM     11  C   UNL     1      32.016  17.616 -21.370  1.00  0.00     0.005 C 
ATOM     12  C   UNL     1      31.083  15.406 -20.438  1.00  0.00    -0.024 C 
ATOM     13  C   UNL     1      30.149  15.304 -17.985  1.00  0.00     0.012 C 
ATOM     14  C   UNL     1      32.458  16.040 -21.268  1.00  0.00     0.002 C 
ATOM     15  C   UNL     1      31.156  13.797 -20.371  1.00  0.00     0.008 C 
ATOM     16  C   UNL     1      29.573  15.532 -21.094  1.00  0.00     0.012 C 
ATOM     17  C   UNL     1      34.265  15.336 -21.057  1.00  0.00    -0.026 C 
ATOM     18  C   UNL     1      32.066  13.469 -21.624  1.00  0.00     0.005 C 
ATOM     19  C   UNL     1      35.890  14.507 -21.512  1.00  0.00     0.010 C 
ATOM     20  C   UNL     1      34.861  16.745 -20.121  1.00  0.00     0.012 C 
ATOM     21  C   UNL     1      33.568  13.712 -20.924  1.00  0.00     0.003 C 
ATOM     22  C   UNL     1      36.467  12.952 -21.614  1.00  0.00     0.033 C 
ATOM     23  C   UNL     1      34.118  12.176 -21.185  1.00  0.00    -0.006 C 
ATOM     24  C   UNL     1      35.617  12.056 -20.736  1.00  0.00     0.120 C 
ATOM     25  C   UNL     1      34.019  11.729 -22.780  1.00  0.00     0.014 C 
ATOM     26  C   UNL     1      33.158  11.050 -20.480  1.00  0.00     0.014 C 
ENDROOT
BRANCH   1  27
ATOM     27  C   UNL     1      32.233  19.981 -18.794  1.00  0.00     0.048 C 
ATOM     28  O   UNL     1      33.463  20.052 -19.241  1.00  0.00    -0.550 OA
ATOM     29  O   UNL     1      33.633  19.968 -19.176  1.00  0.00    -0.550 OA
ENDBRANCH   1  27
BRANCH   7  30
ATOM     30  C   UNL     1      28.273  18.085 -16.383  1.00  0.00    -0.077 C 
ATOM     31  C   UNL     1      27.179  18.723 -17.255  1.00  0.00     0.039 C 
ATOM     32  C   UNL     1      27.966  17.132 -15.496  1.00  0.00     0.008 C 
ENDBRANCH   7  30
BRANCH  24  33
ATOM     33  O   UNL     1      35.958  10.516 -20.616  1.00  0.00    -0.393 OA
ATOM     34  H   UNL     1      36.868   9.947 -20.081  1.00  0.00     0.210 HD
ENDBRANCH  24  33
TORSDOF 3
ENDMDL
MODEL 8
REMARK VINA RESULT:    -5.883      2.235      4.131
REMARK INTER + INTRA:          -7.494
REMARK INTER:                  -6.689
REMARK INTRA:                  -0.805
REMARK UNBOUND:                -0.751
REMARK SMILES C=C(C)[C@@H]1CC[C@@]2(C(=O)[O-])CC[C@@]3(C)[C@H](CC[C@H]4[C@]5(C)CC[C@H](O)C(C)(C)[C@@H]5CC[C@]43C)[C@@H]12
REMARK SMILES IDX 7 1 6 2 33 3 11 4 5 5 15 6 4 7 12 8 16 9 13 10 17 11 31 12
REMARK SMILES IDX 14 13 18 14 30 15 32 16 19 17 29 18 21 19 20 20 28 21 22 22
REMARK SMILES IDX 25 23 23 24 26 25 27 26 8 27 9 28 10 29 2 30 3 31 1 32 24 33
REMARK H PARENT 24 34
REMARK Flexibility Score: inf
ROOT
ATOM      1  C   UNL     1      28.678  11.831 -23.367  1.00  0.00     0.014 C 
ATOM      2  C   UNL     1      27.715  10.580 -23.573  1.00  0.00     0.014 C 
ATOM      3  C   UNL     1      29.951  11.352 -24.111  1.00  0.00     0.012 C 
ATOM      4  C   UNL     1      29.188  12.043 -21.890  1.00  0.00     0.014 C 
ATOM      5  C   UNL     1      28.556   9.436 -24.161  1.00  0.00     0.009 C 
ATOM      6  C   UNL     1      31.189  12.368 -23.973  1.00  0.00     0.000 C 
ATOM      7  C   UNL     1      29.953   9.827 -23.703  1.00  0.00     0.018 C 
ATOM      8  C   UNL     1      30.469  12.929 -21.735  1.00  0.00     0.008 C 
ATOM      9  C   UNL     1      30.930  13.664 -24.775  1.00  0.00     0.005 C 
ATOM     10  C   UNL     1      31.806  12.738 -22.572  1.00  0.00    -0.024 C 
ATOM     11  C   UNL     1      30.876  15.183 -24.022  1.00  0.00     0.005 C 
ATOM     12  C   UNL     1      32.793  14.081 -22.705  1.00  0.00    -0.024 C 
ATOM     13  C   UNL     1      32.630  11.551 -22.019  1.00  0.00     0.012 C 
ATOM     14  C   UNL     1      31.789  15.486 -22.694  1.00  0.00     0.002 C 
ATOM     15  C   UNL     1      33.954  14.206 -21.593  1.00  0.00     0.008 C 
ATOM     16  C   UNL     1      33.763  13.750 -24.000  1.00  0.00     0.012 C 
ATOM     17  C   UNL     1      31.230  16.399 -21.064  1.00  0.00    -0.026 C 
ATOM     18  C   UNL     1      34.079  15.777 -21.441  1.00  0.00     0.005 C 
ATOM     19  C   UNL     1      31.079  17.765 -19.781  1.00  0.00     0.010 C 
ATOM     20  C   UNL     1      29.526  15.850 -21.167  1.00  0.00     0.012 C 
ATOM     21  C   UNL     1      32.819  16.034 -20.368  1.00  0.00     0.003 C 
ATOM     22  C   UNL     1      31.964  18.309 -18.484  1.00  0.00     0.033 C 
ATOM     23  C   UNL     1      33.755  16.692 -19.176  1.00  0.00    -0.006 C 
ATOM     24  C   UNL     1      32.853  17.185 -17.991  1.00  0.00     0.120 C 
ATOM     25  C   UNL     1      34.653  17.981 -19.712  1.00  0.00     0.014 C 
ATOM     26  C   UNL     1      34.935  15.667 -18.684  1.00  0.00     0.014 C 
ENDROOT
BRANCH   1  27
ATOM     27  C   UNL     1      28.146  12.993 -24.179  1.00  0.00     0.048 C 
ATOM     28  O   UNL     1      27.520  14.045 -23.709  1.00  0.00    -0.550 OA
ATOM     29  O   UNL     1      27.465  14.095 -23.523  1.00  0.00    -0.550 OA
ENDBRANCH   1  27
BRANCH   7  30
ATOM     30  C   UNL     1      31.082   8.935 -24.158  1.00  0.00    -0.077 C 
ATOM     31  C   UNL     1      31.776   8.044 -23.114  1.00  0.00     0.039 C 
ATOM     32  C   UNL     1      31.483   8.928 -25.433  1.00  0.00     0.008 C 
ENDBRANCH   7  30
BRANCH  24  33
ATOM     33  O   UNL     1      33.790  17.413 -16.738  1.00  0.00    -0.393 OA
ATOM     34  H   UNL     1      33.678  18.133 -15.786  1.00  0.00     0.210 HD
ENDBRANCH  24  33
TORSDOF 3
ENDMDL
MODEL 9
REMARK VINA RESULT:    -5.861      5.466      8.241
REMARK INTER + INTRA:          -7.469
REMARK INTER:                  -6.727
REMARK INTRA:                  -0.742
REMARK UNBOUND:                -0.751
REMARK SMILES C=C(C)[C@@H]1CC[C@@]2(C(=O)[O-])CC[C@@]3(C)[C@H](CC[C@H]4[C@]5(C)CC[C@H](O)C(C)(C)[C@@H]5CC[C@]43C)[C@@H]12
REMARK SMILES IDX 7 1 6 2 33 3 11 4 5 5 15 6 4 7 12 8 16 9 13 10 17 11 31 12
REMARK SMILES IDX 14 13 18 14 30 15 32 16 19 17 29 18 21 19 20 20 28 21 22 22
REMARK SMILES IDX 25 23 23 24 26 25 27 26 8 27 9 28 10 29 2 30 3 31 1 32 24 33
REMARK H PARENT 24 34
REMARK Flexibility Score: inf
ROOT
ATOM      1  C   UNL     1      33.644  15.514 -17.894  1.00  0.00     0.014 C 
ATOM      2  C   UNL     1      35.022  15.453 -18.688  1.00  0.00     0.014 C 
ATOM      3  C   UNL     1      32.705  16.114 -18.971  1.00  0.00     0.012 C 
ATOM      4  C   UNL     1      33.589  16.586 -16.738  1.00  0.00     0.014 C 
ATOM      5  C   UNL     1      34.836  16.225 -20.004  1.00  0.00     0.009 C 
ATOM      6  C   UNL     1      31.227  16.427 -18.424  1.00  0.00     0.000 C 
ATOM      7  C   UNL     1      33.685  17.152 -19.644  1.00  0.00     0.018 C 
ATOM      8  C   UNL     1      32.156  17.004 -16.268  1.00  0.00     0.008 C 
ATOM      9  C   UNL     1      30.452  15.118 -18.149  1.00  0.00     0.005 C 
ATOM     10  C   UNL     1      30.978  17.438 -17.242  1.00  0.00    -0.024 C 
ATOM     11  C   UNL     1      29.874  14.733 -16.601  1.00  0.00     0.005 C 
ATOM     12  C   UNL     1      29.424  17.266 -16.645  1.00  0.00    -0.024 C 
ATOM     13  C   UNL     1      31.180  18.893 -17.728  1.00  0.00     0.012 C 
ATOM     14  C   UNL     1      29.411  15.918 -15.567  1.00  0.00     0.002 C 
ATOM     15  C   UNL     1      28.805  18.571 -15.928  1.00  0.00     0.008 C 
ATOM     16  C   UNL     1      28.465  17.277 -17.990  1.00  0.00     0.012 C 
ATOM     17  C   UNL     1      29.832  16.053 -13.667  1.00  0.00    -0.026 C 
ATOM     18  C   UNL     1      27.876  17.915 -14.828  1.00  0.00     0.005 C 
ATOM     19  C   UNL     1      29.578  15.998 -11.805  1.00  0.00     0.010 C 
ATOM     20  C   UNL     1      31.417  15.227 -13.810  1.00  0.00     0.012 C 
ATOM     21  C   UNL     1      29.030  17.633 -13.648  1.00  0.00     0.003 C 
ATOM     22  C   UNL     1      28.992  17.022 -10.634  1.00  0.00     0.033 C 
ATOM     23  C   UNL     1      28.309  18.567 -12.491  1.00  0.00    -0.006 C 
ATOM     24  C   UNL     1      29.092  18.448 -11.136  1.00  0.00     0.120 C 
ATOM     25  C   UNL     1      26.731  18.132 -12.216  1.00  0.00     0.014 C 
ATOM     26  C   UNL     1      28.129  20.121 -12.978  1.00  0.00     0.014 C 
ENDROOT
BRANCH   1  27
ATOM     27  C   UNL     1      33.152  14.100 -17.665  1.00  0.00     0.048 C 
ATOM     28  O   UNL     1      33.261  13.410 -16.556  1.00  0.00    -0.550 OA
ATOM     29  O   UNL     1      33.346  13.455 -16.379  1.00  0.00    -0.550 OA
ENDBRANCH   1  27
BRANCH   7  30
ATOM     30  C   UNL     1      33.177  18.049 -20.747  1.00  0.00    -0.077 C 
ATOM     31  C   UNL     1      33.743  19.475 -20.849  1.00  0.00     0.039 C 
ATOM     32  C   UNL     1      32.246  17.623 -21.607  1.00  0.00     0.008 C 
ENDBRANCH   7  30
BRANCH  24  33
ATOM     33  O   UNL     1      28.630  19.644 -10.210  1.00  0.00    -0.393 OA
ATOM     34  H   UNL     1      29.037  20.766 -10.104  1.00  0.00     0.210 HD
ENDBRANCH  24  33
TORSDOF 3
ENDMDL
