MODEL 1
REMARK VINA RESULT:    -3.759      0.000      0.000
REMARK INTER + INTRA:         -11.927
REMARK INTER:                  -8.154
REMARK INTRA:                  -3.773
REMARK UNBOUND:                -3.773
REMARK SMILES CCCCCCCCCCCCCCCCCCCCCC(=O)[O-]
REMARK SMILES IDX 12 1 11 2 10 3 9 4 8 5 7 6 6 7 5 8 4 9 3 10 2 11 1 12 13 13
REMARK SMILES IDX 14 14 15 15 16 16 17 17 18 18 19 19 20 20 21 21 22 22 23 23
REMARK SMILES IDX 24 24
REMARK H PARENT
REMARK Flexibility Score: inf
ROOT
ATOM      1  C   UNL     1     175.838 176.118 151.969  1.00  0.00     0.000 C 
ENDROOT
BRANCH   1   2
ATOM      2  C   UNL     1     175.900 175.021 150.887  1.00  0.00     0.000 C 
BRANCH   2   3
ATOM      3  C   UNL     1     177.083 174.041 151.014  1.00  0.00     0.000 C 
BRANCH   3   4
ATOM      4  C   UNL     1     176.661 172.560 151.123  1.00  0.00    -0.000 C 
BRANCH   4   5
ATOM      5  C   UNL     1     176.396 171.917 149.751  1.00  0.00    -0.000 C 
BRANCH   5   6
ATOM      6  C   UNL     1     175.261 170.876 149.785  1.00  0.00    -0.000 C 
BRANCH   6   7
ATOM      7  C   UNL     1     173.958 171.319 149.096  1.00  0.00    -0.000 C 
BRANCH   7   8
ATOM      8  C   UNL     1     173.326 172.558 149.753  1.00  0.00    -0.000 C 
BRANCH   8   9
ATOM      9  C   UNL     1     172.759 172.262 151.152  1.00  0.00    -0.000 C 
BRANCH   9  10
ATOM     10  C   UNL     1     173.002 173.416 152.141  1.00  0.00    -0.000 C 
BRANCH  10  11
ATOM     11  C   UNL     1     173.591 172.932 153.476  1.00  0.00    -0.003 C 
ATOM     12  C   UNL     1     174.077 171.483 153.420  1.00  0.00     0.004 C 
ENDBRANCH  10  11
ENDBRANCH   9  10
ENDBRANCH   8   9
ENDBRANCH   7   8
ENDBRANCH   6   7
ENDBRANCH   5   6
ENDBRANCH   4   5
ENDBRANCH   3   4
ENDBRANCH   2   3
ENDBRANCH   1   2
BRANCH   1  13
ATOM     13  C   UNL     1     175.213 177.448 151.512  1.00  0.00     0.000 C 
BRANCH  13  14
ATOM     14  C   UNL     1     173.957 177.258 150.649  1.00  0.00     0.000 C 
BRANCH  14  15
ATOM     15  C   UNL     1     172.723 177.015 151.525  1.00  0.00     0.000 C 
BRANCH  15  16
ATOM     16  C   UNL     1     172.761 177.893 152.786  1.00  0.00     0.000 C 
BRANCH  16  17
ATOM     17  C   UNL     1     172.610 177.073 154.077  1.00  0.00     0.000 C 
BRANCH  17  18
ATOM     18  C   UNL     1     173.815 177.231 155.022  1.00  0.00     0.000 C 
BRANCH  18  19
ATOM     19  C   UNL     1     174.401 175.870 155.453  1.00  0.00     0.000 C 
BRANCH  19  20
ATOM     20  C   UNL     1     175.936 175.808 155.371  1.00  0.00     0.006 C 
BRANCH  20  21
ATOM     21  C   UNL     1     176.544 174.774 156.327  1.00  0.00     0.053 C 
BRANCH  21  22
ATOM     22  C   UNL     1     176.532 173.414 155.705  1.00  0.00     0.041 C 
ATOM     23  O   UNL     1     177.093 173.220 154.593  1.00  0.00    -0.550 OA
ATOM     24  O   UNL     1     175.868 172.368 156.333  1.00  0.00    -0.550 OA
ENDBRANCH  21  22
ENDBRANCH  20  21
ENDBRANCH  19  20
ENDBRANCH  18  19
ENDBRANCH  17  18
ENDBRANCH  16  17
ENDBRANCH  15  16
ENDBRANCH  14  15
ENDBRANCH  13  14
ENDBRANCH   1  13
TORSDOF 20
ENDMDL
MODEL 2
REMARK VINA RESULT:    -3.749     10.106     12.307
REMARK INTER + INTRA:         -11.904
REMARK INTER:                  -8.473
REMARK INTRA:                  -3.431
REMARK UNBOUND:                -3.773
REMARK SMILES CCCCCCCCCCCCCCCCCCCCCC(=O)[O-]
REMARK SMILES IDX 12 1 11 2 10 3 9 4 8 5 7 6 6 7 5 8 4 9 3 10 2 11 1 12 13 13
REMARK SMILES IDX 14 14 15 15 16 16 17 17 18 18 19 19 20 20 21 21 22 22 23 23
REMARK SMILES IDX 24 24
REMARK H PARENT
REMARK Flexibility Score: inf
ROOT
ATOM      1  C   UNL     1     165.799 174.279 150.743  1.00  0.00     0.000 C 
ENDROOT
BRANCH   1   2
ATOM      2  C   UNL     1     167.096 174.522 149.947  1.00  0.00     0.000 C 
BRANCH   2   3
ATOM      3  C   UNL     1     167.207 175.907 149.279  1.00  0.00     0.000 C 
BRANCH   3   4
ATOM      4  C   UNL     1     167.606 177.041 150.249  1.00  0.00    -0.000 C 
BRANCH   4   5
ATOM      5  C   UNL     1     168.489 176.547 151.407  1.00  0.00    -0.000 C 
BRANCH   5   6
ATOM      6  C   UNL     1     167.981 177.002 152.787  1.00  0.00    -0.000 C 
BRANCH   6   7
ATOM      7  C   UNL     1     166.617 177.715 152.770  1.00  0.00    -0.000 C 
BRANCH   7   8
ATOM      8  C   UNL     1     165.770 177.418 154.019  1.00  0.00    -0.000 C 
BRANCH   8   9
ATOM      9  C   UNL     1     165.793 175.931 154.410  1.00  0.00    -0.000 C 
BRANCH   9  10
ATOM     10  C   UNL     1     164.408 175.414 154.839  1.00  0.00    -0.000 C 
BRANCH  10  11
ATOM     11  C   UNL     1     163.476 176.544 155.303  1.00  0.00    -0.003 C 
ATOM     12  C   UNL     1     162.322 176.042 156.172  1.00  0.00     0.004 C 
ENDBRANCH  10  11
ENDBRANCH   9  10
ENDBRANCH   8   9
ENDBRANCH   7   8
ENDBRANCH   6   7
ENDBRANCH   5   6
ENDBRANCH   4   5
ENDBRANCH   3   4
ENDBRANCH   2   3
ENDBRANCH   1   2
BRANCH   1  13
ATOM     13  C   UNL     1     164.554 175.003 150.197  1.00  0.00     0.000 C 
BRANCH  13  14
ATOM     14  C   UNL     1     163.721 175.677 151.296  1.00  0.00     0.000 C 
BRANCH  14  15
ATOM     15  C   UNL     1     163.546 177.172 151.009  1.00  0.00     0.000 C 
BRANCH  15  16
ATOM     16  C   UNL     1     162.060 177.563 151.002  1.00  0.00     0.000 C 
BRANCH  16  17
ATOM     17  C   UNL     1     161.502 177.782 152.417  1.00  0.00     0.000 C 
BRANCH  17  18
ATOM     18  C   UNL     1     160.479 176.706 152.822  1.00  0.00     0.000 C 
BRANCH  18  19
ATOM     19  C   UNL     1     159.849 176.009 151.598  1.00  0.00     0.000 C 
BRANCH  19  20
ATOM     20  C   UNL     1     159.392 174.567 151.879  1.00  0.00     0.006 C 
BRANCH  20  21
ATOM     21  C   UNL     1     160.545 173.556 151.831  1.00  0.00     0.053 C 
BRANCH  21  22
ATOM     22  C   UNL     1     160.024 172.160 151.969  1.00  0.00     0.041 C 
ATOM     23  O   UNL     1     160.259 171.304 151.075  1.00  0.00    -0.550 OA
ATOM     24  O   UNL     1     159.244 171.814 153.066  1.00  0.00    -0.550 OA
ENDBRANCH  21  22
ENDBRANCH  20  21
ENDBRANCH  19  20
ENDBRANCH  18  19
ENDBRANCH  17  18
ENDBRANCH  16  17
ENDBRANCH  15  16
ENDBRANCH  14  15
ENDBRANCH  13  14
ENDBRANCH   1  13
TORSDOF 20
ENDMDL
MODEL 3
REMARK VINA RESULT:    -3.692     10.116     12.187
REMARK INTER + INTRA:         -11.782
REMARK INTER:                  -8.127
REMARK INTRA:                  -3.655
REMARK UNBOUND:                -3.773
REMARK SMILES CCCCCCCCCCCCCCCCCCCCCC(=O)[O-]
REMARK SMILES IDX 12 1 11 2 10 3 9 4 8 5 7 6 6 7 5 8 4 9 3 10 2 11 1 12 13 13
REMARK SMILES IDX 14 14 15 15 16 16 17 17 18 18 19 19 20 20 21 21 22 22 23 23
REMARK SMILES IDX 24 24
REMARK H PARENT
REMARK Flexibility Score: inf
ROOT
ATOM      1  C   UNL     1     161.235 173.229 152.869  1.00  0.00     0.000 C 
ENDROOT
BRANCH   1   2
ATOM      2  C   UNL     1     162.675 173.777 152.841  1.00  0.00     0.000 C 
BRANCH   2   3
ATOM      3  C   UNL     1     163.462 173.490 151.547  1.00  0.00     0.000 C 
BRANCH   3   4
ATOM      4  C   UNL     1     164.770 174.301 151.415  1.00  0.00    -0.000 C 
BRANCH   4   5
ATOM      5  C   UNL     1     165.054 174.735 149.967  1.00  0.00    -0.000 C 
BRANCH   5   6
ATOM      6  C   UNL     1     166.499 174.440 149.525  1.00  0.00    -0.000 C 
BRANCH   6   7
ATOM      7  C   UNL     1     167.234 175.631 148.883  1.00  0.00    -0.000 C 
BRANCH   7   8
ATOM      8  C   UNL     1     166.951 176.964 149.597  1.00  0.00    -0.000 C 
BRANCH   8   9
ATOM      9  C   UNL     1     167.842 177.175 150.832  1.00  0.00    -0.000 C 
BRANCH   9  10
ATOM     10  C   UNL     1     167.028 177.271 152.136  1.00  0.00    -0.000 C 
BRANCH  10  11
ATOM     11  C   UNL     1     167.748 176.620 153.327  1.00  0.00    -0.003 C 
ATOM     12  C   UNL     1     166.963 175.452 153.928  1.00  0.00     0.004 C 
ENDBRANCH  10  11
ENDBRANCH   9  10
ENDBRANCH   8   9
ENDBRANCH   7   8
ENDBRANCH   6   7
ENDBRANCH   5   6
ENDBRANCH   4   5
ENDBRANCH   3   4
ENDBRANCH   2   3
ENDBRANCH   1   2
BRANCH   1  13
ATOM     13  C   UNL     1     160.142 174.280 153.132  1.00  0.00     0.000 C 
BRANCH  13  14
ATOM     14  C   UNL     1     159.616 174.935 151.846  1.00  0.00     0.000 C 
BRANCH  14  15
ATOM     15  C   UNL     1     160.163 176.359 151.695  1.00  0.00     0.000 C 
BRANCH  15  16
ATOM     16  C   UNL     1     161.245 176.421 150.605  1.00  0.00     0.000 C 
BRANCH  16  17
ATOM     17  C   UNL     1     162.490 177.200 151.057  1.00  0.00     0.000 C 
BRANCH  17  18
ATOM     18  C   UNL     1     162.368 177.726 152.498  1.00  0.00     0.000 C 
BRANCH  18  19
ATOM     19  C   UNL     1     163.601 177.374 153.355  1.00  0.00     0.000 C 
BRANCH  19  20
ATOM     20  C   UNL     1     163.317 177.362 154.867  1.00  0.00     0.006 C 
BRANCH  20  21
ATOM     21  C   UNL     1     162.277 176.310 155.270  1.00  0.00     0.053 C 
BRANCH  21  22
ATOM     22  C   UNL     1     161.340 176.864 156.297  1.00  0.00     0.041 C 
ATOM     23  O   UNL     1     161.701 176.955 157.500  1.00  0.00    -0.550 OA
ATOM     24  O   UNL     1     160.055 177.245 155.932  1.00  0.00    -0.550 OA
ENDBRANCH  21  22
ENDBRANCH  20  21
ENDBRANCH  19  20
ENDBRANCH  18  19
ENDBRANCH  17  18
ENDBRANCH  16  17
ENDBRANCH  15  16
ENDBRANCH  14  15
ENDBRANCH  13  14
ENDBRANCH   1  13
TORSDOF 20
ENDMDL
MODEL 4
REMARK VINA RESULT:    -3.689      6.943      8.937
REMARK INTER + INTRA:         -11.774
REMARK INTER:                 -10.304
REMARK INTRA:                  -1.470
REMARK UNBOUND:                -3.773
REMARK SMILES CCCCCCCCCCCCCCCCCCCCCC(=O)[O-]
REMARK SMILES IDX 12 1 11 2 10 3 9 4 8 5 7 6 6 7 5 8 4 9 3 10 2 11 1 12 13 13
REMARK SMILES IDX 14 14 15 15 16 16 17 17 18 18 19 19 20 20 21 21 22 22 23 23
REMARK SMILES IDX 24 24
REMARK H PARENT
REMARK Flexibility Score: inf
ROOT
ATOM      1  C   UNL     1     168.386 175.475 151.321  1.00  0.00     0.000 C 
ENDROOT
BRANCH   1   2
ATOM      2  C   UNL     1     167.329 175.862 150.269  1.00  0.00     0.000 C 
BRANCH   2   3
ATOM      3  C   UNL     1     167.299 177.355 149.887  1.00  0.00     0.000 C 
BRANCH   3   4
ATOM      4  C   UNL     1     165.901 178.002 149.991  1.00  0.00    -0.000 C 
BRANCH   4   5
ATOM      5  C   UNL     1     165.294 177.879 151.399  1.00  0.00    -0.000 C 
BRANCH   5   6
ATOM      6  C   UNL     1     163.774 177.638 151.380  1.00  0.00    -0.000 C 
BRANCH   6   7
ATOM      7  C   UNL     1     163.353 176.195 151.047  1.00  0.00    -0.000 C 
BRANCH   7   8
ATOM      8  C   UNL     1     161.869 176.079 150.661  1.00  0.00    -0.000 C 
BRANCH   8   9
ATOM      9  C   UNL     1     160.926 176.406 151.830  1.00  0.00    -0.000 C 
BRANCH   9  10
ATOM     10  C   UNL     1     159.727 175.443 151.907  1.00  0.00    -0.000 C 
BRANCH  10  11
ATOM     11  C   UNL     1     160.158 173.967 151.909  1.00  0.00    -0.003 C 
ATOM     12  C   UNL     1     160.498 173.450 153.307  1.00  0.00     0.004 C 
ENDBRANCH  10  11
ENDBRANCH   9  10
ENDBRANCH   8   9
ENDBRANCH   7   8
ENDBRANCH   6   7
ENDBRANCH   5   6
ENDBRANCH   4   5
ENDBRANCH   3   4
ENDBRANCH   2   3
ENDBRANCH   1   2
BRANCH   1  13
ATOM     13  C   UNL     1     169.194 176.652 151.896  1.00  0.00     0.000 C 
BRANCH  13  14
ATOM     14  C   UNL     1     170.706 176.386 151.923  1.00  0.00     0.000 C 
BRANCH  14  15
ATOM     15  C   UNL     1     171.493 177.700 151.876  1.00  0.00     0.000 C 
BRANCH  15  16
ATOM     16  C   UNL     1     172.427 177.827 153.090  1.00  0.00     0.000 C 
BRANCH  16  17
ATOM     17  C   UNL     1     173.896 178.024 152.683  1.00  0.00     0.000 C 
BRANCH  17  18
ATOM     18  C   UNL     1     174.080 178.115 151.158  1.00  0.00     0.000 C 
BRANCH  18  19
ATOM     19  C   UNL     1     174.813 176.885 150.584  1.00  0.00     0.000 C 
BRANCH  19  20
ATOM     20  C   UNL     1     175.464 175.999 151.660  1.00  0.00     0.006 C 
BRANCH  20  21
ATOM     21  C   UNL     1     175.542 174.523 151.250  1.00  0.00     0.053 C 
BRANCH  21  22
ATOM     22  C   UNL     1     176.948 174.023 151.358  1.00  0.00     0.041 C 
ATOM     23  O   UNL     1     177.746 174.160 150.392  1.00  0.00    -0.550 OA
ATOM     24  O   UNL     1     177.368 173.372 152.510  1.00  0.00    -0.550 OA
ENDBRANCH  21  22
ENDBRANCH  20  21
ENDBRANCH  19  20
ENDBRANCH  18  19
ENDBRANCH  17  18
ENDBRANCH  16  17
ENDBRANCH  15  16
ENDBRANCH  14  15
ENDBRANCH  13  14
ENDBRANCH   1  13
TORSDOF 20
ENDMDL
MODEL 5
REMARK VINA RESULT:    -3.656      3.467      5.336
REMARK INTER + INTRA:         -11.703
REMARK INTER:                  -8.826
REMARK INTRA:                  -2.877
REMARK UNBOUND:                -3.773
REMARK SMILES CCCCCCCCCCCCCCCCCCCCCC(=O)[O-]
REMARK SMILES IDX 12 1 11 2 10 3 9 4 8 5 7 6 6 7 5 8 4 9 3 10 2 11 1 12 13 13
REMARK SMILES IDX 14 14 15 15 16 16 17 17 18 18 19 19 20 20 21 21 22 22 23 23
REMARK SMILES IDX 24 24
REMARK H PARENT
REMARK Flexibility Score: inf
ROOT
ATOM      1  C   UNL     1     174.620 174.534 151.215  1.00  0.00     0.000 C 
ENDROOT
BRANCH   1   2
ATOM      2  C   UNL     1     173.142 174.832 150.897  1.00  0.00     0.000 C 
BRANCH   2   3
ATOM      3  C   UNL     1     172.125 174.239 151.891  1.00  0.00     0.000 C 
BRANCH   3   4
ATOM      4  C   UNL     1     171.256 175.296 152.606  1.00  0.00    -0.000 C 
BRANCH   4   5
ATOM      5  C   UNL     1     171.095 176.587 151.783  1.00  0.00    -0.000 C 
BRANCH   5   6
ATOM      6  C   UNL     1     169.627 177.025 151.633  1.00  0.00    -0.000 C 
BRANCH   6   7
ATOM      7  C   UNL     1     168.593 175.910 151.868  1.00  0.00    -0.000 C 
BRANCH   7   8
ATOM      8  C   UNL     1     167.771 175.582 150.609  1.00  0.00    -0.000 C 
BRANCH   8   9
ATOM      9  C   UNL     1     167.615 176.791 149.673  1.00  0.00    -0.000 C 
BRANCH   9  10
ATOM     10  C   UNL     1     166.379 177.643 150.012  1.00  0.00    -0.000 C 
BRANCH  10  11
ATOM     11  C   UNL     1     165.295 176.840 150.749  1.00  0.00    -0.003 C 
ATOM     12  C   UNL     1     164.197 177.727 151.338  1.00  0.00     0.004 C 
ENDBRANCH  10  11
ENDBRANCH   9  10
ENDBRANCH   8   9
ENDBRANCH   7   8
ENDBRANCH   6   7
ENDBRANCH   5   6
ENDBRANCH   4   5
ENDBRANCH   3   4
ENDBRANCH   2   3
ENDBRANCH   1   2
BRANCH   1  13
ATOM     13  C   UNL     1     175.595 175.690 150.925  1.00  0.00     0.000 C 
BRANCH  13  14
ATOM     14  C   UNL     1     174.884 177.030 150.684  1.00  0.00     0.000 C 
BRANCH  14  15
ATOM     15  C   UNL     1     175.120 177.991 151.854  1.00  0.00     0.000 C 
BRANCH  15  16
ATOM     16  C   UNL     1     173.858 178.124 152.722  1.00  0.00     0.000 C 
BRANCH  16  17
ATOM     17  C   UNL     1     174.089 177.662 154.169  1.00  0.00     0.000 C 
BRANCH  17  18
ATOM     18  C   UNL     1     175.552 177.266 154.437  1.00  0.00     0.000 C 
BRANCH  18  19
ATOM     19  C   UNL     1     175.665 175.910 155.164  1.00  0.00     0.000 C 
BRANCH  19  20
ATOM     20  C   UNL     1     174.566 174.907 154.771  1.00  0.00     0.006 C 
BRANCH  20  21
ATOM     21  C   UNL     1     174.970 173.449 155.021  1.00  0.00     0.053 C 
BRANCH  21  22
ATOM     22  C   UNL     1     176.436 173.264 154.788  1.00  0.00     0.041 C 
ATOM     23  O   UNL     1     176.911 173.363 153.625  1.00  0.00    -0.550 OA
ATOM     24  O   UNL     1     177.274 172.945 155.848  1.00  0.00    -0.550 OA
ENDBRANCH  21  22
ENDBRANCH  20  21
ENDBRANCH  19  20
ENDBRANCH  18  19
ENDBRANCH  17  18
ENDBRANCH  16  17
ENDBRANCH  15  16
ENDBRANCH  14  15
ENDBRANCH  13  14
ENDBRANCH   1  13
TORSDOF 20
ENDMDL
MODEL 6
REMARK VINA RESULT:    -3.611      1.608      2.321
REMARK INTER + INTRA:         -11.605
REMARK INTER:                  -7.775
REMARK INTRA:                  -3.830
REMARK UNBOUND:                -3.773
REMARK SMILES CCCCCCCCCCCCCCCCCCCCCC(=O)[O-]
REMARK SMILES IDX 12 1 11 2 10 3 9 4 8 5 7 6 6 7 5 8 4 9 3 10 2 11 1 12 13 13
REMARK SMILES IDX 14 14 15 15 16 16 17 17 18 18 19 19 20 20 21 21 22 22 23 23
REMARK SMILES IDX 24 24
REMARK H PARENT
REMARK Flexibility Score: inf
ROOT
ATOM      1  C   UNL     1     176.418 174.129 151.822  1.00  0.00     0.000 C 
ENDROOT
BRANCH   1   2
ATOM      2  C   UNL     1     177.284 174.042 150.551  1.00  0.00     0.000 C 
BRANCH   2   3
ATOM      3  C   UNL     1     177.142 172.733 149.748  1.00  0.00     0.000 C 
BRANCH   3   4
ATOM      4  C   UNL     1     176.137 171.731 150.356  1.00  0.00    -0.000 C 
BRANCH   4   5
ATOM      5  C   UNL     1     175.215 171.100 149.297  1.00  0.00    -0.000 C 
BRANCH   5   6
ATOM      6  C   UNL     1     173.731 171.454 149.504  1.00  0.00    -0.000 C 
BRANCH   6   7
ATOM      7  C   UNL     1     173.479 172.829 150.148  1.00  0.00    -0.000 C 
BRANCH   7   8
ATOM      8  C   UNL     1     172.417 172.783 151.260  1.00  0.00    -0.000 C 
BRANCH   8   9
ATOM      9  C   UNL     1     172.965 173.242 152.621  1.00  0.00    -0.000 C 
BRANCH   9  10
ATOM     10  C   UNL     1     173.113 172.078 153.619  1.00  0.00    -0.000 C 
BRANCH  10  11
ATOM     11  C   UNL     1     174.549 171.533 153.677  1.00  0.00    -0.003 C 
ATOM     12  C   UNL     1     175.410 172.239 154.726  1.00  0.00     0.004 C 
ENDBRANCH  10  11
ENDBRANCH   9  10
ENDBRANCH   8   9
ENDBRANCH   7   8
ENDBRANCH   6   7
ENDBRANCH   5   6
ENDBRANCH   4   5
ENDBRANCH   3   4
ENDBRANCH   2   3
ENDBRANCH   1   2
BRANCH   1  13
ATOM     13  C   UNL     1     175.732 175.488 152.051  1.00  0.00     0.000 C 
BRANCH  13  14
ATOM     14  C   UNL     1     175.229 176.134 150.752  1.00  0.00     0.000 C 
BRANCH  14  15
ATOM     15  C   UNL     1     173.719 176.389 150.818  1.00  0.00     0.000 C 
BRANCH  15  16
ATOM     16  C   UNL     1     173.421 177.835 151.244  1.00  0.00     0.000 C 
BRANCH  16  17
ATOM     17  C   UNL     1     172.487 177.909 152.462  1.00  0.00     0.000 C 
BRANCH  17  18
ATOM     18  C   UNL     1     173.234 177.705 153.792  1.00  0.00     0.000 C 
BRANCH  18  19
ATOM     19  C   UNL     1     172.772 176.433 154.533  1.00  0.00     0.000 C 
BRANCH  19  20
ATOM     20  C   UNL     1     173.902 175.719 155.294  1.00  0.00     0.006 C 
BRANCH  20  21
ATOM     21  C   UNL     1     173.398 174.922 156.503  1.00  0.00     0.053 C 
BRANCH  21  22
ATOM     22  C   UNL     1     174.255 175.186 157.700  1.00  0.00     0.041 C 
ATOM     23  O   UNL     1     174.553 174.248 158.486  1.00  0.00    -0.550 OA
ATOM     24  O   UNL     1     174.694 176.476 157.970  1.00  0.00    -0.550 OA
ENDBRANCH  21  22
ENDBRANCH  20  21
ENDBRANCH  19  20
ENDBRANCH  18  19
ENDBRANCH  17  18
ENDBRANCH  16  17
ENDBRANCH  15  16
ENDBRANCH  14  15
ENDBRANCH  13  14
ENDBRANCH   1  13
TORSDOF 20
ENDMDL
MODEL 7
REMARK VINA RESULT:    -3.574      1.639      2.797
REMARK INTER + INTRA:         -11.525
REMARK INTER:                  -8.463
REMARK INTRA:                  -3.062
REMARK UNBOUND:                -3.773
REMARK SMILES CCCCCCCCCCCCCCCCCCCCCC(=O)[O-]
REMARK SMILES IDX 12 1 11 2 10 3 9 4 8 5 7 6 6 7 5 8 4 9 3 10 2 11 1 12 13 13
REMARK SMILES IDX 14 14 15 15 16 16 17 17 18 18 19 19 20 20 21 21 22 22 23 23
REMARK SMILES IDX 24 24
REMARK H PARENT
REMARK Flexibility Score: inf
ROOT
ATOM      1  C   UNL     1     172.188 175.060 151.823  1.00  0.00     0.000 C 
ENDROOT
BRANCH   1   2
ATOM      2  C   UNL     1     173.414 174.621 151.001  1.00  0.00     0.000 C 
BRANCH   2   3
ATOM      3  C   UNL     1     174.604 174.093 151.827  1.00  0.00     0.000 C 
BRANCH   3   4
ATOM      4  C   UNL     1     175.983 174.542 151.298  1.00  0.00    -0.000 C 
BRANCH   4   5
ATOM      5  C   UNL     1     176.986 173.380 151.197  1.00  0.00    -0.000 C 
BRANCH   5   6
ATOM      6  C   UNL     1     177.037 172.751 149.793  1.00  0.00    -0.000 C 
BRANCH   6   7
ATOM      7  C   UNL     1     176.220 171.456 149.636  1.00  0.00    -0.000 C 
BRANCH   7   8
ATOM      8  C   UNL     1     175.876 170.798 150.983  1.00  0.00    -0.000 C 
BRANCH   8   9
ATOM      9  C   UNL     1     176.836 169.654 151.346  1.00  0.00    -0.000 C 
BRANCH   9  10
ATOM     10  C   UNL     1     176.962 169.450 152.867  1.00  0.00    -0.000 C 
BRANCH  10  11
ATOM     11  C   UNL     1     175.597 169.276 153.552  1.00  0.00    -0.003 C 
ATOM     12  C   UNL     1     175.308 170.367 154.584  1.00  0.00     0.004 C 
ENDBRANCH  10  11
ENDBRANCH   9  10
ENDBRANCH   8   9
ENDBRANCH   7   8
ENDBRANCH   6   7
ENDBRANCH   5   6
ENDBRANCH   4   5
ENDBRANCH   3   4
ENDBRANCH   2   3
ENDBRANCH   1   2
BRANCH   1  13
ATOM     13  C   UNL     1     171.927 176.577 151.846  1.00  0.00     0.000 C 
BRANCH  13  14
ATOM     14  C   UNL     1     173.172 177.406 151.498  1.00  0.00     0.000 C 
BRANCH  14  15
ATOM     15  C   UNL     1     173.735 178.097 152.745  1.00  0.00     0.000 C 
BRANCH  15  16
ATOM     16  C   UNL     1     175.248 177.860 152.871  1.00  0.00     0.000 C 
BRANCH  16  17
ATOM     17  C   UNL     1     175.600 176.904 154.022  1.00  0.00     0.000 C 
BRANCH  17  18
ATOM     18  C   UNL     1     174.357 176.427 154.794  1.00  0.00     0.000 C 
BRANCH  18  19
ATOM     19  C   UNL     1     174.726 175.737 156.124  1.00  0.00     0.000 C 
BRANCH  19  20
ATOM     20  C   UNL     1     174.636 174.202 156.067  1.00  0.00     0.006 C 
BRANCH  20  21
ATOM     21  C   UNL     1     175.848 173.509 156.701  1.00  0.00     0.053 C 
BRANCH  21  22
ATOM     22  C   UNL     1     177.088 173.801 155.916  1.00  0.00     0.041 C 
ATOM     23  O   UNL     1     177.266 173.266 154.790  1.00  0.00    -0.550 OA
ATOM     24  O   UNL     1     178.066 174.633 156.446  1.00  0.00    -0.550 OA
ENDBRANCH  21  22
ENDBRANCH  20  21
ENDBRANCH  19  20
ENDBRANCH  18  19
ENDBRANCH  17  18
ENDBRANCH  16  17
ENDBRANCH  15  16
ENDBRANCH  14  15
ENDBRANCH  13  14
ENDBRANCH   1  13
TORSDOF 20
ENDMDL
MODEL 8
REMARK VINA RESULT:    -3.573      1.539      5.359
REMARK INTER + INTRA:         -11.524
REMARK INTER:                  -7.589
REMARK INTRA:                  -3.935
REMARK UNBOUND:                -3.773
REMARK SMILES CCCCCCCCCCCCCCCCCCCCCC(=O)[O-]
REMARK SMILES IDX 12 1 11 2 10 3 9 4 8 5 7 6 6 7 5 8 4 9 3 10 2 11 1 12 13 13
REMARK SMILES IDX 14 14 15 15 16 16 17 17 18 18 19 19 20 20 21 21 22 22 23 23
REMARK SMILES IDX 24 24
REMARK H PARENT
REMARK Flexibility Score: inf
ROOT
ATOM      1  C   UNL     1     173.272 174.830 150.749  1.00  0.00     0.000 C 
ENDROOT
BRANCH   1   2
ATOM      2  C   UNL     1     174.460 175.811 150.749  1.00  0.00     0.000 C 
BRANCH   2   3
ATOM      3  C   UNL     1     174.079 177.304 150.709  1.00  0.00     0.000 C 
BRANCH   3   4
ATOM      4  C   UNL     1     174.612 178.120 151.907  1.00  0.00    -0.000 C 
BRANCH   4   5
ATOM      5  C   UNL     1     175.500 177.284 152.845  1.00  0.00    -0.000 C 
BRANCH   5   6
ATOM      6  C   UNL     1     174.899 177.118 154.253  1.00  0.00    -0.000 C 
BRANCH   6   7
ATOM      7  C   UNL     1     173.833 176.015 154.374  1.00  0.00    -0.000 C 
BRANCH   7   8
ATOM      8  C   UNL     1     172.452 176.559 154.779  1.00  0.00    -0.000 C 
BRANCH   8   9
ATOM      9  C   UNL     1     171.612 177.001 153.570  1.00  0.00    -0.000 C 
BRANCH   9  10
ATOM     10  C   UNL     1     170.349 176.142 153.385  1.00  0.00    -0.000 C 
BRANCH  10  11
ATOM     11  C   UNL     1     170.068 175.818 151.909  1.00  0.00    -0.003 C 
ATOM     12  C   UNL     1     169.636 174.367 151.691  1.00  0.00     0.004 C 
ENDBRANCH  10  11
ENDBRANCH   9  10
ENDBRANCH   8   9
ENDBRANCH   7   8
ENDBRANCH   6   7
ENDBRANCH   5   6
ENDBRANCH   4   5
ENDBRANCH   3   4
ENDBRANCH   2   3
ENDBRANCH   1   2
BRANCH   1  13
ATOM     13  C   UNL     1     173.349 173.713 151.805  1.00  0.00     0.000 C 
BRANCH  13  14
ATOM     14  C   UNL     1     173.117 172.313 151.217  1.00  0.00     0.000 C 
BRANCH  14  15
ATOM     15  C   UNL     1     173.276 172.328 149.693  1.00  0.00     0.000 C 
BRANCH  15  16
ATOM     16  C   UNL     1     174.445 171.433 149.251  1.00  0.00     0.000 C 
BRANCH  16  17
ATOM     17  C   UNL     1     175.152 170.762 150.439  1.00  0.00     0.000 C 
BRANCH  17  18
ATOM     18  C   UNL     1     176.611 171.226 150.597  1.00  0.00     0.000 C 
BRANCH  18  19
ATOM     19  C   UNL     1     176.754 172.757 150.470  1.00  0.00     0.000 C 
BRANCH  19  20
ATOM     20  C   UNL     1     176.943 173.471 151.819  1.00  0.00     0.006 C 
BRANCH  20  21
ATOM     21  C   UNL     1     177.000 172.501 153.006  1.00  0.00     0.053 C 
BRANCH  21  22
ATOM     22  C   UNL     1     176.249 173.058 154.174  1.00  0.00     0.041 C 
ATOM     23  O   UNL     1     176.709 174.040 154.815  1.00  0.00    -0.550 OA
ATOM     24  O   UNL     1     175.059 172.467 154.580  1.00  0.00    -0.550 OA
ENDBRANCH  21  22
ENDBRANCH  20  21
ENDBRANCH  19  20
ENDBRANCH  18  19
ENDBRANCH  17  18
ENDBRANCH  16  17
ENDBRANCH  15  16
ENDBRANCH  14  15
ENDBRANCH  13  14
ENDBRANCH   1  13
TORSDOF 20
ENDMDL
MODEL 9
REMARK VINA RESULT:    -3.572      1.575      1.984
REMARK INTER + INTRA:         -11.522
REMARK INTER:                  -7.484
REMARK INTRA:                  -4.038
REMARK UNBOUND:                -3.773
REMARK SMILES CCCCCCCCCCCCCCCCCCCCCC(=O)[O-]
REMARK SMILES IDX 12 1 11 2 10 3 9 4 8 5 7 6 6 7 5 8 4 9 3 10 2 11 1 12 13 13
REMARK SMILES IDX 14 14 15 15 16 16 17 17 18 18 19 19 20 20 21 21 22 22 23 23
REMARK SMILES IDX 24 24
REMARK H PARENT
REMARK Flexibility Score: inf
ROOT
ATOM      1  C   UNL     1     175.491 175.987 151.085  1.00  0.00     0.000 C 
ENDROOT
BRANCH   1   2
ATOM      2  C   UNL     1     175.899 174.514 151.280  1.00  0.00     0.000 C 
BRANCH   2   3
ATOM      3  C   UNL     1     177.327 174.162 150.818  1.00  0.00     0.000 C 
BRANCH   3   4
ATOM      4  C   UNL     1     177.392 172.981 149.825  1.00  0.00    -0.000 C 
BRANCH   4   5
ATOM      5  C   UNL     1     176.105 172.139 149.820  1.00  0.00    -0.000 C 
BRANCH   5   6
ATOM      6  C   UNL     1     176.330 170.695 150.303  1.00  0.00    -0.000 C 
BRANCH   6   7
ATOM      7  C   UNL     1     175.136 170.069 151.047  1.00  0.00    -0.000 C 
BRANCH   7   8
ATOM      8  C   UNL     1     173.994 171.069 151.293  1.00  0.00    -0.000 C 
BRANCH   8   9
ATOM      9  C   UNL     1     173.574 171.136 152.770  1.00  0.00    -0.000 C 
BRANCH   9  10
ATOM     10  C   UNL     1     174.329 172.230 153.548  1.00  0.00    -0.000 C 
BRANCH  10  11
ATOM     11  C   UNL     1     175.485 171.664 154.388  1.00  0.00    -0.003 C 
ATOM     12  C   UNL     1     176.859 171.988 153.801  1.00  0.00     0.004 C 
ENDBRANCH  10  11
ENDBRANCH   9  10
ENDBRANCH   8   9
ENDBRANCH   7   8
ENDBRANCH   6   7
ENDBRANCH   5   6
ENDBRANCH   4   5
ENDBRANCH   3   4
ENDBRANCH   2   3
ENDBRANCH   1   2
BRANCH   1  13
ATOM     13  C   UNL     1     174.003 176.214 150.764  1.00  0.00     0.000 C 
BRANCH  13  14
ATOM     14  C   UNL     1     173.074 175.229 151.489  1.00  0.00     0.000 C 
BRANCH  14  15
ATOM     15  C   UNL     1     172.379 175.905 152.675  1.00  0.00     0.000 C 
BRANCH  15  16
ATOM     16  C   UNL     1     173.137 175.636 153.985  1.00  0.00     0.000 C 
BRANCH  16  17
ATOM     17  C   UNL     1     173.764 176.909 154.573  1.00  0.00     0.000 C 
BRANCH  17  18
ATOM     18  C   UNL     1     175.302 176.852 154.599  1.00  0.00     0.000 C 
BRANCH  18  19
ATOM     19  C   UNL     1     175.828 175.442 154.939  1.00  0.00     0.000 C 
BRANCH  19  20
ATOM     20  C   UNL     1     175.815 175.127 156.445  1.00  0.00     0.006 C 
BRANCH  20  21
ATOM     21  C   UNL     1     176.877 174.097 156.849  1.00  0.00     0.053 C 
BRANCH  21  22
ATOM     22  C   UNL     1     176.281 173.051 157.737  1.00  0.00     0.041 C 
ATOM     23  O   UNL     1     175.100 173.172 158.156  1.00  0.00    -0.550 OA
ATOM     24  O   UNL     1     177.044 171.960 158.134  1.00  0.00    -0.550 OA
ENDBRANCH  21  22
ENDBRANCH  20  21
ENDBRANCH  19  20
ENDBRANCH  18  19
ENDBRANCH  17  18
ENDBRANCH  16  17
ENDBRANCH  15  16
ENDBRANCH  14  15
ENDBRANCH  13  14
ENDBRANCH   1  13
TORSDOF 20
ENDMDL
