MODEL 1
REMARK VINA RESULT:    -6.755      0.000      0.000
REMARK INTER + INTRA:          -9.079
REMARK INTER:                  -8.533
REMARK INTRA:                  -0.547
REMARK UNBOUND:                -0.547
REMARK SMILES O=C(C=Cc1ccc(O)cc1)c1ccc(O)cc1O
REMARK SMILES IDX 4 1 3 2 5 3 6 4 7 5 8 6 11 7 10 8 9 9 2 11 1 12 12 13 18 14
REMARK SMILES IDX 13 15 17 16 14 17 15 18 19 19 16 21
REMARK H PARENT 9 10 19 20 16 22
REMARK Flexibility Score: inf
ROOT
ATOM      1  C   UNL     1     -13.684  44.503  31.788  1.00  0.00     0.012 C 
ATOM      2  C   UNL     1     -13.015  44.545  30.626  1.00  0.00     0.053 C 
ENDROOT
BRANCH   1   3
ATOM      3  C   UNL     1     -15.162  44.420  31.884  1.00  0.00    -0.025 A 
ATOM      4  C   UNL     1     -15.920  44.521  30.705  1.00  0.00     0.012 A 
ATOM      5  C   UNL     1     -17.316  44.439  30.747  1.00  0.00     0.047 A 
ATOM      6  C   UNL     1     -17.972  44.242  31.964  1.00  0.00     0.115 A 
ATOM      7  C   UNL     1     -15.832  44.205  33.106  1.00  0.00     0.012 A 
ATOM      8  C   UNL     1     -17.228  44.122  33.144  1.00  0.00     0.047 A 
BRANCH   6   9
ATOM      9  O   UNL     1     -19.363  44.162  31.991  1.00  0.00    -0.508 OA
ATOM     10  H   UNL     1     -19.944  44.924  31.662  1.00  0.00     0.293 HD
ENDBRANCH   6   9
ENDBRANCH   1   3
BRANCH   2  11
ATOM     11  C   UNL     1     -11.536  44.609  30.570  1.00  0.00     0.189 C 
ATOM     12  O   UNL     1     -10.864  44.451  31.626  1.00  0.00    -0.289 OA
BRANCH  11  13
ATOM     13  C   UNL     1     -10.831  44.847  29.286  1.00  0.00     0.064 A 
ATOM     14  C   UNL     1     -10.275  46.111  28.988  1.00  0.00     0.130 A 
ATOM     15  C   UNL     1     -10.724  43.815  28.333  1.00  0.00     0.020 A 
ATOM     16  C   UNL     1      -9.627  46.321  27.761  1.00  0.00     0.093 A 
ATOM     17  C   UNL     1     -10.074  44.033  27.116  1.00  0.00     0.047 A 
ATOM     18  C   UNL     1      -9.524  45.287  26.827  1.00  0.00     0.119 A 
BRANCH  14  19
ATOM     19  O   UNL     1     -10.352  47.153  29.912  1.00  0.00    -0.507 OA
ATOM     20  H   UNL     1      -9.568  47.773  30.082  1.00  0.00     0.293 HD
ENDBRANCH  14  19
BRANCH  18  21
ATOM     21  O   UNL     1      -8.875  45.515  25.616  1.00  0.00    -0.508 OA
ATOM     22  H   UNL     1      -7.870  45.425  25.528  1.00  0.00     0.293 HD
ENDBRANCH  18  21
ENDBRANCH  11  13
ENDBRANCH   2  11
TORSDOF 6
ENDMDL
MODEL 2
REMARK VINA RESULT:    -6.575      1.291      1.862
REMARK INTER + INTRA:          -8.851
REMARK INTER:                  -8.141
REMARK INTRA:                  -0.709
REMARK UNBOUND:                -0.547
REMARK SMILES O=C(C=Cc1ccc(O)cc1)c1ccc(O)cc1O
REMARK SMILES IDX 4 1 3 2 5 3 6 4 7 5 8 6 11 7 10 8 9 9 2 11 1 12 12 13 18 14
REMARK SMILES IDX 13 15 17 16 14 17 15 18 19 19 16 21
REMARK H PARENT 9 10 19 20 16 22
REMARK Flexibility Score: inf
ROOT
ATOM      1  C   UNL     1     -13.341  43.643  30.494  1.00  0.00     0.012 C 
ATOM      2  C   UNL     1     -12.469  44.506  31.036  1.00  0.00     0.053 C 
ENDROOT
BRANCH   1   3
ATOM      3  C   UNL     1     -14.805  43.695  30.731  1.00  0.00    -0.025 A 
ATOM      4  C   UNL     1     -15.515  44.832  30.311  1.00  0.00     0.012 A 
ATOM      5  C   UNL     1     -16.897  44.919  30.506  1.00  0.00     0.047 A 
ATOM      6  C   UNL     1     -17.590  43.868  31.111  1.00  0.00     0.115 A 
ATOM      7  C   UNL     1     -15.514  42.632  31.327  1.00  0.00     0.012 A 
ATOM      8  C   UNL     1     -16.897  42.722  31.518  1.00  0.00     0.047 A 
BRANCH   6   9
ATOM      9  O   UNL     1     -18.967  43.969  31.299  1.00  0.00    -0.508 OA
ATOM     10  H   UNL     1     -19.609  43.313  30.872  1.00  0.00     0.293 HD
ENDBRANCH   6   9
ENDBRANCH   1   3
BRANCH   2  11
ATOM     11  C   UNL     1     -11.015  44.434  30.760  1.00  0.00     0.189 C 
ATOM     12  O   UNL     1     -10.217  44.135  31.691  1.00  0.00    -0.289 OA
BRANCH  11  13
ATOM     13  C   UNL     1     -10.481  44.702  29.401  1.00  0.00     0.064 A 
ATOM     14  C   UNL     1      -9.984  43.652  28.598  1.00  0.00     0.130 A 
ATOM     15  C   UNL     1     -10.445  46.018  28.899  1.00  0.00     0.020 A 
ATOM     16  C   UNL     1      -9.469  43.928  27.322  1.00  0.00     0.093 A 
ATOM     17  C   UNL     1      -9.932  46.282  27.627  1.00  0.00     0.047 A 
ATOM     18  C   UNL     1      -9.443  45.237  26.835  1.00  0.00     0.119 A 
BRANCH  14  19
ATOM     19  O   UNL     1     -10.015  42.335  29.057  1.00  0.00    -0.507 OA
ATOM     20  H   UNL     1     -10.315  42.106  29.999  1.00  0.00     0.293 HD
ENDBRANCH  14  19
BRANCH  18  21
ATOM     21  O   UNL     1      -8.929  45.490  25.566  1.00  0.00    -0.508 OA
ATOM     22  H   UNL     1      -8.240  44.880  25.142  1.00  0.00     0.293 HD
ENDBRANCH  18  21
ENDBRANCH  11  13
ENDBRANCH   2  11
TORSDOF 6
ENDMDL
MODEL 3
REMARK VINA RESULT:    -6.471      4.207      6.649
REMARK INTER + INTRA:          -8.720
REMARK INTER:                  -8.104
REMARK INTRA:                  -0.616
REMARK UNBOUND:                -0.547
REMARK SMILES O=C(C=Cc1ccc(O)cc1)c1ccc(O)cc1O
REMARK SMILES IDX 4 1 3 2 5 3 6 4 7 5 8 6 11 7 10 8 9 9 2 11 1 12 12 13 18 14
REMARK SMILES IDX 13 15 17 16 14 17 15 18 19 19 16 21
REMARK H PARENT 9 10 19 20 16 22
REMARK Flexibility Score: inf
ROOT
ATOM      1  C   UNL     1     -15.803  41.811  30.256  1.00  0.00     0.012 C 
ATOM      2  C   UNL     1     -16.595  42.869  30.029  1.00  0.00     0.053 C 
ENDROOT
BRANCH   1   3
ATOM      3  C   UNL     1     -15.888  40.540  29.495  1.00  0.00    -0.025 A 
ATOM      4  C   UNL     1     -16.161  39.353  30.196  1.00  0.00     0.012 A 
ATOM      5  C   UNL     1     -16.260  38.134  29.518  1.00  0.00     0.047 A 
ATOM      6  C   UNL     1     -16.100  38.085  28.132  1.00  0.00     0.115 A 
ATOM      7  C   UNL     1     -15.744  40.485  28.094  1.00  0.00     0.012 A 
ATOM      8  C   UNL     1     -15.845  39.263  27.419  1.00  0.00     0.047 A 
BRANCH   6   9
ATOM      9  O   UNL     1     -16.200  36.863  27.470  1.00  0.00    -0.508 OA
ATOM     10  H   UNL     1     -16.164  35.984  27.971  1.00  0.00     0.293 HD
ENDBRANCH   6   9
ENDBRANCH   1   3
BRANCH   2  11
ATOM     11  C   UNL     1     -16.467  44.129  30.797  1.00  0.00     0.189 C 
ATOM     12  O   UNL     1     -17.183  45.122  30.491  1.00  0.00    -0.289 OA
BRANCH  11  13
ATOM     13  C   UNL     1     -15.515  44.239  31.930  1.00  0.00     0.064 A 
ATOM     14  C   UNL     1     -14.233  44.804  31.747  1.00  0.00     0.130 A 
ATOM     15  C   UNL     1     -15.871  43.761  33.206  1.00  0.00     0.020 A 
ATOM     16  C   UNL     1     -13.341  44.884  32.827  1.00  0.00     0.093 A 
ATOM     17  C   UNL     1     -14.976  43.847  34.275  1.00  0.00     0.047 A 
ATOM     18  C   UNL     1     -13.709  44.409  34.088  1.00  0.00     0.119 A 
BRANCH  14  19
ATOM     19  O   UNL     1     -13.850  45.299  30.500  1.00  0.00    -0.507 OA
ATOM     20  H   UNL     1     -12.880  45.309  30.206  1.00  0.00     0.293 HD
ENDBRANCH  14  19
BRANCH  18  21
ATOM     21  O   UNL     1     -12.809  44.499  35.147  1.00  0.00    -0.508 OA
ATOM     22  H   UNL     1     -12.749  45.330  35.723  1.00  0.00     0.293 HD
ENDBRANCH  18  21
ENDBRANCH  11  13
ENDBRANCH   2  11
TORSDOF 6
ENDMDL
MODEL 4
REMARK VINA RESULT:    -6.354      2.917      8.391
REMARK INTER + INTRA:          -8.572
REMARK INTER:                  -7.809
REMARK INTRA:                  -0.763
REMARK UNBOUND:                -0.547
REMARK SMILES O=C(C=Cc1ccc(O)cc1)c1ccc(O)cc1O
REMARK SMILES IDX 4 1 3 2 5 3 6 4 7 5 8 6 11 7 10 8 9 9 2 11 1 12 12 13 18 14
REMARK SMILES IDX 13 15 17 16 14 17 15 18 19 19 16 21
REMARK H PARENT 9 10 19 20 16 22
REMARK Flexibility Score: inf
ROOT
ATOM      1  C   UNL     1     -14.376  41.689  31.952  1.00  0.00     0.012 C 
ATOM      2  C   UNL     1     -15.283  41.262  31.062  1.00  0.00     0.053 C 
ENDROOT
BRANCH   1   3
ATOM      3  C   UNL     1     -12.986  42.066  31.594  1.00  0.00    -0.025 A 
ATOM      4  C   UNL     1     -12.780  42.893  30.477  1.00  0.00     0.012 A 
ATOM      5  C   UNL     1     -11.488  43.282  30.109  1.00  0.00     0.047 A 
ATOM      6  C   UNL     1     -10.387  42.861  30.859  1.00  0.00     0.115 A 
ATOM      7  C   UNL     1     -11.871  41.659  32.354  1.00  0.00     0.012 A 
ATOM      8  C   UNL     1     -10.580  42.052  31.984  1.00  0.00     0.047 A 
BRANCH   6   9
ATOM      9  O   UNL     1      -9.105  43.256  30.480  1.00  0.00    -0.508 OA
ATOM     10  H   UNL     1      -8.953  44.066  29.890  1.00  0.00     0.293 HD
ENDBRANCH   6   9
ENDBRANCH   1   3
BRANCH   2  11
ATOM     11  C   UNL     1     -16.669  40.911  31.453  1.00  0.00     0.189 C 
ATOM     12  O   UNL     1     -17.094  39.739  31.260  1.00  0.00    -0.289 OA
BRANCH  11  13
ATOM     13  C   UNL     1     -17.563  41.918  32.079  1.00  0.00     0.064 A 
ATOM     14  C   UNL     1     -18.144  41.683  33.345  1.00  0.00     0.130 A 
ATOM     15  C   UNL     1     -17.861  43.118  31.405  1.00  0.00     0.020 A 
ATOM     16  C   UNL     1     -19.000  42.639  33.912  1.00  0.00     0.093 A 
ATOM     17  C   UNL     1     -18.712  44.065  31.979  1.00  0.00     0.047 A 
ATOM     18  C   UNL     1     -19.284  43.828  33.235  1.00  0.00     0.119 A 
BRANCH  14  19
ATOM     19  O   UNL     1     -17.862  40.510  34.046  1.00  0.00    -0.507 OA
ATOM     20  H   UNL     1     -16.923  40.133  34.097  1.00  0.00     0.293 HD
ENDBRANCH  14  19
BRANCH  18  21
ATOM     21  O   UNL     1     -20.135  44.765  33.815  1.00  0.00    -0.508 OA
ATOM     22  H   UNL     1     -20.069  45.751  33.592  1.00  0.00     0.293 HD
ENDBRANCH  18  21
ENDBRANCH  11  13
ENDBRANCH   2  11
TORSDOF 6
ENDMDL
MODEL 5
REMARK VINA RESULT:    -6.272      4.271      6.954
REMARK INTER + INTRA:          -8.469
REMARK INTER:                  -7.818
REMARK INTRA:                  -0.651
REMARK UNBOUND:                -0.547
REMARK SMILES O=C(C=Cc1ccc(O)cc1)c1ccc(O)cc1O
REMARK SMILES IDX 4 1 3 2 5 3 6 4 7 5 8 6 11 7 10 8 9 9 2 11 1 12 12 13 18 14
REMARK SMILES IDX 13 15 17 16 14 17 15 18 19 19 16 21
REMARK H PARENT 9 10 19 20 16 22
REMARK Flexibility Score: inf
ROOT
ATOM      1  C   UNL     1     -15.614  42.909  28.680  1.00  0.00     0.012 C 
ATOM      2  C   UNL     1     -16.360  43.059  29.784  1.00  0.00     0.053 C 
ENDROOT
BRANCH   1   3
ATOM      3  C   UNL     1     -15.604  41.676  27.855  1.00  0.00    -0.025 A 
ATOM      4  C   UNL     1     -15.688  40.432  28.503  1.00  0.00     0.012 A 
ATOM      5  C   UNL     1     -15.692  39.244  27.765  1.00  0.00     0.047 A 
ATOM      6  C   UNL     1     -15.623  39.283  26.371  1.00  0.00     0.115 A 
ATOM      7  C   UNL     1     -15.550  41.707  26.447  1.00  0.00     0.012 A 
ATOM      8  C   UNL     1     -15.555  40.516  25.712  1.00  0.00     0.047 A 
BRANCH   6   9
ATOM      9  O   UNL     1     -15.626  38.091  25.648  1.00  0.00    -0.508 OA
ATOM     10  H   UNL     1     -15.055  37.302  25.925  1.00  0.00     0.293 HD
ENDBRANCH   6   9
ENDBRANCH   1   3
BRANCH   2  11
ATOM     11  C   UNL     1     -16.359  44.314  30.572  1.00  0.00     0.189 C 
ATOM     12  O   UNL     1     -17.118  45.264  30.235  1.00  0.00    -0.289 OA
BRANCH  11  13
ATOM     13  C   UNL     1     -15.482  44.468  31.760  1.00  0.00     0.064 A 
ATOM     14  C   UNL     1     -16.028  44.516  33.062  1.00  0.00     0.130 A 
ATOM     15  C   UNL     1     -14.088  44.590  31.602  1.00  0.00     0.020 A 
ATOM     16  C   UNL     1     -15.184  44.679  34.171  1.00  0.00     0.093 A 
ATOM     17  C   UNL     1     -13.256  44.750  32.713  1.00  0.00     0.047 A 
ATOM     18  C   UNL     1     -13.803  44.794  34.000  1.00  0.00     0.119 A 
BRANCH  14  19
ATOM     19  O   UNL     1     -17.404  44.387  33.258  1.00  0.00    -0.507 OA
ATOM     20  H   UNL     1     -17.800  43.592  33.747  1.00  0.00     0.293 HD
ENDBRANCH  14  19
BRANCH  18  21
ATOM     21  O   UNL     1     -12.982  44.955  35.115  1.00  0.00    -0.508 OA
ATOM     22  H   UNL     1     -13.358  45.223  36.016  1.00  0.00     0.293 HD
ENDBRANCH  18  21
ENDBRANCH  11  13
ENDBRANCH   2  11
TORSDOF 6
ENDMDL
MODEL 6
REMARK VINA RESULT:    -6.257      1.955      2.882
REMARK INTER + INTRA:          -8.449
REMARK INTER:                  -7.800
REMARK INTRA:                  -0.649
REMARK UNBOUND:                -0.547
REMARK SMILES O=C(C=Cc1ccc(O)cc1)c1ccc(O)cc1O
REMARK SMILES IDX 4 1 3 2 5 3 6 4 7 5 8 6 11 7 10 8 9 9 2 11 1 12 12 13 18 14
REMARK SMILES IDX 13 15 17 16 14 17 15 18 19 19 16 21
REMARK H PARENT 9 10 19 20 16 22
REMARK Flexibility Score: inf
ROOT
ATOM      1  C   UNL     1     -15.170  42.639  32.197  1.00  0.00     0.012 C 
ATOM      2  C   UNL     1     -14.027  43.053  32.763  1.00  0.00     0.053 C 
ENDROOT
BRANCH   1   3
ATOM      3  C   UNL     1     -16.510  43.146  32.582  1.00  0.00    -0.025 A 
ATOM      4  C   UNL     1     -16.598  44.385  33.238  1.00  0.00     0.012 A 
ATOM      5  C   UNL     1     -17.841  44.907  33.611  1.00  0.00     0.047 A 
ATOM      6  C   UNL     1     -19.013  44.204  33.323  1.00  0.00     0.115 A 
ATOM      7  C   UNL     1     -17.699  42.450  32.281  1.00  0.00     0.012 A 
ATOM      8  C   UNL     1     -18.940  42.976  32.655  1.00  0.00     0.047 A 
BRANCH   6   9
ATOM      9  O   UNL     1     -20.244  44.735  33.701  1.00  0.00    -0.508 OA
ATOM     10  H   UNL     1     -20.652  45.525  33.216  1.00  0.00     0.293 HD
ENDBRANCH   6   9
ENDBRANCH   1   3
BRANCH   2  11
ATOM     11  C   UNL     1     -12.705  42.537  32.339  1.00  0.00     0.189 C 
ATOM     12  O   UNL     1     -12.296  41.427  32.781  1.00  0.00    -0.289 OA
BRANCH  11  13
ATOM     13  C   UNL     1     -11.855  43.302  31.392  1.00  0.00     0.064 A 
ATOM     14  C   UNL     1     -10.683  43.954  31.836  1.00  0.00     0.130 A 
ATOM     15  C   UNL     1     -12.219  43.406  30.036  1.00  0.00     0.020 A 
ATOM     16  C   UNL     1      -9.902  44.687  30.929  1.00  0.00     0.093 A 
ATOM     17  C   UNL     1     -11.433  44.135  29.141  1.00  0.00     0.047 A 
ATOM     18  C   UNL     1     -10.272  44.778  29.586  1.00  0.00     0.119 A 
BRANCH  14  19
ATOM     19  O   UNL     1     -10.285  43.864  33.170  1.00  0.00    -0.507 OA
ATOM     20  H   UNL     1     -10.924  44.067  33.931  1.00  0.00     0.293 HD
ENDBRANCH  14  19
BRANCH  18  21
ATOM     21  O   UNL     1      -9.483  45.509  28.701  1.00  0.00    -0.508 OA
ATOM     22  H   UNL     1      -8.494  45.650  28.866  1.00  0.00     0.293 HD
ENDBRANCH  18  21
ENDBRANCH  11  13
ENDBRANCH   2  11
TORSDOF 6
ENDMDL
MODEL 7
REMARK VINA RESULT:    -6.238      5.254      8.230
REMARK INTER + INTRA:          -8.425
REMARK INTER:                  -7.708
REMARK INTRA:                  -0.718
REMARK UNBOUND:                -0.547
REMARK SMILES O=C(C=Cc1ccc(O)cc1)c1ccc(O)cc1O
REMARK SMILES IDX 4 1 3 2 5 3 6 4 7 5 8 6 11 7 10 8 9 9 2 11 1 12 12 13 18 14
REMARK SMILES IDX 13 15 17 16 14 17 15 18 19 19 16 21
REMARK H PARENT 9 10 19 20 16 22
REMARK Flexibility Score: inf
ROOT
ATOM      1  C   UNL     1     -15.780  40.803  29.479  1.00  0.00     0.012 C 
ATOM      2  C   UNL     1     -15.668  40.556  30.792  1.00  0.00     0.053 C 
ENDROOT
BRANCH   1   3
ATOM      3  C   UNL     1     -15.936  39.744  28.452  1.00  0.00    -0.025 A 
ATOM      4  C   UNL     1     -16.031  38.407  28.873  1.00  0.00     0.012 A 
ATOM      5  C   UNL     1     -16.188  37.377  27.941  1.00  0.00     0.047 A 
ATOM      6  C   UNL     1     -16.264  37.668  26.577  1.00  0.00     0.115 A 
ATOM      7  C   UNL     1     -16.029  40.031  27.075  1.00  0.00     0.012 A 
ATOM      8  C   UNL     1     -16.188  38.998  26.145  1.00  0.00     0.047 A 
BRANCH   6   9
ATOM      9  O   UNL     1     -16.420  36.632  25.659  1.00  0.00    -0.508 OA
ATOM     10  H   UNL     1     -17.287  36.112  25.589  1.00  0.00     0.293 HD
ENDBRANCH   6   9
ENDBRANCH   1   3
BRANCH   2  11
ATOM     11  C   UNL     1     -15.533  41.642  31.790  1.00  0.00     0.189 C 
ATOM     12  O   UNL     1     -14.396  41.917  32.264  1.00  0.00    -0.289 OA
BRANCH  11  13
ATOM     13  C   UNL     1     -16.716  42.420  32.237  1.00  0.00     0.064 A 
ATOM     14  C   UNL     1     -16.697  43.833  32.234  1.00  0.00     0.130 A 
ATOM     15  C   UNL     1     -17.871  41.756  32.691  1.00  0.00     0.020 A 
ATOM     16  C   UNL     1     -17.820  44.550  32.676  1.00  0.00     0.093 A 
ATOM     17  C   UNL     1     -18.985  42.478  33.126  1.00  0.00     0.047 A 
ATOM     18  C   UNL     1     -18.961  43.878  33.119  1.00  0.00     0.119 A 
BRANCH  14  19
ATOM     19  O   UNL     1     -15.574  44.524  31.780  1.00  0.00    -0.507 OA
ATOM     20  H   UNL     1     -14.697  44.507  32.289  1.00  0.00     0.293 HD
ENDBRANCH  14  19
BRANCH  18  21
ATOM     21  O   UNL     1     -20.066  44.608  33.552  1.00  0.00    -0.508 OA
ATOM     22  H   UNL     1     -20.985  44.465  33.152  1.00  0.00     0.293 HD
ENDBRANCH  18  21
ENDBRANCH  11  13
ENDBRANCH   2  11
TORSDOF 6
ENDMDL
MODEL 8
REMARK VINA RESULT:    -6.214      2.099      8.147
REMARK INTER + INTRA:          -8.396
REMARK INTER:                  -7.807
REMARK INTRA:                  -0.589
REMARK UNBOUND:                -0.547
REMARK SMILES O=C(C=Cc1ccc(O)cc1)c1ccc(O)cc1O
REMARK SMILES IDX 4 1 3 2 5 3 6 4 7 5 8 6 11 7 10 8 9 9 2 11 1 12 12 13 18 14
REMARK SMILES IDX 13 15 17 16 14 17 15 18 19 19 16 21
REMARK H PARENT 9 10 19 20 16 22
REMARK Flexibility Score: inf
ROOT
ATOM      1  C   UNL     1     -14.002  44.473  30.510  1.00  0.00     0.012 C 
ATOM      2  C   UNL     1     -15.156  43.861  30.206  1.00  0.00     0.053 C 
ENDROOT
BRANCH   1   3
ATOM      3  C   UNL     1     -12.703  44.143  29.874  1.00  0.00    -0.025 A 
ATOM      4  C   UNL     1     -12.649  43.068  28.971  1.00  0.00     0.012 A 
ATOM      5  C   UNL     1     -11.448  42.728  28.341  1.00  0.00     0.047 A 
ATOM      6  C   UNL     1     -10.288  43.463  28.595  1.00  0.00     0.115 A 
ATOM      7  C   UNL     1     -11.531  44.890  30.113  1.00  0.00     0.012 A 
ATOM      8  C   UNL     1     -10.331  44.547  29.480  1.00  0.00     0.047 A 
BRANCH   6   9
ATOM      9  O   UNL     1      -9.098  43.111  27.961  1.00  0.00    -0.508 OA
ATOM     10  H   UNL     1      -8.327  42.698  28.472  1.00  0.00     0.293 HD
ENDBRANCH   6   9
ENDBRANCH   1   3
BRANCH   2  11
ATOM     11  C   UNL     1     -16.438  44.231  30.849  1.00  0.00     0.189 C 
ATOM     12  O   UNL     1     -17.064  45.252  30.451  1.00  0.00    -0.289 OA
BRANCH  11  13
ATOM     13  C   UNL     1     -17.004  43.413  31.951  1.00  0.00     0.064 A 
ATOM     14  C   UNL     1     -18.400  43.343  32.158  1.00  0.00     0.130 A 
ATOM     15  C   UNL     1     -16.151  42.709  32.822  1.00  0.00     0.020 A 
ATOM     16  C   UNL     1     -18.914  42.577  33.215  1.00  0.00     0.093 A 
ATOM     17  C   UNL     1     -16.673  41.948  33.871  1.00  0.00     0.047 A 
ATOM     18  C   UNL     1     -18.056  41.880  34.069  1.00  0.00     0.119 A 
BRANCH  14  19
ATOM     19  O   UNL     1     -19.276  44.018  31.307  1.00  0.00    -0.507 OA
ATOM     20  H   UNL     1     -18.977  44.818  30.761  1.00  0.00     0.293 HD
ENDBRANCH  14  19
BRANCH  18  21
ATOM     21  O   UNL     1     -18.587  41.124  35.113  1.00  0.00    -0.508 OA
ATOM     22  H   UNL     1     -18.604  41.473  36.063  1.00  0.00     0.293 HD
ENDBRANCH  18  21
ENDBRANCH  11  13
ENDBRANCH   2  11
TORSDOF 6
ENDMDL
