MODEL 1
REMARK VINA RESULT:    -5.133      0.000      0.000
REMARK INTER + INTRA:          -7.710
REMARK INTER:                  -6.934
REMARK INTRA:                  -0.776
REMARK UNBOUND:                -0.776
REMARK SMILES CC(=O)OCC=C(C)CCC=C(C)C
REMARK SMILES IDX 7 1 6 2 8 3 9 4 10 5 11 6 13 7 12 8 14 9 5 10 4 11 2 12 3 13
REMARK SMILES IDX 1 14
REMARK H PARENT
REMARK Flexibility Score: inf
ROOT
ATOM      1  C   UNL     1      -5.861  63.891   5.170  1.00  0.00    -0.074 C 
ATOM      2  C   UNL     1      -5.466  63.075   4.168  1.00  0.00     0.013 C 
ATOM      3  C   UNL     1      -5.922  63.409   6.599  1.00  0.00     0.039 C 
ENDROOT
BRANCH   1   4
ATOM      4  C   UNL     1      -6.244  65.320   4.854  1.00  0.00     0.034 C 
BRANCH   4   5
ATOM      5  C   UNL     1      -7.768  65.470   4.778  1.00  0.00     0.032 C 
BRANCH   5   6
ATOM      6  C   UNL     1      -8.196  65.884   3.391  1.00  0.00    -0.028 C 
ATOM      7  C   UNL     1      -8.949  63.578   2.763  1.00  0.00     0.039 C 
ATOM      8  C   UNL     1      -8.752  65.050   2.483  1.00  0.00    -0.080 C 
ATOM      9  C   UNL     1      -9.168  65.616   1.150  1.00  0.00     0.039 C 
ENDBRANCH   5   6
ENDBRANCH   4   5
ENDBRANCH   1   4
BRANCH   2  10
ATOM     10  C   UNL     1      -5.065  61.638   4.383  1.00  0.00     0.260 C 
BRANCH  10  11
ATOM     11  O   UNL     1      -6.152  60.764   4.088  1.00  0.00    -0.462 OA
BRANCH  11  12
ATOM     12  C   UNL     1      -6.148  59.871   3.010  1.00  0.00     0.302 C 
ATOM     13  O   UNL     1      -5.190  59.068   2.841  1.00  0.00    -0.253 OA
ATOM     14  C   UNL     1      -7.274  59.888   2.034  1.00  0.00     0.139 C 
ENDBRANCH  11  12
ENDBRANCH  10  11
ENDBRANCH   2  10
TORSDOF 6
ENDMDL
MODEL 2
REMARK VINA RESULT:    -5.051     14.086     16.331
REMARK INTER + INTRA:          -7.598
REMARK INTER:                  -7.016
REMARK INTRA:                  -0.583
REMARK UNBOUND:                -0.776
REMARK SMILES CC(=O)OCC=C(C)CCC=C(C)C
REMARK SMILES IDX 7 1 6 2 8 3 9 4 10 5 11 6 13 7 12 8 14 9 5 10 4 11 2 12 3 13
REMARK SMILES IDX 1 14
REMARK H PARENT
REMARK Flexibility Score: inf
ROOT
ATOM      1  C   UNL     1       3.184  53.545   6.632  1.00  0.00    -0.074 C 
ATOM      2  C   UNL     1       3.360  53.641   5.296  1.00  0.00     0.013 C 
ATOM      3  C   UNL     1       3.600  54.661   7.561  1.00  0.00     0.039 C 
ENDROOT
BRANCH   1   4
ATOM      4  C   UNL     1       2.553  52.298   7.209  1.00  0.00     0.034 C 
BRANCH   4   5
ATOM      5  C   UNL     1       3.246  51.891   8.514  1.00  0.00     0.032 C 
BRANCH   5   6
ATOM      6  C   UNL     1       3.630  50.432   8.484  1.00  0.00    -0.028 C 
ATOM      7  C   UNL     1       5.706  50.841   7.143  1.00  0.00     0.039 C 
ATOM      8  C   UNL     1       4.745  49.948   7.893  1.00  0.00    -0.080 C 
ATOM      9  C   UNL     1       5.018  48.468   7.979  1.00  0.00     0.039 C 
ENDBRANCH   5   6
ENDBRANCH   4   5
ENDBRANCH   1   4
BRANCH   2  10
ATOM     10  C   UNL     1       3.978  54.841   4.627  1.00  0.00     0.260 C 
BRANCH  10  11
ATOM     11  O   UNL     1       5.380  54.649   4.449  1.00  0.00    -0.462 OA
BRANCH  11  12
ATOM     12  C   UNL     1       5.993  54.596   3.191  1.00  0.00     0.302 C 
ATOM     13  O   UNL     1       5.312  54.713   2.136  1.00  0.00    -0.253 OA
ATOM     14  C   UNL     1       7.463  54.373   3.097  1.00  0.00     0.139 C 
ENDBRANCH  11  12
ENDBRANCH  10  11
ENDBRANCH   2  10
TORSDOF 6
ENDMDL
MODEL 3
REMARK VINA RESULT:    -4.813      2.433      4.657
REMARK INTER + INTRA:          -7.277
REMARK INTER:                  -6.349
REMARK INTRA:                  -0.928
REMARK UNBOUND:                -0.776
REMARK SMILES CC(=O)OCC=C(C)CCC=C(C)C
REMARK SMILES IDX 7 1 6 2 8 3 9 4 10 5 11 6 13 7 12 8 14 9 5 10 4 11 2 12 3 13
REMARK SMILES IDX 1 14
REMARK H PARENT
REMARK Flexibility Score: inf
ROOT
ATOM      1  C   UNL     1      -9.853  64.887   3.035  1.00  0.00    -0.074 C 
ATOM      2  C   UNL     1      -9.602  63.651   3.520  1.00  0.00     0.013 C 
ATOM      3  C   UNL     1      -8.944  65.532   2.017  1.00  0.00     0.039 C 
ENDROOT
BRANCH   1   4
ATOM      4  C   UNL     1     -11.074  65.637   3.519  1.00  0.00     0.034 C 
BRANCH   4   5
ATOM      5  C   UNL     1     -10.670  66.816   4.412  1.00  0.00     0.032 C 
BRANCH   5   6
ATOM      6  C   UNL     1     -11.122  66.589   5.834  1.00  0.00    -0.028 C 
ATOM      7  C   UNL     1      -8.794  66.228   6.685  1.00  0.00     0.039 C 
ATOM      8  C   UNL     1     -10.289  66.349   6.871  1.00  0.00    -0.080 C 
ATOM      9  C   UNL     1     -10.883  66.182   8.246  1.00  0.00     0.039 C 
ENDBRANCH   5   6
ENDBRANCH   4   5
ENDBRANCH   1   4
BRANCH   2  10
ATOM     10  C   UNL     1      -8.413  62.825   3.100  1.00  0.00     0.260 C 
BRANCH  10  11
ATOM     11  O   UNL     1      -7.487  62.695   4.176  1.00  0.00    -0.462 OA
BRANCH  11  12
ATOM     12  C   UNL     1      -6.249  63.346   4.206  1.00  0.00     0.302 C 
ATOM     13  O   UNL     1      -5.193  62.741   3.873  1.00  0.00    -0.253 OA
ATOM     14  C   UNL     1      -6.172  64.762   4.663  1.00  0.00     0.139 C 
ENDBRANCH  11  12
ENDBRANCH  10  11
ENDBRANCH   2  10
TORSDOF 6
ENDMDL
MODEL 4
REMARK VINA RESULT:    -4.746      3.553      6.175
REMARK INTER + INTRA:          -7.187
REMARK INTER:                  -6.293
REMARK INTRA:                  -0.893
REMARK UNBOUND:                -0.776
REMARK SMILES CC(=O)OCC=C(C)CCC=C(C)C
REMARK SMILES IDX 7 1 6 2 8 3 9 4 10 5 11 6 13 7 12 8 14 9 5 10 4 11 2 12 3 13
REMARK SMILES IDX 1 14
REMARK H PARENT
REMARK Flexibility Score: inf
ROOT
ATOM      1  C   UNL     1      -9.408  64.501   2.692  1.00  0.00    -0.074 C 
ATOM      2  C   UNL     1     -10.421  64.693   3.565  1.00  0.00     0.013 C 
ATOM      3  C   UNL     1      -8.901  65.622   1.818  1.00  0.00     0.039 C 
ENDROOT
BRANCH   1   4
ATOM      4  C   UNL     1      -8.766  63.135   2.592  1.00  0.00     0.034 C 
BRANCH   4   5
ATOM      5  C   UNL     1      -8.283  62.659   3.967  1.00  0.00     0.032 C 
BRANCH   5   6
ATOM      6  C   UNL     1      -6.873  62.127   3.883  1.00  0.00    -0.028 C 
ATOM      7  C   UNL     1      -5.845  64.281   4.643  1.00  0.00     0.039 C 
ATOM      8  C   UNL     1      -5.769  62.836   4.208  1.00  0.00    -0.080 C 
ATOM      9  C   UNL     1      -4.427  62.157   4.112  1.00  0.00     0.039 C 
ENDBRANCH   5   6
ENDBRANCH   4   5
ENDBRANCH   1   4
BRANCH   2  10
ATOM     10  C   UNL     1     -11.124  66.015   3.737  1.00  0.00     0.260 C 
BRANCH  10  11
ATOM     11  O   UNL     1     -10.414  66.845   4.655  1.00  0.00    -0.462 OA
BRANCH  11  12
ATOM     12  C   UNL     1     -10.000  66.411   5.919  1.00  0.00     0.302 C 
ATOM     13  O   UNL     1     -10.844  66.109   6.807  1.00  0.00    -0.253 OA
ATOM     14  C   UNL     1      -8.545  66.328   6.230  1.00  0.00     0.139 C 
ENDBRANCH  11  12
ENDBRANCH  10  11
ENDBRANCH   2  10
TORSDOF 6
ENDMDL
MODEL 5
REMARK VINA RESULT:    -4.740     14.141     15.598
REMARK INTER + INTRA:          -7.179
REMARK INTER:                  -6.491
REMARK INTRA:                  -0.688
REMARK UNBOUND:                -0.776
REMARK SMILES CC(=O)OCC=C(C)CCC=C(C)C
REMARK SMILES IDX 7 1 6 2 8 3 9 4 10 5 11 6 13 7 12 8 14 9 5 10 4 11 2 12 3 13
REMARK SMILES IDX 1 14
REMARK H PARENT
REMARK Flexibility Score: inf
ROOT
ATOM      1  C   UNL     1       3.813  52.791   7.038  1.00  0.00    -0.074 C 
ATOM      2  C   UNL     1       4.558  53.515   6.175  1.00  0.00     0.013 C 
ATOM      3  C   UNL     1       2.396  52.386   6.705  1.00  0.00     0.039 C 
ENDROOT
BRANCH   1   4
ATOM      4  C   UNL     1       4.410  52.373   8.363  1.00  0.00     0.034 C 
BRANCH   4   5
ATOM      5  C   UNL     1       3.778  53.159   9.518  1.00  0.00     0.032 C 
BRANCH   5   6
ATOM      6  C   UNL     1       4.798  54.053  10.177  1.00  0.00    -0.028 C 
ATOM      7  C   UNL     1       3.877  56.138   9.138  1.00  0.00     0.039 C 
ATOM      8  C   UNL     1       4.840  55.397  10.036  1.00  0.00    -0.080 C 
ATOM      9  C   UNL     1       5.894  56.166  10.790  1.00  0.00     0.039 C 
ENDBRANCH   5   6
ENDBRANCH   4   5
ENDBRANCH   1   4
BRANCH   2  10
ATOM     10  C   UNL     1       4.053  53.978   4.833  1.00  0.00     0.260 C 
BRANCH  10  11
ATOM     11  O   UNL     1       4.952  54.924   4.257  1.00  0.00    -0.462 OA
BRANCH  11  12
ATOM     12  C   UNL     1       5.744  54.646   3.137  1.00  0.00     0.302 C 
ATOM     13  O   UNL     1       5.245  54.645   1.979  1.00  0.00    -0.253 OA
ATOM     14  C   UNL     1       7.187  54.322   3.317  1.00  0.00     0.139 C 
ENDBRANCH  11  12
ENDBRANCH  10  11
ENDBRANCH   2  10
TORSDOF 6
ENDMDL
MODEL 6
REMARK VINA RESULT:    -4.736      2.221      3.563
REMARK INTER + INTRA:          -7.173
REMARK INTER:                  -6.318
REMARK INTRA:                  -0.855
REMARK UNBOUND:                -0.776
REMARK SMILES CC(=O)OCC=C(C)CCC=C(C)C
REMARK SMILES IDX 7 1 6 2 8 3 9 4 10 5 11 6 13 7 12 8 14 9 5 10 4 11 2 12 3 13
REMARK SMILES IDX 1 14
REMARK H PARENT
REMARK Flexibility Score: inf
ROOT
ATOM      1  C   UNL     1      -6.309  62.670   4.065  1.00  0.00    -0.074 C 
ATOM      2  C   UNL     1      -6.174  63.756   4.858  1.00  0.00     0.013 C 
ATOM      3  C   UNL     1      -5.111  61.856   3.637  1.00  0.00     0.039 C 
ENDROOT
BRANCH   1   4
ATOM      4  C   UNL     1      -7.687  62.258   3.600  1.00  0.00     0.034 C 
BRANCH   4   5
ATOM      5  C   UNL     1      -8.703  63.379   3.848  1.00  0.00     0.032 C 
BRANCH   5   6
ATOM      6  C   UNL     1      -9.113  64.026   2.548  1.00  0.00    -0.028 C 
ATOM      7  C   UNL     1      -8.214  66.273   3.198  1.00  0.00     0.039 C 
ATOM      8  C   UNL     1      -8.878  65.320   2.231  1.00  0.00    -0.080 C 
ATOM      9  C   UNL     1      -9.310  65.817   0.876  1.00  0.00     0.039 C 
ENDBRANCH   5   6
ENDBRANCH   4   5
ENDBRANCH   1   4
BRANCH   2  10
ATOM     10  C   UNL     1      -4.845  64.245   5.371  1.00  0.00     0.260 C 
BRANCH  10  11
ATOM     11  O   UNL     1      -4.683  63.906   6.747  1.00  0.00    -0.462 OA
BRANCH  11  12
ATOM     12  C   UNL     1      -4.332  62.624   7.185  1.00  0.00     0.302 C 
ATOM     13  O   UNL     1      -3.318  62.037   6.719  1.00  0.00    -0.253 OA
ATOM     14  C   UNL     1      -5.182  61.932   8.196  1.00  0.00     0.139 C 
ENDBRANCH  11  12
ENDBRANCH  10  11
ENDBRANCH   2  10
TORSDOF 6
ENDMDL
MODEL 7
REMARK VINA RESULT:    -4.731     13.516     15.774
REMARK INTER + INTRA:          -7.166
REMARK INTER:                  -6.364
REMARK INTRA:                  -0.802
REMARK UNBOUND:                -0.776
REMARK SMILES CC(=O)OCC=C(C)CCC=C(C)C
REMARK SMILES IDX 7 1 6 2 8 3 9 4 10 5 11 6 13 7 12 8 14 9 5 10 4 11 2 12 3 13
REMARK SMILES IDX 1 14
REMARK H PARENT
REMARK Flexibility Score: inf
ROOT
ATOM      1  C   UNL     1       4.881  51.972   8.646  1.00  0.00    -0.074 C 
ATOM      2  C   UNL     1       4.235  50.815   8.385  1.00  0.00     0.013 C 
ATOM      3  C   UNL     1       4.426  52.895   9.751  1.00  0.00     0.039 C 
ENDROOT
BRANCH   1   4
ATOM      4  C   UNL     1       6.090  52.349   7.819  1.00  0.00     0.034 C 
BRANCH   4   5
ATOM      5  C   UNL     1       5.750  52.343   6.324  1.00  0.00     0.032 C 
BRANCH   5   6
ATOM      6  C   UNL     1       4.599  53.275   6.034  1.00  0.00    -0.028 C 
ATOM      7  C   UNL     1       5.739  54.329   4.068  1.00  0.00     0.039 C 
ATOM      8  C   UNL     1       4.569  54.156   5.009  1.00  0.00    -0.080 C 
ATOM      9  C   UNL     1       3.332  54.995   4.819  1.00  0.00     0.039 C 
ENDBRANCH   5   6
ENDBRANCH   4   5
ENDBRANCH   1   4
BRANCH   2  10
ATOM     10  C   UNL     1       3.023  50.354   9.153  1.00  0.00     0.260 C 
BRANCH  10  11
ATOM     11  O   UNL     1       1.831  50.616   8.414  1.00  0.00    -0.462 OA
BRANCH  11  12
ATOM     12  C   UNL     1       1.226  51.876   8.354  1.00  0.00     0.302 C 
ATOM     13  O   UNL     1       0.661  52.370   9.368  1.00  0.00    -0.253 OA
ATOM     14  C   UNL     1       1.227  52.634   7.071  1.00  0.00     0.139 C 
ENDBRANCH  11  12
ENDBRANCH  10  11
ENDBRANCH   2  10
TORSDOF 6
ENDMDL
MODEL 8
REMARK VINA RESULT:    -4.666      2.525      4.560
REMARK INTER + INTRA:          -7.078
REMARK INTER:                  -6.039
REMARK INTRA:                  -1.039
REMARK UNBOUND:                -0.776
REMARK SMILES CC(=O)OCC=C(C)CCC=C(C)C
REMARK SMILES IDX 7 1 6 2 8 3 9 4 10 5 11 6 13 7 12 8 14 9 5 10 4 11 2 12 3 13
REMARK SMILES IDX 1 14
REMARK H PARENT
REMARK Flexibility Score: inf
ROOT
ATOM      1  C   UNL     1      -5.897  64.189   5.146  1.00  0.00    -0.074 C 
ATOM      2  C   UNL     1      -6.758  64.920   4.406  1.00  0.00     0.013 C 
ATOM      3  C   UNL     1      -6.212  63.811   6.574  1.00  0.00     0.039 C 
ENDROOT
BRANCH   1   4
ATOM      4  C   UNL     1      -4.592  63.735   4.532  1.00  0.00     0.034 C 
BRANCH   4   5
ATOM      5  C   UNL     1      -4.389  62.229   4.734  1.00  0.00     0.032 C 
BRANCH   5   6
ATOM      6  C   UNL     1      -4.914  61.455   3.550  1.00  0.00    -0.028 C 
ATOM      7  C   UNL     1      -6.886  60.558   4.808  1.00  0.00     0.039 C 
ATOM      8  C   UNL     1      -6.049  60.719   3.560  1.00  0.00    -0.080 C 
ATOM      9  C   UNL     1      -6.471  60.032   2.288  1.00  0.00     0.039 C 
ENDBRANCH   5   6
ENDBRANCH   4   5
ENDBRANCH   1   4
BRANCH   2  10
ATOM     10  C   UNL     1      -8.080  65.418   4.928  1.00  0.00     0.260 C 
BRANCH  10  11
ATOM     11  O   UNL     1      -9.160  64.827   4.207  1.00  0.00    -0.462 OA
BRANCH  11  12
ATOM     12  C   UNL     1      -9.043  64.372   2.889  1.00  0.00     0.302 C 
ATOM     13  O   UNL     1      -9.089  65.180   1.921  1.00  0.00    -0.253 OA
ATOM     14  C   UNL     1      -8.891  62.914   2.623  1.00  0.00     0.139 C 
ENDBRANCH  11  12
ENDBRANCH  10  11
ENDBRANCH   2  10
TORSDOF 6
ENDMDL
MODEL 9
REMARK VINA RESULT:    -4.639     14.199     17.261
REMARK INTER + INTRA:          -7.042
REMARK INTER:                  -6.215
REMARK INTRA:                  -0.828
REMARK UNBOUND:                -0.776
REMARK SMILES CC(=O)OCC=C(C)CCC=C(C)C
REMARK SMILES IDX 7 1 6 2 8 3 9 4 10 5 11 6 13 7 12 8 14 9 5 10 4 11 2 12 3 13
REMARK SMILES IDX 1 14
REMARK H PARENT
REMARK Flexibility Score: inf
ROOT
ATOM      1  C   UNL     1       4.752  51.208   7.558  1.00  0.00    -0.074 C 
ATOM      2  C   UNL     1       3.618  51.940   7.500  1.00  0.00     0.013 C 
ATOM      3  C   UNL     1       6.083  51.787   7.141  1.00  0.00     0.039 C 
ENDROOT
BRANCH   1   4
ATOM      4  C   UNL     1       4.688  49.781   8.054  1.00  0.00     0.034 C 
BRANCH   4   5
ATOM      5  C   UNL     1       3.743  49.664   9.255  1.00  0.00     0.032 C 
BRANCH   5   6
ATOM      6  C   UNL     1       4.522  49.474  10.533  1.00  0.00    -0.028 C 
ATOM      7  C   UNL     1       4.388  51.895  11.162  1.00  0.00     0.039 C 
ATOM      8  C   UNL     1       4.799  50.463  11.413  1.00  0.00    -0.080 C 
ATOM      9  C   UNL     1       5.554  50.115  12.669  1.00  0.00     0.039 C 
ENDBRANCH   5   6
ENDBRANCH   4   5
ENDBRANCH   1   4
BRANCH   2  10
ATOM     10  C   UNL     1       3.580  53.368   7.020  1.00  0.00     0.260 C 
BRANCH  10  11
ATOM     11  O   UNL     1       3.237  53.424   5.637  1.00  0.00    -0.462 OA
BRANCH  11  12
ATOM     12  C   UNL     1       3.633  54.466   4.790  1.00  0.00     0.302 C 
ATOM     13  O   UNL     1       2.807  55.344   4.418  1.00  0.00    -0.253 OA
ATOM     14  C   UNL     1       5.039  54.523   4.300  1.00  0.00     0.139 C 
ENDBRANCH  11  12
ENDBRANCH  10  11
ENDBRANCH   2  10
TORSDOF 6
ENDMDL
