MODEL 1
REMARK VINA RESULT:    -4.310      0.000      0.000
REMARK INTER + INTRA:          -7.210
REMARK INTER:                  -6.578
REMARK INTRA:                  -0.631
REMARK UNBOUND:                -0.631
REMARK SMILES CCCCCCCCCCC(=O)[O-]
REMARK SMILES IDX 7 1 8 2 9 3 10 4 11 5 12 6 13 7 6 8 5 9 4 10 3 11 2 12 1 13
REMARK H PARENT
REMARK Flexibility Score: inf
ROOT
ATOM      1  C   UNL     1      52.305  -2.457  11.264  1.00  0.00     0.000 C 
ENDROOT
BRANCH   1   2
ATOM      2  C   UNL     1      51.648  -3.036   9.991  1.00  0.00     0.000 C 
BRANCH   2   3
ATOM      3  C   UNL     1      52.451  -4.186   9.356  1.00  0.00     0.006 C 
BRANCH   3   4
ATOM      4  C   UNL     1      53.961  -3.916   9.265  1.00  0.00     0.053 C 
BRANCH   4   5
ATOM      5  C   UNL     1      54.534  -4.385   7.963  1.00  0.00     0.041 C 
ATOM      6  O   UNL     1      55.763  -4.649   7.871  1.00  0.00    -0.550 OA
ATOM      7  O   UNL     1      53.713  -4.548   6.855  1.00  0.00    -0.550 OA
ENDBRANCH   4   5
ENDBRANCH   3   4
ENDBRANCH   2   3
ENDBRANCH   1   2
BRANCH   1   8
ATOM      8  C   UNL     1      52.022  -3.317  12.507  1.00  0.00     0.000 C 
BRANCH   8   9
ATOM      9  C   UNL     1      53.273  -4.047  13.030  1.00  0.00    -0.000 C 
BRANCH   9  10
ATOM     10  C   UNL     1      54.526  -3.165  13.178  1.00  0.00    -0.000 C 
BRANCH  10  11
ATOM     11  C   UNL     1      55.694  -3.895  13.857  1.00  0.00    -0.000 C 
BRANCH  11  12
ATOM     12  C   UNL     1      56.797  -2.909  14.260  1.00  0.00    -0.003 C 
ATOM     13  C   UNL     1      56.214  -1.684  14.960  1.00  0.00     0.004 C 
ENDBRANCH  11  12
ENDBRANCH  10  11
ENDBRANCH   9  10
ENDBRANCH   8   9
ENDBRANCH   1   8
TORSDOF 9
ENDMDL
MODEL 2
REMARK VINA RESULT:    -4.288      3.485      6.004
REMARK INTER + INTRA:          -7.176
REMARK INTER:                  -6.621
REMARK INTRA:                  -0.555
REMARK UNBOUND:                -0.631
REMARK SMILES CCCCCCCCCCC(=O)[O-]
REMARK SMILES IDX 7 1 8 2 9 3 10 4 11 5 12 6 13 7 6 8 5 9 4 10 3 11 2 12 1 13
REMARK H PARENT
REMARK Flexibility Score: inf
ROOT
ATOM      1  C   UNL     1      53.159  -2.928  13.017  1.00  0.00     0.000 C 
ENDROOT
BRANCH   1   2
ATOM      2  C   UNL     1      54.587  -3.372  12.628  1.00  0.00     0.000 C 
BRANCH   2   3
ATOM      3  C   UNL     1      55.426  -3.856  13.826  1.00  0.00     0.006 C 
BRANCH   3   4
ATOM      4  C   UNL     1      56.854  -3.293  13.855  1.00  0.00     0.053 C 
BRANCH   4   5
ATOM      5  C   UNL     1      56.955  -2.070  14.716  1.00  0.00     0.041 C 
ATOM      6  O   UNL     1      58.036  -1.427  14.778  1.00  0.00    -0.550 OA
ATOM      7  O   UNL     1      55.852  -1.629  15.436  1.00  0.00    -0.550 OA
ENDBRANCH   4   5
ENDBRANCH   3   4
ENDBRANCH   2   3
ENDBRANCH   1   2
BRANCH   1   8
ATOM      8  C   UNL     1      52.089  -3.552  12.107  1.00  0.00     0.000 C 
BRANCH   8   9
ATOM      9  C   UNL     1      52.656  -4.624  11.159  1.00  0.00    -0.000 C 
BRANCH   9  10
ATOM     10  C   UNL     1      52.448  -4.342   9.660  1.00  0.00    -0.000 C 
BRANCH  10  11
ATOM     11  C   UNL     1      53.601  -3.543   9.035  1.00  0.00    -0.000 C 
BRANCH  11  12
ATOM     12  C   UNL     1      54.266  -4.333   7.902  1.00  0.00    -0.003 C 
ATOM     13  C   UNL     1      53.344  -4.442   6.690  1.00  0.00     0.004 C 
ENDBRANCH  11  12
ENDBRANCH  10  11
ENDBRANCH   9  10
ENDBRANCH   8   9
ENDBRANCH   1   8
TORSDOF 9
ENDMDL
MODEL 3
REMARK VINA RESULT:    -4.212      1.134      2.389
REMARK INTER + INTRA:          -7.060
REMARK INTER:                  -5.981
REMARK INTRA:                  -1.078
REMARK UNBOUND:                -0.631
REMARK SMILES CCCCCCCCCCC(=O)[O-]
REMARK SMILES IDX 7 1 8 2 9 3 10 4 11 5 12 6 13 7 6 8 5 9 4 10 3 11 2 12 1 13
REMARK H PARENT
REMARK Flexibility Score: inf
ROOT
ATOM      1  C   UNL     1      52.681  -1.573   9.507  1.00  0.00     0.000 C 
ENDROOT
BRANCH   1   2
ATOM      2  C   UNL     1      51.586  -2.614   9.185  1.00  0.00     0.000 C 
BRANCH   2   3
ATOM      3  C   UNL     1      52.106  -4.063   9.161  1.00  0.00     0.006 C 
BRANCH   3   4
ATOM      4  C   UNL     1      53.635  -4.178   9.241  1.00  0.00     0.053 C 
BRANCH   4   5
ATOM      5  C   UNL     1      54.244  -4.459   7.901  1.00  0.00     0.041 C 
ATOM      6  O   UNL     1      53.507  -4.662   6.901  1.00  0.00    -0.550 OA
ATOM      7  O   UNL     1      55.624  -4.480   7.751  1.00  0.00    -0.550 OA
ENDBRANCH   4   5
ENDBRANCH   3   4
ENDBRANCH   2   3
ENDBRANCH   1   2
BRANCH   1   8
ATOM      8  C   UNL     1      52.161  -0.442  10.410  1.00  0.00     0.000 C 
BRANCH   8   9
ATOM      9  C   UNL     1      51.970  -0.881  11.873  1.00  0.00    -0.000 C 
BRANCH   9  10
ATOM     10  C   UNL     1      53.120  -1.723  12.455  1.00  0.00    -0.000 C 
BRANCH  10  11
ATOM     11  C   UNL     1      52.682  -3.139  12.854  1.00  0.00    -0.000 C 
BRANCH  11  12
ATOM     12  C   UNL     1      53.897  -4.041  13.102  1.00  0.00    -0.003 C 
ATOM     13  C   UNL     1      55.176  -3.218  13.236  1.00  0.00     0.004 C 
ENDBRANCH  11  12
ENDBRANCH  10  11
ENDBRANCH   9  10
ENDBRANCH   8   9
ENDBRANCH   1   8
TORSDOF 9
ENDMDL
MODEL 4
REMARK VINA RESULT:    -4.180      2.818      5.723
REMARK INTER + INTRA:          -7.010
REMARK INTER:                  -6.458
REMARK INTRA:                  -0.552
REMARK UNBOUND:                -0.631
REMARK SMILES CCCCCCCCCCC(=O)[O-]
REMARK SMILES IDX 7 1 8 2 9 3 10 4 11 5 12 6 13 7 6 8 5 9 4 10 3 11 2 12 1 13
REMARK H PARENT
REMARK Flexibility Score: inf
ROOT
ATOM      1  C   UNL     1      52.093  -3.761  11.979  1.00  0.00     0.000 C 
ENDROOT
BRANCH   1   2
ATOM      2  C   UNL     1      53.042  -3.729  13.197  1.00  0.00     0.000 C 
BRANCH   2   3
ATOM      3  C   UNL     1      54.453  -3.211  12.862  1.00  0.00     0.006 C 
BRANCH   3   4
ATOM      4  C   UNL     1      55.111  -2.414  13.998  1.00  0.00     0.053 C 
BRANCH   4   5
ATOM      5  C   UNL     1      56.560  -2.764  14.158  1.00  0.00     0.041 C 
ATOM      6  O   UNL     1      56.996  -3.864  13.727  1.00  0.00    -0.550 OA
ATOM      7  O   UNL     1      57.432  -1.871  14.766  1.00  0.00    -0.550 OA
ENDBRANCH   4   5
ENDBRANCH   3   4
ENDBRANCH   2   3
ENDBRANCH   1   2
BRANCH   1   8
ATOM      8  C   UNL     1      51.850  -2.359  11.395  1.00  0.00     0.000 C 
BRANCH   8   9
ATOM      9  C   UNL     1      52.204  -2.261   9.900  1.00  0.00    -0.000 C 
BRANCH   9  10
ATOM     10  C   UNL     1      51.462  -3.255   8.989  1.00  0.00    -0.000 C 
BRANCH  10  11
ATOM     11  C   UNL     1      52.304  -4.490   8.640  1.00  0.00    -0.000 C 
BRANCH  11  12
ATOM     12  C   UNL     1      53.769  -4.106   8.401  1.00  0.00    -0.003 C 
ATOM     13  C   UNL     1      54.126  -4.182   6.919  1.00  0.00     0.004 C 
ENDBRANCH  11  12
ENDBRANCH  10  11
ENDBRANCH   9  10
ENDBRANCH   8   9
ENDBRANCH   1   8
TORSDOF 9
ENDMDL
MODEL 5
REMARK VINA RESULT:    -4.177      2.967      5.592
REMARK INTER + INTRA:          -7.005
REMARK INTER:                  -6.561
REMARK INTRA:                  -0.445
REMARK UNBOUND:                -0.631
REMARK SMILES CCCCCCCCCCC(=O)[O-]
REMARK SMILES IDX 7 1 8 2 9 3 10 4 11 5 12 6 13 7 6 8 5 9 4 10 3 11 2 12 1 13
REMARK H PARENT
REMARK Flexibility Score: inf
ROOT
ATOM      1  C   UNL     1      52.661  -4.718  11.178  1.00  0.00     0.000 C 
ENDROOT
BRANCH   1   2
ATOM      2  C   UNL     1      53.039  -3.690  12.267  1.00  0.00     0.000 C 
BRANCH   2   3
ATOM      3  C   UNL     1      54.539  -3.689  12.615  1.00  0.00     0.006 C 
BRANCH   3   4
ATOM      4  C   UNL     1      54.933  -2.650  13.674  1.00  0.00     0.053 C 
BRANCH   4   5
ATOM      5  C   UNL     1      56.365  -2.794  14.092  1.00  0.00     0.041 C 
ATOM      6  O   UNL     1      56.878  -1.967  14.892  1.00  0.00    -0.550 OA
ATOM      7  O   UNL     1      57.130  -3.850  13.614  1.00  0.00    -0.550 OA
ENDBRANCH   4   5
ENDBRANCH   3   4
ENDBRANCH   2   3
ENDBRANCH   1   2
BRANCH   1   8
ATOM      8  C   UNL     1      52.446  -4.058   9.805  1.00  0.00     0.000 C 
BRANCH   8   9
ATOM      9  C   UNL     1      53.765  -3.671   9.112  1.00  0.00    -0.000 C 
BRANCH   9  10
ATOM     10  C   UNL     1      53.876  -4.102   7.638  1.00  0.00    -0.000 C 
BRANCH  10  11
ATOM     11  C   UNL     1      55.323  -4.365   7.199  1.00  0.00    -0.000 C 
BRANCH  11  12
ATOM     12  C   UNL     1      56.215  -4.678   8.407  1.00  0.00    -0.003 C 
ATOM     13  C   UNL     1      57.691  -4.674   8.019  1.00  0.00     0.004 C 
ENDBRANCH  11  12
ENDBRANCH  10  11
ENDBRANCH   9  10
ENDBRANCH   8   9
ENDBRANCH   1   8
TORSDOF 9
ENDMDL
MODEL 6
REMARK VINA RESULT:    -4.105      4.907      7.573
REMARK INTER + INTRA:          -6.897
REMARK INTER:                  -6.473
REMARK INTRA:                  -0.424
REMARK UNBOUND:                -0.631
REMARK SMILES CCCCCCCCCCC(=O)[O-]
REMARK SMILES IDX 7 1 8 2 9 3 10 4 11 5 12 6 13 7 6 8 5 9 4 10 3 11 2 12 1 13
REMARK H PARENT
REMARK Flexibility Score: inf
ROOT
ATOM      1  C   UNL     1      58.015  -1.284  17.711  1.00  0.00     0.000 C 
ENDROOT
BRANCH   1   2
ATOM      2  C   UNL     1      57.261  -0.671  16.510  1.00  0.00     0.000 C 
BRANCH   2   3
ATOM      3  C   UNL     1      57.328  -1.536  15.239  1.00  0.00     0.006 C 
BRANCH   3   4
ATOM      4  C   UNL     1      55.959  -2.029  14.746  1.00  0.00     0.053 C 
BRANCH   4   5
ATOM      5  C   UNL     1      56.092  -3.075  13.682  1.00  0.00     0.041 C 
ATOM      6  O   UNL     1      57.132  -3.783  13.618  1.00  0.00    -0.550 OA
ATOM      7  O   UNL     1      55.064  -3.283  12.772  1.00  0.00    -0.550 OA
ENDBRANCH   4   5
ENDBRANCH   3   4
ENDBRANCH   2   3
ENDBRANCH   1   2
BRANCH   1   8
ATOM      8  C   UNL     1      57.192  -1.218  19.009  1.00  0.00     0.000 C 
BRANCH   8   9
ATOM      9  C   UNL     1      57.953  -1.765  20.231  1.00  0.00    -0.000 C 
BRANCH   9  10
ATOM     10  C   UNL     1      57.310  -2.993  20.901  1.00  0.00    -0.000 C 
BRANCH  10  11
ATOM     11  C   UNL     1      58.179  -4.254  20.798  1.00  0.00    -0.000 C 
BRANCH  11  12
ATOM     12  C   UNL     1      59.463  -3.973  20.009  1.00  0.00    -0.003 C 
ATOM     13  C   UNL     1      60.686  -3.980  20.922  1.00  0.00     0.004 C 
ENDBRANCH  11  12
ENDBRANCH  10  11
ENDBRANCH   9  10
ENDBRANCH   8   9
ENDBRANCH   1   8
TORSDOF 9
ENDMDL
MODEL 7
REMARK VINA RESULT:    -4.082     11.290     13.192
REMARK INTER + INTRA:          -6.861
REMARK INTER:                  -5.930
REMARK INTRA:                  -0.931
REMARK UNBOUND:                -0.631
REMARK SMILES CCCCCCCCCCC(=O)[O-]
REMARK SMILES IDX 7 1 8 2 9 3 10 4 11 5 12 6 13 7 6 8 5 9 4 10 3 11 2 12 1 13
REMARK H PARENT
REMARK Flexibility Score: inf
ROOT
ATOM      1  C   UNL     1      60.579  -3.930  20.756  1.00  0.00     0.000 C 
ENDROOT
BRANCH   1   2
ATOM      2  C   UNL     1      60.323  -4.228  22.251  1.00  0.00     0.000 C 
BRANCH   2   3
ATOM      3  C   UNL     1      61.608  -4.250  23.099  1.00  0.00     0.006 C 
BRANCH   3   4
ATOM      4  C   UNL     1      62.710  -3.311  22.586  1.00  0.00     0.053 C 
BRANCH   4   5
ATOM      5  C   UNL     1      63.951  -4.061  22.207  1.00  0.00     0.041 C 
ATOM      6  O   UNL     1      64.588  -3.745  21.167  1.00  0.00    -0.550 OA
ATOM      7  O   UNL     1      64.415  -5.095  23.008  1.00  0.00    -0.550 OA
ENDBRANCH   4   5
ENDBRANCH   3   4
ENDBRANCH   2   3
ENDBRANCH   1   2
BRANCH   1   8
ATOM      8  C   UNL     1      59.310  -4.104  19.904  1.00  0.00     0.000 C 
BRANCH   8   9
ATOM      9  C   UNL     1      58.014  -4.019  20.731  1.00  0.00    -0.000 C 
BRANCH   9  10
ATOM     10  C   UNL     1      57.284  -2.666  20.657  1.00  0.00    -0.000 C 
BRANCH  10  11
ATOM     11  C   UNL     1      57.562  -1.769  21.871  1.00  0.00    -0.000 C 
BRANCH  11  12
ATOM     12  C   UNL     1      58.784  -0.876  21.627  1.00  0.00    -0.003 C 
ATOM     13  C   UNL     1      58.794  -0.331  20.201  1.00  0.00     0.004 C 
ENDBRANCH  11  12
ENDBRANCH  10  11
ENDBRANCH   9  10
ENDBRANCH   8   9
ENDBRANCH   1   8
TORSDOF 9
ENDMDL
MODEL 8
REMARK VINA RESULT:    -4.041     10.543     12.178
REMARK INTER + INTRA:          -6.799
REMARK INTER:                  -6.098
REMARK INTRA:                  -0.701
REMARK UNBOUND:                -0.631
REMARK SMILES CCCCCCCCCCC(=O)[O-]
REMARK SMILES IDX 7 1 8 2 9 3 10 4 11 5 12 6 13 7 6 8 5 9 4 10 3 11 2 12 1 13
REMARK H PARENT
REMARK Flexibility Score: inf
ROOT
ATOM      1  C   UNL     1      58.378  -4.293  20.813  1.00  0.00     0.000 C 
ENDROOT
BRANCH   1   2
ATOM      2  C   UNL     1      59.753  -4.225  20.112  1.00  0.00     0.000 C 
BRANCH   2   3
ATOM      3  C   UNL     1      60.910  -3.873  21.065  1.00  0.00     0.006 C 
BRANCH   3   4
ATOM      4  C   UNL     1      62.292  -4.315  20.559  1.00  0.00     0.053 C 
BRANCH   4   5
ATOM      5  C   UNL     1      63.392  -3.855  21.467  1.00  0.00     0.041 C 
ATOM      6  O   UNL     1      64.516  -3.545  20.992  1.00  0.00    -0.550 OA
ATOM      7  O   UNL     1      63.173  -3.753  22.834  1.00  0.00    -0.550 OA
ENDBRANCH   4   5
ENDBRANCH   3   4
ENDBRANCH   2   3
ENDBRANCH   1   2
BRANCH   1   8
ATOM      8  C   UNL     1      57.965  -2.940  21.414  1.00  0.00     0.000 C 
BRANCH   8   9
ATOM      9  C   UNL     1      56.615  -2.430  20.876  1.00  0.00    -0.000 C 
BRANCH   9  10
ATOM     10  C   UNL     1      56.681  -1.093  20.116  1.00  0.00    -0.000 C 
BRANCH  10  11
ATOM     11  C   UNL     1      57.725  -1.096  18.990  1.00  0.00    -0.000 C 
BRANCH  11  12
ATOM     12  C   UNL     1      58.667   0.107  19.113  1.00  0.00    -0.003 C 
ATOM     13  C   UNL     1      58.737   0.609  20.553  1.00  0.00     0.004 C 
ENDBRANCH  11  12
ENDBRANCH  10  11
ENDBRANCH   9  10
ENDBRANCH   8   9
ENDBRANCH   1   8
TORSDOF 9
ENDMDL
MODEL 9
REMARK VINA RESULT:    -4.016     10.875     13.112
REMARK INTER + INTRA:          -6.761
REMARK INTER:                  -5.604
REMARK INTRA:                  -1.157
REMARK UNBOUND:                -0.631
REMARK SMILES CCCCCCCCCCC(=O)[O-]
REMARK SMILES IDX 7 1 8 2 9 3 10 4 11 5 12 6 13 7 6 8 5 9 4 10 3 11 2 12 1 13
REMARK H PARENT
REMARK Flexibility Score: inf
ROOT
ATOM      1  C   UNL     1      60.498  -1.869  23.266  1.00  0.00     0.000 C 
ENDROOT
BRANCH   1   2
ATOM      2  C   UNL     1      60.519  -3.375  23.611  1.00  0.00     0.000 C 
BRANCH   2   3
ATOM      3  C   UNL     1      61.456  -4.197  22.707  1.00  0.00     0.006 C 
BRANCH   3   4
ATOM      4  C   UNL     1      62.804  -3.518  22.423  1.00  0.00     0.053 C 
BRANCH   4   5
ATOM      5  C   UNL     1      63.375  -3.939  21.103  1.00  0.00     0.041 C 
ATOM      6  O   UNL     1      62.659  -4.562  20.274  1.00  0.00    -0.550 OA
ATOM      7  O   UNL     1      64.689  -3.631  20.779  1.00  0.00    -0.550 OA
ENDBRANCH   4   5
ENDBRANCH   3   4
ENDBRANCH   2   3
ENDBRANCH   1   2
BRANCH   1   8
ATOM      8  C   UNL     1      59.073  -1.354  23.002  1.00  0.00     0.000 C 
BRANCH   8   9
ATOM      9  C   UNL     1      58.892  -0.790  21.580  1.00  0.00    -0.000 C 
BRANCH   9  10
ATOM     10  C   UNL     1      58.182  -1.734  20.593  1.00  0.00    -0.000 C 
BRANCH  10  11
ATOM     11  C   UNL     1      59.150  -2.421  19.620  1.00  0.00    -0.000 C 
BRANCH  11  12
ATOM     12  C   UNL     1      59.188  -3.935  19.860  1.00  0.00    -0.003 C 
ATOM     13  C   UNL     1      58.130  -4.359  20.875  1.00  0.00     0.004 C 
ENDBRANCH  11  12
ENDBRANCH  10  11
ENDBRANCH   9  10
ENDBRANCH   8   9
ENDBRANCH   1   8
TORSDOF 9
ENDMDL
