MODEL 1
REMARK VINA RESULT:    -2.359      0.000      0.000
REMARK INTER + INTRA:          -2.566
REMARK INTER:                  -2.566
REMARK INTRA:                   0.000
REMARK UNBOUND:                 0.000
REMARK SMILES [NH3+]CC(=O)[O-]
REMARK SMILES IDX 2 1 1 2 3 6 4 7 5 8
REMARK H PARENT 1 3 1 4 1 5
REMARK Flexibility Score: inf
ROOT
ATOM      1  C   UNL     1      21.673  14.062 -16.605  1.00  0.00     0.312 C 
ENDROOT
BRANCH   1   2
ATOM      2  N   UNL     1      21.504  12.681 -16.160  1.00  0.00    -0.353 N 
ATOM      3  H   UNL     1      21.834  12.579 -15.172  1.00  0.00     0.344 HD
ATOM      4  H   UNL     1      22.071  12.052 -16.774  1.00  0.00     0.344 HD
ATOM      5  H   UNL     1      20.497  12.402 -16.227  1.00  0.00     0.344 HD
ENDBRANCH   1   2
BRANCH   1   6
ATOM      6  C   UNL     1      20.635  14.947 -15.987  1.00  0.00     0.096 C 
ATOM      7  O   UNL     1      19.776  14.464 -15.203  1.00  0.00    -0.544 OA
ATOM      8  O   UNL     1      20.586  16.295 -16.316  1.00  0.00    -0.544 OA
ENDBRANCH   1   6
TORSDOF 2
ENDMDL
MODEL 2
REMARK VINA RESULT:    -2.293      2.645      3.035
REMARK INTER + INTRA:          -2.494
REMARK INTER:                  -2.494
REMARK INTRA:                   0.000
REMARK UNBOUND:                 0.000
REMARK SMILES [NH3+]CC(=O)[O-]
REMARK SMILES IDX 2 1 1 2 3 6 4 7 5 8
REMARK H PARENT 1 3 1 4 1 5
REMARK Flexibility Score: inf
ROOT
ATOM      1  C   UNL     1      20.562  16.948 -17.297  1.00  0.00     0.312 C 
ENDROOT
BRANCH   1   2
ATOM      2  N   UNL     1      19.251  16.659 -17.874  1.00  0.00    -0.353 N 
ATOM      3  H   UNL     1      19.359  16.319 -18.859  1.00  0.00     0.344 HD
ATOM      4  H   UNL     1      18.679  17.534 -17.879  1.00  0.00     0.344 HD
ATOM      5  H   UNL     1      18.759  15.935 -17.302  1.00  0.00     0.344 HD
ENDBRANCH   1   2
BRANCH   1   6
ATOM      6  C   UNL     1      21.049  15.788 -16.485  1.00  0.00     0.096 C 
ATOM      7  O   UNL     1      22.272  15.483 -16.486  1.00  0.00    -0.544 OA
ATOM      8  O   UNL     1      20.147  15.014 -15.769  1.00  0.00    -0.544 OA
ENDBRANCH   1   6
TORSDOF 2
ENDMDL
MODEL 3
REMARK VINA RESULT:    -2.259      1.788      2.057
REMARK INTER + INTRA:          -2.457
REMARK INTER:                  -2.457
REMARK INTRA:                   0.000
REMARK UNBOUND:                 0.000
REMARK SMILES [NH3+]CC(=O)[O-]
REMARK SMILES IDX 2 1 1 2 3 6 4 7 5 8
REMARK H PARENT 1 3 1 4 1 5
REMARK Flexibility Score: inf
ROOT
ATOM      1  C   UNL     1      20.564  14.172 -16.112  1.00  0.00     0.312 C 
ENDROOT
BRANCH   1   2
ATOM      2  N   UNL     1      19.840  14.284 -14.848  1.00  0.00    -0.353 N 
ATOM      3  H   UNL     1      20.350  14.927 -14.198  1.00  0.00     0.344 HD
ATOM      4  H   UNL     1      19.775  13.338 -14.406  1.00  0.00     0.344 HD
ATOM      5  H   UNL     1      18.874  14.646 -15.018  1.00  0.00     0.344 HD
ENDBRANCH   1   2
BRANCH   1   6
ATOM      6  C   UNL     1      21.268  15.455 -16.433  1.00  0.00     0.096 C 
ATOM      7  O   UNL     1      20.615  16.529 -16.526  1.00  0.00    -0.544 OA
ATOM      8  O   UNL     1      22.633  15.456 -16.681  1.00  0.00    -0.544 OA
ENDBRANCH   1   6
TORSDOF 2
ENDMDL
MODEL 4
REMARK VINA RESULT:    -2.259      1.775      2.030
REMARK INTER + INTRA:          -2.457
REMARK INTER:                  -2.457
REMARK INTRA:                   0.000
REMARK UNBOUND:                 0.000
REMARK SMILES [NH3+]CC(=O)[O-]
REMARK SMILES IDX 2 1 1 2 3 6 4 7 5 8
REMARK H PARENT 1 3 1 4 1 5
REMARK Flexibility Score: inf
ROOT
ATOM      1  C   UNL     1      20.787  14.118 -16.082  1.00  0.00     0.312 C 
ENDROOT
BRANCH   1   2
ATOM      2  N   UNL     1      19.894  14.314 -14.942  1.00  0.00    -0.353 N 
ATOM      3  H   UNL     1      19.171  15.034 -15.171  1.00  0.00     0.344 HD
ATOM      4  H   UNL     1      20.455  14.644 -14.122  1.00  0.00     0.344 HD
ATOM      5  H   UNL     1      19.428  13.411 -14.691  1.00  0.00     0.344 HD
ENDBRANCH   1   2
BRANCH   1   6
ATOM      6  C   UNL     1      21.427  15.412 -16.480  1.00  0.00     0.096 C 
ATOM      7  O   UNL     1      22.669  15.467 -16.685  1.00  0.00    -0.544 OA
ATOM      8  O   UNL     1      20.662  16.566 -16.573  1.00  0.00    -0.544 OA
ENDBRANCH   1   6
TORSDOF 2
ENDMDL
MODEL 5
REMARK VINA RESULT:    -2.259      3.308      3.716
REMARK INTER + INTRA:          -2.457
REMARK INTER:                  -2.457
REMARK INTRA:                   0.000
REMARK UNBOUND:                 0.000
REMARK SMILES [NH3+]CC(=O)[O-]
REMARK SMILES IDX 2 1 1 2 3 6 4 7 5 8
REMARK H PARENT 1 3 1 4 1 5
REMARK Flexibility Score: inf
ROOT
ATOM      1  C   UNL     1      19.568  12.928 -15.874  1.00  0.00     0.312 C 
ENDROOT
BRANCH   1   2
ATOM      2  N   UNL     1      21.009  12.727 -16.006  1.00  0.00    -0.353 N 
ATOM      3  H   UNL     1      21.231  12.319 -16.945  1.00  0.00     0.344 HD
ATOM      4  H   UNL     1      21.331  12.064 -15.264  1.00  0.00     0.344 HD
ATOM      5  H   UNL     1      21.511  13.637 -15.889  1.00  0.00     0.344 HD
ENDBRANCH   1   2
BRANCH   1   6
ATOM      6  C   UNL     1      18.820  11.728 -16.367  1.00  0.00     0.096 C 
ATOM      7  O   UNL     1      17.596  11.817 -16.650  1.00  0.00    -0.544 OA
ATOM      8  O   UNL     1      19.462  10.501 -16.465  1.00  0.00    -0.544 OA
ENDBRANCH   1   6
TORSDOF 2
ENDMDL
MODEL 6
REMARK VINA RESULT:    -2.233      2.771      2.944
REMARK INTER + INTRA:          -2.429
REMARK INTER:                  -2.429
REMARK INTRA:                   0.000
REMARK UNBOUND:                 0.000
REMARK SMILES [NH3+]CC(=O)[O-]
REMARK SMILES IDX 2 1 1 2 3 6 4 7 5 8
REMARK H PARENT 1 3 1 4 1 5
REMARK Flexibility Score: inf
ROOT
ATOM      1  C   UNL     1      20.265  16.431 -17.429  1.00  0.00     0.312 C 
ENDROOT
BRANCH   1   2
ATOM      2  N   UNL     1      19.075  16.796 -18.193  1.00  0.00    -0.353 N 
ATOM      3  H   UNL     1      19.163  17.776 -18.551  1.00  0.00     0.344 HD
ATOM      4  H   UNL     1      18.237  16.738 -17.569  1.00  0.00     0.344 HD
ATOM      5  H   UNL     1      18.947  16.137 -18.996  1.00  0.00     0.344 HD
ENDBRANCH   1   2
BRANCH   1   6
ATOM      6  C   UNL     1      20.097  15.082 -16.801  1.00  0.00     0.096 C 
ATOM      7  O   UNL     1      19.065  14.399 -17.035  1.00  0.00    -0.544 OA
ATOM      8  O   UNL     1      21.055  14.602 -15.918  1.00  0.00    -0.544 OA
ENDBRANCH   1   6
TORSDOF 2
ENDMDL
MODEL 7
REMARK VINA RESULT:    -2.200      1.828      2.276
REMARK INTER + INTRA:          -2.393
REMARK INTER:                  -2.393
REMARK INTRA:                   0.000
REMARK UNBOUND:                 0.000
REMARK SMILES [NH3+]CC(=O)[O-]
REMARK SMILES IDX 2 1 1 2 3 6 4 7 5 8
REMARK H PARENT 1 3 1 4 1 5
REMARK Flexibility Score: inf
ROOT
ATOM      1  C   UNL     1      21.766  14.506 -16.695  1.00  0.00     0.312 C 
ENDROOT
BRANCH   1   2
ATOM      2  N   UNL     1      22.038  15.811 -16.097  1.00  0.00    -0.353 N 
ATOM      3  H   UNL     1      21.528  16.560 -16.621  1.00  0.00     0.344 HD
ATOM      4  H   UNL     1      23.066  16.002 -16.148  1.00  0.00     0.344 HD
ATOM      5  H   UNL     1      21.742  15.816 -15.094  1.00  0.00     0.344 HD
ENDBRANCH   1   2
BRANCH   1   6
ATOM      6  C   UNL     1      20.588  13.858 -16.034  1.00  0.00     0.096 C 
ATOM      7  O   UNL     1      19.857  14.521 -15.252  1.00  0.00    -0.544 OA
ATOM      8  O   UNL     1      20.329  12.510 -16.242  1.00  0.00    -0.544 OA
ENDBRANCH   1   6
TORSDOF 2
ENDMDL
MODEL 8
REMARK VINA RESULT:    -2.172      1.859      2.059
REMARK INTER + INTRA:          -2.363
REMARK INTER:                  -2.363
REMARK INTRA:                   0.000
REMARK UNBOUND:                 0.000
REMARK SMILES [NH3+]CC(=O)[O-]
REMARK SMILES IDX 2 1 1 2 3 6 4 7 5 8
REMARK H PARENT 1 3 1 4 1 5
REMARK Flexibility Score: inf
ROOT
ATOM      1  C   UNL     1      20.093  14.622 -15.784  1.00  0.00     0.312 C 
ENDROOT
BRANCH   1   2
ATOM      2  N   UNL     1      19.599  13.381 -15.191  1.00  0.00    -0.353 N 
ATOM      3  H   UNL     1      19.026  12.852 -15.890  1.00  0.00     0.344 HD
ATOM      4  H   UNL     1      19.000  13.611 -14.365  1.00  0.00     0.344 HD
ATOM      5  H   UNL     1      20.402  12.790 -14.874  1.00  0.00     0.344 HD
ENDBRANCH   1   2
BRANCH   1   6
ATOM      6  C   UNL     1      21.462  14.424 -16.359  1.00  0.00     0.096 C 
ATOM      7  O   UNL     1      21.860  13.269 -16.664  1.00  0.00    -0.544 OA
ATOM      8  O   UNL     1      22.315  15.509 -16.509  1.00  0.00    -0.544 OA
ENDBRANCH   1   6
TORSDOF 2
ENDMDL
MODEL 9
REMARK VINA RESULT:    -2.136      2.014      2.520
REMARK INTER + INTRA:          -2.324
REMARK INTER:                  -2.324
REMARK INTRA:                   0.000
REMARK UNBOUND:                 0.000
REMARK SMILES [NH3+]CC(=O)[O-]
REMARK SMILES IDX 2 1 1 2 3 6 4 7 5 8
REMARK H PARENT 1 3 1 4 1 5
REMARK Flexibility Score: inf
ROOT
ATOM      1  C   UNL     1      19.880  13.768 -15.750  1.00  0.00     0.312 C 
ENDROOT
BRANCH   1   2
ATOM      2  N   UNL     1      20.953  12.800 -15.967  1.00  0.00    -0.353 N 
ATOM      3  H   UNL     1      20.568  11.827 -15.950  1.00  0.00     0.344 HD
ATOM      4  H   UNL     1      21.661  12.898 -15.204  1.00  0.00     0.344 HD
ATOM      5  H   UNL     1      21.419  12.981 -16.887  1.00  0.00     0.344 HD
ENDBRANCH   1   2
BRANCH   1   6
ATOM      6  C   UNL     1      19.171  14.068 -17.035  1.00  0.00     0.096 C 
ATOM      7  O   UNL     1      19.477  15.091 -17.703  1.00  0.00    -0.544 OA
ATOM      8  O   UNL     1      18.140  13.246 -17.469  1.00  0.00    -0.544 OA
ENDBRANCH   1   6
TORSDOF 2
ENDMDL
