MODEL 1
REMARK VINA RESULT:    -4.194      0.000      0.000
REMARK INTER + INTRA:          -5.730
REMARK INTER:                  -5.420
REMARK INTRA:                  -0.309
REMARK UNBOUND:                -0.309
REMARK SMILES CCCCCCC(=O)[O-]
REMARK SMILES IDX 5 1 6 2 7 3 8 4 9 5 4 6 3 7 2 8 1 9
REMARK H PARENT
REMARK Flexibility Score: inf
ROOT
ATOM      1  C   UNL     1     -12.599  59.637  39.686  1.00  0.00     0.006 C 
ENDROOT
BRANCH   1   2
ATOM      2  C   UNL     1     -12.140  60.823  40.544  1.00  0.00     0.053 C 
BRANCH   2   3
ATOM      3  C   UNL     1     -11.053  61.580  39.847  1.00  0.00     0.041 C 
ATOM      4  O   UNL     1      -9.848  61.252  40.008  1.00  0.00    -0.550 OA
ATOM      5  O   UNL     1     -11.374  62.617  38.980  1.00  0.00    -0.550 OA
ENDBRANCH   2   3
ENDBRANCH   1   2
BRANCH   1   6
ATOM      6  C   UNL     1     -13.653  60.037  38.640  1.00  0.00     0.000 C 
BRANCH   6   7
ATOM      7  C   UNL     1     -14.878  60.721  39.266  1.00  0.00    -0.000 C 
BRANCH   7   8
ATOM      8  C   UNL     1     -15.510  61.715  38.286  1.00  0.00    -0.003 C 
ATOM      9  C   UNL     1     -14.835  63.081  38.373  1.00  0.00     0.004 C 
ENDBRANCH   7   8
ENDBRANCH   6   7
ENDBRANCH   1   6
TORSDOF 5
ENDMDL
MODEL 2
REMARK VINA RESULT:    -4.153     15.169     16.378
REMARK INTER + INTRA:          -5.677
REMARK INTER:                  -5.479
REMARK INTRA:                  -0.198
REMARK UNBOUND:                -0.309
REMARK SMILES CCCCCCC(=O)[O-]
REMARK SMILES IDX 5 1 6 2 7 3 8 4 9 5 4 6 3 7 2 8 1 9
REMARK H PARENT
REMARK Flexibility Score: inf
ROOT
ATOM      1  C   UNL     1      -7.770  62.941  54.393  1.00  0.00     0.006 C 
ENDROOT
BRANCH   1   2
ATOM      2  C   UNL     1      -8.052  64.074  53.398  1.00  0.00     0.053 C 
BRANCH   2   3
ATOM      3  C   UNL     1      -6.775  64.737  52.986  1.00  0.00     0.041 C 
ATOM      4  O   UNL     1      -6.085  64.256  52.049  1.00  0.00    -0.550 OA
ATOM      5  O   UNL     1      -6.373  65.914  53.603  1.00  0.00    -0.550 OA
ENDBRANCH   2   3
ENDBRANCH   1   2
BRANCH   1   6
ATOM      6  C   UNL     1      -7.661  61.568  53.711  1.00  0.00     0.000 C 
BRANCH   6   7
ATOM      7  C   UNL     1      -6.400  60.797  54.127  1.00  0.00    -0.000 C 
BRANCH   7   8
ATOM      8  C   UNL     1      -6.246  60.780  55.652  1.00  0.00    -0.003 C 
ATOM      9  C   UNL     1      -6.182  59.352  56.184  1.00  0.00     0.004 C 
ENDBRANCH   7   8
ENDBRANCH   6   7
ENDBRANCH   1   6
TORSDOF 5
ENDMDL
MODEL 3
REMARK VINA RESULT:    -4.136     15.970     16.902
REMARK INTER + INTRA:          -5.654
REMARK INTER:                  -5.404
REMARK INTRA:                  -0.250
REMARK UNBOUND:                -0.309
REMARK SMILES CCCCCCC(=O)[O-]
REMARK SMILES IDX 5 1 6 2 7 3 8 4 9 5 4 6 3 7 2 8 1 9
REMARK H PARENT
REMARK Flexibility Score: inf
ROOT
ATOM      1  C   UNL     1      -6.566  60.703  54.053  1.00  0.00     0.006 C 
ENDROOT
BRANCH   1   2
ATOM      2  C   UNL     1      -6.226  61.029  55.513  1.00  0.00     0.053 C 
BRANCH   2   3
ATOM      3  C   UNL     1      -5.843  59.784  56.250  1.00  0.00     0.041 C 
ATOM      4  O   UNL     1      -6.572  58.760  56.185  1.00  0.00    -0.550 OA
ATOM      5  O   UNL     1      -4.656  59.739  56.969  1.00  0.00    -0.550 OA
ENDBRANCH   2   3
ENDBRANCH   1   2
BRANCH   1   6
ATOM      6  C   UNL     1      -7.694  61.587  53.497  1.00  0.00     0.000 C 
BRANCH   6   7
ATOM      7  C   UNL     1      -7.948  62.834  54.358  1.00  0.00    -0.000 C 
BRANCH   7   8
ATOM      8  C   UNL     1      -7.809  64.113  53.524  1.00  0.00    -0.003 C 
ATOM      9  C   UNL     1      -6.504  64.118  52.734  1.00  0.00     0.004 C 
ENDBRANCH   7   8
ENDBRANCH   6   7
ENDBRANCH   1   6
TORSDOF 5
ENDMDL
MODEL 4
REMARK VINA RESULT:    -4.091     15.148     16.714
REMARK INTER + INTRA:          -5.596
REMARK INTER:                  -5.466
REMARK INTRA:                  -0.130
REMARK UNBOUND:                -0.309
REMARK SMILES CCCCCCC(=O)[O-]
REMARK SMILES IDX 5 1 6 2 7 3 8 4 9 5 4 6 3 7 2 8 1 9
REMARK H PARENT
REMARK Flexibility Score: inf
ROOT
ATOM      1  C   UNL     1      -7.680  61.530  53.604  1.00  0.00     0.006 C 
ENDROOT
BRANCH   1   2
ATOM      2  C   UNL     1      -7.842  62.947  54.168  1.00  0.00     0.053 C 
BRANCH   2   3
ATOM      3  C   UNL     1      -7.399  63.963  53.162  1.00  0.00     0.041 C 
ATOM      4  O   UNL     1      -7.897  65.119  53.168  1.00  0.00    -0.550 OA
ATOM      5  O   UNL     1      -6.399  63.649  52.251  1.00  0.00    -0.550 OA
ENDBRANCH   2   3
ENDBRANCH   1   2
BRANCH   1   6
ATOM      6  C   UNL     1      -6.441  60.810  54.162  1.00  0.00     0.000 C 
BRANCH   6   7
ATOM      7  C   UNL     1      -6.372  60.852  55.695  1.00  0.00    -0.000 C 
BRANCH   7   8
ATOM      8  C   UNL     1      -6.131  59.453  56.273  1.00  0.00    -0.003 C 
ATOM      9  C   UNL     1      -4.642  59.124  56.316  1.00  0.00     0.004 C 
ENDBRANCH   7   8
ENDBRANCH   6   7
ENDBRANCH   1   6
TORSDOF 5
ENDMDL
MODEL 5
REMARK VINA RESULT:    -4.033      1.682      2.868
REMARK INTER + INTRA:          -5.522
REMARK INTER:                  -5.293
REMARK INTRA:                  -0.229
REMARK UNBOUND:                -0.309
REMARK SMILES CCCCCCC(=O)[O-]
REMARK SMILES IDX 5 1 6 2 7 3 8 4 9 5 4 6 3 7 2 8 1 9
REMARK H PARENT
REMARK Flexibility Score: inf
ROOT
ATOM      1  C   UNL     1     -11.634  62.160  39.380  1.00  0.00     0.006 C 
ENDROOT
BRANCH   1   2
ATOM      2  C   UNL     1     -10.351  62.497  38.610  1.00  0.00     0.053 C 
BRANCH   2   3
ATOM      3  C   UNL     1      -9.590  63.578  39.313  1.00  0.00     0.041 C 
ATOM      4  O   UNL     1      -9.588  64.751  38.855  1.00  0.00    -0.550 OA
ATOM      5  O   UNL     1      -8.926  63.302  40.501  1.00  0.00    -0.550 OA
ENDBRANCH   2   3
ENDBRANCH   1   2
BRANCH   1   6
ATOM      6  C   UNL     1     -11.534  60.826  40.138  1.00  0.00     0.000 C 
BRANCH   6   7
ATOM      7  C   UNL     1     -12.821  59.993  40.043  1.00  0.00    -0.000 C 
BRANCH   7   8
ATOM      8  C   UNL     1     -13.347  59.958  38.604  1.00  0.00    -0.003 C 
ATOM      9  C   UNL     1     -14.822  60.347  38.546  1.00  0.00     0.004 C 
ENDBRANCH   7   8
ENDBRANCH   6   7
ENDBRANCH   1   6
TORSDOF 5
ENDMDL
MODEL 6
REMARK VINA RESULT:    -3.992      2.373      4.260
REMARK INTER + INTRA:          -5.469
REMARK INTER:                  -5.257
REMARK INTRA:                  -0.211
REMARK UNBOUND:                -0.309
REMARK SMILES CCCCCCC(=O)[O-]
REMARK SMILES IDX 5 1 6 2 7 3 8 4 9 5 4 6 3 7 2 8 1 9
REMARK H PARENT
REMARK Flexibility Score: inf
ROOT
ATOM      1  C   UNL     1     -12.977  59.967  40.073  1.00  0.00     0.006 C 
ENDROOT
BRANCH   1   2
ATOM      2  C   UNL     1     -13.480  60.067  38.627  1.00  0.00     0.053 C 
BRANCH   2   3
ATOM      3  C   UNL     1     -14.830  60.713  38.589  1.00  0.00     0.041 C 
ATOM      4  O   UNL     1     -15.872  60.006  38.600  1.00  0.00    -0.550 OA
ATOM      5  O   UNL     1     -14.938  62.098  38.593  1.00  0.00    -0.550 OA
ENDBRANCH   2   3
ENDBRANCH   1   2
BRANCH   1   6
ATOM      6  C   UNL     1     -11.622  60.665  40.276  1.00  0.00     0.000 C 
BRANCH   6   7
ATOM      7  C   UNL     1     -11.404  61.830  39.299  1.00  0.00    -0.000 C 
BRANCH   7   8
ATOM      8  C   UNL     1      -9.979  62.384  39.415  1.00  0.00    -0.003 C 
ATOM      9  C   UNL     1      -9.547  62.492  40.875  1.00  0.00     0.004 C 
ENDBRANCH   7   8
ENDBRANCH   6   7
ENDBRANCH   1   6
TORSDOF 5
ENDMDL
MODEL 7
REMARK VINA RESULT:    -3.946     13.736     15.373
REMARK INTER + INTRA:          -5.409
REMARK INTER:                  -5.151
REMARK INTRA:                  -0.258
REMARK UNBOUND:                -0.309
REMARK SMILES CCCCCCC(=O)[O-]
REMARK SMILES IDX 5 1 6 2 7 3 8 4 9 5 4 6 3 7 2 8 1 9
REMARK H PARENT
REMARK Flexibility Score: inf
ROOT
ATOM      1  C   UNL     1      -6.415  63.821  53.092  1.00  0.00     0.006 C 
ENDROOT
BRANCH   1   2
ATOM      2  C   UNL     1      -6.309  63.757  51.563  1.00  0.00     0.053 C 
BRANCH   2   3
ATOM      3  C   UNL     1      -6.848  65.012  50.951  1.00  0.00     0.041 C 
ATOM      4  O   UNL     1      -7.888  64.976  50.243  1.00  0.00    -0.550 OA
ATOM      5  O   UNL     1      -6.230  66.230  51.205  1.00  0.00    -0.550 OA
ENDBRANCH   2   3
ENDBRANCH   1   2
BRANCH   1   6
ATOM      6  C   UNL     1      -7.866  63.718  53.589  1.00  0.00     0.000 C 
BRANCH   6   7
ATOM      7  C   UNL     1      -8.042  62.659  54.688  1.00  0.00    -0.000 C 
BRANCH   7   8
ATOM      8  C   UNL     1      -7.162  61.434  54.416  1.00  0.00    -0.003 C 
ATOM      9  C   UNL     1      -6.418  60.998  55.674  1.00  0.00     0.004 C 
ENDBRANCH   7   8
ENDBRANCH   6   7
ENDBRANCH   1   6
TORSDOF 5
ENDMDL
MODEL 8
REMARK VINA RESULT:    -3.899      3.329      4.899
REMARK INTER + INTRA:          -5.348
REMARK INTER:                  -5.195
REMARK INTRA:                  -0.153
REMARK UNBOUND:                -0.309
REMARK SMILES CCCCCCC(=O)[O-]
REMARK SMILES IDX 5 1 6 2 7 3 8 4 9 5 4 6 3 7 2 8 1 9
REMARK H PARENT
REMARK Flexibility Score: inf
ROOT
ATOM      1  C   UNL     1     -14.307  60.346  38.682  1.00  0.00     0.006 C 
ENDROOT
BRANCH   1   2
ATOM      2  C   UNL     1     -15.348  61.454  38.479  1.00  0.00     0.053 C 
BRANCH   2   3
ATOM      3  C   UNL     1     -16.733  60.890  38.569  1.00  0.00     0.041 C 
ATOM      4  O   UNL     1     -17.722  61.579  38.206  1.00  0.00    -0.550 OA
ATOM      5  O   UNL     1     -16.925  59.586  39.006  1.00  0.00    -0.550 OA
ENDBRANCH   2   3
ENDBRANCH   1   2
BRANCH   1   6
ATOM      6  C   UNL     1     -13.718  60.341  40.102  1.00  0.00     0.000 C 
BRANCH   6   7
ATOM      7  C   UNL     1     -12.190  60.190  40.109  1.00  0.00    -0.000 C 
BRANCH   7   8
ATOM      8  C   UNL     1     -11.507  61.492  39.677  1.00  0.00    -0.003 C 
ATOM      9  C   UNL     1     -10.027  61.488  40.047  1.00  0.00     0.004 C 
ENDBRANCH   7   8
ENDBRANCH   6   7
ENDBRANCH   1   6
TORSDOF 5
ENDMDL
MODEL 9
REMARK VINA RESULT:    -3.892     17.629     19.110
REMARK INTER + INTRA:          -5.339
REMARK INTER:                  -5.190
REMARK INTRA:                  -0.149
REMARK UNBOUND:                -0.309
REMARK SMILES CCCCCCC(=O)[O-]
REMARK SMILES IDX 5 1 6 2 7 3 8 4 9 5 4 6 3 7 2 8 1 9
REMARK H PARENT
REMARK Flexibility Score: inf
ROOT
ATOM      1  C   UNL     1     -11.365  51.104  53.566  1.00  0.00     0.006 C 
ENDROOT
BRANCH   1   2
ATOM      2  C   UNL     1     -12.341  49.947  53.820  1.00  0.00     0.053 C 
BRANCH   2   3
ATOM      3  C   UNL     1     -13.401  49.918  52.764  1.00  0.00     0.041 C 
ATOM      4  O   UNL     1     -13.172  50.396  51.623  1.00  0.00    -0.550 OA
ATOM      5  O   UNL     1     -14.625  49.317  53.026  1.00  0.00    -0.550 OA
ENDBRANCH   2   3
ENDBRANCH   1   2
BRANCH   1   6
ATOM      6  C   UNL     1     -10.027  50.921  54.301  1.00  0.00     0.000 C 
BRANCH   6   7
ATOM      7  C   UNL     1      -9.750  49.456  54.671  1.00  0.00    -0.000 C 
BRANCH   7   8
ATOM      8  C   UNL     1      -8.246  49.208  54.837  1.00  0.00    -0.003 C 
ATOM      9  C   UNL     1      -7.787  49.535  56.255  1.00  0.00     0.004 C 
ENDBRANCH   7   8
ENDBRANCH   6   7
ENDBRANCH   1   6
TORSDOF 5
ENDMDL
