MODEL 1
REMARK VINA RESULT:     3.139      0.000      0.000
REMARK INTER + INTRA:           5.026
REMARK INTER:                   5.708
REMARK INTRA:                  -0.682
REMARK UNBOUND:                -0.682
REMARK SMILES CCCCCC=CCC=CCCCCCCCC(=O)[O-]
REMARK SMILES IDX 11 1 12 2 13 3 14 4 15 5 16 6 17 7 18 8 19 9 20 10 10 11
REMARK SMILES IDX 9 12 8 13 7 14 6 15 5 16 4 17 3 18 2 19 1 20
REMARK H PARENT
REMARK Flexibility Score: inf
ROOT
ATOM      1  C   UNL     1      29.674  18.723   4.419  1.00  0.00     0.027 C 
ENDROOT
BRANCH   1   2
ATOM      2  C   UNL     1      29.060  18.025   3.196  1.00  0.00     0.004 C 
BRANCH   2   3
ATOM      3  C   UNL     1      28.781  19.006   2.048  1.00  0.00     0.000 C 
BRANCH   3   4
ATOM      4  C   UNL     1      29.179  18.395   0.696  1.00  0.00     0.000 C 
BRANCH   4   5
ATOM      5  C   UNL     1      27.964  18.032  -0.172  1.00  0.00     0.000 C 
BRANCH   5   6
ATOM      6  C   UNL     1      28.209  16.787  -1.042  1.00  0.00     0.006 C 
BRANCH   6   7
ATOM      7  C   UNL     1      29.704  16.482  -1.207  1.00  0.00     0.053 C 
BRANCH   7   8
ATOM      8  C   UNL     1      29.950  15.471  -2.285  1.00  0.00     0.041 C 
ATOM      9  O   UNL     1      31.118  15.272  -2.713  1.00  0.00    -0.550 OA
ATOM     10  O   UNL     1      28.893  14.730  -2.799  1.00  0.00    -0.550 OA
ENDBRANCH   7   8
ENDBRANCH   6   7
ENDBRANCH   5   6
ENDBRANCH   4   5
ENDBRANCH   3   4
ENDBRANCH   2   3
ENDBRANCH   1   2
BRANCH   1  11
ATOM     11  C   UNL     1      30.898  18.000   4.927  1.00  0.00    -0.031 C 
ATOM     12  C   UNL     1      30.915  17.169   5.985  1.00  0.00    -0.027 C 
BRANCH  12  13
ATOM     13  C   UNL     1      29.699  16.767   6.781  1.00  0.00     0.054 C 
BRANCH  13  14
ATOM     14  C   UNL     1      29.767  15.317   7.191  1.00  0.00    -0.027 C 
ATOM     15  C   UNL     1      29.035  14.762   8.176  1.00  0.00    -0.031 C 
BRANCH  15  16
ATOM     16  C   UNL     1      27.976  15.482   8.973  1.00  0.00     0.027 C 
BRANCH  16  17
ATOM     17  C   UNL     1      28.581  16.437  10.015  1.00  0.00     0.004 C 
BRANCH  17  18
ATOM     18  C   UNL     1      28.309  17.932   9.748  1.00  0.00     0.000 C 
BRANCH  18  19
ATOM     19  C   UNL     1      28.296  18.824  11.002  1.00  0.00    -0.003 C 
ATOM     20  C   UNL     1      27.281  19.964  10.913  1.00  0.00     0.004 C 
ENDBRANCH  18  19
ENDBRANCH  17  18
ENDBRANCH  16  17
ENDBRANCH  15  16
ENDBRANCH  13  14
ENDBRANCH  12  13
ENDBRANCH   1  11
TORSDOF 14
ENDMDL
MODEL 2
REMARK VINA RESULT:     3.149      4.527      9.905
REMARK INTER + INTRA:           5.044
REMARK INTER:                   4.615
REMARK INTRA:                   0.429
REMARK UNBOUND:                -0.682
REMARK SMILES CCCCCC=CCC=CCCCCCCCC(=O)[O-]
REMARK SMILES IDX 11 1 12 2 13 3 14 4 15 5 16 6 17 7 18 8 19 9 20 10 10 11
REMARK SMILES IDX 9 12 8 13 7 14 6 15 5 16 4 17 3 18 2 19 1 20
REMARK H PARENT
REMARK Flexibility Score: inf
ROOT
ATOM      1  C   UNL     1      30.246  16.739   5.821  1.00  0.00     0.027 C 
ENDROOT
BRANCH   1   2
ATOM      2  C   UNL     1      29.897  16.670   7.316  1.00  0.00     0.004 C 
BRANCH   2   3
ATOM      3  C   UNL     1      29.839  15.224   7.831  1.00  0.00     0.000 C 
BRANCH   3   4
ATOM      4  C   UNL     1      28.458  14.910   8.427  1.00  0.00     0.000 C 
BRANCH   4   5
ATOM      5  C   UNL     1      28.125  15.787   9.644  1.00  0.00     0.000 C 
BRANCH   5   6
ATOM      6  C   UNL     1      28.697  17.210   9.522  1.00  0.00     0.006 C 
BRANCH   6   7
ATOM      7  C   UNL     1      28.344  18.082  10.735  1.00  0.00     0.053 C 
BRANCH   7   8
ATOM      8  C   UNL     1      27.602  19.320  10.334  1.00  0.00     0.041 C 
ATOM      9  O   UNL     1      26.893  19.326   9.293  1.00  0.00    -0.550 OA
ATOM     10  O   UNL     1      27.673  20.460  11.125  1.00  0.00    -0.550 OA
ENDBRANCH   7   8
ENDBRANCH   6   7
ENDBRANCH   5   6
ENDBRANCH   4   5
ENDBRANCH   3   4
ENDBRANCH   2   3
ENDBRANCH   1   2
BRANCH   1  11
ATOM     11  C   UNL     1      30.652  18.131   5.400  1.00  0.00    -0.031 C 
ATOM     12  C   UNL     1      30.239  18.743   4.275  1.00  0.00    -0.027 C 
BRANCH  12  13
ATOM     13  C   UNL     1      29.244  18.167   3.299  1.00  0.00     0.054 C 
BRANCH  13  14
ATOM     14  C   UNL     1      29.026  19.093   2.128  1.00  0.00    -0.027 C 
ATOM     15  C   UNL     1      28.730  18.693   0.877  1.00  0.00    -0.031 C 
BRANCH  15  16
ATOM     16  C   UNL     1      28.492  17.261   0.464  1.00  0.00     0.027 C 
BRANCH  16  17
ATOM     17  C   UNL     1      28.499  17.087  -1.064  1.00  0.00     0.004 C 
BRANCH  17  18
ATOM     18  C   UNL     1      28.567  15.622  -1.541  1.00  0.00     0.000 C 
BRANCH  18  19
ATOM     19  C   UNL     1      29.585  15.351  -2.663  1.00  0.00    -0.003 C 
ATOM     20  C   UNL     1      31.034  15.424  -2.186  1.00  0.00     0.004 C 
ENDBRANCH  18  19
ENDBRANCH  17  18
ENDBRANCH  16  17
ENDBRANCH  15  16
ENDBRANCH  13  14
ENDBRANCH  12  13
ENDBRANCH   1  11
TORSDOF 14
ENDMDL
MODEL 3
REMARK VINA RESULT:     3.435      4.600      9.930
REMARK INTER + INTRA:           5.564
REMARK INTER:                   6.471
REMARK INTRA:                  -0.907
REMARK UNBOUND:                -0.682
REMARK SMILES CCCCCC=CCC=CCCCCCCCC(=O)[O-]
REMARK SMILES IDX 11 1 12 2 13 3 14 4 15 5 16 6 17 7 18 8 19 9 20 10 10 11
REMARK SMILES IDX 9 12 8 13 7 14 6 15 5 16 4 17 3 18 2 19 1 20
REMARK H PARENT
REMARK Flexibility Score: inf
ROOT
ATOM      1  C   UNL     1      30.876  18.365   4.553  1.00  0.00     0.027 C 
ENDROOT
BRANCH   1   2
ATOM      2  C   UNL     1      31.391  17.523   5.730  1.00  0.00     0.004 C 
BRANCH   2   3
ATOM      3  C   UNL     1      30.295  16.625   6.324  1.00  0.00     0.000 C 
BRANCH   3   4
ATOM      4  C   UNL     1      30.300  16.698   7.859  1.00  0.00     0.000 C 
BRANCH   4   5
ATOM      5  C   UNL     1      29.554  15.523   8.510  1.00  0.00     0.000 C 
BRANCH   5   6
ATOM      6  C   UNL     1      28.362  15.982   9.367  1.00  0.00     0.006 C 
BRANCH   6   7
ATOM      7  C   UNL     1      28.047  17.472   9.171  1.00  0.00     0.053 C 
BRANCH   7   8
ATOM      8  C   UNL     1      28.330  18.268  10.408  1.00  0.00     0.041 C 
ATOM      9  O   UNL     1      29.328  17.994  11.125  1.00  0.00    -0.550 OA
ATOM     10  O   UNL     1      27.506  19.331  10.754  1.00  0.00    -0.550 OA
ENDBRANCH   7   8
ENDBRANCH   6   7
ENDBRANCH   5   6
ENDBRANCH   4   5
ENDBRANCH   3   4
ENDBRANCH   2   3
ENDBRANCH   1   2
BRANCH   1  11
ATOM     11  C   UNL     1      29.405  18.140   4.299  1.00  0.00    -0.031 C 
ATOM     12  C   UNL     1      28.794  18.325   3.115  1.00  0.00    -0.027 C 
BRANCH  12  13
ATOM     13  C   UNL     1      29.496  18.710   1.836  1.00  0.00     0.054 C 
BRANCH  13  14
ATOM     14  C   UNL     1      28.508  19.066   0.754  1.00  0.00    -0.027 C 
ATOM     15  C   UNL     1      28.096  18.227  -0.216  1.00  0.00    -0.031 C 
BRANCH  15  16
ATOM     16  C   UNL     1      28.496  16.777  -0.328  1.00  0.00     0.027 C 
BRANCH  16  17
ATOM     17  C   UNL     1      28.066  16.156  -1.668  1.00  0.00     0.004 C 
BRANCH  17  18
ATOM     18  C   UNL     1      29.063  15.131  -2.248  1.00  0.00     0.000 C 
BRANCH  18  19
ATOM     19  C   UNL     1      30.314  15.741  -2.903  1.00  0.00    -0.003 C 
ATOM     20  C   UNL     1      31.610  15.062  -2.463  1.00  0.00     0.004 C 
ENDBRANCH  18  19
ENDBRANCH  17  18
ENDBRANCH  16  17
ENDBRANCH  15  16
ENDBRANCH  13  14
ENDBRANCH  12  13
ENDBRANCH   1  11
TORSDOF 14
ENDMDL
MODEL 4
REMARK VINA RESULT:     4.119      3.981      9.600
REMARK INTER + INTRA:           6.808
REMARK INTER:                   7.147
REMARK INTRA:                  -0.339
REMARK UNBOUND:                -0.682
REMARK SMILES CCCCCC=CCC=CCCCCCCCC(=O)[O-]
REMARK SMILES IDX 11 1 12 2 13 3 14 4 15 5 16 6 17 7 18 8 19 9 20 10 10 11
REMARK SMILES IDX 9 12 8 13 7 14 6 15 5 16 4 17 3 18 2 19 1 20
REMARK H PARENT
REMARK Flexibility Score: inf
ROOT
ATOM      1  C   UNL     1      30.477  18.808   4.159  1.00  0.00     0.027 C 
ENDROOT
BRANCH   1   2
ATOM      2  C   UNL     1      31.108  18.379   5.493  1.00  0.00     0.004 C 
BRANCH   2   3
ATOM      3  C   UNL     1      30.807  16.911   5.831  1.00  0.00     0.000 C 
BRANCH   3   4
ATOM      4  C   UNL     1      29.824  16.810   7.007  1.00  0.00     0.000 C 
BRANCH   4   5
ATOM      5  C   UNL     1      30.525  16.865   8.373  1.00  0.00     0.000 C 
BRANCH   5   6
ATOM      6  C   UNL     1      29.534  16.825   9.549  1.00  0.00     0.006 C 
BRANCH   6   7
ATOM      7  C   UNL     1      28.165  16.268   9.134  1.00  0.00     0.053 C 
BRANCH   7   8
ATOM      8  C   UNL     1      28.197  14.780   8.967  1.00  0.00     0.041 C 
ATOM      9  O   UNL     1      27.152  14.155   8.648  1.00  0.00    -0.550 OA
ATOM     10  O   UNL     1      29.388  14.086   9.139  1.00  0.00    -0.550 OA
ENDBRANCH   7   8
ENDBRANCH   6   7
ENDBRANCH   5   6
ENDBRANCH   4   5
ENDBRANCH   3   4
ENDBRANCH   2   3
ENDBRANCH   1   2
BRANCH   1  11
ATOM     11  C   UNL     1      29.233  18.014   3.842  1.00  0.00    -0.031 C 
ATOM     12  C   UNL     1      28.596  18.027   2.656  1.00  0.00    -0.027 C 
BRANCH  12  13
ATOM     13  C   UNL     1      29.070  18.776   1.435  1.00  0.00     0.054 C 
BRANCH  13  14
ATOM     14  C   UNL     1      28.013  18.790   0.358  1.00  0.00    -0.027 C 
ATOM     15  C   UNL     1      27.900  17.869  -0.619  1.00  0.00    -0.031 C 
BRANCH  15  16
ATOM     16  C   UNL     1      28.761  16.637  -0.745  1.00  0.00     0.027 C 
BRANCH  16  17
ATOM     17  C   UNL     1      28.321  15.736  -1.912  1.00  0.00     0.004 C 
BRANCH  17  18
ATOM     18  C   UNL     1      29.477  15.019  -2.638  1.00  0.00     0.000 C 
BRANCH  18  19
ATOM     19  C   UNL     1      30.879  15.578  -2.337  1.00  0.00    -0.003 C 
ATOM     20  C   UNL     1      32.000  14.737  -2.946  1.00  0.00     0.004 C 
ENDBRANCH  18  19
ENDBRANCH  17  18
ENDBRANCH  16  17
ENDBRANCH  15  16
ENDBRANCH  13  14
ENDBRANCH  12  13
ENDBRANCH   1  11
TORSDOF 14
ENDMDL
MODEL 5
REMARK VINA RESULT:     4.438      1.353      2.401
REMARK INTER + INTRA:           7.388
REMARK INTER:                   8.332
REMARK INTRA:                  -0.945
REMARK UNBOUND:                -0.682
REMARK SMILES CCCCCC=CCC=CCCCCCCCC(=O)[O-]
REMARK SMILES IDX 11 1 12 2 13 3 14 4 15 5 16 6 17 7 18 8 19 9 20 10 10 11
REMARK SMILES IDX 9 12 8 13 7 14 6 15 5 16 4 17 3 18 2 19 1 20
REMARK H PARENT
REMARK Flexibility Score: inf
ROOT
ATOM      1  C   UNL     1      29.373  18.848   4.018  1.00  0.00     0.027 C 
ENDROOT
BRANCH   1   2
ATOM      2  C   UNL     1      28.814  18.007   2.860  1.00  0.00     0.004 C 
BRANCH   2   3
ATOM      3  C   UNL     1      29.135  18.622   1.489  1.00  0.00     0.000 C 
BRANCH   3   4
ATOM      4  C   UNL     1      27.869  18.726   0.626  1.00  0.00     0.000 C 
BRANCH   4   5
ATOM      5  C   UNL     1      28.000  17.980  -0.711  1.00  0.00     0.000 C 
BRANCH   5   6
ATOM      6  C   UNL     1      28.764  16.651  -0.574  1.00  0.00     0.006 C 
BRANCH   6   7
ATOM      7  C   UNL     1      28.657  15.789  -1.839  1.00  0.00     0.053 C 
BRANCH   7   8
ATOM      8  C   UNL     1      30.001  15.501  -2.433  1.00  0.00     0.041 C 
ATOM      9  O   UNL     1      30.114  15.265  -3.665  1.00  0.00    -0.550 OA
ATOM     10  O   UNL     1      31.135  15.520  -1.630  1.00  0.00    -0.550 OA
ENDBRANCH   7   8
ENDBRANCH   6   7
ENDBRANCH   5   6
ENDBRANCH   4   5
ENDBRANCH   3   4
ENDBRANCH   2   3
ENDBRANCH   1   2
BRANCH   1  11
ATOM     11  C   UNL     1      30.753  18.395   4.430  1.00  0.00    -0.031 C 
ATOM     12  C   UNL     1      31.020  17.626   5.501  1.00  0.00    -0.027 C 
BRANCH  12  13
ATOM     13  C   UNL     1      29.976  17.029   6.412  1.00  0.00     0.054 C 
BRANCH  13  14
ATOM     14  C   UNL     1      30.606  16.411   7.636  1.00  0.00    -0.027 C 
ATOM     15  C   UNL     1      30.085  16.461   8.876  1.00  0.00    -0.031 C 
BRANCH  15  16
ATOM     16  C   UNL     1      28.751  17.074   9.227  1.00  0.00     0.027 C 
BRANCH  16  17
ATOM     17  C   UNL     1      27.813  16.071   9.919  1.00  0.00     0.004 C 
BRANCH  17  18
ATOM     18  C   UNL     1      28.070  14.595   9.552  1.00  0.00     0.000 C 
BRANCH  18  19
ATOM     19  C   UNL     1      27.387  14.120   8.257  1.00  0.00    -0.003 C 
ATOM     20  C   UNL     1      25.941  13.677   8.473  1.00  0.00     0.004 C 
ENDBRANCH  18  19
ENDBRANCH  17  18
ENDBRANCH  16  17
ENDBRANCH  15  16
ENDBRANCH  13  14
ENDBRANCH  12  13
ENDBRANCH   1  11
TORSDOF 14
ENDMDL
MODEL 6
REMARK VINA RESULT:     5.466      1.824      3.106
REMARK INTER + INTRA:           9.258
REMARK INTER:                   9.748
REMARK INTRA:                  -0.489
REMARK UNBOUND:                -0.682
REMARK SMILES CCCCCC=CCC=CCCCCCCCC(=O)[O-]
REMARK SMILES IDX 11 1 12 2 13 3 14 4 15 5 16 6 17 7 18 8 19 9 20 10 10 11
REMARK SMILES IDX 9 12 8 13 7 14 6 15 5 16 4 17 3 18 2 19 1 20
REMARK H PARENT
REMARK Flexibility Score: inf
ROOT
ATOM      1  C   UNL     1      29.573  19.203   1.566  1.00  0.00     0.027 C 
ENDROOT
BRANCH   1   2
ATOM      2  C   UNL     1      29.039  19.348   0.132  1.00  0.00     0.004 C 
BRANCH   2   3
ATOM      3  C   UNL     1      27.872  18.391  -0.151  1.00  0.00     0.000 C 
BRANCH   3   4
ATOM      4  C   UNL     1      28.384  16.970  -0.431  1.00  0.00     0.000 C 
BRANCH   4   5
ATOM      5  C   UNL     1      27.798  16.371  -1.719  1.00  0.00     0.000 C 
BRANCH   5   6
ATOM      6  C   UNL     1      28.502  15.069  -2.139  1.00  0.00     0.006 C 
BRANCH   6   7
ATOM      7  C   UNL     1      29.957  15.015  -1.653  1.00  0.00     0.053 C 
BRANCH   7   8
ATOM      8  C   UNL     1      30.922  15.357  -2.745  1.00  0.00     0.041 C 
ATOM      9  O   UNL     1      30.631  16.238  -3.597  1.00  0.00    -0.550 OA
ATOM     10  O   UNL     1      32.156  14.722  -2.807  1.00  0.00    -0.550 OA
ENDBRANCH   7   8
ENDBRANCH   6   7
ENDBRANCH   5   6
ENDBRANCH   4   5
ENDBRANCH   3   4
ENDBRANCH   2   3
ENDBRANCH   1   2
BRANCH   1  11
ATOM     11  C   UNL     1      28.792  18.182   2.359  1.00  0.00    -0.031 C 
ATOM     12  C   UNL     1      28.923  17.974   3.682  1.00  0.00    -0.027 C 
BRANCH  12  13
ATOM     13  C   UNL     1      29.813  18.782   4.594  1.00  0.00     0.054 C 
BRANCH  13  14
ATOM     14  C   UNL     1      31.024  17.989   5.019  1.00  0.00    -0.027 C 
ATOM     15  C   UNL     1      31.044  17.098   6.028  1.00  0.00    -0.031 C 
BRANCH  15  16
ATOM     16  C   UNL     1      29.840  16.692   6.843  1.00  0.00     0.027 C 
BRANCH  16  17
ATOM     17  C   UNL     1      30.133  16.690   8.353  1.00  0.00     0.004 C 
BRANCH  17  18
ATOM     18  C   UNL     1      29.495  15.518   9.127  1.00  0.00     0.000 C 
BRANCH  18  19
ATOM     19  C   UNL     1      28.410  14.745   8.357  1.00  0.00    -0.003 C 
ATOM     20  C   UNL     1      27.229  14.337   9.236  1.00  0.00     0.004 C 
ENDBRANCH  18  19
ENDBRANCH  17  18
ENDBRANCH  16  17
ENDBRANCH  15  16
ENDBRANCH  13  14
ENDBRANCH  12  13
ENDBRANCH   1  11
TORSDOF 14
ENDMDL
MODEL 7
REMARK VINA RESULT:     5.475      4.005      9.125
REMARK INTER + INTRA:           9.275
REMARK INTER:                   9.893
REMARK INTRA:                  -0.619
REMARK UNBOUND:                -0.682
REMARK SMILES CCCCCC=CCC=CCCCCCCCC(=O)[O-]
REMARK SMILES IDX 11 1 12 2 13 3 14 4 15 5 16 6 17 7 18 8 19 9 20 10 10 11
REMARK SMILES IDX 9 12 8 13 7 14 6 15 5 16 4 17 3 18 2 19 1 20
REMARK H PARENT
REMARK Flexibility Score: inf
ROOT
ATOM      1  C   UNL     1      29.982  17.258   6.511  1.00  0.00     0.027 C 
ENDROOT
BRANCH   1   2
ATOM      2  C   UNL     1      30.090  15.837   7.084  1.00  0.00     0.004 C 
BRANCH   2   3
ATOM      3  C   UNL     1      30.229  15.838   8.614  1.00  0.00     0.000 C 
BRANCH   3   4
ATOM      4  C   UNL     1      29.271  16.858   9.249  1.00  0.00     0.000 C 
BRANCH   4   5
ATOM      5  C   UNL     1      27.905  16.248   9.601  1.00  0.00     0.000 C 
BRANCH   5   6
ATOM      6  C   UNL     1      27.897  14.713   9.493  1.00  0.00     0.006 C 
BRANCH   6   7
ATOM      7  C   UNL     1      27.244  14.228   8.191  1.00  0.00     0.053 C 
BRANCH   7   8
ATOM      8  C   UNL     1      25.867  13.688   8.428  1.00  0.00     0.041 C 
ATOM      9  O   UNL     1      25.015  14.372   9.054  1.00  0.00    -0.550 OA
ATOM     10  O   UNL     1      25.515  12.438   7.932  1.00  0.00    -0.550 OA
ENDBRANCH   7   8
ENDBRANCH   6   7
ENDBRANCH   5   6
ENDBRANCH   4   5
ENDBRANCH   3   4
ENDBRANCH   2   3
ENDBRANCH   1   2
BRANCH   1  11
ATOM     11  C   UNL     1      31.140  17.590   5.599  1.00  0.00    -0.031 C 
ATOM     12  C   UNL     1      31.038  18.284   4.452  1.00  0.00    -0.027 C 
BRANCH  12  13
ATOM     13  C   UNL     1      29.766  18.909   3.935  1.00  0.00     0.054 C 
BRANCH  13  14
ATOM     14  C   UNL     1      28.812  17.861   3.417  1.00  0.00    -0.027 C 
ATOM     15  C   UNL     1      28.414  17.751   2.136  1.00  0.00    -0.031 C 
BRANCH  15  16
ATOM     16  C   UNL     1      28.917  18.607   1.000  1.00  0.00     0.027 C 
BRANCH  16  17
ATOM     17  C   UNL     1      28.513  18.048  -0.374  1.00  0.00     0.004 C 
BRANCH  17  18
ATOM     18  C   UNL     1      28.607  16.513  -0.494  1.00  0.00     0.000 C 
BRANCH  18  19
ATOM     19  C   UNL     1      28.856  15.986  -1.918  1.00  0.00    -0.003 C 
ATOM     20  C   UNL     1      30.234  15.348  -2.088  1.00  0.00     0.004 C 
ENDBRANCH  18  19
ENDBRANCH  17  18
ENDBRANCH  16  17
ENDBRANCH  15  16
ENDBRANCH  13  14
ENDBRANCH  12  13
ENDBRANCH   1  11
TORSDOF 14
ENDMDL
MODEL 8
REMARK VINA RESULT:     5.897      5.908      9.939
REMARK INTER + INTRA:          10.042
REMARK INTER:                  10.578
REMARK INTRA:                  -0.536
REMARK UNBOUND:                -0.682
REMARK SMILES CCCCCC=CCC=CCCCCCCCC(=O)[O-]
REMARK SMILES IDX 11 1 12 2 13 3 14 4 15 5 16 6 17 7 18 8 19 9 20 10 10 11
REMARK SMILES IDX 9 12 8 13 7 14 6 15 5 16 4 17 3 18 2 19 1 20
REMARK H PARENT
REMARK Flexibility Score: inf
ROOT
ATOM      1  C   UNL     1      28.796  14.619   8.529  1.00  0.00     0.027 C 
ENDROOT
BRANCH   1   2
ATOM      2  C   UNL     1      27.381  14.528   9.122  1.00  0.00     0.004 C 
BRANCH   2   3
ATOM      3  C   UNL     1      26.444  13.672   8.256  1.00  0.00     0.000 C 
BRANCH   3   4
ATOM      4  C   UNL     1      25.032  13.625   8.860  1.00  0.00     0.000 C 
BRANCH   4   5
ATOM      5  C   UNL     1      24.208  12.435   8.344  1.00  0.00     0.000 C 
BRANCH   5   6
ATOM      6  C   UNL     1      23.442  11.715   9.468  1.00  0.00     0.006 C 
BRANCH   6   7
ATOM      7  C   UNL     1      22.146  11.066   8.962  1.00  0.00     0.053 C 
BRANCH   7   8
ATOM      8  C   UNL     1      21.915   9.724   9.586  1.00  0.00     0.041 C 
ATOM      9  O   UNL     1      22.015   8.676   8.894  1.00  0.00    -0.550 OA
ATOM     10  O   UNL     1      21.615   9.629  10.939  1.00  0.00    -0.550 OA
ENDBRANCH   7   8
ENDBRANCH   6   7
ENDBRANCH   5   6
ENDBRANCH   4   5
ENDBRANCH   3   4
ENDBRANCH   2   3
ENDBRANCH   1   2
BRANCH   1  11
ATOM     11  C   UNL     1      29.477  15.917   8.891  1.00  0.00    -0.031 C 
ATOM     12  C   UNL     1      29.983  16.792   8.003  1.00  0.00    -0.027 C 
BRANCH  12  13
ATOM     13  C   UNL     1      29.879  16.652   6.504  1.00  0.00     0.054 C 
BRANCH  13  14
ATOM     14  C   UNL     1      30.957  17.443   5.805  1.00  0.00    -0.027 C 
ATOM     15  C   UNL     1      30.752  18.252   4.748  1.00  0.00    -0.031 C 
BRANCH  15  16
ATOM     16  C   UNL     1      29.403  18.558   4.146  1.00  0.00     0.027 C 
BRANCH  16  17
ATOM     17  C   UNL     1      29.479  18.768   2.624  1.00  0.00     0.004 C 
BRANCH  17  18
ATOM     18  C   UNL     1      28.490  17.910   1.809  1.00  0.00     0.000 C 
BRANCH  18  19
ATOM     19  C   UNL     1      28.445  18.224   0.303  1.00  0.00    -0.003 C 
ATOM     20  C   UNL     1      28.550  16.976  -0.571  1.00  0.00     0.004 C 
ENDBRANCH  18  19
ENDBRANCH  17  18
ENDBRANCH  16  17
ENDBRANCH  15  16
ENDBRANCH  13  14
ENDBRANCH  12  13
ENDBRANCH   1  11
TORSDOF 14
ENDMDL
