MODEL 1
REMARK VINA RESULT:    -6.619      0.000      0.000
REMARK INTER + INTRA:         -10.143
REMARK INTER:                  -8.941
REMARK INTRA:                  -1.202
REMARK UNBOUND:                -1.202
REMARK SMILES CC[C@@H](CC[C@H](C)[C@@H]1CC[C@@H]2[C@H]3CC(=O)C4=CC(=O)CC[C@@]4(C)[C@@H]3CC[C@@]21C)C(C)C
REMARK SMILES IDX 4 1 3 2 2 3 1 4 29 5 30 6 31 7 5 8 6 9 7 10 8 11 9 12 27 13
REMARK SMILES IDX 10 14 11 15 26 16 28 17 12 18 25 19 24 20 13 21 22 22 14 23
REMARK SMILES IDX 16 24 21 25 23 26 15 27 17 28 20 29 18 30 19 31
REMARK H PARENT
REMARK Flexibility Score: inf
ROOT
ATOM      1  C   UNL     1      16.651  23.338  32.323  1.00  0.00     0.004 C 
ENDROOT
BRANCH   1   2
ATOM      2  C   UNL     1      17.133  22.027  33.002  1.00  0.00    -0.009 C 
BRANCH   2   3
ATOM      3  C   UNL     1      18.336  22.227  33.977  1.00  0.00     0.000 C 
ATOM      4  C   UNL     1      18.294  23.485  34.855  1.00  0.00     0.004 C 
ENDBRANCH   2   3
BRANCH   2   5
ATOM      5  C   UNL     1      17.323  20.876  31.958  1.00  0.00    -0.014 C 
ATOM      6  C   UNL     1      17.231  21.330  30.495  1.00  0.00     0.007 C 
ATOM      7  C   UNL     1      18.626  20.091  32.187  1.00  0.00     0.007 C 
ENDBRANCH   2   5
ENDBRANCH   1   2
BRANCH   1   8
ATOM      8  C   UNL     1      15.284  23.813  32.860  1.00  0.00     0.004 C 
BRANCH   8   9
ATOM      9  C   UNL     1      15.247  25.344  33.134  1.00  0.00    -0.011 C 
ATOM     10  C   UNL     1      15.023  25.583  34.639  1.00  0.00     0.008 C 
BRANCH   9  11
ATOM     11  C   UNL     1      14.143  26.040  32.255  1.00  0.00    -0.002 C 
ATOM     12  C   UNL     1      13.045  25.056  31.810  1.00  0.00     0.005 C 
ATOM     13  C   UNL     1      14.571  26.782  30.938  1.00  0.00    -0.026 C 
ATOM     14  C   UNL     1      12.528  25.539  30.459  1.00  0.00     0.005 C 
ATOM     15  C   UNL     1      13.223  26.876  30.178  1.00  0.00    -0.001 C 
ATOM     16  C   UNL     1      15.628  25.954  30.115  1.00  0.00     0.007 C 
ATOM     17  C   UNL     1      15.082  28.219  31.259  1.00  0.00     0.012 C 
ATOM     18  C   UNL     1      13.298  27.209  28.646  1.00  0.00     0.004 C 
ATOM     19  C   UNL     1      15.456  25.944  28.581  1.00  0.00     0.005 C 
ATOM     20  C   UNL     1      14.753  27.211  28.070  1.00  0.00     0.003 C 
ATOM     21  C   UNL     1      12.553  28.522  28.318  1.00  0.00     0.085 C 
ATOM     22  C   UNL     1      14.767  27.424  26.503  1.00  0.00    -0.000 C 
ATOM     23  C   UNL     1      12.697  28.894  26.871  1.00  0.00     0.159 C 
ATOM     24  C   UNL     1      14.017  28.738  26.242  1.00  0.00     0.005 C 
ATOM     25  C   UNL     1      16.215  27.479  25.896  1.00  0.00     0.020 C 
ATOM     26  C   UNL     1      14.022  26.285  25.756  1.00  0.00     0.017 C 
ATOM     27  O   UNL     1      11.748  29.450  26.254  1.00  0.00    -0.295 OA
ATOM     28  C   UNL     1      14.613  29.843  25.759  1.00  0.00     0.055 C 
ATOM     29  C   UNL     1      16.922  28.811  26.130  1.00  0.00     0.081 C 
ATOM     30  C   UNL     1      16.068  29.909  25.585  1.00  0.00     0.156 C 
ATOM     31  O   UNL     1      16.597  30.924  25.059  1.00  0.00    -0.295 OA
ENDBRANCH   9  11
ENDBRANCH   8   9
ENDBRANCH   1   8
TORSDOF 6
ENDMDL
MODEL 2
REMARK VINA RESULT:    -6.369      1.946      4.248
REMARK INTER + INTRA:          -9.805
REMARK INTER:                  -9.101
REMARK INTRA:                  -0.703
REMARK UNBOUND:                -1.202
REMARK SMILES CC[C@@H](CC[C@H](C)[C@@H]1CC[C@@H]2[C@H]3CC(=O)C4=CC(=O)CC[C@@]4(C)[C@@H]3CC[C@@]21C)C(C)C
REMARK SMILES IDX 4 1 3 2 2 3 1 4 29 5 30 6 31 7 5 8 6 9 7 10 8 11 9 12 27 13
REMARK SMILES IDX 10 14 11 15 26 16 28 17 12 18 25 19 24 20 13 21 22 22 14 23
REMARK SMILES IDX 16 24 21 25 23 26 15 27 17 28 20 29 18 30 19 31
REMARK H PARENT
REMARK Flexibility Score: inf
ROOT
ATOM      1  C   UNL     1      16.624  23.835  31.375  1.00  0.00     0.004 C 
ENDROOT
BRANCH   1   2
ATOM      2  C   UNL     1      17.647  23.191  32.349  1.00  0.00    -0.009 C 
BRANCH   2   3
ATOM      3  C   UNL     1      17.604  21.630  32.367  1.00  0.00     0.000 C 
ATOM      4  C   UNL     1      18.077  20.925  31.088  1.00  0.00     0.004 C 
ENDBRANCH   2   3
BRANCH   2   5
ATOM      5  C   UNL     1      17.594  23.862  33.763  1.00  0.00    -0.014 C 
ATOM      6  C   UNL     1      16.174  24.117  34.287  1.00  0.00     0.007 C 
ATOM      7  C   UNL     1      18.411  23.082  34.808  1.00  0.00     0.007 C 
ENDBRANCH   2   5
ENDBRANCH   1   2
BRANCH   1   8
ATOM      8  C   UNL     1      17.037  25.259  30.942  1.00  0.00     0.004 C 
BRANCH   8   9
ATOM      9  C   UNL     1      15.830  26.110  30.452  1.00  0.00    -0.011 C 
ATOM     10  C   UNL     1      14.567  25.690  31.227  1.00  0.00     0.008 C 
BRANCH   9  11
ATOM     11  C   UNL     1      15.643  25.966  28.896  1.00  0.00    -0.002 C 
ATOM     12  C   UNL     1      16.887  26.427  28.114  1.00  0.00     0.005 C 
ATOM     13  C   UNL     1      14.441  26.698  28.200  1.00  0.00    -0.026 C 
ATOM     14  C   UNL     1      16.400  26.973  26.775  1.00  0.00     0.005 C 
ATOM     15  C   UNL     1      14.892  26.705  26.718  1.00  0.00    -0.001 C 
ATOM     16  C   UNL     1      14.253  28.165  28.743  1.00  0.00     0.007 C 
ATOM     17  C   UNL     1      13.133  25.859  28.336  1.00  0.00     0.012 C 
ATOM     18  C   UNL     1      14.139  27.691  25.755  1.00  0.00     0.004 C 
ATOM     19  C   UNL     1      13.904  29.248  27.700  1.00  0.00     0.005 C 
ATOM     20  C   UNL     1      13.159  28.666  26.489  1.00  0.00     0.003 C 
ATOM     21  C   UNL     1      13.436  26.931  24.608  1.00  0.00     0.085 C 
ATOM     22  C   UNL     1      12.523  29.721  25.496  1.00  0.00    -0.000 C 
ATOM     23  C   UNL     1      12.640  27.858  23.736  1.00  0.00     0.159 C 
ATOM     24  C   UNL     1      11.842  28.907  24.386  1.00  0.00     0.005 C 
ATOM     25  C   UNL     1      11.497  30.687  26.190  1.00  0.00     0.020 C 
ATOM     26  C   UNL     1      13.602  30.625  24.842  1.00  0.00     0.017 C 
ATOM     27  O   UNL     1      12.553  27.654  22.495  1.00  0.00    -0.295 OA
ATOM     28  C   UNL     1      10.510  28.882  24.204  1.00  0.00     0.055 C 
ATOM     29  C   UNL     1      10.138  30.043  26.451  1.00  0.00     0.081 C 
ATOM     30  C   UNL     1       9.598  29.522  25.159  1.00  0.00     0.156 C 
ATOM     31  O   UNL     1       8.360  29.552  24.928  1.00  0.00    -0.295 OA
ENDBRANCH   9  11
ENDBRANCH   8   9
ENDBRANCH   1   8
TORSDOF 6
ENDMDL
MODEL 3
REMARK VINA RESULT:    -6.235      1.747      3.481
REMARK INTER + INTRA:          -9.624
REMARK INTER:                  -8.237
REMARK INTRA:                  -1.388
REMARK UNBOUND:                -1.202
REMARK SMILES CC[C@@H](CC[C@H](C)[C@@H]1CC[C@@H]2[C@H]3CC(=O)C4=CC(=O)CC[C@@]4(C)[C@@H]3CC[C@@]21C)C(C)C
REMARK SMILES IDX 4 1 3 2 2 3 1 4 29 5 30 6 31 7 5 8 6 9 7 10 8 11 9 12 27 13
REMARK SMILES IDX 10 14 11 15 26 16 28 17 12 18 25 19 24 20 13 21 22 22 14 23
REMARK SMILES IDX 16 24 21 25 23 26 15 27 17 28 20 29 18 30 19 31
REMARK H PARENT
REMARK Flexibility Score: inf
ROOT
ATOM      1  C   UNL     1      15.276  23.971  33.599  1.00  0.00     0.004 C 
ENDROOT
BRANCH   1   2
ATOM      2  C   UNL     1      16.781  23.595  33.673  1.00  0.00    -0.009 C 
BRANCH   2   3
ATOM      3  C   UNL     1      17.745  24.812  33.500  1.00  0.00     0.000 C 
ATOM      4  C   UNL     1      18.545  25.222  34.745  1.00  0.00     0.004 C 
ENDBRANCH   2   3
BRANCH   2   5
ATOM      5  C   UNL     1      17.112  22.367  32.760  1.00  0.00    -0.014 C 
ATOM      6  C   UNL     1      17.242  22.707  31.269  1.00  0.00     0.007 C 
ATOM      7  C   UNL     1      18.359  21.604  33.239  1.00  0.00     0.007 C 
ENDBRANCH   2   5
ENDBRANCH   1   2
BRANCH   1   8
ATOM      8  C   UNL     1      15.055  25.475  33.328  1.00  0.00     0.004 C 
BRANCH   8   9
ATOM      9  C   UNL     1      13.804  25.748  32.445  1.00  0.00    -0.011 C 
ATOM     10  C   UNL     1      12.682  24.770  32.843  1.00  0.00     0.008 C 
BRANCH   9  11
ATOM     11  C   UNL     1      14.166  25.640  30.918  1.00  0.00    -0.002 C 
ATOM     12  C   UNL     1      15.625  26.044  30.634  1.00  0.00     0.005 C 
ATOM     13  C   UNL     1      13.318  26.449  29.873  1.00  0.00    -0.026 C 
ATOM     14  C   UNL     1      15.663  26.638  29.230  1.00  0.00     0.005 C 
ATOM     15  C   UNL     1      14.259  26.456  28.641  1.00  0.00    -0.001 C 
ATOM     16  C   UNL     1      13.022  27.916  30.367  1.00  0.00     0.007 C 
ATOM     17  C   UNL     1      12.008  25.682  29.516  1.00  0.00     0.012 C 
ATOM     18  C   UNL     1      13.937  27.498  27.512  1.00  0.00     0.004 C 
ATOM     19  C   UNL     1      13.109  29.033  29.306  1.00  0.00     0.005 C 
ATOM     20  C   UNL     1      12.808  28.513  27.892  1.00  0.00     0.003 C 
ATOM     21  C   UNL     1      13.645  26.797  26.166  1.00  0.00     0.085 C 
ATOM     22  C   UNL     1      12.610  29.618  26.778  1.00  0.00    -0.000 C 
ATOM     23  C   UNL     1      13.248  27.781  25.104  1.00  0.00     0.159 C 
ATOM     24  C   UNL     1      12.322  28.863  25.472  1.00  0.00     0.005 C 
ATOM     25  C   UNL     1      11.452  30.629  27.104  1.00  0.00     0.020 C 
ATOM     26  C   UNL     1      13.890  30.472  26.572  1.00  0.00     0.017 C 
ATOM     27  O   UNL     1      13.591  27.603  23.904  1.00  0.00    -0.295 OA
ATOM     28  C   UNL     1      11.138  28.915  24.837  1.00  0.00     0.055 C 
ATOM     29  C   UNL     1      10.059  30.057  26.852  1.00  0.00     0.081 C 
ATOM     30  C   UNL     1       9.981  29.589  25.436  1.00  0.00     0.156 C 
ATOM     31  O   UNL     1       8.905  29.692  24.790  1.00  0.00    -0.295 OA
ENDBRANCH   9  11
ENDBRANCH   8   9
ENDBRANCH   1   8
TORSDOF 6
ENDMDL
MODEL 4
REMARK VINA RESULT:    -6.223      2.643      4.660
REMARK INTER + INTRA:          -9.608
REMARK INTER:                  -7.815
REMARK INTRA:                  -1.793
REMARK UNBOUND:                -1.202
REMARK SMILES CC[C@@H](CC[C@H](C)[C@@H]1CC[C@@H]2[C@H]3CC(=O)C4=CC(=O)CC[C@@]4(C)[C@@H]3CC[C@@]21C)C(C)C
REMARK SMILES IDX 4 1 3 2 2 3 1 4 29 5 30 6 31 7 5 8 6 9 7 10 8 11 9 12 27 13
REMARK SMILES IDX 10 14 11 15 26 16 28 17 12 18 25 19 24 20 13 21 22 22 14 23
REMARK SMILES IDX 16 24 21 25 23 26 15 27 17 28 20 29 18 30 19 31
REMARK H PARENT
REMARK Flexibility Score: inf
ROOT
ATOM      1  C   UNL     1      17.246  24.195  31.424  1.00  0.00     0.004 C 
ENDROOT
BRANCH   1   2
ATOM      2  C   UNL     1      17.225  23.278  32.676  1.00  0.00    -0.009 C 
BRANCH   2   3
ATOM      3  C   UNL     1      17.463  21.768  32.358  1.00  0.00     0.000 C 
ATOM      4  C   UNL     1      17.325  21.357  30.885  1.00  0.00     0.004 C 
ENDBRANCH   2   3
BRANCH   2   5
ATOM      5  C   UNL     1      15.977  23.565  33.578  1.00  0.00    -0.014 C 
ATOM      6  C   UNL     1      16.287  24.376  34.843  1.00  0.00     0.007 C 
ATOM      7  C   UNL     1      14.831  24.228  32.792  1.00  0.00     0.007 C 
ENDBRANCH   2   5
ENDBRANCH   1   2
BRANCH   1   8
ATOM      8  C   UNL     1      18.004  25.517  31.672  1.00  0.00     0.004 C 
BRANCH   8   9
ATOM      9  C   UNL     1      17.715  26.587  30.580  1.00  0.00    -0.011 C 
ATOM     10  C   UNL     1      19.049  27.067  29.978  1.00  0.00     0.008 C 
BRANCH   9  11
ATOM     11  C   UNL     1      16.874  27.776  31.176  1.00  0.00    -0.002 C 
ATOM     12  C   UNL     1      16.533  27.563  32.663  1.00  0.00     0.005 C 
ATOM     13  C   UNL     1      15.506  28.156  30.505  1.00  0.00    -0.026 C 
ATOM     14  C   UNL     1      15.196  28.249  32.922  1.00  0.00     0.005 C 
ATOM     15  C   UNL     1      14.822  28.978  31.627  1.00  0.00    -0.001 C 
ATOM     16  C   UNL     1      14.657  26.880  30.141  1.00  0.00     0.007 C 
ATOM     17  C   UNL     1      15.738  29.071  29.264  1.00  0.00     0.012 C 
ATOM     18  C   UNL     1      13.276  29.212  31.489  1.00  0.00     0.004 C 
ATOM     19  C   UNL     1      13.137  26.964  30.397  1.00  0.00     0.005 C 
ATOM     20  C   UNL     1      12.617  28.408  30.319  1.00  0.00     0.003 C 
ATOM     21  C   UNL     1      12.939  30.718  31.407  1.00  0.00     0.085 C 
ATOM     22  C   UNL     1      11.044  28.575  30.301  1.00  0.00    -0.000 C 
ATOM     23  C   UNL     1      11.472  30.946  31.185  1.00  0.00     0.159 C 
ATOM     24  C   UNL     1      10.775  30.085  30.217  1.00  0.00     0.005 C 
ATOM     25  C   UNL     1      10.353  27.819  29.109  1.00  0.00     0.020 C 
ATOM     26  C   UNL     1      10.388  28.037  31.601  1.00  0.00     0.017 C 
ATOM     27  O   UNL     1      10.889  31.932  31.710  1.00  0.00    -0.295 OA
ATOM     28  C   UNL     1      10.214  30.675  29.147  1.00  0.00     0.055 C 
ATOM     29  C   UNL     1      10.492  28.539  27.771  1.00  0.00     0.081 C 
ATOM     30  C   UNL     1       9.954  29.925  27.913  1.00  0.00     0.156 C 
ATOM     31  O   UNL     1       9.357  30.478  26.951  1.00  0.00    -0.295 OA
ENDBRANCH   9  11
ENDBRANCH   8   9
ENDBRANCH   1   8
TORSDOF 6
ENDMDL
MODEL 5
REMARK VINA RESULT:    -6.223      1.272      1.724
REMARK INTER + INTRA:          -9.608
REMARK INTER:                  -8.433
REMARK INTRA:                  -1.175
REMARK UNBOUND:                -1.202
REMARK SMILES CC[C@@H](CC[C@H](C)[C@@H]1CC[C@@H]2[C@H]3CC(=O)C4=CC(=O)CC[C@@]4(C)[C@@H]3CC[C@@]21C)C(C)C
REMARK SMILES IDX 4 1 3 2 2 3 1 4 29 5 30 6 31 7 5 8 6 9 7 10 8 11 9 12 27 13
REMARK SMILES IDX 10 14 11 15 26 16 28 17 12 18 25 19 24 20 13 21 22 22 14 23
REMARK SMILES IDX 16 24 21 25 23 26 15 27 17 28 20 29 18 30 19 31
REMARK H PARENT
REMARK Flexibility Score: inf
ROOT
ATOM      1  C   UNL     1      15.281  24.265  34.232  1.00  0.00     0.004 C 
ENDROOT
BRANCH   1   2
ATOM      2  C   UNL     1      16.733  24.211  33.686  1.00  0.00    -0.009 C 
BRANCH   2   3
ATOM      3  C   UNL     1      17.185  25.519  32.961  1.00  0.00     0.000 C 
ATOM      4  C   UNL     1      17.092  26.813  33.781  1.00  0.00     0.004 C 
ENDBRANCH   2   3
BRANCH   2   5
ATOM      5  C   UNL     1      16.995  22.895  32.879  1.00  0.00    -0.014 C 
ATOM      6  C   UNL     1      17.243  23.113  31.380  1.00  0.00     0.007 C 
ATOM      7  C   UNL     1      18.133  22.056  33.486  1.00  0.00     0.007 C 
ENDBRANCH   2   5
ENDBRANCH   1   2
BRANCH   1   8
ATOM      8  C   UNL     1      14.240  24.510  33.118  1.00  0.00     0.004 C 
BRANCH   8   9
ATOM      9  C   UNL     1      13.395  25.794  33.358  1.00  0.00    -0.011 C 
ATOM     10  C   UNL     1      12.409  25.541  34.513  1.00  0.00     0.008 C 
BRANCH   9  11
ATOM     11  C   UNL     1      12.660  26.231  32.038  1.00  0.00    -0.002 C 
ATOM     12  C   UNL     1      11.821  25.090  31.432  1.00  0.00     0.005 C 
ATOM     13  C   UNL     1      13.509  26.781  30.837  1.00  0.00    -0.026 C 
ATOM     14  C   UNL     1      11.807  25.294  29.921  1.00  0.00     0.005 C 
ATOM     15  C   UNL     1      12.519  26.624  29.654  1.00  0.00    -0.001 C 
ATOM     16  C   UNL     1      14.813  25.930  30.601  1.00  0.00     0.007 C 
ATOM     17  C   UNL     1      13.833  28.293  31.040  1.00  0.00     0.012 C 
ATOM     18  C   UNL     1      13.128  26.706  28.209  1.00  0.00     0.004 C 
ATOM     19  C   UNL     1      15.201  25.651  29.133  1.00  0.00     0.005 C 
ATOM     20  C   UNL     1      14.692  26.746  28.183  1.00  0.00     0.003 C 
ATOM     21  C   UNL     1      12.513  27.873  27.404  1.00  0.00     0.085 C 
ATOM     22  C   UNL     1      15.259  26.698  26.707  1.00  0.00    -0.000 C 
ATOM     23  C   UNL     1      13.154  28.012  26.054  1.00  0.00     0.159 C 
ATOM     24  C   UNL     1      14.615  27.877  25.962  1.00  0.00     0.005 C 
ATOM     25  C   UNL     1      16.826  26.785  26.640  1.00  0.00     0.020 C 
ATOM     26  C   UNL     1      14.862  25.388  25.975  1.00  0.00     0.017 C 
ATOM     27  O   UNL     1      12.474  28.368  25.054  1.00  0.00    -0.295 OA
ATOM     28  C   UNL     1      15.314  28.937  25.518  1.00  0.00     0.055 C 
ATOM     29  C   UNL     1      17.366  28.197  26.851  1.00  0.00     0.081 C 
ATOM     30  C   UNL     1      16.733  29.107  25.850  1.00  0.00     0.156 C 
ATOM     31  O   UNL     1      17.387  30.066  25.359  1.00  0.00    -0.295 OA
ENDBRANCH   9  11
ENDBRANCH   8   9
ENDBRANCH   1   8
TORSDOF 6
ENDMDL
MODEL 6
REMARK VINA RESULT:    -5.920      4.269      8.892
REMARK INTER + INTRA:          -9.198
REMARK INTER:                  -7.179
REMARK INTRA:                  -2.018
REMARK UNBOUND:                -1.202
REMARK SMILES CC[C@@H](CC[C@H](C)[C@@H]1CC[C@@H]2[C@H]3CC(=O)C4=CC(=O)CC[C@@]4(C)[C@@H]3CC[C@@]21C)C(C)C
REMARK SMILES IDX 4 1 3 2 2 3 1 4 29 5 30 6 31 7 5 8 6 9 7 10 8 11 9 12 27 13
REMARK SMILES IDX 10 14 11 15 26 16 28 17 12 18 25 19 24 20 13 21 22 22 14 23
REMARK SMILES IDX 16 24 21 25 23 26 15 27 17 28 20 29 18 30 19 31
REMARK H PARENT
REMARK Flexibility Score: inf
ROOT
ATOM      1  C   UNL     1      10.606  28.805  23.653  1.00  0.00     0.004 C 
ENDROOT
BRANCH   1   2
ATOM      2  C   UNL     1      12.158  28.811  23.676  1.00  0.00    -0.009 C 
BRANCH   2   3
ATOM      3  C   UNL     1      12.812  28.598  22.274  1.00  0.00     0.000 C 
ATOM      4  C   UNL     1      13.323  29.861  21.566  1.00  0.00     0.004 C 
ENDBRANCH   2   3
BRANCH   2   5
ATOM      5  C   UNL     1      12.719  27.883  24.806  1.00  0.00    -0.014 C 
ATOM      6  C   UNL     1      13.106  26.476  24.331  1.00  0.00     0.007 C 
ATOM      7  C   UNL     1      13.896  28.529  25.559  1.00  0.00     0.007 C 
ENDBRANCH   2   5
ENDBRANCH   1   2
BRANCH   1   8
ATOM      8  C   UNL     1       9.998  29.962  24.474  1.00  0.00     0.004 C 
BRANCH   8   9
ATOM      9  C   UNL     1       9.409  29.487  25.833  1.00  0.00    -0.011 C 
ATOM     10  C   UNL     1       7.876  29.632  25.798  1.00  0.00     0.008 C 
BRANCH   9  11
ATOM     11  C   UNL     1      10.050  30.287  27.027  1.00  0.00    -0.002 C 
ATOM     12  C   UNL     1      11.361  30.988  26.623  1.00  0.00     0.005 C 
ATOM     13  C   UNL     1      10.399  29.527  28.356  1.00  0.00    -0.026 C 
ATOM     14  C   UNL     1      12.243  31.045  27.865  1.00  0.00     0.005 C 
ATOM     15  C   UNL     1      11.399  30.504  29.025  1.00  0.00    -0.001 C 
ATOM     16  C   UNL     1      11.073  28.131  28.075  1.00  0.00     0.007 C 
ATOM     17  C   UNL     1       9.134  29.389  29.258  1.00  0.00     0.012 C 
ATOM     18  C   UNL     1      12.274  29.929  30.194  1.00  0.00     0.004 C 
ATOM     19  C   UNL     1      12.243  27.731  28.997  1.00  0.00     0.005 C 
ATOM     20  C   UNL     1      12.135  28.381  30.385  1.00  0.00     0.003 C 
ATOM     21  C   UNL     1      12.023  30.692  31.514  1.00  0.00     0.085 C 
ATOM     22  C   UNL     1      13.129  27.831  31.485  1.00  0.00    -0.000 C 
ATOM     23  C   UNL     1      12.789  30.089  32.656  1.00  0.00     0.159 C 
ATOM     24  C   UNL     1      12.831  28.624  32.767  1.00  0.00     0.005 C 
ATOM     25  C   UNL     1      12.984  26.287  31.738  1.00  0.00     0.020 C 
ATOM     26  C   UNL     1      14.614  28.074  31.100  1.00  0.00     0.017 C 
ATOM     27  O   UNL     1      13.266  30.821  33.565  1.00  0.00    -0.295 OA
ATOM     28  C   UNL     1      12.305  28.066  33.872  1.00  0.00     0.055 C 
ATOM     29  C   UNL     1      11.768  25.923  32.587  1.00  0.00     0.081 C 
ATOM     30  C   UNL     1      11.840  26.675  33.875  1.00  0.00     0.156 C 
ATOM     31  O   UNL     1      11.423  26.150  34.942  1.00  0.00    -0.295 OA
ENDBRANCH   9  11
ENDBRANCH   8   9
ENDBRANCH   1   8
TORSDOF 6
ENDMDL
MODEL 7
REMARK VINA RESULT:    -5.838      3.365      6.074
REMARK INTER + INTRA:          -9.087
REMARK INTER:                  -6.741
REMARK INTRA:                  -2.346
REMARK UNBOUND:                -1.202
REMARK SMILES CC[C@@H](CC[C@H](C)[C@@H]1CC[C@@H]2[C@H]3CC(=O)C4=CC(=O)CC[C@@]4(C)[C@@H]3CC[C@@]21C)C(C)C
REMARK SMILES IDX 4 1 3 2 2 3 1 4 29 5 30 6 31 7 5 8 6 9 7 10 8 11 9 12 27 13
REMARK SMILES IDX 10 14 11 15 26 16 28 17 12 18 25 19 24 20 13 21 22 22 14 23
REMARK SMILES IDX 16 24 21 25 23 26 15 27 17 28 20 29 18 30 19 31
REMARK H PARENT
REMARK Flexibility Score: inf
ROOT
ATOM      1  C   UNL     1      19.022  28.263  29.843  1.00  0.00     0.004 C 
ENDROOT
BRANCH   1   2
ATOM      2  C   UNL     1      17.943  29.375  29.944  1.00  0.00    -0.009 C 
BRANCH   2   3
ATOM      3  C   UNL     1      18.218  30.607  29.026  1.00  0.00     0.000 C 
ATOM      4  C   UNL     1      18.455  30.304  27.540  1.00  0.00     0.004 C 
ENDBRANCH   2   3
BRANCH   2   5
ATOM      5  C   UNL     1      17.623  29.731  31.435  1.00  0.00    -0.014 C 
ATOM      6  C   UNL     1      16.180  29.429  31.859  1.00  0.00     0.007 C 
ATOM      7  C   UNL     1      18.611  29.074  32.416  1.00  0.00     0.007 C 
ENDBRANCH   2   5
ENDBRANCH   1   2
BRANCH   1   8
ATOM      8  C   UNL     1      18.483  26.975  29.185  1.00  0.00     0.004 C 
BRANCH   8   9
ATOM      9  C   UNL     1      16.931  26.880  29.236  1.00  0.00    -0.011 C 
ATOM     10  C   UNL     1      16.524  25.797  30.252  1.00  0.00     0.008 C 
BRANCH   9  11
ATOM     11  C   UNL     1      16.344  26.596  27.804  1.00  0.00    -0.002 C 
ATOM     12  C   UNL     1      17.333  26.968  26.683  1.00  0.00     0.005 C 
ATOM     13  C   UNL     1      14.993  27.278  27.383  1.00  0.00    -0.026 C 
ATOM     14  C   UNL     1      16.506  27.394  25.475  1.00  0.00     0.005 C 
ATOM     15  C   UNL     1      15.039  27.143  25.840  1.00  0.00    -0.001 C 
ATOM     16  C   UNL     1      14.938  28.791  27.819  1.00  0.00     0.007 C 
ATOM     17  C   UNL     1      13.777  26.472  27.934  1.00  0.00     0.012 C 
ATOM     18  C   UNL     1      14.049  28.046  25.022  1.00  0.00     0.004 C 
ATOM     19  C   UNL     1      14.315  29.778  26.809  1.00  0.00     0.005 C 
ATOM     20  C   UNL     1      13.285  29.097  25.895  1.00  0.00     0.003 C 
ATOM     21  C   UNL     1      13.078  27.193  24.175  1.00  0.00     0.085 C 
ATOM     22  C   UNL     1      12.399  30.065  25.011  1.00  0.00    -0.000 C 
ATOM     23  C   UNL     1      12.070  28.047  23.461  1.00  0.00     0.159 C 
ATOM     24  C   UNL     1      11.459  29.162  24.198  1.00  0.00     0.005 C 
ATOM     25  C   UNL     1      11.580  31.104  25.859  1.00  0.00     0.020 C 
ATOM     26  C   UNL     1      13.258  30.891  24.016  1.00  0.00     0.017 C 
ATOM     27  O   UNL     1      11.663  27.732  22.310  1.00  0.00    -0.295 OA
ATOM     28  C   UNL     1      10.126  29.138  24.376  1.00  0.00     0.055 C 
ATOM     29  C   UNL     1      10.344  30.505  26.525  1.00  0.00     0.081 C 
ATOM     30  C   UNL     1       9.490  29.875  25.473  1.00  0.00     0.156 C 
ATOM     31  O   UNL     1       8.235  29.901  25.574  1.00  0.00    -0.295 OA
ENDBRANCH   9  11
ENDBRANCH   8   9
ENDBRANCH   1   8
TORSDOF 6
ENDMDL
MODEL 8
REMARK VINA RESULT:    -5.652      3.218      7.687
REMARK INTER + INTRA:          -8.836
REMARK INTER:                  -6.697
REMARK INTRA:                  -2.140
REMARK UNBOUND:                -1.202
REMARK SMILES CC[C@@H](CC[C@H](C)[C@@H]1CC[C@@H]2[C@H]3CC(=O)C4=CC(=O)CC[C@@]4(C)[C@@H]3CC[C@@]21C)C(C)C
REMARK SMILES IDX 4 1 3 2 2 3 1 4 29 5 30 6 31 7 5 8 6 9 7 10 8 11 9 12 27 13
REMARK SMILES IDX 10 14 11 15 26 16 28 17 12 18 25 19 24 20 13 21 22 22 14 23
REMARK SMILES IDX 16 24 21 25 23 26 15 27 17 28 20 29 18 30 19 31
REMARK H PARENT
REMARK Flexibility Score: inf
ROOT
ATOM      1  C   UNL     1      12.171  28.737  25.918  1.00  0.00     0.004 C 
ENDROOT
BRANCH   1   2
ATOM      2  C   UNL     1      13.648  28.258  25.925  1.00  0.00    -0.009 C 
BRANCH   2   3
ATOM      3  C   UNL     1      14.689  29.421  25.912  1.00  0.00     0.000 C 
ATOM      4  C   UNL     1      15.553  29.570  27.172  1.00  0.00     0.004 C 
ENDBRANCH   2   3
BRANCH   2   5
ATOM      5  C   UNL     1      13.897  27.147  24.850  1.00  0.00    -0.014 C 
ATOM      6  C   UNL     1      14.212  25.764  25.435  1.00  0.00     0.007 C 
ATOM      7  C   UNL     1      12.740  27.043  23.840  1.00  0.00     0.007 C 
ENDBRANCH   2   5
ENDBRANCH   1   2
BRANCH   1   8
ATOM      8  C   UNL     1      11.731  29.314  27.280  1.00  0.00     0.004 C 
BRANCH   8   9
ATOM      9  C   UNL     1      11.387  28.207  28.318  1.00  0.00    -0.011 C 
ATOM     10  C   UNL     1       9.857  28.079  28.432  1.00  0.00     0.008 C 
BRANCH   9  11
ATOM     11  C   UNL     1      12.059  28.518  29.706  1.00  0.00    -0.002 C 
ATOM     12  C   UNL     1      12.815  29.860  29.701  1.00  0.00     0.005 C 
ATOM     13  C   UNL     1      13.082  27.489  30.307  1.00  0.00    -0.026 C 
ATOM     14  C   UNL     1      13.980  29.725  30.675  1.00  0.00     0.005 C 
ATOM     15  C   UNL     1      13.827  28.358  31.351  1.00  0.00    -0.001 C 
ATOM     16  C   UNL     1      14.074  26.940  29.214  1.00  0.00     0.007 C 
ATOM     17  C   UNL     1      12.331  26.334  31.040  1.00  0.00     0.012 C 
ATOM     18  C   UNL     1      15.188  27.796  31.896  1.00  0.00     0.004 C 
ATOM     19  C   UNL     1      15.547  26.769  29.642  1.00  0.00     0.005 C 
ATOM     20  C   UNL     1      15.685  26.513  31.151  1.00  0.00     0.003 C 
ATOM     21  C   UNL     1      15.139  27.586  33.426  1.00  0.00     0.085 C 
ATOM     22  C   UNL     1      17.117  26.061  31.647  1.00  0.00    -0.000 C 
ATOM     23  C   UNL     1      16.405  26.964  33.940  1.00  0.00     0.159 C 
ATOM     24  C   UNL     1      17.003  25.867  33.166  1.00  0.00     0.005 C 
ATOM     25  C   UNL     1      17.629  24.746  30.954  1.00  0.00     0.020 C 
ATOM     26  C   UNL     1      18.195  27.146  31.376  1.00  0.00     0.017 C 
ATOM     27  O   UNL     1      16.863  27.284  35.070  1.00  0.00    -0.295 OA
ATOM     28  C   UNL     1      17.116  24.668  33.766  1.00  0.00     0.055 C 
ATOM     29  C   UNL     1      16.985  23.478  31.508  1.00  0.00     0.081 C 
ATOM     30  C   UNL     1      17.210  23.431  32.984  1.00  0.00     0.156 C 
ATOM     31  O   UNL     1      17.393  22.328  33.564  1.00  0.00    -0.295 OA
ENDBRANCH   9  11
ENDBRANCH   8   9
ENDBRANCH   1   8
TORSDOF 6
ENDMDL
