MODEL 1
REMARK VINA RESULT:    -6.579      0.000      0.000
REMARK INTER + INTRA:          -8.003
REMARK INTER:                  -7.733
REMARK INTRA:                  -0.270
REMARK UNBOUND:                -0.270
REMARK SMILES O=c1cc(-c2ccc(O)c(O)c2)oc2cc(O)cc(O)c12
REMARK SMILES IDX 4 1 3 2 2 3 1 4 21 5 19 6 18 7 16 8 15 9 14 10 13 11 5 12
REMARK SMILES IDX 6 13 7 14 8 15 12 16 10 17 9 18 11 20 20 22 17 24
REMARK H PARENT 9 19 11 21 20 23 17 25
REMARK Flexibility Score: inf
ROOT
ATOM      1  C   UNL     1      18.729  -1.591 -16.992  1.00  0.00     0.138 A 
ATOM      2  C   UNL     1      18.185  -0.850 -15.934  1.00  0.00     0.100 A 
ATOM      3  C   UNL     1      17.493  -1.506 -14.915  1.00  0.00     0.197 A 
ATOM      4  O   UNL     1      17.071  -0.822 -13.948  1.00  0.00    -0.289 OA
ATOM      5  C   UNL     1      17.321  -2.910 -14.974  1.00  0.00     0.107 A 
ATOM      6  C   UNL     1      16.599  -3.680 -14.013  1.00  0.00     0.134 A 
ATOM      7  C   UNL     1      16.592  -5.077 -14.112  1.00  0.00     0.093 A 
ATOM      8  C   UNL     1      17.231  -5.727 -15.172  1.00  0.00     0.123 A 
ATOM      9  C   UNL     1      17.892  -4.980 -16.145  1.00  0.00     0.094 A 
ATOM     10  C   UNL     1      17.945  -3.587 -16.054  1.00  0.00     0.146 A 
ATOM     11  O   UNL     1      18.599  -2.915 -16.995  1.00  0.00    -0.456 OA
ENDROOT
BRANCH   1  12
ATOM     12  C   UNL     1      19.472  -0.944 -18.103  1.00  0.00     0.021 A 
ATOM     13  C   UNL     1      20.715  -0.316 -17.894  1.00  0.00     0.016 A 
ATOM     14  C   UNL     1      21.388   0.294 -18.956  1.00  0.00     0.051 A 
ATOM     15  C   UNL     1      20.830   0.296 -20.240  1.00  0.00     0.157 A 
ATOM     16  C   UNL     1      18.912  -0.925 -19.393  1.00  0.00     0.062 A 
ATOM     17  C   UNL     1      19.584  -0.315 -20.458  1.00  0.00     0.158 A 
BRANCH  15  18
ATOM     18  O   UNL     1      21.505   0.905 -21.297  1.00  0.00    -0.504 OA
ATOM     19  H   UNL     1      21.926   0.362 -22.041  1.00  0.00     0.293 HD
ENDBRANCH  15  18
BRANCH  17  20
ATOM     20  O   UNL     1      18.999  -0.326 -21.724  1.00  0.00    -0.504 OA
ATOM     21  H   UNL     1      19.310   0.289 -22.466  1.00  0.00     0.293 HD
ENDBRANCH  17  20
ENDBRANCH   1  12
BRANCH   6  22
ATOM     22  O   UNL     1      15.858  -3.127 -12.965  1.00  0.00    -0.507 OA
ATOM     23  H   UNL     1      14.913  -3.387 -12.727  1.00  0.00     0.293 HD
ENDBRANCH   6  22
BRANCH   8  24
ATOM     24  O   UNL     1      17.206  -7.117 -15.272  1.00  0.00    -0.508 OA
ATOM     25  H   UNL     1      16.494  -7.669 -14.809  1.00  0.00     0.293 HD
ENDBRANCH   8  24
TORSDOF 5
ENDMDL
MODEL 2
REMARK VINA RESULT:    -6.424      8.755     12.619
REMARK INTER + INTRA:          -7.820
REMARK INTER:                  -7.504
REMARK INTRA:                  -0.316
REMARK UNBOUND:                -0.270
REMARK SMILES O=c1cc(-c2ccc(O)c(O)c2)oc2cc(O)cc(O)c12
REMARK SMILES IDX 4 1 3 2 2 3 1 4 21 5 19 6 18 7 16 8 15 9 14 10 13 11 5 12
REMARK SMILES IDX 6 13 7 14 8 15 12 16 10 17 9 18 11 20 20 22 17 24
REMARK H PARENT 9 19 11 21 20 23 17 25
REMARK Flexibility Score: inf
ROOT
ATOM      1  C   UNL     1      10.835  -6.995  -9.345  1.00  0.00     0.138 A 
ATOM      2  C   UNL     1       9.920  -8.027  -9.592  1.00  0.00     0.100 A 
ATOM      3  C   UNL     1       8.852  -8.228  -8.718  1.00  0.00     0.197 A 
ATOM      4  O   UNL     1       8.012  -9.122  -9.000  1.00  0.00    -0.289 OA
ATOM      5  C   UNL     1       8.718  -7.408  -7.572  1.00  0.00     0.107 A 
ATOM      6  C   UNL     1       7.692  -7.547  -6.589  1.00  0.00     0.134 A 
ATOM      7  C   UNL     1       7.592  -6.604  -5.558  1.00  0.00     0.093 A 
ATOM      8  C   UNL     1       8.518  -5.563  -5.441  1.00  0.00     0.123 A 
ATOM      9  C   UNL     1       9.554  -5.452  -6.365  1.00  0.00     0.094 A 
ATOM     10  C   UNL     1       9.660  -6.356  -7.424  1.00  0.00     0.146 A 
ATOM     11  O   UNL     1      10.656  -6.205  -8.290  1.00  0.00    -0.456 OA
ENDROOT
BRANCH   1  12
ATOM     12  C   UNL     1      11.990  -6.739 -10.242  1.00  0.00     0.021 A 
ATOM     13  C   UNL     1      12.377  -7.663 -11.231  1.00  0.00     0.016 A 
ATOM     14  C   UNL     1      13.476  -7.400 -12.055  1.00  0.00     0.051 A 
ATOM     15  C   UNL     1      14.209  -6.217 -11.901  1.00  0.00     0.157 A 
ATOM     16  C   UNL     1      12.741  -5.560 -10.085  1.00  0.00     0.062 A 
ATOM     17  C   UNL     1      13.840  -5.295 -10.909  1.00  0.00     0.158 A 
BRANCH  15  18
ATOM     18  O   UNL     1      15.302  -5.959 -12.726  1.00  0.00    -0.504 OA
ATOM     19  H   UNL     1      15.230  -6.007 -13.735  1.00  0.00     0.293 HD
ENDBRANCH  15  18
BRANCH  17  20
ATOM     20  O   UNL     1      14.553  -4.110 -10.727  1.00  0.00    -0.504 OA
ATOM     21  H   UNL     1      15.554  -4.102 -10.572  1.00  0.00     0.293 HD
ENDBRANCH  17  20
ENDBRANCH   1  12
BRANCH   6  22
ATOM     22  O   UNL     1       6.769  -8.597  -6.565  1.00  0.00    -0.507 OA
ATOM     23  H   UNL     1       5.933  -8.641  -7.126  1.00  0.00     0.293 HD
ENDBRANCH   6  22
BRANCH   8  24
ATOM     24  O   UNL     1       8.420  -4.639  -4.403  1.00  0.00    -0.508 OA
ATOM     25  H   UNL     1       9.206  -4.439  -3.795  1.00  0.00     0.293 HD
ENDBRANCH   8  24
TORSDOF 5
ENDMDL
MODEL 3
REMARK VINA RESULT:    -6.040      1.189      2.699
REMARK INTER + INTRA:          -7.369
REMARK INTER:                  -7.106
REMARK INTRA:                  -0.264
REMARK UNBOUND:                -0.270
REMARK SMILES O=c1cc(-c2ccc(O)c(O)c2)oc2cc(O)cc(O)c12
REMARK SMILES IDX 4 1 3 2 2 3 1 4 21 5 19 6 18 7 16 8 15 9 14 10 13 11 5 12
REMARK SMILES IDX 6 13 7 14 8 15 12 16 10 17 9 18 11 20 20 22 17 24
REMARK H PARENT 9 19 11 21 20 23 17 25
REMARK Flexibility Score: inf
ROOT
ATOM      1  C   UNL     1      18.741  -1.917 -17.219  1.00  0.00     0.138 A 
ATOM      2  C   UNL     1      18.643  -3.313 -17.292  1.00  0.00     0.100 A 
ATOM      3  C   UNL     1      17.941  -4.008 -16.307  1.00  0.00     0.197 A 
ATOM      4  O   UNL     1      17.818  -5.254 -16.433  1.00  0.00    -0.289 OA
ATOM      5  C   UNL     1      17.361  -3.302 -15.226  1.00  0.00     0.107 A 
ATOM      6  C   UNL     1      16.658  -3.911 -14.143  1.00  0.00     0.134 A 
ATOM      7  C   UNL     1      16.026  -3.102 -13.190  1.00  0.00     0.093 A 
ATOM      8  C   UNL     1      16.124  -1.709 -13.248  1.00  0.00     0.123 A 
ATOM      9  C   UNL     1      16.854  -1.108 -14.271  1.00  0.00     0.094 A 
ATOM     10  C   UNL     1      17.466  -1.887 -15.256  1.00  0.00     0.146 A 
ATOM     11  O   UNL     1      18.140  -1.273 -16.222  1.00  0.00    -0.456 OA
ENDROOT
BRANCH   1  12
ATOM     12  C   UNL     1      19.476  -1.127 -18.239  1.00  0.00     0.021 A 
ATOM     13  C   UNL     1      20.671  -0.449 -17.929  1.00  0.00     0.016 A 
ATOM     14  C   UNL     1      21.337   0.295 -18.907  1.00  0.00     0.051 A 
ATOM     15  C   UNL     1      20.820   0.382 -20.206  1.00  0.00     0.157 A 
ATOM     16  C   UNL     1      18.957  -1.023 -19.542  1.00  0.00     0.062 A 
ATOM     17  C   UNL     1      19.622  -0.279 -20.522  1.00  0.00     0.158 A 
BRANCH  15  18
ATOM     18  O   UNL     1      21.488   1.124 -21.177  1.00  0.00    -0.504 OA
ATOM     19  H   UNL     1      21.089   1.278 -22.096  1.00  0.00     0.293 HD
ENDBRANCH  15  18
BRANCH  17  20
ATOM     20  O   UNL     1      19.078  -0.209 -21.805  1.00  0.00    -0.504 OA
ATOM     21  H   UNL     1      18.117   0.064 -21.967  1.00  0.00     0.293 HD
ENDBRANCH  17  20
ENDBRANCH   1  12
BRANCH   6  22
ATOM     22  O   UNL     1      16.571  -5.292 -13.944  1.00  0.00    -0.507 OA
ATOM     23  H   UNL     1      17.127  -5.815 -13.285  1.00  0.00     0.293 HD
ENDBRANCH   6  22
BRANCH   8  24
ATOM     24  O   UNL     1      15.505  -0.913 -12.286  1.00  0.00    -0.508 OA
ATOM     25  H   UNL     1      16.043  -0.395 -11.601  1.00  0.00     0.293 HD
ENDBRANCH   8  24
TORSDOF 5
ENDMDL
MODEL 4
REMARK VINA RESULT:    -5.974      7.225     10.849
REMARK INTER + INTRA:          -7.292
REMARK INTER:                  -7.022
REMARK INTRA:                  -0.270
REMARK UNBOUND:                -0.270
REMARK SMILES O=c1cc(-c2ccc(O)c(O)c2)oc2cc(O)cc(O)c12
REMARK SMILES IDX 4 1 3 2 2 3 1 4 21 5 19 6 18 7 16 8 15 9 14 10 13 11 5 12
REMARK SMILES IDX 6 13 7 14 8 15 12 16 10 17 9 18 11 20 20 22 17 24
REMARK H PARENT 9 19 11 21 20 23 17 25
REMARK Flexibility Score: inf
ROOT
ATOM      1  C   UNL     1      11.903  -6.689 -10.781  1.00  0.00     0.138 A 
ATOM      2  C   UNL     1      11.597  -6.945  -9.438  1.00  0.00     0.100 A 
ATOM      3  C   UNL     1      10.332  -7.424  -9.096  1.00  0.00     0.197 A 
ATOM      4  O   UNL     1      10.108  -7.703  -7.890  1.00  0.00    -0.289 OA
ATOM      5  C   UNL     1       9.358  -7.617 -10.105  1.00  0.00     0.107 A 
ATOM      6  C   UNL     1       8.022  -8.062  -9.869  1.00  0.00     0.134 A 
ATOM      7  C   UNL     1       7.181  -8.328 -10.957  1.00  0.00     0.093 A 
ATOM      8  C   UNL     1       7.609  -8.107 -12.269  1.00  0.00     0.123 A 
ATOM      9  C   UNL     1       8.893  -7.621 -12.506  1.00  0.00     0.094 A 
ATOM     10  C   UNL     1       9.766  -7.380 -11.443  1.00  0.00     0.146 A 
ATOM     11  O   UNL     1      10.987  -6.930 -11.715  1.00  0.00    -0.456 OA
ENDROOT
BRANCH   1  12
ATOM     12  C   UNL     1      13.232  -6.178 -11.200  1.00  0.00     0.021 A 
ATOM     13  C   UNL     1      14.007  -6.840 -12.170  1.00  0.00     0.016 A 
ATOM     14  C   UNL     1      15.260  -6.341 -12.538  1.00  0.00     0.051 A 
ATOM     15  C   UNL     1      15.764  -5.180 -11.939  1.00  0.00     0.157 A 
ATOM     16  C   UNL     1      13.751  -5.020 -10.593  1.00  0.00     0.062 A 
ATOM     17  C   UNL     1      15.005  -4.519 -10.960  1.00  0.00     0.158 A 
BRANCH  15  18
ATOM     18  O   UNL     1      17.013  -4.686 -12.310  1.00  0.00    -0.504 OA
ATOM     19  H   UNL     1      17.766  -5.303 -12.591  1.00  0.00     0.293 HD
ENDBRANCH  15  18
BRANCH  17  20
ATOM     20  O   UNL     1      15.481  -3.363 -10.341  1.00  0.00    -0.504 OA
ATOM     21  H   UNL     1      16.388  -3.327  -9.892  1.00  0.00     0.293 HD
ENDBRANCH  17  20
ENDBRANCH   1  12
BRANCH   6  22
ATOM     22  O   UNL     1       7.468  -8.233  -8.597  1.00  0.00    -0.507 OA
ATOM     23  H   UNL     1       6.792  -8.941  -8.353  1.00  0.00     0.293 HD
ENDBRANCH   6  22
BRANCH   8  24
ATOM     24  O   UNL     1       6.760  -8.360 -13.345  1.00  0.00    -0.508 OA
ATOM     25  H   UNL     1       5.883  -8.851 -13.224  1.00  0.00     0.293 HD
ENDBRANCH   8  24
TORSDOF 5
ENDMDL
MODEL 5
REMARK VINA RESULT:    -5.911      7.099     12.385
REMARK INTER + INTRA:          -7.218
REMARK INTER:                  -6.939
REMARK INTRA:                  -0.279
REMARK UNBOUND:                -0.270
REMARK SMILES O=c1cc(-c2ccc(O)c(O)c2)oc2cc(O)cc(O)c12
REMARK SMILES IDX 4 1 3 2 2 3 1 4 21 5 19 6 18 7 16 8 15 9 14 10 13 11 5 12
REMARK SMILES IDX 6 13 7 14 8 15 12 16 10 17 9 18 11 20 20 22 17 24
REMARK H PARENT 9 19 11 21 20 23 17 25
REMARK Flexibility Score: inf
ROOT
ATOM      1  C   UNL     1      11.760  -6.762  -9.931  1.00  0.00     0.138 A 
ATOM      2  C   UNL     1      11.882  -7.688 -10.976  1.00  0.00     0.100 A 
ATOM      3  C   UNL     1      12.936  -7.572 -11.883  1.00  0.00     0.197 A 
ATOM      4  O   UNL     1      13.055  -8.454 -12.772  1.00  0.00    -0.289 OA
ATOM      5  C   UNL     1      13.856  -6.503 -11.758  1.00  0.00     0.107 A 
ATOM      6  C   UNL     1      14.946  -6.262 -12.648  1.00  0.00     0.134 A 
ATOM      7  C   UNL     1      15.860  -5.241 -12.358  1.00  0.00     0.093 A 
ATOM      8  C   UNL     1      15.688  -4.415 -11.244  1.00  0.00     0.123 A 
ATOM      9  C   UNL     1      14.597  -4.608 -10.400  1.00  0.00     0.094 A 
ATOM     10  C   UNL     1      13.688  -5.641 -10.643  1.00  0.00     0.146 A 
ATOM     11  O   UNL     1      12.669  -5.799  -9.805  1.00  0.00    -0.456 OA
ENDROOT
BRANCH   1  12
ATOM     12  C   UNL     1      10.657  -6.838  -8.941  1.00  0.00     0.021 A 
ATOM     13  C   UNL     1      10.447  -7.987  -8.154  1.00  0.00     0.016 A 
ATOM     14  C   UNL     1       9.394  -8.034  -7.236  1.00  0.00     0.051 A 
ATOM     15  C   UNL     1       8.530  -6.942  -7.093  1.00  0.00     0.157 A 
ATOM     16  C   UNL     1       9.776  -5.751  -8.801  1.00  0.00     0.062 A 
ATOM     17  C   UNL     1       8.721  -5.796  -7.882  1.00  0.00     0.158 A 
BRANCH  15  18
ATOM     18  O   UNL     1       7.482  -6.993  -6.175  1.00  0.00    -0.504 OA
ATOM     19  H   UNL     1       7.279  -6.217  -5.557  1.00  0.00     0.293 HD
ENDBRANCH  15  18
BRANCH  17  20
ATOM     20  O   UNL     1       7.875  -4.694  -7.767  1.00  0.00    -0.504 OA
ATOM     21  H   UNL     1       6.867  -4.790  -7.727  1.00  0.00     0.293 HD
ENDBRANCH  17  20
ENDBRANCH   1  12
BRANCH   6  22
ATOM     22  O   UNL     1      15.161  -6.973 -13.832  1.00  0.00    -0.507 OA
ATOM     23  H   UNL     1      15.846  -6.733 -14.532  1.00  0.00     0.293 HD
ENDBRANCH   6  22
BRANCH   8  24
ATOM     24  O   UNL     1      16.593  -3.391 -10.972  1.00  0.00    -0.508 OA
ATOM     25  H   UNL     1      17.214  -3.431 -10.173  1.00  0.00     0.293 HD
ENDBRANCH   8  24
TORSDOF 5
ENDMDL
MODEL 6
REMARK VINA RESULT:    -5.841      7.430     11.190
REMARK INTER + INTRA:          -7.135
REMARK INTER:                  -6.827
REMARK INTRA:                  -0.308
REMARK UNBOUND:                -0.270
REMARK SMILES O=c1cc(-c2ccc(O)c(O)c2)oc2cc(O)cc(O)c12
REMARK SMILES IDX 4 1 3 2 2 3 1 4 21 5 19 6 18 7 16 8 15 9 14 10 13 11 5 12
REMARK SMILES IDX 6 13 7 14 8 15 12 16 10 17 9 18 11 20 20 22 17 24
REMARK H PARENT 9 19 11 21 20 23 17 25
REMARK Flexibility Score: inf
ROOT
ATOM      1  C   UNL     1      11.829  -6.479 -10.622  1.00  0.00     0.138 A 
ATOM      2  C   UNL     1      10.940  -7.181 -11.448  1.00  0.00     0.100 A 
ATOM      3  C   UNL     1       9.688  -7.553 -10.957  1.00  0.00     0.197 A 
ATOM      4  O   UNL     1       8.889  -8.126 -11.741  1.00  0.00    -0.289 OA
ATOM      5  C   UNL     1       9.338  -7.245  -9.621  1.00  0.00     0.107 A 
ATOM      6  C   UNL     1       8.105  -7.609  -9.001  1.00  0.00     0.134 A 
ATOM      7  C   UNL     1       7.820  -7.150  -7.709  1.00  0.00     0.093 A 
ATOM      8  C   UNL     1       8.750  -6.389  -6.993  1.00  0.00     0.123 A 
ATOM      9  C   UNL     1       9.978  -6.075  -7.570  1.00  0.00     0.094 A 
ATOM     10  C   UNL     1      10.276  -6.489  -8.870  1.00  0.00     0.146 A 
ATOM     11  O   UNL     1      11.453  -6.155  -9.388  1.00  0.00    -0.456 OA
ENDROOT
BRANCH   1  12
ATOM     12  C   UNL     1      13.174  -6.061 -11.093  1.00  0.00     0.021 A 
ATOM     13  C   UNL     1      13.878  -6.796 -12.066  1.00  0.00     0.016 A 
ATOM     14  C   UNL     1      15.147  -6.384 -12.483  1.00  0.00     0.051 A 
ATOM     15  C   UNL     1      15.737  -5.241 -11.932  1.00  0.00     0.157 A 
ATOM     16  C   UNL     1      13.780  -4.922 -10.534  1.00  0.00     0.062 A 
ATOM     17  C   UNL     1      15.050  -4.508 -10.951  1.00  0.00     0.158 A 
BRANCH  15  18
ATOM     18  O   UNL     1      17.003  -4.834 -12.352  1.00  0.00    -0.504 OA
ATOM     19  H   UNL     1      17.154  -3.929 -12.781  1.00  0.00     0.293 HD
ENDBRANCH  15  18
BRANCH  17  20
ATOM     20  O   UNL     1      15.612  -3.367 -10.379  1.00  0.00    -0.504 OA
ATOM     21  H   UNL     1      16.600  -3.303 -10.165  1.00  0.00     0.293 HD
ENDBRANCH  17  20
ENDBRANCH   1  12
BRANCH   6  22
ATOM     22  O   UNL     1       7.145  -8.434  -9.594  1.00  0.00    -0.507 OA
ATOM     23  H   UNL     1       7.229  -9.433  -9.699  1.00  0.00     0.293 HD
ENDBRANCH   6  22
BRANCH   8  24
ATOM     24  O   UNL     1       8.465  -5.949  -5.702  1.00  0.00    -0.508 OA
ATOM     25  H   UNL     1       8.937  -6.336  -4.894  1.00  0.00     0.293 HD
ENDBRANCH   8  24
TORSDOF 5
ENDMDL
MODEL 7
REMARK VINA RESULT:    -5.802      4.192      7.851
REMARK INTER + INTRA:          -7.090
REMARK INTER:                  -6.804
REMARK INTRA:                  -0.285
REMARK UNBOUND:                -0.270
REMARK SMILES O=c1cc(-c2ccc(O)c(O)c2)oc2cc(O)cc(O)c12
REMARK SMILES IDX 4 1 3 2 2 3 1 4 21 5 19 6 18 7 16 8 15 9 14 10 13 11 5 12
REMARK SMILES IDX 6 13 7 14 8 15 12 16 10 17 9 18 11 20 20 22 17 24
REMARK H PARENT 9 19 11 21 20 23 17 25
REMARK Flexibility Score: inf
ROOT
ATOM      1  C   UNL     1      16.882  -3.791 -11.742  1.00  0.00     0.138 A 
ATOM      2  C   UNL     1      15.941  -4.815 -11.570  1.00  0.00     0.100 A 
ATOM      3  C   UNL     1      15.609  -5.637 -12.648  1.00  0.00     0.197 A 
ATOM      4  O   UNL     1      14.809  -6.586 -12.447  1.00  0.00    -0.289 OA
ATOM      5  C   UNL     1      16.202  -5.409 -13.913  1.00  0.00     0.107 A 
ATOM      6  C   UNL     1      15.909  -6.158 -15.093  1.00  0.00     0.134 A 
ATOM      7  C   UNL     1      16.643  -5.919 -16.261  1.00  0.00     0.093 A 
ATOM      8  C   UNL     1      17.617  -4.917 -16.308  1.00  0.00     0.123 A 
ATOM      9  C   UNL     1      17.871  -4.145 -15.177  1.00  0.00     0.094 A 
ATOM     10  C   UNL     1      17.180  -4.383 -13.987  1.00  0.00     0.146 A 
ATOM     11  O   UNL     1      17.464  -3.634 -12.927  1.00  0.00    -0.456 OA
ENDROOT
BRANCH   1  12
ATOM     12  C   UNL     1      17.270  -2.888 -10.630  1.00  0.00     0.021 A 
ATOM     13  C   UNL     1      17.700  -1.567 -10.865  1.00  0.00     0.016 A 
ATOM     14  C   UNL     1      18.069  -0.742  -9.799  1.00  0.00     0.051 A 
ATOM     15  C   UNL     1      18.023  -1.220  -8.484  1.00  0.00     0.157 A 
ATOM     16  C   UNL     1      17.241  -3.365  -9.307  1.00  0.00     0.062 A 
ATOM     17  C   UNL     1      17.610  -2.540  -8.238  1.00  0.00     0.158 A 
BRANCH  15  18
ATOM     18  O   UNL     1      18.391  -0.394  -7.424  1.00  0.00    -0.504 OA
ATOM     19  H   UNL     1      19.251   0.142  -7.443  1.00  0.00     0.293 HD
ENDBRANCH  15  18
BRANCH  17  20
ATOM     20  O   UNL     1      17.558  -3.048  -6.941  1.00  0.00    -0.504 OA
ATOM     21  H   UNL     1      16.791  -2.842  -6.312  1.00  0.00     0.293 HD
ENDBRANCH  17  20
ENDBRANCH   1  12
BRANCH   6  22
ATOM     22  O   UNL     1      14.900  -7.121 -15.177  1.00  0.00    -0.507 OA
ATOM     23  H   UNL     1      14.342  -7.441 -14.400  1.00  0.00     0.293 HD
ENDBRANCH   6  22
BRANCH   8  24
ATOM     24  O   UNL     1      18.331  -4.675 -17.480  1.00  0.00    -0.508 OA
ATOM     25  H   UNL     1      18.547  -5.419 -18.133  1.00  0.00     0.293 HD
ENDBRANCH   8  24
TORSDOF 5
ENDMDL
MODEL 8
REMARK VINA RESULT:    -5.738      9.863     11.586
REMARK INTER + INTRA:          -7.014
REMARK INTER:                  -6.751
REMARK INTRA:                  -0.263
REMARK UNBOUND:                -0.270
REMARK SMILES O=c1cc(-c2ccc(O)c(O)c2)oc2cc(O)cc(O)c12
REMARK SMILES IDX 4 1 3 2 2 3 1 4 21 5 19 6 18 7 16 8 15 9 14 10 13 11 5 12
REMARK SMILES IDX 6 13 7 14 8 15 12 16 10 17 9 18 11 20 20 22 17 24
REMARK H PARENT 9 19 11 21 20 23 17 25
REMARK Flexibility Score: inf
ROOT
ATOM      1  C   UNL     1      10.241   4.038 -18.816  1.00  0.00     0.138 A 
ATOM      2  C   UNL     1      10.735   5.258 -19.296  1.00  0.00     0.100 A 
ATOM      3  C   UNL     1      12.048   5.632 -19.012  1.00  0.00     0.197 A 
ATOM      4  O   UNL     1      12.482   6.704 -19.509  1.00  0.00    -0.289 OA
ATOM      5  C   UNL     1      12.862   4.791 -18.216  1.00  0.00     0.107 A 
ATOM      6  C   UNL     1      14.203   5.089 -17.828  1.00  0.00     0.134 A 
ATOM      7  C   UNL     1      14.951   4.128 -17.136  1.00  0.00     0.093 A 
ATOM      8  C   UNL     1      14.385   2.905 -16.765  1.00  0.00     0.123 A 
ATOM      9  C   UNL     1      13.060   2.627 -17.092  1.00  0.00     0.094 A 
ATOM     10  C   UNL     1      12.300   3.552 -17.813  1.00  0.00     0.146 A 
ATOM     11  O   UNL     1      11.044   3.241 -18.116  1.00  0.00    -0.456 OA
ENDROOT
BRANCH   1  12
ATOM     12  C   UNL     1       8.851   3.592 -19.087  1.00  0.00     0.021 A 
ATOM     13  C   UNL     1       8.537   2.787 -20.199  1.00  0.00     0.016 A 
ATOM     14  C   UNL     1       7.217   2.390 -20.435  1.00  0.00     0.051 A 
ATOM     15  C   UNL     1       6.191   2.795 -19.574  1.00  0.00     0.157 A 
ATOM     16  C   UNL     1       7.812   4.006 -18.235  1.00  0.00     0.062 A 
ATOM     17  C   UNL     1       6.491   3.610 -18.470  1.00  0.00     0.158 A 
BRANCH  15  18
ATOM     18  O   UNL     1       4.877   2.397 -19.813  1.00  0.00    -0.504 OA
ATOM     19  H   UNL     1       4.429   2.554 -20.708  1.00  0.00     0.293 HD
ENDBRANCH  15  18
BRANCH  17  20
ATOM     20  O   UNL     1       5.491   4.035 -17.595  1.00  0.00    -0.504 OA
ATOM     21  H   UNL     1       4.829   4.760 -17.846  1.00  0.00     0.293 HD
ENDBRANCH  17  20
ENDBRANCH   1  12
BRANCH   6  22
ATOM     22  O   UNL     1      14.835   6.311 -18.074  1.00  0.00    -0.507 OA
ATOM     23  H   UNL     1      15.589   6.449 -18.730  1.00  0.00     0.293 HD
ENDBRANCH   6  22
BRANCH   8  24
ATOM     24  O   UNL     1      15.131   1.961 -16.063  1.00  0.00    -0.508 OA
ATOM     25  H   UNL     1      15.364   1.061 -16.467  1.00  0.00     0.293 HD
ENDBRANCH   8  24
TORSDOF 5
ENDMDL
MODEL 9
REMARK VINA RESULT:    -5.694      8.198     10.411
REMARK INTER + INTRA:          -6.962
REMARK INTER:                  -6.699
REMARK INTRA:                  -0.263
REMARK UNBOUND:                -0.270
REMARK SMILES O=c1cc(-c2ccc(O)c(O)c2)oc2cc(O)cc(O)c12
REMARK SMILES IDX 4 1 3 2 2 3 1 4 21 5 19 6 18 7 16 8 15 9 14 10 13 11 5 12
REMARK SMILES IDX 6 13 7 14 8 15 12 16 10 17 9 18 11 20 20 22 17 24
REMARK H PARENT 9 19 11 21 20 23 17 25
REMARK Flexibility Score: inf
ROOT
ATOM      1  C   UNL     1      20.458  -1.762  -7.554  1.00  0.00     0.138 A 
ATOM      2  C   UNL     1      20.272  -0.403  -7.267  1.00  0.00     0.100 A 
ATOM      3  C   UNL     1      19.125   0.248  -7.720  1.00  0.00     0.197 A 
ATOM      4  O   UNL     1      18.957   1.451  -7.394  1.00  0.00    -0.289 OA
ATOM      5  C   UNL     1      18.173  -0.461  -8.491  1.00  0.00     0.107 A 
ATOM      6  C   UNL     1      16.985   0.111  -9.040  1.00  0.00     0.134 A 
ATOM      7  C   UNL     1      16.058  -0.715  -9.688  1.00  0.00     0.093 A 
ATOM      8  C   UNL     1      16.306  -2.081  -9.860  1.00  0.00     0.123 A 
ATOM      9  C   UNL     1      17.487  -2.636  -9.374  1.00  0.00     0.094 A 
ATOM     10  C   UNL     1      18.415  -1.845  -8.693  1.00  0.00     0.146 A 
ATOM     11  O   UNL     1      19.522  -2.418  -8.234  1.00  0.00    -0.456 OA
ENDROOT
BRANCH   1  12
ATOM     12  C   UNL     1      21.661  -2.503  -7.098  1.00  0.00     0.021 A 
ATOM     13  C   UNL     1      21.692  -3.174  -5.860  1.00  0.00     0.016 A 
ATOM     14  C   UNL     1      22.842  -3.855  -5.452  1.00  0.00     0.051 A 
ATOM     15  C   UNL     1      23.981  -3.873  -6.266  1.00  0.00     0.157 A 
ATOM     16  C   UNL     1      22.814  -2.514  -7.903  1.00  0.00     0.062 A 
ATOM     17  C   UNL     1      23.967  -3.196  -7.496  1.00  0.00     0.158 A 
BRANCH  15  18
ATOM     18  O   UNL     1      25.125  -4.555  -5.855  1.00  0.00    -0.504 OA
ATOM     19  H   UNL     1      26.047  -4.144  -5.940  1.00  0.00     0.293 HD
ENDBRANCH  15  18
BRANCH  17  20
ATOM     20  O   UNL     1      25.086  -3.190  -8.328  1.00  0.00    -0.504 OA
ATOM     21  H   UNL     1      25.882  -2.588  -8.155  1.00  0.00     0.293 HD
ENDBRANCH  17  20
ENDBRANCH   1  12
BRANCH   6  22
ATOM     22  O   UNL     1      16.682   1.475  -8.999  1.00  0.00    -0.507 OA
ATOM     23  H   UNL     1      17.314   2.196  -8.686  1.00  0.00     0.293 HD
ENDBRANCH   6  22
BRANCH   8  24
ATOM     24  O   UNL     1      15.385  -2.892 -10.520  1.00  0.00    -0.508 OA
ATOM     25  H   UNL     1      15.322  -2.908 -11.531  1.00  0.00     0.293 HD
ENDBRANCH   8  24
TORSDOF 5
ENDMDL
