MODEL 1
REMARK VINA RESULT:    -0.271      0.000      0.000
REMARK INTER + INTRA:          -0.007
REMARK INTER:                  -0.318
REMARK INTRA:                   0.311
REMARK UNBOUND:                 0.311
REMARK SMILES O=c1c(O)c(-c2ccc(O)cc2)oc2cc(O)cc(O)c12
REMARK SMILES IDX 5 1 3 2 2 3 1 4 21 5 19 6 18 7 16 8 15 9 14 10 13 11 6 12
REMARK SMILES IDX 7 13 8 14 9 15 12 16 11 17 10 18 4 20 20 22 17 24
REMARK H PARENT 10 19 4 21 20 23 17 25
REMARK Flexibility Score: inf
ROOT
ATOM      1  C   UNL     1     188.706 185.342 166.739  1.00  0.00     0.180 A 
ATOM      2  C   UNL     1     188.836 184.398 165.707  1.00  0.00     0.208 A 
ATOM      3  C   UNL     1     188.954 183.038 166.039  1.00  0.00     0.238 A 
ATOM      4  O   UNL     1     189.125 182.203 165.114  1.00  0.00    -0.285 OA
ATOM      5  C   UNL     1     188.923 182.640 167.397  1.00  0.00     0.111 A 
ATOM      6  C   UNL     1     188.993 181.286 167.846  1.00  0.00     0.134 A 
ATOM      7  C   UNL     1     189.086 181.018 169.217  1.00  0.00     0.093 A 
ATOM      8  C   UNL     1     189.044 182.051 170.158  1.00  0.00     0.123 A 
ATOM      9  C   UNL     1     188.916 183.370 169.731  1.00  0.00     0.094 A 
ATOM     10  C   UNL     1     188.858 183.672 168.368  1.00  0.00     0.146 A 
ATOM     11  O   UNL     1     188.746 184.945 168.005  1.00  0.00    -0.452 OA
ENDROOT
BRANCH   1  12
ATOM     12  C   UNL     1     188.551 186.790 166.467  1.00  0.00     0.021 A 
ATOM     13  C   UNL     1     189.115 187.387 165.324  1.00  0.00     0.016 A 
ATOM     14  C   UNL     1     188.935 188.751 165.077  1.00  0.00     0.047 A 
ATOM     15  C   UNL     1     188.182 189.533 165.957  1.00  0.00     0.115 A 
ATOM     16  C   UNL     1     187.778 187.578 167.336  1.00  0.00     0.016 A 
ATOM     17  C   UNL     1     187.601 188.943 167.086  1.00  0.00     0.047 A 
BRANCH  15  18
ATOM     18  O   UNL     1     188.012 190.891 165.698  1.00  0.00    -0.508 OA
ATOM     19  H   UNL     1     187.641 191.522 166.399  1.00  0.00     0.293 HD
ENDBRANCH  15  18
ENDBRANCH   1  12
BRANCH   2  20
ATOM     20  O   UNL     1     188.887 184.815 164.373  1.00  0.00    -0.502 OA
ATOM     21  H   UNL     1     189.753 185.071 163.917  1.00  0.00     0.293 HD
ENDBRANCH   2  20
BRANCH   6  22
ATOM     22  O   UNL     1     188.948 180.179 166.995  1.00  0.00    -0.507 OA
ATOM     23  H   UNL     1     188.191 179.514 166.956  1.00  0.00     0.293 HD
ENDBRANCH   6  22
BRANCH   8  24
ATOM     24  O   UNL     1     189.121 181.774 171.521  1.00  0.00    -0.508 OA
ATOM     25  H   UNL     1     188.986 182.497 172.218  1.00  0.00     0.293 HD
ENDBRANCH   8  24
TORSDOF 5
ENDMDL
MODEL 2
REMARK VINA RESULT:     1.268      8.700     12.517
REMARK INTER + INTRA:           1.802
REMARK INTER:                   2.098
REMARK INTRA:                  -0.296
REMARK UNBOUND:                 0.311
REMARK SMILES O=c1c(O)c(-c2ccc(O)cc2)oc2cc(O)cc(O)c12
REMARK SMILES IDX 5 1 3 2 2 3 1 4 21 5 19 6 18 7 16 8 15 9 14 10 13 11 6 12
REMARK SMILES IDX 7 13 8 14 9 15 12 16 11 17 10 18 4 20 20 22 17 24
REMARK H PARENT 10 19 4 21 20 23 17 25
REMARK Flexibility Score: inf
ROOT
ATOM      1  C   UNL     1     188.298 191.566 174.702  1.00  0.00     0.180 A 
ATOM      2  C   UNL     1     188.506 192.216 175.929  1.00  0.00     0.208 A 
ATOM      3  C   UNL     1     188.759 193.598 175.934  1.00  0.00     0.238 A 
ATOM      4  O   UNL     1     188.998 194.166 177.031  1.00  0.00    -0.285 OA
ATOM      5  C   UNL     1     188.784 194.313 174.712  1.00  0.00     0.111 A 
ATOM      6  C   UNL     1     188.989 195.722 174.601  1.00  0.00     0.134 A 
ATOM      7  C   UNL     1     189.124 196.302 173.334  1.00  0.00     0.093 A 
ATOM      8  C   UNL     1     188.995 195.535 172.173  1.00  0.00     0.123 A 
ATOM      9  C   UNL     1     188.735 194.171 172.271  1.00  0.00     0.094 A 
ATOM     10  C   UNL     1     188.632 193.557 173.521  1.00  0.00     0.146 A 
ATOM     11  O   UNL     1     188.393 192.251 173.568  1.00  0.00    -0.452 OA
ENDROOT
BRANCH   1  12
ATOM     12  C   UNL     1     188.002 190.117 174.619  1.00  0.00     0.021 A 
ATOM     13  C   UNL     1     186.680 189.636 174.642  1.00  0.00     0.016 A 
ATOM     14  C   UNL     1     186.424 188.266 174.538  1.00  0.00     0.047 A 
ATOM     15  C   UNL     1     187.480 187.360 174.396  1.00  0.00     0.115 A 
ATOM     16  C   UNL     1     189.057 189.204 174.454  1.00  0.00     0.016 A 
ATOM     17  C   UNL     1     188.798 187.833 174.351  1.00  0.00     0.047 A 
BRANCH  15  18
ATOM     18  O   UNL     1     187.210 185.998 174.294  1.00  0.00    -0.508 OA
ATOM     19  H   UNL     1     186.266 185.654 174.158  1.00  0.00     0.293 HD
ENDBRANCH  15  18
ENDBRANCH   1  12
BRANCH   2  20
ATOM     20  O   UNL     1     188.499 191.488 177.122  1.00  0.00    -0.502 OA
ATOM     21  H   UNL     1     187.673 191.014 177.465  1.00  0.00     0.293 HD
ENDBRANCH   2  20
BRANCH   6  22
ATOM     22  O   UNL     1     189.041 196.591 175.694  1.00  0.00    -0.507 OA
ATOM     23  H   UNL     1     188.443 196.531 176.505  1.00  0.00     0.293 HD
ENDBRANCH   6  22
BRANCH   8  24
ATOM     24  O   UNL     1     189.116 196.124 170.916  1.00  0.00    -0.508 OA
ATOM     25  H   UNL     1     188.509 195.863 170.148  1.00  0.00     0.293 HD
ENDBRANCH   8  24
TORSDOF 5
ENDMDL
