MODEL 1
REMARK VINA RESULT:    -3.025      0.000      0.000
REMARK INTER + INTRA:          -3.646
REMARK INTER:                  -3.556
REMARK INTRA:                  -0.090
REMARK UNBOUND:                -0.090
REMARK SMILES CCCCC(=O)[O-]
REMARK SMILES IDX 4 1 5 2 6 3 7 4 3 5 2 6 1 7
REMARK H PARENT
REMARK Flexibility Score: inf
ROOT
ATOM      1  C   UNL     1      25.409   8.221  26.429  1.00  0.00     0.053 C 
ENDROOT
BRANCH   1   2
ATOM      2  C   UNL     1      26.628   7.607  27.042  1.00  0.00     0.041 C 
ATOM      3  O   UNL     1      26.703   7.461  28.290  1.00  0.00    -0.550 OA
ATOM      4  O   UNL     1      27.660   7.152  26.231  1.00  0.00    -0.550 OA
ENDBRANCH   1   2
BRANCH   1   5
ATOM      5  C   UNL     1      25.357   9.723  26.722  1.00  0.00     0.006 C 
BRANCH   5   6
ATOM      6  C   UNL     1      24.040  10.103  27.409  1.00  0.00    -0.003 C 
ATOM      7  C   UNL     1      23.242   8.862  27.797  1.00  0.00     0.004 C 
ENDBRANCH   5   6
ENDBRANCH   1   5
TORSDOF 3
ENDMDL
MODEL 2
REMARK VINA RESULT:    -3.021      0.269      1.254
REMARK INTER + INTRA:          -3.640
REMARK INTER:                  -3.559
REMARK INTRA:                  -0.081
REMARK UNBOUND:                -0.090
REMARK SMILES CCCCC(=O)[O-]
REMARK SMILES IDX 4 1 5 2 6 3 7 4 3 5 2 6 1 7
REMARK H PARENT
REMARK Flexibility Score: inf
ROOT
ATOM      1  C   UNL     1      25.516   8.260  26.288  1.00  0.00     0.053 C 
ENDROOT
BRANCH   1   2
ATOM      2  C   UNL     1      26.680   7.587  26.945  1.00  0.00     0.041 C 
ATOM      3  O   UNL     1      27.657   7.195  26.255  1.00  0.00    -0.550 OA
ATOM      4  O   UNL     1      26.708   7.438  28.326  1.00  0.00    -0.550 OA
ENDBRANCH   1   2
BRANCH   1   5
ATOM      5  C   UNL     1      25.257   9.628  26.925  1.00  0.00     0.006 C 
BRANCH   5   6
ATOM      6  C   UNL     1      23.800   9.750  27.389  1.00  0.00    -0.003 C 
ATOM      7  C   UNL     1      23.264   8.409  27.882  1.00  0.00     0.004 C 
ENDBRANCH   5   6
ENDBRANCH   1   5
TORSDOF 3
ENDMDL
MODEL 3
REMARK VINA RESULT:    -2.905      2.450      3.888
REMARK INTER + INTRA:          -3.505
REMARK INTER:                  -3.403
REMARK INTRA:                  -0.102
REMARK UNBOUND:                -0.090
REMARK SMILES CCCCC(=O)[O-]
REMARK SMILES IDX 4 1 5 2 6 3 7 4 3 5 2 6 1 7
REMARK H PARENT
REMARK Flexibility Score: inf
ROOT
ATOM      1  C   UNL     1      23.731   7.879  27.324  1.00  0.00     0.053 C 
ENDROOT
BRANCH   1   2
ATOM      2  C   UNL     1      23.739   9.375  27.299  1.00  0.00     0.041 C 
ATOM      3  O   UNL     1      24.757   9.996  26.897  1.00  0.00    -0.550 OA
ATOM      4  O   UNL     1      22.603  10.082  27.673  1.00  0.00    -0.550 OA
ENDBRANCH   1   2
BRANCH   1   5
ATOM      5  C   UNL     1      24.680   7.319  26.260  1.00  0.00     0.006 C 
BRANCH   5   6
ATOM      6  C   UNL     1      25.848   6.565  26.906  1.00  0.00    -0.003 C 
ATOM      7  C   UNL     1      27.181   7.231  26.581  1.00  0.00     0.004 C 
ENDBRANCH   5   6
ENDBRANCH   1   5
TORSDOF 3
ENDMDL
MODEL 4
REMARK VINA RESULT:    -2.888      2.428      3.706
REMARK INTER + INTRA:          -3.484
REMARK INTER:                  -3.398
REMARK INTRA:                  -0.086
REMARK UNBOUND:                -0.090
REMARK SMILES CCCCC(=O)[O-]
REMARK SMILES IDX 4 1 5 2 6 3 7 4 3 5 2 6 1 7
REMARK H PARENT
REMARK Flexibility Score: inf
ROOT
ATOM      1  C   UNL     1      25.132   9.086  27.471  1.00  0.00     0.053 C 
ENDROOT
BRANCH   1   2
ATOM      2  C   UNL     1      23.651   8.879  27.503  1.00  0.00     0.041 C 
ATOM      3  O   UNL     1      22.873   9.869  27.478  1.00  0.00    -0.550 OA
ATOM      4  O   UNL     1      23.128   7.592  27.510  1.00  0.00    -0.550 OA
ENDBRANCH   1   2
BRANCH   1   5
ATOM      5  C   UNL     1      25.833   8.102  28.413  1.00  0.00     0.006 C 
BRANCH   5   6
ATOM      6  C   UNL     1      26.601   7.037  27.622  1.00  0.00    -0.003 C 
ATOM      7  C   UNL     1      27.014   7.560  26.249  1.00  0.00     0.004 C 
ENDBRANCH   5   6
ENDBRANCH   1   5
TORSDOF 3
ENDMDL
MODEL 5
REMARK VINA RESULT:    -2.821      1.658      2.041
REMARK INTER + INTRA:          -3.406
REMARK INTER:                  -3.335
REMARK INTRA:                  -0.072
REMARK UNBOUND:                -0.090
REMARK SMILES CCCCC(=O)[O-]
REMARK SMILES IDX 4 1 5 2 6 3 7 4 3 5 2 6 1 7
REMARK H PARENT
REMARK Flexibility Score: inf
ROOT
ATOM      1  C   UNL     1      24.442   7.456  26.258  1.00  0.00     0.053 C 
ENDROOT
BRANCH   1   2
ATOM      2  C   UNL     1      25.383   6.386  26.713  1.00  0.00     0.041 C 
ATOM      3  O   UNL     1      25.018   5.181  26.712  1.00  0.00    -0.550 OA
ATOM      4  O   UNL     1      26.679   6.714  27.090  1.00  0.00    -0.550 OA
ENDBRANCH   1   2
BRANCH   1   5
ATOM      5  C   UNL     1      23.537   7.902  27.411  1.00  0.00     0.006 C 
BRANCH   5   6
ATOM      6  C   UNL     1      23.377   9.426  27.427  1.00  0.00    -0.003 C 
ATOM      7  C   UNL     1      24.727  10.124  27.290  1.00  0.00     0.004 C 
ENDBRANCH   5   6
ENDBRANCH   1   5
TORSDOF 3
ENDMDL
MODEL 6
REMARK VINA RESULT:    -2.758      2.371      3.293
REMARK INTER + INTRA:          -3.332
REMARK INTER:                  -3.193
REMARK INTRA:                  -0.138
REMARK UNBOUND:                -0.090
REMARK SMILES CCCCC(=O)[O-]
REMARK SMILES IDX 4 1 5 2 6 3 7 4 3 5 2 6 1 7
REMARK H PARENT
REMARK Flexibility Score: inf
ROOT
ATOM      1  C   UNL     1      26.576   7.443  28.183  1.00  0.00     0.053 C 
ENDROOT
BRANCH   1   2
ATOM      2  C   UNL     1      25.496   8.429  28.499  1.00  0.00     0.041 C 
ATOM      3  O   UNL     1      25.309   9.424  27.750  1.00  0.00    -0.550 OA
ATOM      4  O   UNL     1      24.664   8.223  29.592  1.00  0.00    -0.550 OA
ENDBRANCH   1   2
BRANCH   1   5
ATOM      5  C   UNL     1      26.390   6.876  26.772  1.00  0.00     0.006 C 
BRANCH   5   6
ATOM      6  C   UNL     1      25.126   6.012  26.689  1.00  0.00    -0.003 C 
ATOM      7  C   UNL     1      24.215   6.475  25.555  1.00  0.00     0.004 C 
ENDBRANCH   5   6
ENDBRANCH   1   5
TORSDOF 3
ENDMDL
MODEL 7
REMARK VINA RESULT:    -2.736      2.146      3.107
REMARK INTER + INTRA:          -3.306
REMARK INTER:                  -3.226
REMARK INTRA:                  -0.081
REMARK UNBOUND:                -0.090
REMARK SMILES CCCCC(=O)[O-]
REMARK SMILES IDX 4 1 5 2 6 3 7 4 3 5 2 6 1 7
REMARK H PARENT
REMARK Flexibility Score: inf
ROOT
ATOM      1  C   UNL     1      23.456   9.012  27.401  1.00  0.00     0.053 C 
ENDROOT
BRANCH   1   2
ATOM      2  C   UNL     1      24.825   9.575  27.614  1.00  0.00     0.041 C 
ATOM      3  O   UNL     1      25.300   9.661  28.777  1.00  0.00    -0.550 OA
ATOM      4  O   UNL     1      25.596   9.958  26.524  1.00  0.00    -0.550 OA
ENDBRANCH   1   2
BRANCH   1   5
ATOM      5  C   UNL     1      23.359   7.599  27.986  1.00  0.00     0.006 C 
BRANCH   5   6
ATOM      6  C   UNL     1      23.390   6.542  26.876  1.00  0.00    -0.003 C 
ATOM      7  C   UNL     1      24.792   5.964  26.704  1.00  0.00     0.004 C 
ENDBRANCH   5   6
ENDBRANCH   1   5
TORSDOF 3
ENDMDL
MODEL 8
REMARK VINA RESULT:    -2.659      2.281      3.181
REMARK INTER + INTRA:          -3.215
REMARK INTER:                  -3.131
REMARK INTRA:                  -0.084
REMARK UNBOUND:                -0.090
REMARK SMILES CCCCC(=O)[O-]
REMARK SMILES IDX 4 1 5 2 6 3 7 4 3 5 2 6 1 7
REMARK H PARENT
REMARK Flexibility Score: inf
ROOT
ATOM      1  C   UNL     1      23.438   8.992  27.422  1.00  0.00     0.053 C 
ENDROOT
BRANCH   1   2
ATOM      2  C   UNL     1      23.508   7.668  28.114  1.00  0.00     0.041 C 
ATOM      3  O   UNL     1      23.870   7.601  29.318  1.00  0.00    -0.550 OA
ATOM      4  O   UNL     1      23.124   6.512  27.445  1.00  0.00    -0.550 OA
ENDBRANCH   1   2
BRANCH   1   5
ATOM      5  C   UNL     1      24.822   9.645  27.372  1.00  0.00     0.006 C 
BRANCH   5   6
ATOM      6  C   UNL     1      25.774   8.848  26.471  1.00  0.00    -0.003 C 
ATOM      7  C   UNL     1      26.500   9.764  25.490  1.00  0.00     0.004 C 
ENDBRANCH   5   6
ENDBRANCH   1   5
TORSDOF 3
ENDMDL
MODEL 9
REMARK VINA RESULT:    -2.637     11.390     12.606
REMARK INTER + INTRA:          -3.189
REMARK INTER:                  -3.170
REMARK INTRA:                  -0.019
REMARK UNBOUND:                -0.090
REMARK SMILES CCCCC(=O)[O-]
REMARK SMILES IDX 4 1 5 2 6 3 7 4 3 5 2 6 1 7
REMARK H PARENT
REMARK Flexibility Score: inf
ROOT
ATOM      1  C   UNL     1      20.559   8.955  38.315  1.00  0.00     0.053 C 
ENDROOT
BRANCH   1   2
ATOM      2  C   UNL     1      21.866   9.557  37.907  1.00  0.00     0.041 C 
ATOM      3  O   UNL     1      22.054   9.913  36.714  1.00  0.00    -0.550 OA
ATOM      4  O   UNL     1      22.859   9.771  38.854  1.00  0.00    -0.550 OA
ENDBRANCH   1   2
BRANCH   1   5
ATOM      5  C   UNL     1      19.449  10.009  38.284  1.00  0.00     0.006 C 
BRANCH   5   6
ATOM      6  C   UNL     1      18.564   9.912  39.532  1.00  0.00    -0.003 C 
ATOM      7  C   UNL     1      17.093  10.121  39.183  1.00  0.00     0.004 C 
ENDBRANCH   5   6
ENDBRANCH   1   5
TORSDOF 3
ENDMDL
