MODEL 1
REMARK VINA RESULT:    -3.564      0.000      0.000
REMARK INTER + INTRA:          -8.257
REMARK INTER:                  -6.272
REMARK INTRA:                  -1.985
REMARK UNBOUND:                -1.985
REMARK SMILES CCCCCCCCCCCCCCC(=O)[O-]
REMARK SMILES IDX 9 1 10 2 11 3 12 4 13 5 14 6 15 7 16 8 17 9 8 10 7 11 6 12
REMARK SMILES IDX 5 13 4 14 3 15 2 16 1 17
REMARK H PARENT
REMARK Flexibility Score: inf
ROOT
ATOM      1  C   UNL     1     -13.714  -8.261  26.521  1.00  0.00     0.000 C 
ENDROOT
BRANCH   1   2
ATOM      2  C   UNL     1     -12.273  -8.261  25.979  1.00  0.00     0.000 C 
BRANCH   2   3
ATOM      3  C   UNL     1     -11.236  -8.646  27.045  1.00  0.00     0.000 C 
BRANCH   3   4
ATOM      4  C   UNL     1     -10.741 -10.082  26.837  1.00  0.00     0.000 C 
BRANCH   4   5
ATOM      5  C   UNL     1     -10.872 -10.902  28.125  1.00  0.00     0.006 C 
BRANCH   5   6
ATOM      6  C   UNL     1     -11.571 -10.095  29.222  1.00  0.00     0.053 C 
BRANCH   6   7
ATOM      7  C   UNL     1     -12.815 -10.792  29.675  1.00  0.00     0.041 C 
ATOM      8  O   UNL     1     -12.905 -11.229  30.853  1.00  0.00    -0.550 OA
ATOM      9  O   UNL     1     -13.896 -10.915  28.812  1.00  0.00    -0.550 OA
ENDBRANCH   6   7
ENDBRANCH   5   6
ENDBRANCH   4   5
ENDBRANCH   3   4
ENDBRANCH   2   3
ENDBRANCH   1   2
BRANCH   1  10
ATOM     10  C   UNL     1     -14.700  -9.166  25.754  1.00  0.00     0.000 C 
BRANCH  10  11
ATOM     11  C   UNL     1     -14.157  -9.758  24.441  1.00  0.00    -0.000 C 
BRANCH  11  12
ATOM     12  C   UNL     1     -14.623  -8.983  23.199  1.00  0.00    -0.000 C 
BRANCH  12  13
ATOM     13  C   UNL     1     -13.422  -8.469  22.392  1.00  0.00    -0.000 C 
BRANCH  13  14
ATOM     14  C   UNL     1     -13.097  -6.992  22.677  1.00  0.00    -0.000 C 
BRANCH  14  15
ATOM     15  C   UNL     1     -14.324  -6.085  22.901  1.00  0.00    -0.000 C 
BRANCH  15  16
ATOM     16  C   UNL     1     -14.449  -5.501  24.319  1.00  0.00    -0.003 C 
ATOM     17  C   UNL     1     -15.849  -5.666  24.909  1.00  0.00     0.004 C 
ENDBRANCH  15  16
ENDBRANCH  14  15
ENDBRANCH  13  14
ENDBRANCH  12  13
ENDBRANCH  11  12
ENDBRANCH  10  11
ENDBRANCH   1  10
TORSDOF 13
ENDMDL
MODEL 2
REMARK VINA RESULT:    -3.534      1.660      3.591
REMARK INTER + INTRA:          -8.204
REMARK INTER:                  -6.448
REMARK INTRA:                  -1.755
REMARK UNBOUND:                -1.985
REMARK SMILES CCCCCCCCCCCCCCC(=O)[O-]
REMARK SMILES IDX 9 1 10 2 11 3 12 4 13 5 14 6 15 7 16 8 17 9 8 10 7 11 6 12
REMARK SMILES IDX 5 13 4 14 3 15 2 16 1 17
REMARK H PARENT
REMARK Flexibility Score: inf
ROOT
ATOM      1  C   UNL     1     -16.087  -7.102  26.087  1.00  0.00     0.000 C 
ENDROOT
BRANCH   1   2
ATOM      2  C   UNL     1     -15.650  -8.475  25.546  1.00  0.00     0.000 C 
BRANCH   2   3
ATOM      3  C   UNL     1     -14.930  -9.329  26.599  1.00  0.00     0.000 C 
BRANCH   3   4
ATOM      4  C   UNL     1     -13.466  -9.566  26.207  1.00  0.00     0.000 C 
BRANCH   4   5
ATOM      5  C   UNL     1     -12.630  -8.297  26.409  1.00  0.00     0.006 C 
BRANCH   5   6
ATOM      6  C   UNL     1     -11.327  -8.609  27.150  1.00  0.00     0.053 C 
BRANCH   6   7
ATOM      7  C   UNL     1     -11.535  -8.535  28.629  1.00  0.00     0.041 C 
ATOM      8  O   UNL     1     -11.308  -7.463  29.250  1.00  0.00    -0.550 OA
ATOM      9  O   UNL     1     -12.027  -9.636  29.318  1.00  0.00    -0.550 OA
ENDBRANCH   6   7
ENDBRANCH   5   6
ENDBRANCH   4   5
ENDBRANCH   3   4
ENDBRANCH   2   3
ENDBRANCH   1   2
BRANCH   1  10
ATOM     10  C   UNL     1     -15.945  -5.932  25.092  1.00  0.00     0.000 C 
BRANCH  10  11
ATOM     11  C   UNL     1     -14.560  -5.798  24.434  1.00  0.00    -0.000 C 
BRANCH  11  12
ATOM     12  C   UNL     1     -14.637  -5.612  22.912  1.00  0.00    -0.000 C 
BRANCH  12  13
ATOM     13  C   UNL     1     -13.503  -6.371  22.209  1.00  0.00    -0.000 C 
BRANCH  13  14
ATOM     14  C   UNL     1     -13.112  -7.671  22.935  1.00  0.00    -0.000 C 
BRANCH  14  15
ATOM     15  C   UNL     1     -13.828  -8.940  22.431  1.00  0.00    -0.000 C 
BRANCH  15  16
ATOM     16  C   UNL     1     -12.899 -10.034  21.878  1.00  0.00    -0.003 C 
ATOM     17  C   UNL     1     -12.321 -10.933  22.970  1.00  0.00     0.004 C 
ENDBRANCH  15  16
ENDBRANCH  14  15
ENDBRANCH  13  14
ENDBRANCH  12  13
ENDBRANCH  11  12
ENDBRANCH  10  11
ENDBRANCH   1  10
TORSDOF 13
ENDMDL
MODEL 3
REMARK VINA RESULT:    -3.520      3.184      6.077
REMARK INTER + INTRA:          -8.180
REMARK INTER:                  -6.118
REMARK INTRA:                  -2.062
REMARK UNBOUND:                -1.985
REMARK SMILES CCCCCCCCCCCCCCC(=O)[O-]
REMARK SMILES IDX 9 1 10 2 11 3 12 4 13 5 14 6 15 7 16 8 17 9 8 10 7 11 6 12
REMARK SMILES IDX 5 13 4 14 3 15 2 16 1 17
REMARK H PARENT
REMARK Flexibility Score: inf
ROOT
ATOM      1  C   UNL     1     -11.610  -9.134  28.709  1.00  0.00     0.000 C 
ENDROOT
BRANCH   1   2
ATOM      2  C   UNL     1     -11.048  -9.357  27.294  1.00  0.00     0.000 C 
BRANCH   2   3
ATOM      3  C   UNL     1     -11.614  -8.368  26.264  1.00  0.00     0.000 C 
BRANCH   3   4
ATOM      4  C   UNL     1     -13.124  -8.184  26.453  1.00  0.00     0.000 C 
BRANCH   4   5
ATOM      5  C   UNL     1     -13.778  -7.649  25.174  1.00  0.00     0.006 C 
BRANCH   5   6
ATOM      6  C   UNL     1     -12.727  -7.090  24.211  1.00  0.00     0.053 C 
BRANCH   6   7
ATOM      7  C   UNL     1     -13.217  -7.164  22.800  1.00  0.00     0.041 C 
ATOM      8  O   UNL     1     -13.182  -8.256  22.173  1.00  0.00    -0.550 OA
ATOM      9  O   UNL     1     -13.759  -6.039  22.192  1.00  0.00    -0.550 OA
ENDBRANCH   6   7
ENDBRANCH   5   6
ENDBRANCH   4   5
ENDBRANCH   3   4
ENDBRANCH   2   3
ENDBRANCH   1   2
BRANCH   1  10
ATOM     10  C   UNL     1     -11.413 -10.313  29.684  1.00  0.00     0.000 C 
BRANCH  10  11
ATOM     11  C   UNL     1     -12.703 -10.850  30.329  1.00  0.00    -0.000 C 
BRANCH  11  12
ATOM     12  C   UNL     1     -13.847 -11.025  29.319  1.00  0.00    -0.000 C 
BRANCH  12  13
ATOM     13  C   UNL     1     -13.534 -12.156  28.328  1.00  0.00    -0.000 C 
BRANCH  13  14
ATOM     14  C   UNL     1     -14.008 -11.846  26.897  1.00  0.00    -0.000 C 
BRANCH  14  15
ATOM     15  C   UNL     1     -12.937 -12.022  25.802  1.00  0.00    -0.000 C 
BRANCH  15  16
ATOM     16  C   UNL     1     -13.232 -11.292  24.481  1.00  0.00    -0.003 C 
ATOM     17  C   UNL     1     -12.043 -11.293  23.522  1.00  0.00     0.004 C 
ENDBRANCH  15  16
ENDBRANCH  14  15
ENDBRANCH  13  14
ENDBRANCH  12  13
ENDBRANCH  11  12
ENDBRANCH  10  11
ENDBRANCH   1  10
TORSDOF 13
ENDMDL
MODEL 4
REMARK VINA RESULT:    -3.513      3.420      5.784
REMARK INTER + INTRA:          -8.168
REMARK INTER:                  -5.880
REMARK INTRA:                  -2.288
REMARK UNBOUND:                -1.985
REMARK SMILES CCCCCCCCCCCCCCC(=O)[O-]
REMARK SMILES IDX 9 1 10 2 11 3 12 4 13 5 14 6 15 7 16 8 17 9 8 10 7 11 6 12
REMARK SMILES IDX 5 13 4 14 3 15 2 16 1 17
REMARK H PARENT
REMARK Flexibility Score: inf
ROOT
ATOM      1  C   UNL     1     -14.584  -9.615  26.583  1.00  0.00     0.000 C 
ENDROOT
BRANCH   1   2
ATOM      2  C   UNL     1     -14.202 -10.629  25.489  1.00  0.00     0.000 C 
BRANCH   2   3
ATOM      3  C   UNL     1     -14.615 -12.066  25.838  1.00  0.00     0.000 C 
BRANCH   3   4
ATOM      4  C   UNL     1     -13.439 -13.034  25.658  1.00  0.00     0.000 C 
BRANCH   4   5
ATOM      5  C   UNL     1     -12.216 -12.313  25.080  1.00  0.00     0.006 C 
BRANCH   5   6
ATOM      6  C   UNL     1     -10.938 -13.123  25.315  1.00  0.00     0.053 C 
BRANCH   6   7
ATOM      7  C   UNL     1     -10.689 -14.055  24.172  1.00  0.00     0.041 C 
ATOM      8  O   UNL     1     -11.036 -15.263  24.252  1.00  0.00    -0.550 OA
ATOM      9  O   UNL     1     -10.120 -13.579  22.998  1.00  0.00    -0.550 OA
ENDBRANCH   6   7
ENDBRANCH   5   6
ENDBRANCH   4   5
ENDBRANCH   3   4
ENDBRANCH   2   3
ENDBRANCH   1   2
BRANCH   1  10
ATOM     10  C   UNL     1     -13.750  -8.318  26.591  1.00  0.00     0.000 C 
BRANCH  10  11
ATOM     11  C   UNL     1     -12.378  -8.419  25.902  1.00  0.00    -0.000 C 
BRANCH  11  12
ATOM     12  C   UNL     1     -11.242  -8.752  26.880  1.00  0.00    -0.000 C 
BRANCH  12  13
ATOM     13  C   UNL     1     -11.554  -8.215  28.285  1.00  0.00    -0.000 C 
BRANCH  13  14
ATOM     14  C   UNL     1     -11.573  -9.319  29.357  1.00  0.00    -0.000 C 
BRANCH  14  15
ATOM     15  C   UNL     1     -11.303 -10.743  28.833  1.00  0.00    -0.000 C 
BRANCH  15  16
ATOM     16  C   UNL     1     -12.502 -11.704  28.914  1.00  0.00    -0.003 C 
ATOM     17  C   UNL     1     -13.654 -11.148  29.750  1.00  0.00     0.004 C 
ENDBRANCH  15  16
ENDBRANCH  14  15
ENDBRANCH  13  14
ENDBRANCH  12  13
ENDBRANCH  11  12
ENDBRANCH  10  11
ENDBRANCH   1  10
TORSDOF 13
ENDMDL
MODEL 5
REMARK VINA RESULT:    -3.512      3.433      5.574
REMARK INTER + INTRA:          -8.165
REMARK INTER:                  -5.758
REMARK INTRA:                  -2.408
REMARK UNBOUND:                -1.985
REMARK SMILES CCCCCCCCCCCCCCC(=O)[O-]
REMARK SMILES IDX 9 1 10 2 11 3 12 4 13 5 14 6 15 7 16 8 17 9 8 10 7 11 6 12
REMARK SMILES IDX 5 13 4 14 3 15 2 16 1 17
REMARK H PARENT
REMARK Flexibility Score: inf
ROOT
ATOM      1  C   UNL     1     -14.398 -10.584  26.091  1.00  0.00     0.000 C 
ENDROOT
BRANCH   1   2
ATOM      2  C   UNL     1     -14.161 -11.866  26.909  1.00  0.00     0.000 C 
BRANCH   2   3
ATOM      3  C   UNL     1     -13.305 -12.900  26.162  1.00  0.00     0.000 C 
BRANCH   3   4
ATOM      4  C   UNL     1     -12.693 -12.293  24.895  1.00  0.00     0.000 C 
BRANCH   4   5
ATOM      5  C   UNL     1     -11.268 -12.813  24.668  1.00  0.00     0.006 C 
BRANCH   5   6
ATOM      6  C   UNL     1     -10.911 -13.900  25.685  1.00  0.00     0.053 C 
BRANCH   6   7
ATOM      7  C   UNL     1     -10.458 -15.143  24.988  1.00  0.00     0.041 C 
ATOM      8  O   UNL     1     -10.562 -16.263  25.555  1.00  0.00    -0.550 OA
ATOM      9  O   UNL     1      -9.968 -15.073  23.690  1.00  0.00    -0.550 OA
ENDBRANCH   6   7
ENDBRANCH   5   6
ENDBRANCH   4   5
ENDBRANCH   3   4
ENDBRANCH   2   3
ENDBRANCH   1   2
BRANCH   1  10
ATOM     10  C   UNL     1     -14.495  -9.288  26.922  1.00  0.00     0.000 C 
BRANCH  10  11
ATOM     11  C   UNL     1     -13.678  -8.101  26.379  1.00  0.00    -0.000 C 
BRANCH  11  12
ATOM     12  C   UNL     1     -12.307  -8.522  25.829  1.00  0.00    -0.000 C 
BRANCH  12  13
ATOM     13  C   UNL     1     -11.284  -8.669  26.964  1.00  0.00    -0.000 C 
BRANCH  13  14
ATOM     14  C   UNL     1     -10.754 -10.107  27.110  1.00  0.00    -0.000 C 
BRANCH  14  15
ATOM     15  C   UNL     1     -10.915 -10.724  28.514  1.00  0.00    -0.000 C 
BRANCH  15  16
ATOM     16  C   UNL     1     -11.828  -9.935  29.469  1.00  0.00    -0.003 C 
ATOM     17  C   UNL     1     -12.871 -10.814  30.156  1.00  0.00     0.004 C 
ENDBRANCH  15  16
ENDBRANCH  14  15
ENDBRANCH  13  14
ENDBRANCH  12  13
ENDBRANCH  11  12
ENDBRANCH  10  11
ENDBRANCH   1  10
TORSDOF 13
ENDMDL
MODEL 6
REMARK VINA RESULT:    -3.510      2.911      5.235
REMARK INTER + INTRA:          -8.163
REMARK INTER:                  -5.804
REMARK INTRA:                  -2.359
REMARK UNBOUND:                -1.985
REMARK SMILES CCCCCCCCCCCCCCC(=O)[O-]
REMARK SMILES IDX 9 1 10 2 11 3 12 4 13 5 14 6 15 7 16 8 17 9 8 10 7 11 6 12
REMARK SMILES IDX 5 13 4 14 3 15 2 16 1 17
REMARK H PARENT
REMARK Flexibility Score: inf
ROOT
ATOM      1  C   UNL     1     -10.923 -10.681  28.488  1.00  0.00     0.000 C 
ENDROOT
BRANCH   1   2
ATOM      2  C   UNL     1     -11.621  -9.484  29.157  1.00  0.00     0.000 C 
BRANCH   2   3
ATOM      3  C   UNL     1     -11.713  -8.256  28.238  1.00  0.00     0.000 C 
BRANCH   3   4
ATOM      4  C   UNL     1     -11.320  -8.616  26.801  1.00  0.00     0.000 C 
BRANCH   4   5
ATOM      5  C   UNL     1     -12.387  -8.149  25.805  1.00  0.00     0.006 C 
BRANCH   5   6
ATOM      6  C   UNL     1     -13.778  -8.155  26.445  1.00  0.00     0.053 C 
BRANCH   6   7
ATOM      7  C   UNL     1     -14.809  -7.694  25.464  1.00  0.00     0.041 C 
ATOM      8  O   UNL     1     -14.950  -8.290  24.363  1.00  0.00    -0.550 OA
ATOM      9  O   UNL     1     -15.650  -6.636  25.786  1.00  0.00    -0.550 OA
ENDBRANCH   6   7
ENDBRANCH   5   6
ENDBRANCH   4   5
ENDBRANCH   3   4
ENDBRANCH   2   3
ENDBRANCH   1   2
BRANCH   1  10
ATOM     10  C   UNL     1     -11.779 -11.959  28.380  1.00  0.00     0.000 C 
BRANCH  10  11
ATOM     11  C   UNL     1     -13.264 -11.785  28.749  1.00  0.00    -0.000 C 
BRANCH  11  12
ATOM     12  C   UNL     1     -14.171 -11.641  27.518  1.00  0.00    -0.000 C 
BRANCH  12  13
ATOM     13  C   UNL     1     -13.529 -12.294  26.285  1.00  0.00    -0.000 C 
BRANCH  13  14
ATOM     14  C   UNL     1     -13.862 -11.557  24.975  1.00  0.00    -0.000 C 
BRANCH  14  15
ATOM     15  C   UNL     1     -12.680 -11.392  24.000  1.00  0.00    -0.000 C 
BRANCH  15  16
ATOM     16  C   UNL     1     -11.288 -11.581  24.627  1.00  0.00    -0.003 C 
ATOM     17  C   UNL     1     -10.285 -12.220  23.668  1.00  0.00     0.004 C 
ENDBRANCH  15  16
ENDBRANCH  14  15
ENDBRANCH  13  14
ENDBRANCH  12  13
ENDBRANCH  11  12
ENDBRANCH  10  11
ENDBRANCH   1  10
TORSDOF 13
ENDMDL
MODEL 7
REMARK VINA RESULT:    -3.484      3.211      6.613
REMARK INTER + INTRA:          -8.117
REMARK INTER:                  -6.251
REMARK INTRA:                  -1.866
REMARK UNBOUND:                -1.985
REMARK SMILES CCCCCCCCCCCCCCC(=O)[O-]
REMARK SMILES IDX 9 1 10 2 11 3 12 4 13 5 14 6 15 7 16 8 17 9 8 10 7 11 6 12
REMARK SMILES IDX 5 13 4 14 3 15 2 16 1 17
REMARK H PARENT
REMARK Flexibility Score: inf
ROOT
ATOM      1  C   UNL     1     -14.864  -9.217  25.491  1.00  0.00     0.000 C 
ENDROOT
BRANCH   1   2
ATOM      2  C   UNL     1     -15.894  -8.173  25.025  1.00  0.00     0.000 C 
BRANCH   2   3
ATOM      3  C   UNL     1     -15.881  -6.898  25.881  1.00  0.00     0.000 C 
BRANCH   3   4
ATOM      4  C   UNL     1     -15.777  -5.647  25.001  1.00  0.00     0.000 C 
BRANCH   4   5
ATOM      5  C   UNL     1     -14.454  -5.626  24.227  1.00  0.00     0.006 C 
BRANCH   5   6
ATOM      6  C   UNL     1     -14.700  -5.535  22.719  1.00  0.00     0.053 C 
BRANCH   6   7
ATOM      7  C   UNL     1     -13.897  -6.567  21.993  1.00  0.00     0.041 C 
ATOM      8  O   UNL     1     -12.694  -6.772  22.307  1.00  0.00    -0.550 OA
ATOM      9  O   UNL     1     -14.489  -7.338  21.001  1.00  0.00    -0.550 OA
ENDBRANCH   6   7
ENDBRANCH   5   6
ENDBRANCH   4   5
ENDBRANCH   3   4
ENDBRANCH   2   3
ENDBRANCH   1   2
BRANCH   1  10
ATOM     10  C   UNL     1     -13.503  -9.160  24.768  1.00  0.00     0.000 C 
BRANCH  10  11
ATOM     11  C   UNL     1     -12.362  -8.512  25.573  1.00  0.00    -0.000 C 
BRANCH  11  12
ATOM     12  C   UNL     1     -12.720  -8.304  27.052  1.00  0.00    -0.000 C 
BRANCH  12  13
ATOM     13  C   UNL     1     -11.584  -8.789  27.964  1.00  0.00    -0.000 C 
BRANCH  13  14
ATOM     14  C   UNL     1     -12.019  -9.920  28.913  1.00  0.00    -0.000 C 
BRANCH  14  15
ATOM     15  C   UNL     1     -13.427 -10.489  28.648  1.00  0.00    -0.000 C 
BRANCH  15  16
ATOM     16  C   UNL     1     -13.483 -12.011  28.430  1.00  0.00    -0.003 C 
ATOM     17  C   UNL     1     -13.751 -12.395  26.976  1.00  0.00     0.004 C 
ENDBRANCH  15  16
ENDBRANCH  14  15
ENDBRANCH  13  14
ENDBRANCH  12  13
ENDBRANCH  11  12
ENDBRANCH  10  11
ENDBRANCH   1  10
TORSDOF 13
ENDMDL
MODEL 8
REMARK VINA RESULT:    -3.464      3.274      5.725
REMARK INTER + INTRA:          -8.081
REMARK INTER:                  -6.070
REMARK INTRA:                  -2.011
REMARK UNBOUND:                -1.985
REMARK SMILES CCCCCCCCCCCCCCC(=O)[O-]
REMARK SMILES IDX 9 1 10 2 11 3 12 4 13 5 14 6 15 7 16 8 17 9 8 10 7 11 6 12
REMARK SMILES IDX 5 13 4 14 3 15 2 16 1 17
REMARK H PARENT
REMARK Flexibility Score: inf
ROOT
ATOM      1  C   UNL     1     -14.594  -9.714  26.518  1.00  0.00     0.000 C 
ENDROOT
BRANCH   1   2
ATOM      2  C   UNL     1     -14.474 -10.193  25.061  1.00  0.00     0.000 C 
BRANCH   2   3
ATOM      3  C   UNL     1     -14.437 -11.724  24.937  1.00  0.00     0.000 C 
BRANCH   3   4
ATOM      4  C   UNL     1     -14.231 -12.380  26.307  1.00  0.00     0.000 C 
BRANCH   4   5
ATOM      5  C   UNL     1     -13.330 -13.615  26.197  1.00  0.00     0.006 C 
BRANCH   5   6
ATOM      6  C   UNL     1     -13.845 -14.578  25.124  1.00  0.00     0.053 C 
BRANCH   6   7
ATOM      7  C   UNL     1     -13.984 -15.959  25.683  1.00  0.00     0.041 C 
ATOM      8  O   UNL     1     -13.002 -16.523  26.233  1.00  0.00    -0.550 OA
ATOM      9  O   UNL     1     -15.213 -16.605  25.640  1.00  0.00    -0.550 OA
ENDBRANCH   6   7
ENDBRANCH   5   6
ENDBRANCH   4   5
ENDBRANCH   3   4
ENDBRANCH   2   3
ENDBRANCH   1   2
BRANCH   1  10
ATOM     10  C   UNL     1     -13.783  -8.447  26.859  1.00  0.00     0.000 C 
BRANCH  10  11
ATOM     11  C   UNL     1     -12.451  -8.301  26.102  1.00  0.00    -0.000 C 
BRANCH  11  12
ATOM     12  C   UNL     1     -11.241  -8.756  26.931  1.00  0.00    -0.000 C 
BRANCH  12  13
ATOM     13  C   UNL     1     -11.015 -10.268  26.787  1.00  0.00    -0.000 C 
BRANCH  13  14
ATOM     14  C   UNL     1     -11.243 -11.035  28.102  1.00  0.00    -0.000 C 
BRANCH  14  15
ATOM     15  C   UNL     1     -11.277 -10.160  29.371  1.00  0.00    -0.000 C 
BRANCH  15  16
ATOM     16  C   UNL     1     -12.410 -10.489  30.358  1.00  0.00    -0.003 C 
ATOM     17  C   UNL     1     -13.558 -11.262  29.710  1.00  0.00     0.004 C 
ENDBRANCH  15  16
ENDBRANCH  14  15
ENDBRANCH  13  14
ENDBRANCH  12  13
ENDBRANCH  11  12
ENDBRANCH  10  11
ENDBRANCH   1  10
TORSDOF 13
ENDMDL
MODEL 9
REMARK VINA RESULT:    -3.449      2.253      4.960
REMARK INTER + INTRA:          -8.055
REMARK INTER:                  -5.776
REMARK INTRA:                  -2.279
REMARK UNBOUND:                -1.985
REMARK SMILES CCCCCCCCCCCCCCC(=O)[O-]
REMARK SMILES IDX 9 1 10 2 11 3 12 4 13 5 14 6 15 7 16 8 17 9 8 10 7 11 6 12
REMARK SMILES IDX 5 13 4 14 3 15 2 16 1 17
REMARK H PARENT
REMARK Flexibility Score: inf
ROOT
ATOM      1  C   UNL     1     -14.678 -10.044  26.448  1.00  0.00     0.000 C 
ENDROOT
BRANCH   1   2
ATOM      2  C   UNL     1     -13.720  -9.487  25.380  1.00  0.00     0.000 C 
BRANCH   2   3
ATOM      3  C   UNL     1     -12.957  -8.241  25.854  1.00  0.00     0.000 C 
BRANCH   3   4
ATOM      4  C   UNL     1     -11.612  -8.626  26.480  1.00  0.00     0.000 C 
BRANCH   4   5
ATOM      5  C   UNL     1     -11.645  -8.459  28.003  1.00  0.00     0.006 C 
BRANCH   5   6
ATOM      6  C   UNL     1     -11.280  -9.768  28.709  1.00  0.00     0.053 C 
BRANCH   6   7
ATOM      7  C   UNL     1     -11.902  -9.823  30.068  1.00  0.00     0.041 C 
ATOM      8  O   UNL     1     -12.845 -10.625  30.302  1.00  0.00    -0.550 OA
ATOM      9  O   UNL     1     -11.409  -9.025  31.091  1.00  0.00    -0.550 OA
ENDBRANCH   6   7
ENDBRANCH   5   6
ENDBRANCH   4   5
ENDBRANCH   3   4
ENDBRANCH   2   3
ENDBRANCH   1   2
BRANCH   1  10
ATOM     10  C   UNL     1     -14.243 -11.381  27.083  1.00  0.00     0.000 C 
BRANCH  10  11
ATOM     11  C   UNL     1     -14.161 -12.571  26.109  1.00  0.00    -0.000 C 
BRANCH  11  12
ATOM     12  C   UNL     1     -13.188 -13.661  26.581  1.00  0.00    -0.000 C 
BRANCH  12  13
ATOM     13  C   UNL     1     -12.498 -13.251  27.890  1.00  0.00    -0.000 C 
BRANCH  13  14
ATOM     14  C   UNL     1     -10.963 -13.238  27.779  1.00  0.00    -0.000 C 
BRANCH  14  15
ATOM     15  C   UNL     1     -10.412 -13.279  26.339  1.00  0.00    -0.000 C 
BRANCH  15  16
ATOM     16  C   UNL     1     -10.121 -11.904  25.715  1.00  0.00    -0.003 C 
ATOM     17  C   UNL     1     -10.886 -11.667  24.414  1.00  0.00     0.004 C 
ENDBRANCH  15  16
ENDBRANCH  14  15
ENDBRANCH  13  14
ENDBRANCH  12  13
ENDBRANCH  11  12
ENDBRANCH  10  11
ENDBRANCH   1  10
TORSDOF 13
ENDMDL
