MODEL 1
REMARK VINA RESULT:    -2.981      0.000      0.000
REMARK INTER + INTRA:          -4.432
REMARK INTER:                  -4.549
REMARK INTRA:                   0.117
REMARK UNBOUND:                 0.117
REMARK SMILES CC1=CCC[C@@H](C)C(=O)C[C@H](C(C)C)C(=O)C1
REMARK SMILES IDX 8 1 9 2 6 3 7 4 5 5 4 6 3 7 2 8 1 9 10 11 11 12 15 13 16 14
REMARK SMILES IDX 17 15 12 17 13 18 14 19
REMARK H PARENT
REMARK Flexibility Score: 70.00
ROOT
ATOM      1  C   UNL     1      20.348   3.246  22.920  1.00  0.00     0.136 C 
ATOM      2  O   UNL     1      21.427   3.575  22.450  1.00  0.00    -0.299 OA
ENDROOT
BRANCH   1   3
ATOM      3  C   UNL     1      20.171   3.291  24.432  1.00  0.00     0.053 C 
ATOM      4  C   UNL     1      20.851   4.507  25.077  1.00  0.00     0.016 C 
BRANCH   3   5
ATOM      5  C   UNL     1      20.512   1.947  25.119  1.00  0.00     0.015 C 
BRANCH   5   6
ATOM      6  C   UNL     1      19.416   0.863  25.045  1.00  0.00     0.028 C 
BRANCH   6   7
ATOM      7  C   UNL     1      19.934  -0.383  24.370  1.00  0.00    -0.028 C 
ATOM      8  C   UNL     1      19.574  -0.791  23.130  1.00  0.00    -0.070 CG0
ATOM      9  C   UNL     1      20.130  -2.100  22.627  1.00  0.00     0.039 C 
ATOM     10  G   UNL     1      18.651   0.016  22.227  1.00  0.00     0.000 G0
ENDBRANCH   6   7
ENDBRANCH   5   6
ENDBRANCH   3   5
ENDBRANCH   1   3
BRANCH   1  11
ATOM     11  C   UNL     1      19.257   2.790  21.972  1.00  0.00     0.087 C 
BRANCH  11  12
ATOM     12  C   UNL     1      19.764   1.940  20.774  1.00  0.00     0.066 C 
BRANCH  12  13
ATOM     13  C   UNL     1      19.369   0.481  20.954  1.00  0.00     0.140 C 
ATOM     14  O   UNL     1      19.670  -0.340  20.098  1.00  0.00    -0.299 OA
BRANCH  13  15
ATOM     15  C   UNL     1      18.671   0.025  22.211  1.00  0.00     0.106 CG0
ATOM     16  G   UNL     1      19.578  -0.798  23.115  1.00  0.00     0.000 G0
ENDBRANCH  13  15
ENDBRANCH  12  13
BRANCH  12  17
ATOM     17  C   UNL     1      19.348   2.480  19.364  1.00  0.00    -0.006 C 
ATOM     18  C   UNL     1      20.279   3.626  18.922  1.00  0.00     0.008 C 
ATOM     19  C   UNL     1      17.893   2.982  19.325  1.00  0.00     0.008 C 
ENDBRANCH  12  17
ENDBRANCH  11  12
ENDBRANCH   1  11
TORSDOF 1
ENDMDL
MODEL 2
REMARK VINA RESULT:    -2.706      1.995      4.327
REMARK INTER + INTRA:          -4.012
REMARK INTER:                  -4.706
REMARK INTRA:                   0.694
REMARK UNBOUND:                 0.117
REMARK SMILES CC1=CCC[C@@H](C)C(=O)C[C@H](C(C)C)C(=O)C1
REMARK SMILES IDX 8 1 9 2 6 3 7 4 5 5 4 6 3 7 2 8 1 9 10 11 11 12 15 13 16 14
REMARK SMILES IDX 17 15 12 17 13 18 14 19
REMARK H PARENT
REMARK Flexibility Score: 70.00
ROOT
ATOM      1  C   UNL     1      19.357   1.726  21.618  1.00  0.00     0.136 C 
ATOM      2  O   UNL     1      18.280   2.288  21.486  1.00  0.00    -0.299 OA
ENDROOT
BRANCH   1   3
ATOM      3  C   UNL     1      19.755   0.671  20.594  1.00  0.00     0.053 C 
ATOM      4  C   UNL     1      19.182   0.948  19.197  1.00  0.00     0.016 C 
BRANCH   3   5
ATOM      5  C   UNL     1      19.514  -0.774  21.093  1.00  0.00     0.015 C 
BRANCH   5   6
ATOM      6  C   UNL     1      19.635  -0.982  22.618  1.00  0.00     0.028 C 
BRANCH   6   7
ATOM      7  C   UNL     1      18.274  -1.017  23.268  1.00  0.00    -0.028 C 
ATOM      8  C   UNL     1      17.922  -0.289  24.354  1.00  0.00    -0.070 CG0
ATOM      9  C   UNL     1      16.541  -0.492  24.924  1.00  0.00     0.039 C 
ATOM     10  G   UNL     1      18.850   0.725  25.008  1.00  0.00     0.000 G0
ENDBRANCH   6   7
ENDBRANCH   5   6
ENDBRANCH   3   5
ENDBRANCH   1   3
BRANCH   1  11
ATOM     11  C   UNL     1      20.221   2.094  22.806  1.00  0.00     0.087 C 
BRANCH  11  12
ATOM     12  C   UNL     1      19.511   2.984  23.864  1.00  0.00     0.066 C 
BRANCH  12  13
ATOM     13  C   UNL     1      18.528   2.156  24.680  1.00  0.00     0.140 C 
ATOM     14  O   UNL     1      17.450   2.636  25.004  1.00  0.00    -0.299 OA
BRANCH  13  15
ATOM     15  C   UNL     1      18.841   0.723  25.034  1.00  0.00     0.106 CG0
ATOM     16  G   UNL     1      17.915  -0.265  24.339  1.00  0.00     0.000 G0
ENDBRANCH  13  15
ENDBRANCH  12  13
BRANCH  12  17
ATOM     17  C   UNL     1      20.475   3.805  24.785  1.00  0.00    -0.006 C 
ATOM     18  C   UNL     1      19.867   5.181  25.122  1.00  0.00     0.008 C 
ATOM     19  C   UNL     1      21.862   4.019  24.153  1.00  0.00     0.008 C 
ENDBRANCH  12  17
ENDBRANCH  11  12
ENDBRANCH   1  11
TORSDOF 1
ENDMDL
MODEL 3
REMARK VINA RESULT:    -2.684      1.550      3.732
REMARK INTER + INTRA:          -3.979
REMARK INTER:                  -4.467
REMARK INTRA:                   0.487
REMARK UNBOUND:                 0.117
REMARK SMILES CC1=CCC[C@@H](C)C(=O)C[C@H](C(C)C)C(=O)C1
REMARK SMILES IDX 8 1 9 2 6 3 7 4 5 5 4 6 3 7 2 8 1 9 10 11 11 12 15 13 16 14
REMARK SMILES IDX 17 15 12 17 13 18 14 19
REMARK H PARENT
REMARK Flexibility Score: 70.00
ROOT
ATOM      1  C   UNL     1      19.215  -0.173  22.130  1.00  0.00     0.136 C 
ATOM      2  O   UNL     1      18.019  -0.122  22.376  1.00  0.00    -0.299 OA
ENDROOT
BRANCH   1   3
ATOM      3  C   UNL     1      20.126  -0.900  23.110  1.00  0.00     0.053 C 
ATOM      4  C   UNL     1      20.107  -2.424  22.925  1.00  0.00     0.016 C 
BRANCH   3   5
ATOM      5  C   UNL     1      19.919  -0.446  24.575  1.00  0.00     0.015 C 
BRANCH   5   6
ATOM      6  C   UNL     1      19.216   0.916  24.758  1.00  0.00     0.028 C 
BRANCH   6   7
ATOM      7  C   UNL     1      20.221   2.016  24.985  1.00  0.00    -0.028 C 
ATOM      8  C   UNL     1      20.387   3.086  24.171  1.00  0.00    -0.070 CG0
ATOM      9  C   UNL     1      21.486   4.064  24.503  1.00  0.00     0.039 C 
ATOM     10  G   UNL     1      19.509   3.345  22.954  1.00  0.00     0.000 G0
ENDBRANCH   6   7
ENDBRANCH   5   6
ENDBRANCH   3   5
ENDBRANCH   1   3
BRANCH   1  11
ATOM     11  C   UNL     1      19.723   0.510  20.878  1.00  0.00     0.087 C 
BRANCH  11  12
ATOM     12  C   UNL     1      19.281   1.993  20.731  1.00  0.00     0.066 C 
BRANCH  12  13
ATOM     13  C   UNL     1      20.091   2.882  21.663  1.00  0.00     0.140 C 
ATOM     14  O   UNL     1      21.209   3.252  21.332  1.00  0.00    -0.299 OA
BRANCH  13  15
ATOM     15  C   UNL     1      19.499   3.371  22.963  1.00  0.00     0.106 CG0
ATOM     16  G   UNL     1      20.393   3.073  24.158  1.00  0.00     0.000 G0
ENDBRANCH  13  15
ENDBRANCH  12  13
BRANCH  12  17
ATOM     17  C   UNL     1      19.289   2.538  19.264  1.00  0.00    -0.006 C 
ATOM     18  C   UNL     1      18.327   3.734  19.120  1.00  0.00     0.008 C 
ATOM     19  C   UNL     1      18.902   1.466  18.228  1.00  0.00     0.008 C 
ENDBRANCH  12  17
ENDBRANCH  11  12
ENDBRANCH   1  11
TORSDOF 1
ENDMDL
MODEL 4
REMARK VINA RESULT:    -2.520      1.597      4.085
REMARK INTER + INTRA:          -3.730
REMARK INTER:                  -3.789
REMARK INTRA:                   0.059
REMARK UNBOUND:                 0.117
REMARK SMILES CC1=CCC[C@@H](C)C(=O)C[C@H](C(C)C)C(=O)C1
REMARK SMILES IDX 8 1 9 2 6 3 7 4 5 5 4 6 3 7 2 8 1 9 10 11 11 12 15 13 16 14
REMARK SMILES IDX 17 15 12 17 13 18 14 19
REMARK H PARENT
REMARK Flexibility Score: 70.00
ROOT
ATOM      1  C   UNL     1      19.212   2.565  21.002  1.00  0.00     0.136 C 
ATOM      2  O   UNL     1      18.036   2.830  21.203  1.00  0.00    -0.299 OA
ENDROOT
BRANCH   1   3
ATOM      3  C   UNL     1      19.631   2.145  19.600  1.00  0.00     0.053 C 
ATOM      4  C   UNL     1      18.798   2.817  18.500  1.00  0.00     0.016 C 
BRANCH   3   5
ATOM      5  C   UNL     1      19.751   0.610  19.443  1.00  0.00     0.015 C 
BRANCH   5   6
ATOM      6  C   UNL     1      18.790  -0.227  20.314  1.00  0.00     0.028 C 
BRANCH   6   7
ATOM      7  C   UNL     1      19.544  -1.272  21.098  1.00  0.00    -0.028 C 
ATOM      8  C   UNL     1      19.649  -1.293  22.448  1.00  0.00    -0.070 CG0
ATOM      9  C   UNL     1      20.498  -2.370  23.075  1.00  0.00     0.039 C 
ATOM     10  G   UNL     1      18.942  -0.290  23.350  1.00  0.00     0.000 G0
ENDBRANCH   6   7
ENDBRANCH   5   6
ENDBRANCH   3   5
ENDBRANCH   1   3
BRANCH   1  11
ATOM     11  C   UNL     1      20.178   2.649  22.165  1.00  0.00     0.087 C 
BRANCH  11  12
ATOM     12  C   UNL     1      19.561   2.267  23.540  1.00  0.00     0.066 C 
BRANCH  12  13
ATOM     13  C   UNL     1      19.854   0.810  23.866  1.00  0.00     0.140 C 
ATOM     14  O   UNL     1      20.801   0.526  24.587  1.00  0.00    -0.299 OA
BRANCH  13  15
ATOM     15  C   UNL     1      18.944  -0.285  23.367  1.00  0.00     0.106 CG0
ATOM     16  G   UNL     1      19.666  -1.277  22.465  1.00  0.00     0.000 G0
ENDBRANCH  13  15
ENDBRANCH  12  13
BRANCH  12  17
ATOM     17  C   UNL     1      19.958   3.213  24.723  1.00  0.00    -0.006 C 
ATOM     18  C   UNL     1      18.794   4.158  25.081  1.00  0.00     0.008 C 
ATOM     19  C   UNL     1      21.205   4.061  24.414  1.00  0.00     0.008 C 
ENDBRANCH  12  17
ENDBRANCH  11  12
ENDBRANCH   1  11
TORSDOF 1
ENDMDL
MODEL 5
REMARK VINA RESULT:    -2.486      1.757      4.639
REMARK INTER + INTRA:          -3.678
REMARK INTER:                  -3.799
REMARK INTRA:                   0.122
REMARK UNBOUND:                 0.117
REMARK SMILES CC1=CCC[C@@H](C)C(=O)C[C@H](C(C)C)C(=O)C1
REMARK SMILES IDX 8 1 9 2 6 3 7 4 5 5 4 6 3 7 2 8 1 9 10 11 11 12 15 13 16 14
REMARK SMILES IDX 17 15 12 17 13 18 14 19
REMARK H PARENT
REMARK Flexibility Score: 70.00
ROOT
ATOM      1  C   UNL     1      19.047   1.193  20.067  1.00  0.00     0.136 C 
ATOM      2  O   UNL     1      19.851   0.654  19.322  1.00  0.00    -0.299 OA
ENDROOT
BRANCH   1   3
ATOM      3  C   UNL     1      18.707   2.658  19.829  1.00  0.00     0.053 C 
ATOM      4  C   UNL     1      18.293   2.948  18.379  1.00  0.00     0.016 C 
BRANCH   3   5
ATOM      5  C   UNL     1      19.787   3.623  20.374  1.00  0.00     0.015 C 
BRANCH   5   6
ATOM      6  C   UNL     1      20.533   3.143  21.637  1.00  0.00     0.028 C 
BRANCH   6   7
ATOM      7  C   UNL     1      19.799   3.555  22.889  1.00  0.00    -0.028 C 
ATOM      8  C   UNL     1      19.627   2.764  23.974  1.00  0.00    -0.070 CG0
ATOM      9  C   UNL     1      18.808   3.303  25.119  1.00  0.00     0.039 C 
ATOM     10  G   UNL     1      20.233   1.372  24.089  1.00  0.00     0.000 G0
ENDBRANCH   6   7
ENDBRANCH   5   6
ENDBRANCH   3   5
ENDBRANCH   1   3
BRANCH   1  11
ATOM     11  C   UNL     1      18.452   0.379  21.197  1.00  0.00     0.087 C 
BRANCH  11  12
ATOM     12  C   UNL     1      19.502  -0.251  22.155  1.00  0.00     0.066 C 
BRANCH  12  13
ATOM     13  C   UNL     1      19.320   0.283  23.568  1.00  0.00     0.140 C 
ATOM     14  O   UNL     1      18.464  -0.200  24.296  1.00  0.00    -0.299 OA
BRANCH  13  15
ATOM     15  C   UNL     1      20.233   1.358  24.104  1.00  0.00     0.106 CG0
ATOM     16  G   UNL     1      19.626   2.750  23.989  1.00  0.00     0.000 G0
ENDBRANCH  13  15
ENDBRANCH  12  13
BRANCH  12  17
ATOM     17  C   UNL     1      19.554  -1.816  22.133  1.00  0.00    -0.006 C 
ATOM     18  C   UNL     1      20.516  -2.345  23.215  1.00  0.00     0.008 C 
ATOM     19  C   UNL     1      19.990  -2.378  20.768  1.00  0.00     0.008 C 
ENDBRANCH  12  17
ENDBRANCH  11  12
ENDBRANCH   1  11
TORSDOF 1
ENDMDL
MODEL 6
REMARK VINA RESULT:    -1.853      1.749      4.007
REMARK INTER + INTRA:          -2.712
REMARK INTER:                  -4.306
REMARK INTRA:                   1.594
REMARK UNBOUND:                 0.117
REMARK SMILES CC1=CCC[C@@H](C)C(=O)C[C@H](C(C)C)C(=O)C1
REMARK SMILES IDX 8 1 9 2 6 3 7 4 5 5 4 6 3 7 2 8 1 9 10 11 11 12 15 13 16 14
REMARK SMILES IDX 17 15 12 17 13 18 14 19
REMARK H PARENT
REMARK Flexibility Score: 70.00
ROOT
ATOM      1  C   UNL     1      19.805   0.957  24.808  1.00  0.00     0.136 C 
ATOM      2  O   UNL     1      20.986   0.649  24.856  1.00  0.00    -0.299 OA
ENDROOT
BRANCH   1   3
ATOM      3  C   UNL     1      19.416   2.396  25.121  1.00  0.00     0.053 C 
ATOM      4  C   UNL     1      17.897   2.619  25.117  1.00  0.00     0.016 C 
BRANCH   3   5
ATOM      5  C   UNL     1      20.201   3.428  24.276  1.00  0.00     0.015 C 
BRANCH   5   6
ATOM      6  C   UNL     1      20.840   2.882  22.981  1.00  0.00     0.028 C 
BRANCH   6   7
ATOM      7  C   UNL     1      20.130   3.415  21.762  1.00  0.00    -0.028 C 
ATOM      8  C   UNL     1      19.508   2.645  20.837  1.00  0.00    -0.070 CG0
ATOM      9  C   UNL     1      18.904   3.330  19.638  1.00  0.00     0.039 C 
ATOM     10  G   UNL     1      19.384   1.133  20.966  1.00  0.00     0.000 G0
ENDBRANCH   6   7
ENDBRANCH   5   6
ENDBRANCH   3   5
ENDBRANCH   1   3
BRANCH   1  11
ATOM     11  C   UNL     1      18.794  -0.117  24.463  1.00  0.00     0.087 C 
BRANCH  11  12
ATOM     12  C   UNL     1      18.751  -0.497  22.956  1.00  0.00     0.066 C 
BRANCH  12  13
ATOM     13  C   UNL     1      18.458   0.732  22.107  1.00  0.00     0.140 C 
ATOM     14  O   UNL     1      17.496   1.440  22.373  1.00  0.00    -0.299 OA
BRANCH  13  15
ATOM     15  C   UNL     1      19.383   1.125  20.983  1.00  0.00     0.106 CG0
ATOM     16  G   UNL     1      19.523   2.635  20.843  1.00  0.00     0.000 G0
ENDBRANCH  13  15
ENDBRANCH  12  13
BRANCH  12  17
ATOM     17  C   UNL     1      20.010  -1.268  22.437  1.00  0.00    -0.006 C 
ATOM     18  C   UNL     1      19.766  -1.823  21.020  1.00  0.00     0.008 C 
ATOM     19  C   UNL     1      20.417  -2.432  23.359  1.00  0.00     0.008 C 
ENDBRANCH  12  17
ENDBRANCH  11  12
ENDBRANCH   1  11
TORSDOF 1
ENDMDL
MODEL 7
REMARK VINA RESULT:    -1.851      1.933      4.799
REMARK INTER + INTRA:          -2.708
REMARK INTER:                  -4.402
REMARK INTRA:                   1.694
REMARK UNBOUND:                 0.117
REMARK SMILES CC1=CCC[C@@H](C)C(=O)C[C@H](C(C)C)C(=O)C1
REMARK SMILES IDX 8 1 9 2 6 3 7 4 5 5 4 6 3 7 2 8 1 9 10 11 11 12 15 13 16 14
REMARK SMILES IDX 17 15 12 17 13 18 14 19
REMARK H PARENT
REMARK Flexibility Score: 70.00
ROOT
ATOM      1  C   UNL     1      18.560  -0.165  23.971  1.00  0.00     0.136 C 
ATOM      2  O   UNL     1      17.360   0.008  24.116  1.00  0.00    -0.299 OA
ENDROOT
BRANCH   1   3
ATOM      3  C   UNL     1      19.026  -1.240  22.998  1.00  0.00     0.053 C 
ATOM      4  C   UNL     1      20.463  -1.710  23.270  1.00  0.00     0.016 C 
BRANCH   3   5
ATOM      5  C   UNL     1      18.759  -0.870  21.520  1.00  0.00     0.015 C 
BRANCH   5   6
ATOM      6  C   UNL     1      19.884  -0.080  20.816  1.00  0.00     0.028 C 
BRANCH   6   7
ATOM      7  C   UNL     1      19.317   1.045  19.987  1.00  0.00    -0.028 C 
ATOM      8  C   UNL     1      19.345   2.352  20.343  1.00  0.00    -0.070 CG0
ATOM      9  C   UNL     1      18.672   3.347  19.432  1.00  0.00     0.039 C 
ATOM     10  G   UNL     1      20.035   2.853  21.604  1.00  0.00     0.000 G0
ENDBRANCH   6   7
ENDBRANCH   5   6
ENDBRANCH   3   5
ENDBRANCH   1   3
BRANCH   1  11
ATOM     11  C   UNL     1      19.514   0.683  24.787  1.00  0.00     0.087 C 
BRANCH  11  12
ATOM     12  C   UNL     1      20.299   1.739  23.960  1.00  0.00     0.066 C 
BRANCH  12  13
ATOM     13  C   UNL     1      19.417   2.319  22.865  1.00  0.00     0.140 C 
ATOM     14  O   UNL     1      18.206   2.381  23.028  1.00  0.00    -0.299 OA
BRANCH  13  15
ATOM     15  C   UNL     1      20.028   2.883  21.606  1.00  0.00     0.106 CG0
ATOM     16  G   UNL     1      19.349   2.365  20.345  1.00  0.00     0.000 G0
ENDBRANCH  13  15
ENDBRANCH  12  13
BRANCH  12  17
ATOM     17  C   UNL     1      20.977   2.866  24.810  1.00  0.00    -0.006 C 
ATOM     18  C   UNL     1      19.995   4.028  25.058  1.00  0.00     0.008 C 
ATOM     19  C   UNL     1      22.250   3.427  24.149  1.00  0.00     0.008 C 
ENDBRANCH  12  17
ENDBRANCH  11  12
ENDBRANCH   1  11
TORSDOF 1
ENDMDL
MODEL 8
REMARK VINA RESULT:    -1.830      1.593      1.897
REMARK INTER + INTRA:          -2.676
REMARK INTER:                  -5.147
REMARK INTRA:                   2.471
REMARK UNBOUND:                 0.117
REMARK SMILES CC1=CCC[C@@H](C)C(=O)C[C@H](C(C)C)C(=O)C1
REMARK SMILES IDX 8 1 9 2 6 3 7 4 5 5 4 6 3 7 2 8 1 9 10 11 11 12 15 13 16 14
REMARK SMILES IDX 17 15 12 17 13 18 14 19
REMARK H PARENT
REMARK Flexibility Score: 70.00
ROOT
ATOM      1  C   UNL     1      19.777   3.232  24.114  1.00  0.00     0.136 C 
ATOM      2  O   UNL     1      18.743   3.460  24.724  1.00  0.00    -0.299 OA
ENDROOT
BRANCH   1   3
ATOM      3  C   UNL     1      21.065   3.059  24.908  1.00  0.00     0.053 C 
ATOM      4  C   UNL     1      22.217   3.920  24.373  1.00  0.00     0.016 C 
BRANCH   3   5
ATOM      5  C   UNL     1      21.443   1.574  25.125  1.00  0.00     0.015 C 
BRANCH   5   6
ATOM      6  C   UNL     1      20.268   0.574  25.091  1.00  0.00     0.028 C 
BRANCH   6   7
ATOM      7  C   UNL     1      20.534  -0.540  24.110  1.00  0.00    -0.028 C 
ATOM      8  C   UNL     1      19.628  -1.015  23.221  1.00  0.00    -0.070 CG0
ATOM      9  C   UNL     1      20.031  -2.182  22.356  1.00  0.00     0.039 C 
ATOM     10  G   UNL     1      18.239  -0.414  23.054  1.00  0.00     0.000 G0
ENDBRANCH   6   7
ENDBRANCH   5   6
ENDBRANCH   3   5
ENDBRANCH   1   3
BRANCH   1  11
ATOM     11  C   UNL     1      19.721   3.158  22.602  1.00  0.00     0.087 C 
BRANCH  11  12
ATOM     12  C   UNL     1      19.387   1.747  22.041  1.00  0.00     0.066 C 
BRANCH  12  13
ATOM     13  C   UNL     1      18.286   1.095  22.866  1.00  0.00     0.140 C 
ATOM     14  O   UNL     1      17.394   1.783  23.342  1.00  0.00    -0.299 OA
BRANCH  13  15
ATOM     15  C   UNL     1      18.246  -0.403  23.042  1.00  0.00     0.106 CG0
ATOM     16  G   UNL     1      19.634  -1.010  23.191  1.00  0.00     0.000 G0
ENDBRANCH  13  15
ENDBRANCH  12  13
BRANCH  12  17
ATOM     17  C   UNL     1      19.059   1.710  20.511  1.00  0.00    -0.006 C 
ATOM     18  C   UNL     1      19.471   0.357  19.897  1.00  0.00     0.008 C 
ATOM     19  C   UNL     1      19.750   2.840  19.726  1.00  0.00     0.008 C 
ENDBRANCH  12  17
ENDBRANCH  11  12
ENDBRANCH   1  11
TORSDOF 1
ENDMDL
MODEL 9
REMARK VINA RESULT:    -1.543      1.919      4.201
REMARK INTER + INTRA:          -2.238
REMARK INTER:                  -3.327
REMARK INTRA:                   1.088
REMARK UNBOUND:                 0.117
REMARK SMILES CC1=CCC[C@@H](C)C(=O)C[C@H](C(C)C)C(=O)C1
REMARK SMILES IDX 8 1 9 2 6 3 7 4 5 5 4 6 3 7 2 8 1 9 10 11 11 12 15 13 16 14
REMARK SMILES IDX 17 15 12 17 13 18 14 19
REMARK H PARENT
REMARK Flexibility Score: 70.00
ROOT
ATOM      1  C   UNL     1      19.206   2.276  22.214  1.00  0.00     0.136 C 
ATOM      2  O   UNL     1      19.915   3.028  22.864  1.00  0.00    -0.299 OA
ENDROOT
BRANCH   1   3
ATOM      3  C   UNL     1      19.641   1.910  20.801  1.00  0.00     0.053 C 
ATOM      4  C   UNL     1      19.585   3.100  19.831  1.00  0.00     0.016 C 
BRANCH   3   5
ATOM      5  C   UNL     1      18.943   0.637  20.267  1.00  0.00     0.015 C 
BRANCH   5   6
ATOM      6  C   UNL     1      19.861  -0.584  20.045  1.00  0.00     0.028 C 
BRANCH   6   7
ATOM      7  C   UNL     1      19.546  -1.683  21.028  1.00  0.00    -0.028 C 
ATOM      8  C   UNL     1      19.843  -1.642  22.349  1.00  0.00    -0.070 CG0
ATOM      9  C   UNL     1      19.523  -2.855  23.184  1.00  0.00     0.039 C 
ATOM     10  G   UNL     1      20.470  -0.427  23.019  1.00  0.00     0.000 G0
ENDBRANCH   6   7
ENDBRANCH   5   6
ENDBRANCH   3   5
ENDBRANCH   1   3
BRANCH   1  11
ATOM     11  C   UNL     1      17.924   1.770  22.842  1.00  0.00     0.087 C 
BRANCH  11  12
ATOM     12  C   UNL     1      18.086   0.459  23.662  1.00  0.00     0.066 C 
BRANCH  12  13
ATOM     13  C   UNL     1      19.548   0.231  24.015  1.00  0.00     0.140 C 
ATOM     14  O   UNL     1      19.961   0.539  25.124  1.00  0.00    -0.299 OA
BRANCH  13  15
ATOM     15  C   UNL     1      20.479  -0.436  23.033  1.00  0.00     0.106 CG0
ATOM     16  G   UNL     1      19.850  -1.653  22.368  1.00  0.00     0.000 G0
ENDBRANCH  13  15
ENDBRANCH  12  13
BRANCH  12  17
ATOM     17  C   UNL     1      17.166   0.357  24.924  1.00  0.00    -0.006 C 
ATOM     18  C   UNL     1      16.521  -1.040  25.019  1.00  0.00     0.008 C 
ATOM     19  C   UNL     1      16.049   1.417  24.935  1.00  0.00     0.008 C 
ENDBRANCH  12  17
ENDBRANCH  11  12
ENDBRANCH   1  11
TORSDOF 1
ENDMDL
