MODEL 1
REMARK VINA RESULT:    -4.074      0.000      0.000
REMARK INTER + INTRA:          -9.235
REMARK INTER:                  -7.170
REMARK INTRA:                  -2.065
REMARK UNBOUND:                -2.065
REMARK SMILES CCCCCCC=CCCCCCCCC(=O)[O-]
REMARK SMILES IDX 10 1 11 2 12 3 13 4 14 5 15 6 16 7 17 8 18 9 9 10 8 11 7 12
REMARK SMILES IDX 6 13 5 14 4 15 3 16 2 17 1 18
REMARK H PARENT
REMARK Flexibility Score: inf
ROOT
ATOM      1  C   UNL     1      26.804  13.625 -12.156  1.00  0.00     0.004 C 
ENDROOT
BRANCH   1   2
ATOM      2  C   UNL     1      26.822  12.710 -10.920  1.00  0.00     0.000 C 
BRANCH   2   3
ATOM      3  C   UNL     1      28.002  11.723 -10.937  1.00  0.00     0.000 C 
BRANCH   3   4
ATOM      4  C   UNL     1      29.354  12.421 -11.161  1.00  0.00     0.000 C 
BRANCH   4   5
ATOM      5  C   UNL     1      30.256  11.669 -12.151  1.00  0.00     0.006 C 
BRANCH   5   6
ATOM      6  C   UNL     1      29.607  11.593 -13.536  1.00  0.00     0.053 C 
BRANCH   6   7
ATOM      7  C   UNL     1      29.671  10.196 -14.068  1.00  0.00     0.041 C 
ATOM      8  O   UNL     1      29.131   9.250 -13.434  1.00  0.00    -0.550 OA
ATOM      9  O   UNL     1      30.374   9.928 -15.235  1.00  0.00    -0.550 OA
ENDBRANCH   6   7
ENDBRANCH   5   6
ENDBRANCH   4   5
ENDBRANCH   3   4
ENDBRANCH   2   3
ENDBRANCH   1   2
BRANCH   1  10
ATOM     10  C   UNL     1      26.944  15.111 -11.793  1.00  0.00     0.027 C 
BRANCH  10  11
ATOM     11  C   UNL     1      27.845  15.820 -12.767  1.00  0.00    -0.031 C 
ATOM     12  C   UNL     1      28.632  15.142 -13.616  1.00  0.00    -0.031 C 
BRANCH  12  13
ATOM     13  C   UNL     1      29.544  15.852 -14.579  1.00  0.00     0.027 C 
BRANCH  13  14
ATOM     14  C   UNL     1      30.830  15.045 -14.816  1.00  0.00     0.004 C 
BRANCH  14  15
ATOM     15  C   UNL     1      30.747  14.150 -16.063  1.00  0.00     0.000 C 
BRANCH  15  16
ATOM     16  C   UNL     1      29.913  14.780 -17.188  1.00  0.00    -0.000 C 
BRANCH  16  17
ATOM     17  C   UNL     1      28.901  13.774 -17.747  1.00  0.00    -0.003 C 
ATOM     18  C   UNL     1      28.394  12.836 -16.655  1.00  0.00     0.004 C 
ENDBRANCH  16  17
ENDBRANCH  15  16
ENDBRANCH  14  15
ENDBRANCH  13  14
ENDBRANCH  12  13
ENDBRANCH  10  11
ENDBRANCH   1  10
TORSDOF 13
ENDMDL
MODEL 2
REMARK VINA RESULT:    -3.953      2.552      5.395
REMARK INTER + INTRA:          -9.023
REMARK INTER:                  -7.510
REMARK INTRA:                  -1.513
REMARK UNBOUND:                -2.065
REMARK SMILES CCCCCCC=CCCCCCCCC(=O)[O-]
REMARK SMILES IDX 10 1 11 2 12 3 13 4 14 5 15 6 16 7 17 8 18 9 9 10 8 11 7 12
REMARK SMILES IDX 6 13 5 14 4 15 3 16 2 17 1 18
REMARK H PARENT
REMARK Flexibility Score: inf
ROOT
ATOM      1  C   UNL     1      30.734  15.006 -16.470  1.00  0.00     0.004 C 
ENDROOT
BRANCH   1   2
ATOM      2  C   UNL     1      30.466  14.453 -15.061  1.00  0.00     0.000 C 
BRANCH   2   3
ATOM      3  C   UNL     1      29.311  15.183 -14.353  1.00  0.00     0.000 C 
BRANCH   3   4
ATOM      4  C   UNL     1      28.571  14.283 -13.350  1.00  0.00     0.000 C 
BRANCH   4   5
ATOM      5  C   UNL     1      27.718  15.080 -12.351  1.00  0.00     0.006 C 
BRANCH   5   6
ATOM      6  C   UNL     1      26.294  14.520 -12.277  1.00  0.00     0.053 C 
BRANCH   6   7
ATOM      7  C   UNL     1      26.089  13.778 -10.995  1.00  0.00     0.041 C 
ATOM      8  O   UNL     1      25.339  14.252 -10.100  1.00  0.00    -0.550 OA
ATOM      9  O   UNL     1      26.768  12.589 -10.764  1.00  0.00    -0.550 OA
ENDBRANCH   6   7
ENDBRANCH   5   6
ENDBRANCH   4   5
ENDBRANCH   3   4
ENDBRANCH   2   3
ENDBRANCH   1   2
BRANCH   1  10
ATOM     10  C   UNL     1      29.557  14.775 -17.429  1.00  0.00     0.027 C 
BRANCH  10  11
ATOM     11  C   UNL     1      29.543  13.358 -17.933  1.00  0.00    -0.031 C 
ATOM     12  C   UNL     1      30.675  12.650 -18.070  1.00  0.00    -0.031 C 
BRANCH  12  13
ATOM     13  C   UNL     1      30.662  11.238 -18.588  1.00  0.00     0.027 C 
BRANCH  13  14
ATOM     14  C   UNL     1      30.350  10.241 -17.462  1.00  0.00     0.004 C 
BRANCH  14  15
ATOM     15  C   UNL     1      30.872  10.709 -16.094  1.00  0.00     0.000 C 
BRANCH  15  16
ATOM     16  C   UNL     1      29.766  10.770 -15.030  1.00  0.00    -0.000 C 
BRANCH  16  17
ATOM     17  C   UNL     1      30.360  11.023 -13.639  1.00  0.00    -0.003 C 
ATOM     18  C   UNL     1      29.365  10.660 -12.539  1.00  0.00     0.004 C 
ENDBRANCH  16  17
ENDBRANCH  15  16
ENDBRANCH  14  15
ENDBRANCH  13  14
ENDBRANCH  12  13
ENDBRANCH  10  11
ENDBRANCH   1  10
TORSDOF 13
ENDMDL
MODEL 3
REMARK VINA RESULT:    -3.920      2.067      5.036
REMARK INTER + INTRA:          -8.965
REMARK INTER:                  -7.078
REMARK INTRA:                  -1.887
REMARK UNBOUND:                -2.065
REMARK SMILES CCCCCCC=CCCCCCCCC(=O)[O-]
REMARK SMILES IDX 10 1 11 2 12 3 13 4 14 5 15 6 16 7 17 8 18 9 9 10 8 11 7 12
REMARK SMILES IDX 6 13 5 14 4 15 3 16 2 17 1 18
REMARK H PARENT
REMARK Flexibility Score: inf
ROOT
ATOM      1  C   UNL     1      27.782  13.645 -13.181  1.00  0.00     0.004 C 
ENDROOT
BRANCH   1   2
ATOM      2  C   UNL     1      28.591  14.932 -13.408  1.00  0.00     0.000 C 
BRANCH   2   3
ATOM      3  C   UNL     1      29.748  14.732 -14.403  1.00  0.00     0.000 C 
BRANCH   3   4
ATOM      4  C   UNL     1      29.859  15.881 -15.419  1.00  0.00     0.000 C 
BRANCH   4   5
ATOM      5  C   UNL     1      30.585  15.469 -16.708  1.00  0.00     0.006 C 
BRANCH   5   6
ATOM      6  C   UNL     1      30.733  13.946 -16.791  1.00  0.00     0.053 C 
BRANCH   6   7
ATOM      7  C   UNL     1      29.938  13.405 -17.938  1.00  0.00     0.041 C 
ATOM      8  O   UNL     1      30.037  12.192 -18.262  1.00  0.00    -0.550 OA
ATOM      9  O   UNL     1      29.130  14.253 -18.684  1.00  0.00    -0.550 OA
ENDBRANCH   6   7
ENDBRANCH   5   6
ENDBRANCH   4   5
ENDBRANCH   3   4
ENDBRANCH   2   3
ENDBRANCH   1   2
BRANCH   1  10
ATOM     10  C   UNL     1      27.584  13.326 -11.692  1.00  0.00     0.027 C 
BRANCH  10  11
ATOM     11  C   UNL     1      28.718  12.492 -11.164  1.00  0.00    -0.031 C 
ATOM     12  C   UNL     1      28.574  11.179 -10.929  1.00  0.00    -0.031 C 
BRANCH  12  13
ATOM     13  C   UNL     1      29.704  10.348 -10.386  1.00  0.00     0.027 C 
BRANCH  13  14
ATOM     14  C   UNL     1      29.907   9.078 -11.227  1.00  0.00     0.004 C 
BRANCH  14  15
ATOM     15  C   UNL     1      29.814   9.346 -12.738  1.00  0.00     0.000 C 
BRANCH  15  16
ATOM     16  C   UNL     1      31.086   9.997 -13.301  1.00  0.00    -0.000 C 
BRANCH  16  17
ATOM     17  C   UNL     1      30.736  11.163 -14.234  1.00  0.00    -0.003 C 
ATOM     18  C   UNL     1      29.424  10.906 -14.970  1.00  0.00     0.004 C 
ENDBRANCH  16  17
ENDBRANCH  15  16
ENDBRANCH  14  15
ENDBRANCH  13  14
ENDBRANCH  12  13
ENDBRANCH  10  11
ENDBRANCH   1  10
TORSDOF 13
ENDMDL
MODEL 4
REMARK VINA RESULT:    -3.899      2.017      4.486
REMARK INTER + INTRA:          -8.928
REMARK INTER:                  -7.063
REMARK INTRA:                  -1.865
REMARK UNBOUND:                -2.065
REMARK SMILES CCCCCCC=CCCCCCCCC(=O)[O-]
REMARK SMILES IDX 10 1 11 2 12 3 13 4 14 5 15 6 16 7 17 8 18 9 9 10 8 11 7 12
REMARK SMILES IDX 6 13 5 14 4 15 3 16 2 17 1 18
REMARK H PARENT
REMARK Flexibility Score: inf
ROOT
ATOM      1  C   UNL     1      26.303  14.557 -11.176  1.00  0.00     0.004 C 
ENDROOT
BRANCH   1   2
ATOM      2  C   UNL     1      26.657  15.377 -12.427  1.00  0.00     0.000 C 
BRANCH   2   3
ATOM      3  C   UNL     1      28.171  15.407 -12.702  1.00  0.00     0.000 C 
BRANCH   3   4
ATOM      4  C   UNL     1      28.583  14.459 -13.840  1.00  0.00     0.000 C 
BRANCH   4   5
ATOM      5  C   UNL     1      29.926  14.844 -14.480  1.00  0.00     0.006 C 
BRANCH   5   6
ATOM      6  C   UNL     1      29.709  15.594 -15.797  1.00  0.00     0.053 C 
BRANCH   6   7
ATOM      7  C   UNL     1      30.044  14.715 -16.961  1.00  0.00     0.041 C 
ATOM      8  O   UNL     1      29.324  14.730 -17.995  1.00  0.00    -0.550 OA
ATOM      9  O   UNL     1      31.119  13.839 -16.884  1.00  0.00    -0.550 OA
ENDBRANCH   6   7
ENDBRANCH   5   6
ENDBRANCH   4   5
ENDBRANCH   3   4
ENDBRANCH   2   3
ENDBRANCH   1   2
BRANCH   1  10
ATOM     10  C   UNL     1      25.923  13.106 -11.509  1.00  0.00     0.027 C 
BRANCH  10  11
ATOM     11  C   UNL     1      26.816  12.136 -10.785  1.00  0.00    -0.031 C 
ATOM     12  C   UNL     1      28.085  11.930 -11.170  1.00  0.00    -0.031 C 
BRANCH  12  13
ATOM     13  C   UNL     1      28.974  10.948 -10.455  1.00  0.00     0.027 C 
BRANCH  13  14
ATOM     14  C   UNL     1      30.250  10.671 -11.264  1.00  0.00     0.004 C 
BRANCH  14  15
ATOM     15  C   UNL     1      30.462  11.682 -12.402  1.00  0.00     0.000 C 
BRANCH  15  16
ATOM     16  C   UNL     1      30.780  11.004 -13.743  1.00  0.00    -0.000 C 
BRANCH  16  17
ATOM     17  C   UNL     1      29.508  10.437 -14.383  1.00  0.00    -0.003 C 
ATOM     18  C   UNL     1      29.021  11.325 -15.525  1.00  0.00     0.004 C 
ENDBRANCH  16  17
ENDBRANCH  15  16
ENDBRANCH  14  15
ENDBRANCH  13  14
ENDBRANCH  12  13
ENDBRANCH  10  11
ENDBRANCH   1  10
TORSDOF 13
ENDMDL
MODEL 5
REMARK VINA RESULT:    -3.898      4.492      5.838
REMARK INTER + INTRA:          -8.925
REMARK INTER:                  -7.729
REMARK INTRA:                  -1.197
REMARK UNBOUND:                -2.065
REMARK SMILES CCCCCCC=CCCCCCCCC(=O)[O-]
REMARK SMILES IDX 10 1 11 2 12 3 13 4 14 5 15 6 16 7 17 8 18 9 9 10 8 11 7 12
REMARK SMILES IDX 6 13 5 14 4 15 3 16 2 17 1 18
REMARK H PARENT
REMARK Flexibility Score: inf
ROOT
ATOM      1  C   UNL     1      25.953  13.289 -11.236  1.00  0.00     0.004 C 
ENDROOT
BRANCH   1   2
ATOM      2  C   UNL     1      25.311  14.622 -11.653  1.00  0.00     0.000 C 
BRANCH   2   3
ATOM      3  C   UNL     1      23.935  14.842 -11.000  1.00  0.00     0.000 C 
BRANCH   3   4
ATOM      4  C   UNL     1      23.072  15.857 -11.768  1.00  0.00     0.000 C 
BRANCH   4   5
ATOM      5  C   UNL     1      23.624  16.170 -13.167  1.00  0.00     0.006 C 
BRANCH   5   6
ATOM      6  C   UNL     1      23.183  17.561 -13.632  1.00  0.00     0.053 C 
BRANCH   6   7
ATOM      7  C   UNL     1      22.193  17.450 -14.749  1.00  0.00     0.041 C 
ATOM      8  O   UNL     1      22.585  17.220 -15.924  1.00  0.00    -0.550 OA
ATOM      9  O   UNL     1      20.841  17.654 -14.502  1.00  0.00    -0.550 OA
ENDBRANCH   6   7
ENDBRANCH   5   6
ENDBRANCH   4   5
ENDBRANCH   3   4
ENDBRANCH   2   3
ENDBRANCH   1   2
BRANCH   1  10
ATOM     10  C   UNL     1      27.400  13.149 -11.729  1.00  0.00     0.027 C 
BRANCH  10  11
ATOM     11  C   UNL     1      27.724  14.201 -12.755  1.00  0.00    -0.031 C 
ATOM     12  C   UNL     1      28.937  14.277 -13.324  1.00  0.00    -0.031 C 
BRANCH  12  13
ATOM     13  C   UNL     1      29.264  15.338 -14.338  1.00  0.00     0.027 C 
BRANCH  13  14
ATOM     14  C   UNL     1      30.596  15.034 -15.042  1.00  0.00     0.004 C 
BRANCH  14  15
ATOM     15  C   UNL     1      30.494  13.850 -16.017  1.00  0.00     0.000 C 
BRANCH  15  16
ATOM     16  C   UNL     1      29.367  14.028 -17.046  1.00  0.00    -0.000 C 
BRANCH  16  17
ATOM     17  C   UNL     1      28.296  12.944 -16.875  1.00  0.00    -0.003 C 
ATOM     18  C   UNL     1      28.809  11.792 -16.015  1.00  0.00     0.004 C 
ENDBRANCH  16  17
ENDBRANCH  15  16
ENDBRANCH  14  15
ENDBRANCH  13  14
ENDBRANCH  12  13
ENDBRANCH  10  11
ENDBRANCH   1  10
TORSDOF 13
ENDMDL
MODEL 6
REMARK VINA RESULT:    -3.853      2.943      4.494
REMARK INTER + INTRA:          -8.846
REMARK INTER:                  -6.909
REMARK INTRA:                  -1.937
REMARK UNBOUND:                -2.065
REMARK SMILES CCCCCCC=CCCCCCCCC(=O)[O-]
REMARK SMILES IDX 10 1 11 2 12 3 13 4 14 5 15 6 16 7 17 8 18 9 9 10 8 11 7 12
REMARK SMILES IDX 6 13 5 14 4 15 3 16 2 17 1 18
REMARK H PARENT
REMARK Flexibility Score: inf
ROOT
ATOM      1  C   UNL     1      29.623   9.464 -12.311  1.00  0.00     0.004 C 
ENDROOT
BRANCH   1   2
ATOM      2  C   UNL     1      30.297   9.655 -10.943  1.00  0.00     0.000 C 
BRANCH   2   3
ATOM      3  C   UNL     1      29.695  10.831 -10.151  1.00  0.00     0.000 C 
BRANCH   3   4
ATOM      4  C   UNL     1      28.382  11.344 -10.763  1.00  0.00     0.000 C 
BRANCH   4   5
ATOM      5  C   UNL     1      28.480  12.798 -11.251  1.00  0.00     0.006 C 
BRANCH   5   6
ATOM      6  C   UNL     1      27.209  13.213 -11.997  1.00  0.00     0.053 C 
BRANCH   6   7
ATOM      7  C   UNL     1      26.784  14.587 -11.583  1.00  0.00     0.041 C 
ATOM      8  O   UNL     1      25.824  14.739 -10.782  1.00  0.00    -0.550 OA
ATOM      9  O   UNL     1      27.412  15.701 -12.123  1.00  0.00    -0.550 OA
ENDBRANCH   6   7
ENDBRANCH   5   6
ENDBRANCH   4   5
ENDBRANCH   3   4
ENDBRANCH   2   3
ENDBRANCH   1   2
BRANCH   1  10
ATOM     10  C   UNL     1      30.551   9.822 -13.482  1.00  0.00     0.027 C 
BRANCH  10  11
ATOM     11  C   UNL     1      30.273  11.213 -13.983  1.00  0.00    -0.031 C 
ATOM     12  C   UNL     1      29.222  11.477 -14.774  1.00  0.00    -0.031 C 
BRANCH  12  13
ATOM     13  C   UNL     1      28.953  12.865 -15.287  1.00  0.00     0.027 C 
BRANCH  13  14
ATOM     14  C   UNL     1      29.022  12.907 -16.822  1.00  0.00     0.004 C 
BRANCH  14  15
ATOM     15  C   UNL     1      30.435  12.627 -17.359  1.00  0.00     0.000 C 
BRANCH  15  16
ATOM     16  C   UNL     1      30.461  11.478 -18.379  1.00  0.00    -0.000 C 
BRANCH  16  17
ATOM     17  C   UNL     1      31.125  10.232 -17.781  1.00  0.00    -0.003 C 
ATOM     18  C   UNL     1      30.095   9.143 -17.492  1.00  0.00     0.004 C 
ENDBRANCH  16  17
ENDBRANCH  15  16
ENDBRANCH  14  15
ENDBRANCH  13  14
ENDBRANCH  12  13
ENDBRANCH  10  11
ENDBRANCH   1  10
TORSDOF 13
ENDMDL
MODEL 7
REMARK VINA RESULT:    -3.849      2.279      5.850
REMARK INTER + INTRA:          -8.840
REMARK INTER:                  -6.756
REMARK INTRA:                  -2.083
REMARK UNBOUND:                -2.065
REMARK SMILES CCCCCCC=CCCCCCCCC(=O)[O-]
REMARK SMILES IDX 10 1 11 2 12 3 13 4 14 5 15 6 16 7 17 8 18 9 9 10 8 11 7 12
REMARK SMILES IDX 6 13 5 14 4 15 3 16 2 17 1 18
REMARK H PARENT
REMARK Flexibility Score: inf
ROOT
ATOM      1  C   UNL     1      29.108  13.671 -17.275  1.00  0.00     0.004 C 
ENDROOT
BRANCH   1   2
ATOM      2  C   UNL     1      29.911  14.953 -17.000  1.00  0.00     0.000 C 
BRANCH   2   3
ATOM      3  C   UNL     1      30.450  15.012 -15.559  1.00  0.00     0.000 C 
BRANCH   3   4
ATOM      4  C   UNL     1      29.326  15.076 -14.511  1.00  0.00     0.000 C 
BRANCH   4   5
ATOM      5  C   UNL     1      29.370  13.905 -13.518  1.00  0.00     0.006 C 
BRANCH   5   6
ATOM      6  C   UNL     1      27.964  13.357 -13.253  1.00  0.00     0.053 C 
BRANCH   6   7
ATOM      7  C   UNL     1      27.486  13.777 -11.899  1.00  0.00     0.041 C 
ATOM      8  O   UNL     1      27.562  14.983 -11.545  1.00  0.00    -0.550 OA
ATOM      9  O   UNL     1      27.007  12.827 -11.006  1.00  0.00    -0.550 OA
ENDBRANCH   6   7
ENDBRANCH   5   6
ENDBRANCH   4   5
ENDBRANCH   3   4
ENDBRANCH   2   3
ENDBRANCH   1   2
BRANCH   1  10
ATOM     10  C   UNL     1      29.937  12.597 -17.994  1.00  0.00     0.027 C 
BRANCH  10  11
ATOM     11  C   UNL     1      30.558  11.645 -17.008  1.00  0.00    -0.031 C 
ATOM     12  C   UNL     1      29.945  11.330 -15.856  1.00  0.00    -0.031 C 
BRANCH  12  13
ATOM     13  C   UNL     1      30.573  10.390 -14.864  1.00  0.00     0.027 C 
BRANCH  13  14
ATOM     14  C   UNL     1      29.532   9.410 -14.300  1.00  0.00     0.004 C 
BRANCH  14  15
ATOM     15  C   UNL     1      29.204   9.678 -12.823  1.00  0.00     0.000 C 
BRANCH  15  16
ATOM     16  C   UNL     1      30.387  10.289 -12.057  1.00  0.00    -0.000 C 
BRANCH  16  17
ATOM     17  C   UNL     1      29.913  10.949 -10.757  1.00  0.00    -0.003 C 
ATOM     18  C   UNL     1      30.722  12.206 -10.450  1.00  0.00     0.004 C 
ENDBRANCH  16  17
ENDBRANCH  15  16
ENDBRANCH  14  15
ENDBRANCH  13  14
ENDBRANCH  12  13
ENDBRANCH  10  11
ENDBRANCH   1  10
TORSDOF 13
ENDMDL
MODEL 8
REMARK VINA RESULT:    -3.824      3.094      5.491
REMARK INTER + INTRA:          -8.796
REMARK INTER:                  -6.760
REMARK INTRA:                  -2.036
REMARK UNBOUND:                -2.065
REMARK SMILES CCCCCCC=CCCCCCCCC(=O)[O-]
REMARK SMILES IDX 10 1 11 2 12 3 13 4 14 5 15 6 16 7 17 8 18 9 9 10 8 11 7 12
REMARK SMILES IDX 6 13 5 14 4 15 3 16 2 17 1 18
REMARK H PARENT
REMARK Flexibility Score: inf
ROOT
ATOM      1  C   UNL     1      29.705  10.666  -9.836  1.00  0.00     0.004 C 
ENDROOT
BRANCH   1   2
ATOM      2  C   UNL     1      30.297  11.945 -10.450  1.00  0.00     0.000 C 
BRANCH   2   3
ATOM      3  C   UNL     1      29.279  12.705 -11.319  1.00  0.00     0.000 C 
BRANCH   3   4
ATOM      4  C   UNL     1      27.972  11.920 -11.521  1.00  0.00     0.000 C 
BRANCH   4   5
ATOM      5  C   UNL     1      26.736  12.681 -11.016  1.00  0.00     0.006 C 
BRANCH   5   6
ATOM      6  C   UNL     1      26.713  14.112 -11.560  1.00  0.00     0.053 C 
BRANCH   6   7
ATOM      7  C   UNL     1      25.306  14.610 -11.663  1.00  0.00     0.041 C 
ATOM      8  O   UNL     1      24.890  15.117 -12.738  1.00  0.00    -0.550 OA
ATOM      9  O   UNL     1      24.471  14.566 -10.554  1.00  0.00    -0.550 OA
ENDBRANCH   6   7
ENDBRANCH   5   6
ENDBRANCH   4   5
ENDBRANCH   3   4
ENDBRANCH   2   3
ENDBRANCH   1   2
BRANCH   1  10
ATOM     10  C   UNL     1      30.641   9.456  -9.976  1.00  0.00     0.027 C 
BRANCH  10  11
ATOM     11  C   UNL     1      30.659   8.951 -11.392  1.00  0.00    -0.031 C 
ATOM     12  C   UNL     1      29.525   8.706 -12.065  1.00  0.00    -0.031 C 
BRANCH  12  13
ATOM     13  C   UNL     1      29.544   8.187 -13.477  1.00  0.00     0.027 C 
BRANCH  13  14
ATOM     14  C   UNL     1      30.349   9.118 -14.395  1.00  0.00     0.004 C 
BRANCH  14  15
ATOM     15  C   UNL     1      29.736  10.524 -14.498  1.00  0.00     0.000 C 
BRANCH  15  16
ATOM     16  C   UNL     1      30.801  11.628 -14.574  1.00  0.00    -0.000 C 
BRANCH  16  17
ATOM     17  C   UNL     1      30.154  12.995 -14.825  1.00  0.00    -0.003 C 
ATOM     18  C   UNL     1      28.657  12.857 -15.090  1.00  0.00     0.004 C 
ENDBRANCH  16  17
ENDBRANCH  15  16
ENDBRANCH  14  15
ENDBRANCH  13  14
ENDBRANCH  12  13
ENDBRANCH  10  11
ENDBRANCH   1  10
TORSDOF 13
ENDMDL
MODEL 9
REMARK VINA RESULT:    -3.773     16.904     18.731
REMARK INTER + INTRA:          -8.706
REMARK INTER:                  -6.422
REMARK INTRA:                  -2.284
REMARK UNBOUND:                -2.065
REMARK SMILES CCCCCCC=CCCCCCCCC(=O)[O-]
REMARK SMILES IDX 10 1 11 2 12 3 13 4 14 5 15 6 16 7 17 8 18 9 9 10 8 11 7 12
REMARK SMILES IDX 6 13 5 14 4 15 3 16 2 17 1 18
REMARK H PARENT
REMARK Flexibility Score: inf
ROOT
ATOM      1  C   UNL     1      18.792  -0.988 -19.393  1.00  0.00     0.004 C 
ENDROOT
BRANCH   1   2
ATOM      2  C   UNL     1      17.384  -1.371 -18.910  1.00  0.00     0.000 C 
BRANCH   2   3
ATOM      3  C   UNL     1      16.458  -0.150 -18.767  1.00  0.00     0.000 C 
BRANCH   3   4
ATOM      4  C   UNL     1      17.225   1.132 -18.403  1.00  0.00     0.000 C 
BRANCH   4   5
ATOM      5  C   UNL     1      16.503   1.977 -17.342  1.00  0.00     0.006 C 
BRANCH   5   6
ATOM      6  C   UNL     1      15.021   2.146 -17.691  1.00  0.00     0.053 C 
BRANCH   6   7
ATOM      7  C   UNL     1      14.744   3.550 -18.129  1.00  0.00     0.041 C 
ATOM      8  O   UNL     1      15.334   4.029 -19.133  1.00  0.00    -0.550 OA
ATOM      9  O   UNL     1      13.874   4.347 -17.397  1.00  0.00    -0.550 OA
ENDBRANCH   6   7
ENDBRANCH   5   6
ENDBRANCH   4   5
ENDBRANCH   3   4
ENDBRANCH   2   3
ENDBRANCH   1   2
BRANCH   1  10
ATOM     10  C   UNL     1      19.902  -1.635 -18.551  1.00  0.00     0.027 C 
BRANCH  10  11
ATOM     11  C   UNL     1      19.585  -1.547 -17.083  1.00  0.00    -0.031 C 
ATOM     12  C   UNL     1      19.859  -0.444 -16.370  1.00  0.00    -0.031 C 
BRANCH  12  13
ATOM     13  C   UNL     1      19.556  -0.362 -14.899  1.00  0.00     0.027 C 
BRANCH  13  14
ATOM     14  C   UNL     1      18.113   0.109 -14.660  1.00  0.00     0.004 C 
BRANCH  14  15
ATOM     15  C   UNL     1      17.170  -1.043 -14.276  1.00  0.00     0.000 C 
BRANCH  15  16
ATOM     16  C   UNL     1      16.102  -1.312 -15.346  1.00  0.00    -0.000 C 
BRANCH  16  17
ATOM     17  C   UNL     1      14.803  -0.565 -15.021  1.00  0.00    -0.003 C 
ATOM     18  C   UNL     1      14.575  -0.484 -13.514  1.00  0.00     0.004 C 
ENDBRANCH  16  17
ENDBRANCH  15  16
ENDBRANCH  14  15
ENDBRANCH  13  14
ENDBRANCH  12  13
ENDBRANCH  10  11
ENDBRANCH   1  10
TORSDOF 13
ENDMDL
