MODEL 1
REMARK VINA RESULT:    -4.079      0.000      0.000
REMARK INTER + INTRA:          -4.654
REMARK INTER:                  -4.556
REMARK INTRA:                  -0.098
REMARK UNBOUND:                -0.098
REMARK SMILES CCc1ccc(O)cc1O
REMARK SMILES IDX 3 1 9 2 8 3 6 4 5 5 4 6 2 7 1 8 10 9 7 11
REMARK H PARENT 10 10 7 12
REMARK Flexibility Score: inf
ROOT
ATOM      1  C   UNL     1     -94.116 -18.029 -63.640  1.00  0.00    -0.006 A 
ATOM      2  C   UNL     1     -94.204 -16.670 -63.274  1.00  0.00     0.122 A 
ATOM      3  C   UNL     1     -95.152 -15.841 -63.891  1.00  0.00     0.092 A 
ATOM      4  C   UNL     1     -96.004 -16.350 -64.876  1.00  0.00     0.119 A 
ATOM      5  C   UNL     1     -95.908 -17.697 -65.249  1.00  0.00     0.047 A 
ATOM      6  C   UNL     1     -94.967 -18.529 -64.639  1.00  0.00     0.011 A 
ENDROOT
BRANCH   1   7
ATOM      7  C   UNL     1     -93.085 -18.935 -63.014  1.00  0.00     0.036 C 
ATOM      8  C   UNL     1     -92.123 -19.470 -64.070  1.00  0.00     0.009 C 
ENDBRANCH   1   7
BRANCH   2   9
ATOM      9  O   UNL     1     -93.350 -16.148 -62.303  1.00  0.00    -0.508 OA
ATOM     10  H   UNL     1     -92.532 -15.603 -62.552  1.00  0.00     0.293 HD
ENDBRANCH   2   9
BRANCH   4  11
ATOM     11  O   UNL     1     -96.940 -15.512 -65.477  1.00  0.00    -0.508 OA
ATOM     12  H   UNL     1     -96.662 -14.786 -66.126  1.00  0.00     0.293 HD
ENDBRANCH   4  11
TORSDOF 3
ENDMDL
MODEL 2
REMARK VINA RESULT:    -3.878      1.558      2.219
REMARK INTER + INTRA:          -4.429
REMARK INTER:                  -4.332
REMARK INTRA:                  -0.097
REMARK UNBOUND:                -0.098
REMARK SMILES CCc1ccc(O)cc1O
REMARK SMILES IDX 3 1 9 2 8 3 6 4 5 5 4 6 2 7 1 8 10 9 7 11
REMARK H PARENT 10 10 7 12
REMARK Flexibility Score: inf
ROOT
ATOM      1  C   UNL     1     -94.232 -18.184 -63.646  1.00  0.00    -0.006 A 
ATOM      2  C   UNL     1     -95.037 -18.621 -64.718  1.00  0.00     0.122 A 
ATOM      3  C   UNL     1     -95.914 -17.723 -65.344  1.00  0.00     0.092 A 
ATOM      4  C   UNL     1     -96.004 -16.399 -64.905  1.00  0.00     0.119 A 
ATOM      5  C   UNL     1     -95.214 -15.967 -63.832  1.00  0.00     0.047 A 
ATOM      6  C   UNL     1     -94.338 -16.856 -63.203  1.00  0.00     0.011 A 
ENDROOT
BRANCH   1   7
ATOM      7  C   UNL     1     -93.303 -19.137 -62.936  1.00  0.00     0.036 C 
ATOM      8  C   UNL     1     -91.923 -19.131 -63.586  1.00  0.00     0.009 C 
ENDBRANCH   1   7
BRANCH   2   9
ATOM      9  O   UNL     1     -94.966 -19.943 -65.156  1.00  0.00    -0.508 OA
ATOM     10  H   UNL     1     -95.053 -20.184 -66.137  1.00  0.00     0.293 HD
ENDBRANCH   2   9
BRANCH   4  11
ATOM     11  O   UNL     1     -96.880 -15.521 -65.539  1.00  0.00    -0.508 OA
ATOM     12  H   UNL     1     -97.262 -15.723 -66.455  1.00  0.00     0.293 HD
ENDBRANCH   4  11
TORSDOF 3
ENDMDL
MODEL 3
REMARK VINA RESULT:    -3.713      1.566      3.753
REMARK INTER + INTRA:          -4.245
REMARK INTER:                  -4.152
REMARK INTRA:                  -0.093
REMARK UNBOUND:                -0.098
REMARK SMILES CCc1ccc(O)cc1O
REMARK SMILES IDX 3 1 9 2 8 3 6 4 5 5 4 6 2 7 1 8 10 9 7 11
REMARK H PARENT 10 10 7 12
REMARK Flexibility Score: inf
ROOT
ATOM      1  C   UNL     1     -96.752 -17.499 -64.207  1.00  0.00    -0.006 A 
ATOM      2  C   UNL     1     -96.220 -16.241 -64.558  1.00  0.00     0.122 A 
ATOM      3  C   UNL     1     -95.037 -15.790 -63.954  1.00  0.00     0.092 A 
ATOM      4  C   UNL     1     -94.386 -16.575 -62.998  1.00  0.00     0.119 A 
ATOM      5  C   UNL     1     -94.921 -17.819 -62.639  1.00  0.00     0.047 A 
ATOM      6  C   UNL     1     -96.098 -18.275 -63.236  1.00  0.00     0.011 A 
ENDROOT
BRANCH   1   7
ATOM      7  C   UNL     1     -98.038 -17.995 -64.819  1.00  0.00     0.036 C 
ATOM      8  C   UNL     1     -97.815 -19.314 -65.551  1.00  0.00     0.009 C 
ENDBRANCH   1   7
BRANCH   2   9
ATOM      9  O   UNL     1     -96.868 -15.443 -65.501  1.00  0.00    -0.508 OA
ATOM     10  H   UNL     1     -96.417 -14.633 -65.911  1.00  0.00     0.293 HD
ENDBRANCH   2   9
BRANCH   4  11
ATOM     11  O   UNL     1     -93.212 -16.111 -62.410  1.00  0.00    -0.508 OA
ATOM     12  H   UNL     1     -92.462 -15.714 -62.964  1.00  0.00     0.293 HD
ENDBRANCH   4  11
TORSDOF 3
ENDMDL
MODEL 4
REMARK VINA RESULT:    -3.605      1.760      2.095
REMARK INTER + INTRA:          -4.125
REMARK INTER:                  -4.038
REMARK INTRA:                  -0.087
REMARK UNBOUND:                -0.098
REMARK SMILES CCc1ccc(O)cc1O
REMARK SMILES IDX 3 1 9 2 8 3 6 4 5 5 4 6 2 7 1 8 10 9 7 11
REMARK H PARENT 10 10 7 12
REMARK Flexibility Score: inf
ROOT
ATOM      1  C   UNL     1     -95.063 -17.603 -62.354  1.00  0.00    -0.006 A 
ATOM      2  C   UNL     1     -94.424 -16.484 -62.926  1.00  0.00     0.122 A 
ATOM      3  C   UNL     1     -95.040 -15.791 -63.979  1.00  0.00     0.092 A 
ATOM      4  C   UNL     1     -96.279 -16.210 -64.473  1.00  0.00     0.119 A 
ATOM      5  C   UNL     1     -96.908 -17.329 -63.914  1.00  0.00     0.047 A 
ATOM      6  C   UNL     1     -96.301 -18.025 -62.865  1.00  0.00     0.011 A 
ENDROOT
BRANCH   1   7
ATOM      7  C   UNL     1     -94.409 -18.384 -61.242  1.00  0.00     0.036 C 
ATOM      8  C   UNL     1     -94.758 -17.785 -59.883  1.00  0.00     0.009 C 
ENDBRANCH   1   7
BRANCH   2   9
ATOM      9  O   UNL     1     -93.182 -16.066 -62.450  1.00  0.00    -0.508 OA
ATOM     10  H   UNL     1     -92.319 -16.335 -62.909  1.00  0.00     0.293 HD
ENDBRANCH   2   9
BRANCH   4  11
ATOM     11  O   UNL     1     -96.876 -15.508 -65.518  1.00  0.00    -0.508 OA
ATOM     12  H   UNL     1     -96.355 -14.842 -66.075  1.00  0.00     0.293 HD
ENDBRANCH   4  11
TORSDOF 3
ENDMDL
MODEL 5
REMARK VINA RESULT:    -3.558     15.057     15.863
REMARK INTER + INTRA:          -4.072
REMARK INTER:                  -3.979
REMARK INTRA:                  -0.093
REMARK UNBOUND:                -0.098
REMARK SMILES CCc1ccc(O)cc1O
REMARK SMILES IDX 3 1 9 2 8 3 6 4 5 5 4 6 2 7 1 8 10 9 7 11
REMARK H PARENT 10 10 7 12
REMARK Flexibility Score: inf
ROOT
ATOM      1  C   UNL     1     -99.021 -15.736 -79.120  1.00  0.00    -0.006 A 
ATOM      2  C   UNL     1     -98.041 -16.709 -78.836  1.00  0.00     0.122 A 
ATOM      3  C   UNL     1     -96.691 -16.338 -78.753  1.00  0.00     0.092 A 
ATOM      4  C   UNL     1     -96.308 -15.010 -78.963  1.00  0.00     0.119 A 
ATOM      5  C   UNL     1     -97.279 -14.045 -79.258  1.00  0.00     0.047 A 
ATOM      6  C   UNL     1     -98.626 -14.406 -79.342  1.00  0.00     0.011 A 
ENDROOT
BRANCH   1   7
ATOM      7  C   UNL     1    -100.476 -16.113 -79.245  1.00  0.00     0.036 C 
ATOM      8  C   UNL     1    -101.323 -15.338 -78.241  1.00  0.00     0.009 C 
ENDBRANCH   1   7
BRANCH   2   9
ATOM      9  O   UNL     1     -98.410 -18.040 -78.639  1.00  0.00    -0.508 OA
ATOM     10  H   UNL     1     -98.416 -18.708 -79.401  1.00  0.00     0.293 HD
ENDBRANCH   2   9
BRANCH   4  11
ATOM     11  O   UNL     1     -94.962 -14.660 -78.875  1.00  0.00    -0.508 OA
ATOM     12  H   UNL     1     -94.373 -15.003 -78.127  1.00  0.00     0.293 HD
ENDBRANCH   4  11
TORSDOF 3
ENDMDL
MODEL 6
REMARK VINA RESULT:    -3.507      1.955      3.862
REMARK INTER + INTRA:          -4.015
REMARK INTER:                  -3.926
REMARK INTRA:                  -0.089
REMARK UNBOUND:                -0.098
REMARK SMILES CCc1ccc(O)cc1O
REMARK SMILES IDX 3 1 9 2 8 3 6 4 5 5 4 6 2 7 1 8 10 9 7 11
REMARK H PARENT 10 10 7 12
REMARK Flexibility Score: inf
ROOT
ATOM      1  C   UNL     1     -94.543 -17.538 -63.494  1.00  0.00    -0.006 A 
ATOM      2  C   UNL     1     -93.561 -17.581 -62.484  1.00  0.00     0.122 A 
ATOM      3  C   UNL     1     -92.443 -18.415 -62.632  1.00  0.00     0.092 A 
ATOM      4  C   UNL     1     -92.301 -19.213 -63.771  1.00  0.00     0.119 A 
ATOM      5  C   UNL     1     -93.283 -19.181 -64.769  1.00  0.00     0.047 A 
ATOM      6  C   UNL     1     -94.399 -18.353 -64.629  1.00  0.00     0.011 A 
ENDROOT
BRANCH   1   7
ATOM      7  C   UNL     1     -95.770 -16.674 -63.346  1.00  0.00     0.036 C 
ATOM      8  C   UNL     1     -96.037 -15.890 -64.627  1.00  0.00     0.009 C 
ENDBRANCH   1   7
BRANCH   2   9
ATOM      9  O   UNL     1     -93.698 -16.799 -61.337  1.00  0.00    -0.508 OA
ATOM     10  H   UNL     1     -92.900 -16.358 -60.895  1.00  0.00     0.293 HD
ENDBRANCH   2   9
BRANCH   4  11
ATOM     11  O   UNL     1     -91.183 -20.034 -63.901  1.00  0.00    -0.508 OA
ATOM     12  H   UNL     1     -91.163 -20.801 -64.562  1.00  0.00     0.293 HD
ENDBRANCH   4  11
TORSDOF 3
ENDMDL
MODEL 7
REMARK VINA RESULT:    -3.470      2.023      4.386
REMARK INTER + INTRA:          -3.974
REMARK INTER:                  -3.872
REMARK INTRA:                  -0.101
REMARK UNBOUND:                -0.098
REMARK SMILES CCc1ccc(O)cc1O
REMARK SMILES IDX 3 1 9 2 8 3 6 4 5 5 4 6 2 7 1 8 10 9 7 11
REMARK H PARENT 10 10 7 12
REMARK Flexibility Score: inf
ROOT
ATOM      1  C   UNL     1     -95.894 -17.026 -64.377  1.00  0.00    -0.006 A 
ATOM      2  C   UNL     1     -96.231 -18.178 -65.117  1.00  0.00     0.122 A 
ATOM      3  C   UNL     1     -95.368 -19.285 -65.118  1.00  0.00     0.092 A 
ATOM      4  C   UNL     1     -94.170 -19.249 -64.398  1.00  0.00     0.119 A 
ATOM      5  C   UNL     1     -93.828 -18.101 -63.674  1.00  0.00     0.047 A 
ATOM      6  C   UNL     1     -94.682 -16.995 -63.667  1.00  0.00     0.011 A 
ENDROOT
BRANCH   1   7
ATOM      7  C   UNL     1     -96.788 -15.812 -64.383  1.00  0.00     0.036 C 
ATOM      8  C   UNL     1     -97.775 -15.862 -63.221  1.00  0.00     0.009 C 
ENDBRANCH   1   7
BRANCH   2   9
ATOM      9  O   UNL     1     -97.417 -18.220 -65.849  1.00  0.00    -0.508 OA
ATOM     10  H   UNL     1     -97.553 -18.884 -66.604  1.00  0.00     0.293 HD
ENDBRANCH   2   9
BRANCH   4  11
ATOM     11  O   UNL     1     -93.327 -20.358 -64.410  1.00  0.00    -0.508 OA
ATOM     12  H   UNL     1     -92.907 -20.714 -63.560  1.00  0.00     0.293 HD
ENDBRANCH   4  11
TORSDOF 3
ENDMDL
MODEL 8
REMARK VINA RESULT:    -3.464      1.914      3.743
REMARK INTER + INTRA:          -3.967
REMARK INTER:                  -3.859
REMARK INTRA:                  -0.108
REMARK UNBOUND:                -0.098
REMARK SMILES CCc1ccc(O)cc1O
REMARK SMILES IDX 3 1 9 2 8 3 6 4 5 5 4 6 2 7 1 8 10 9 7 11
REMARK H PARENT 10 10 7 12
REMARK Flexibility Score: inf
ROOT
ATOM      1  C   UNL     1     -95.793 -17.073 -64.457  1.00  0.00    -0.006 A 
ATOM      2  C   UNL     1     -94.544 -17.124 -63.804  1.00  0.00     0.122 A 
ATOM      3  C   UNL     1     -93.824 -18.327 -63.769  1.00  0.00     0.092 A 
ATOM      4  C   UNL     1     -94.340 -19.480 -64.367  1.00  0.00     0.119 A 
ATOM      5  C   UNL     1     -95.586 -19.433 -65.005  1.00  0.00     0.047 A 
ATOM      6  C   UNL     1     -96.310 -18.239 -65.045  1.00  0.00     0.011 A 
ENDROOT
BRANCH   1   7
ATOM      7  C   UNL     1     -96.602 -15.800 -64.483  1.00  0.00     0.036 C 
ATOM      8  C   UNL     1     -97.657 -15.808 -63.382  1.00  0.00     0.009 C 
ENDBRANCH   1   7
BRANCH   2   9
ATOM      9  O   UNL     1     -94.025 -15.984 -63.191  1.00  0.00    -0.508 OA
ATOM     10  H   UNL     1     -94.610 -15.361 -62.645  1.00  0.00     0.293 HD
ENDBRANCH   2   9
BRANCH   4  11
ATOM     11  O   UNL     1     -93.610 -20.666 -64.323  1.00  0.00    -0.508 OA
ATOM     12  H   UNL     1     -93.730 -21.388 -65.022  1.00  0.00     0.293 HD
ENDBRANCH   4  11
TORSDOF 3
ENDMDL
MODEL 9
REMARK VINA RESULT:    -3.411      2.135      2.408
REMARK INTER + INTRA:          -3.908
REMARK INTER:                  -3.810
REMARK INTRA:                  -0.098
REMARK UNBOUND:                -0.098
REMARK SMILES CCc1ccc(O)cc1O
REMARK SMILES IDX 3 1 9 2 8 3 6 4 5 5 4 6 2 7 1 8 10 9 7 11
REMARK H PARENT 10 10 7 12
REMARK Flexibility Score: inf
ROOT
ATOM      1  C   UNL     1     -95.096 -17.308 -63.286  1.00  0.00    -0.006 A 
ATOM      2  C   UNL     1     -96.107 -17.657 -62.368  1.00  0.00     0.122 A 
ATOM      3  C   UNL     1     -97.327 -16.965 -62.376  1.00  0.00     0.092 A 
ATOM      4  C   UNL     1     -97.545 -15.924 -63.282  1.00  0.00     0.119 A 
ATOM      5  C   UNL     1     -96.536 -15.567 -64.187  1.00  0.00     0.047 A 
ATOM      6  C   UNL     1     -95.318 -16.251 -64.185  1.00  0.00     0.011 A 
ENDROOT
BRANCH   1   7
ATOM      7  C   UNL     1     -93.764 -18.015 -63.279  1.00  0.00     0.036 C 
ATOM      8  C   UNL     1     -93.585 -18.845 -64.546  1.00  0.00     0.009 C 
ENDBRANCH   1   7
BRANCH   2   9
ATOM      9  O   UNL     1     -95.897 -18.685 -61.449  1.00  0.00    -0.508 OA
ATOM     10  H   UNL     1     -95.394 -18.529 -60.583  1.00  0.00     0.293 HD
ENDBRANCH   2   9
BRANCH   4  11
ATOM     11  O   UNL     1     -98.764 -15.249 -63.277  1.00  0.00    -0.508 OA
ATOM     12  H   UNL     1     -98.948 -14.483 -63.913  1.00  0.00     0.293 HD
ENDBRANCH   4  11
TORSDOF 3
ENDMDL
