MODEL 1
REMARK VINA RESULT:     4.171      0.000      0.000
REMARK INTER + INTRA:           4.293
REMARK INTER:                   4.293
REMARK INTRA:                   0.000
REMARK UNBOUND:                 0.000
REMARK SMILES C=C1[C@H]2C[C@@]3(C[C@@H]1O)[C@H](CC[C@@H]3C)C2(C)C
REMARK SMILES IDX 13 1 12 2 11 3 10 4 9 5 5 6 4 7 3 8 14 9 15 10 16 11 2 12
REMARK SMILES IDX 1 13 7 14 6 15 8 16
REMARK H PARENT 8 17
REMARK Flexibility Score: inf
ROOT
ATOM      1  C   UNL     1      14.500  14.124  33.049  1.00  0.00     0.008 C 
ATOM      2  C   UNL     1      13.557  13.917  34.249  1.00  0.00    -0.008 C 
ATOM      3  C   UNL     1      12.634  12.724  33.992  1.00  0.00     0.004 C 
ATOM      4  C   UNL     1      13.366  11.509  34.544  1.00  0.00     0.005 C 
ATOM      5  C   UNL     1      14.255  12.017  35.697  1.00  0.00     0.002 C 
ATOM      6  C   UNL     1      14.279  13.562  35.579  1.00  0.00    -0.020 C 
ATOM      7  C   UNL     1      13.482  14.060  36.792  1.00  0.00     0.016 C 
ATOM      8  C   UNL     1      13.936  13.096  37.869  1.00  0.00     0.023 C 
ATOM      9  C   UNL     1      13.814  11.707  37.173  1.00  0.00    -0.025 C 
ATOM     10  C   UNL     1      12.350  11.205  37.315  1.00  0.00     0.012 C 
ATOM     11  C   UNL     1      14.724  10.633  37.818  1.00  0.00     0.012 C 
ATOM     12  C   UNL     1      15.379  13.459  38.217  1.00  0.00    -0.045 C 
ATOM     13  C   UNL     1      15.795  13.386  39.491  1.00  0.00     0.011 C 
ATOM     14  C   UNL     1      16.376  13.836  37.123  1.00  0.00     0.140 C 
ATOM     15  C   UNL     1      15.724  14.125  35.732  1.00  0.00     0.044 C 
ENDROOT
BRANCH  14  16
ATOM     16  O   UNL     1      17.327  12.811  37.002  1.00  0.00    -0.389 OA
ATOM     17  H   UNL     1      16.988  12.038  37.525  1.00  0.00     0.211 HD
ENDBRANCH  14  16
TORSDOF 1
ENDMDL
