MODEL 1
REMARK VINA RESULT:    -6.954      0.000      0.000
REMARK INTER + INTRA:          -8.028
REMARK INTER:                  -8.174
REMARK INTRA:                   0.146
REMARK UNBOUND:                 0.146
REMARK SMILES O=c1c(O)c(-c2ccc(O)cc2)oc2cc(O)cc(O)c12
REMARK SMILES IDX 5 1 3 2 2 3 1 4 21 5 19 6 18 7 16 8 15 9 14 10 13 11 6 12
REMARK SMILES IDX 7 13 8 14 9 15 12 16 11 17 10 18 4 20 20 22 17 24
REMARK H PARENT 10 19 4 21 20 23 17 25
REMARK Flexibility Score: inf
ROOT
ATOM      1  C   UNL     1     -24.022 -18.606 -14.080  1.00  0.00     0.180 A 
ATOM      2  C   UNL     1     -25.171 -18.023 -14.643  1.00  0.00     0.208 A 
ATOM      3  C   UNL     1     -25.122 -16.681 -15.055  1.00  0.00     0.238 A 
ATOM      4  O   UNL     1     -26.169 -16.149 -15.508  1.00  0.00    -0.285 OA
ATOM      5  C   UNL     1     -23.922 -15.944 -14.912  1.00  0.00     0.111 A 
ATOM      6  C   UNL     1     -23.747 -14.591 -15.332  1.00  0.00     0.134 A 
ATOM      7  C   UNL     1     -22.557 -13.920 -15.023  1.00  0.00     0.093 A 
ATOM      8  C   UNL     1     -21.512 -14.572 -14.370  1.00  0.00     0.123 A 
ATOM      9  C   UNL     1     -21.649 -15.913 -14.008  1.00  0.00     0.094 A 
ATOM     10  C   UNL     1     -22.838 -16.598 -14.270  1.00  0.00     0.146 A 
ATOM     11  O   UNL     1     -22.933 -17.870 -13.900  1.00  0.00    -0.452 OA
ENDROOT
BRANCH   1  12
ATOM     12  C   UNL     1     -23.990 -20.021 -13.647  1.00  0.00     0.021 A 
ATOM     13  C   UNL     1     -22.894 -20.827 -13.999  1.00  0.00     0.016 A 
ATOM     14  C   UNL     1     -22.852 -22.172 -13.620  1.00  0.00     0.047 A 
ATOM     15  C   UNL     1     -23.913 -22.733 -12.898  1.00  0.00     0.115 A 
ATOM     16  C   UNL     1     -25.060 -20.596 -12.939  1.00  0.00     0.016 A 
ATOM     17  C   UNL     1     -25.016 -21.943 -12.562  1.00  0.00     0.047 A 
BRANCH  15  18
ATOM     18  O   UNL     1     -23.883 -24.071 -12.514  1.00  0.00    -0.508 OA
ATOM     19  H   UNL     1     -23.380 -24.374 -11.688  1.00  0.00     0.293 HD
ENDBRANCH  15  18
ENDBRANCH   1  12
BRANCH   2  20
ATOM     20  O   UNL     1     -26.352 -18.762 -14.754  1.00  0.00    -0.502 OA
ATOM     21  H   UNL     1     -26.379 -19.686 -15.167  1.00  0.00     0.293 HD
ENDBRANCH   2  20
BRANCH   6  22
ATOM     22  O   UNL     1     -24.692 -13.875 -16.072  1.00  0.00    -0.507 OA
ATOM     23  H   UNL     1     -25.660 -13.760 -15.811  1.00  0.00     0.293 HD
ENDBRANCH   6  22
BRANCH   8  24
ATOM     24  O   UNL     1     -20.336 -13.879 -14.093  1.00  0.00    -0.508 OA
ATOM     25  H   UNL     1     -20.055 -13.670 -13.142  1.00  0.00     0.293 HD
ENDBRANCH   8  24
TORSDOF 5
ENDMDL
MODEL 2
REMARK VINA RESULT:    -6.633      1.900      7.294
REMARK INTER + INTRA:          -7.650
REMARK INTER:                  -7.590
REMARK INTRA:                  -0.060
REMARK UNBOUND:                 0.146
REMARK SMILES O=c1c(O)c(-c2ccc(O)cc2)oc2cc(O)cc(O)c12
REMARK SMILES IDX 5 1 3 2 2 3 1 4 21 5 19 6 18 7 16 8 15 9 14 10 13 11 6 12
REMARK SMILES IDX 7 13 8 14 9 15 12 16 11 17 10 18 4 20 20 22 17 24
REMARK H PARENT 10 19 4 21 20 23 17 25
REMARK Flexibility Score: inf
ROOT
ATOM      1  C   UNL     1     -24.532 -19.137 -14.117  1.00  0.00     0.180 A 
ATOM      2  C   UNL     1     -23.901 -19.404 -12.889  1.00  0.00     0.208 A 
ATOM      3  C   UNL     1     -23.715 -20.739 -12.495  1.00  0.00     0.238 A 
ATOM      4  O   UNL     1     -23.199 -20.971 -11.371  1.00  0.00    -0.285 OA
ATOM      5  C   UNL     1     -24.148 -21.790 -13.339  1.00  0.00     0.111 A 
ATOM      6  C   UNL     1     -23.974 -23.179 -13.060  1.00  0.00     0.134 A 
ATOM      7  C   UNL     1     -24.558 -24.132 -13.903  1.00  0.00     0.093 A 
ATOM      8  C   UNL     1     -25.251 -23.749 -15.051  1.00  0.00     0.123 A 
ATOM      9  C   UNL     1     -25.375 -22.396 -15.367  1.00  0.00     0.094 A 
ATOM     10  C   UNL     1     -24.836 -21.420 -14.525  1.00  0.00     0.146 A 
ATOM     11  O   UNL     1     -24.985 -20.143 -14.855  1.00  0.00    -0.452 OA
ENDROOT
BRANCH   1  12
ATOM     12  C   UNL     1     -24.740 -17.757 -14.611  1.00  0.00     0.021 A 
ATOM     13  C   UNL     1     -26.027 -17.350 -15.002  1.00  0.00     0.016 A 
ATOM     14  C   UNL     1     -26.242 -16.059 -15.494  1.00  0.00     0.047 A 
ATOM     15  C   UNL     1     -25.171 -15.164 -15.615  1.00  0.00     0.115 A 
ATOM     16  C   UNL     1     -23.667 -16.860 -14.755  1.00  0.00     0.016 A 
ATOM     17  C   UNL     1     -23.886 -15.569 -15.247  1.00  0.00     0.047 A 
BRANCH  15  18
ATOM     18  O   UNL     1     -25.374 -13.875 -16.102  1.00  0.00    -0.508 OA
ATOM     19  H   UNL     1     -25.236 -13.652 -17.082  1.00  0.00     0.293 HD
ENDBRANCH  15  18
ENDBRANCH   1  12
BRANCH   2  20
ATOM     20  O   UNL     1     -23.502 -18.352 -12.061  1.00  0.00    -0.502 OA
ATOM     21  H   UNL     1     -22.546 -18.239 -11.747  1.00  0.00     0.293 HD
ENDBRANCH   2  20
BRANCH   6  22
ATOM     22  O   UNL     1     -23.222 -23.671 -11.989  1.00  0.00    -0.507 OA
ATOM     23  H   UNL     1     -23.610 -24.105 -11.165  1.00  0.00     0.293 HD
ENDBRANCH   6  22
BRANCH   8  24
ATOM     24  O   UNL     1     -25.804 -24.725 -15.877  1.00  0.00    -0.508 OA
ATOM     25  H   UNL     1     -25.774 -24.644 -16.887  1.00  0.00     0.293 HD
ENDBRANCH   8  24
TORSDOF 5
ENDMDL
MODEL 3
REMARK VINA RESULT:    -6.572      1.903      7.241
REMARK INTER + INTRA:          -7.579
REMARK INTER:                  -7.558
REMARK INTRA:                  -0.022
REMARK UNBOUND:                 0.146
REMARK SMILES O=c1c(O)c(-c2ccc(O)cc2)oc2cc(O)cc(O)c12
REMARK SMILES IDX 5 1 3 2 2 3 1 4 21 5 19 6 18 7 16 8 15 9 14 10 13 11 6 12
REMARK SMILES IDX 7 13 8 14 9 15 12 16 11 17 10 18 4 20 20 22 17 24
REMARK H PARENT 10 19 4 21 20 23 17 25
REMARK Flexibility Score: inf
ROOT
ATOM      1  C   UNL     1     -24.567 -19.177 -14.187  1.00  0.00     0.180 A 
ATOM      2  C   UNL     1     -23.948 -19.419 -12.948  1.00  0.00     0.208 A 
ATOM      3  C   UNL     1     -23.756 -20.746 -12.531  1.00  0.00     0.238 A 
ATOM      4  O   UNL     1     -23.252 -20.957 -11.397  1.00  0.00    -0.285 OA
ATOM      5  C   UNL     1     -24.171 -21.814 -13.363  1.00  0.00     0.111 A 
ATOM      6  C   UNL     1     -23.989 -23.197 -13.060  1.00  0.00     0.134 A 
ATOM      7  C   UNL     1     -24.556 -24.167 -13.895  1.00  0.00     0.093 A 
ATOM      8  C   UNL     1     -25.238 -23.808 -15.057  1.00  0.00     0.123 A 
ATOM      9  C   UNL     1     -25.369 -22.461 -15.395  1.00  0.00     0.094 A 
ATOM     10  C   UNL     1     -24.848 -21.468 -14.562  1.00  0.00     0.146 A 
ATOM     11  O   UNL     1     -25.003 -20.197 -14.915  1.00  0.00    -0.452 OA
ENDROOT
BRANCH   1  12
ATOM     12  C   UNL     1     -24.780 -17.806 -14.705  1.00  0.00     0.021 A 
ATOM     13  C   UNL     1     -23.685 -16.933 -14.821  1.00  0.00     0.016 A 
ATOM     14  C   UNL     1     -23.867 -15.627 -15.287  1.00  0.00     0.047 A 
ATOM     15  C   UNL     1     -25.147 -15.173 -15.628  1.00  0.00     0.115 A 
ATOM     16  C   UNL     1     -26.065 -17.337 -15.031  1.00  0.00     0.016 A 
ATOM     17  C   UNL     1     -26.243 -16.030 -15.496  1.00  0.00     0.047 A 
BRANCH  15  18
ATOM     18  O   UNL     1     -25.340 -13.875 -16.094  1.00  0.00    -0.508 OA
ATOM     19  H   UNL     1     -25.964 -13.678 -16.868  1.00  0.00     0.293 HD
ENDBRANCH  15  18
ENDBRANCH   1  12
BRANCH   2  20
ATOM     20  O   UNL     1     -23.567 -18.351 -12.131  1.00  0.00    -0.502 OA
ATOM     21  H   UNL     1     -22.823 -17.712 -12.384  1.00  0.00     0.293 HD
ENDBRANCH   2  20
BRANCH   6  22
ATOM     22  O   UNL     1     -23.246 -23.666 -11.973  1.00  0.00    -0.507 OA
ATOM     23  H   UNL     1     -22.838 -23.080 -11.260  1.00  0.00     0.293 HD
ENDBRANCH   6  22
BRANCH   8  24
ATOM     24  O   UNL     1     -25.775 -24.801 -15.874  1.00  0.00    -0.508 OA
ATOM     25  H   UNL     1     -26.484 -25.440 -15.534  1.00  0.00     0.293 HD
ENDBRANCH   8  24
TORSDOF 5
ENDMDL
MODEL 4
REMARK VINA RESULT:    -6.471      2.098      3.269
REMARK INTER + INTRA:          -7.460
REMARK INTER:                  -7.286
REMARK INTRA:                  -0.174
REMARK UNBOUND:                 0.146
REMARK SMILES O=c1c(O)c(-c2ccc(O)cc2)oc2cc(O)cc(O)c12
REMARK SMILES IDX 5 1 3 2 2 3 1 4 21 5 19 6 18 7 16 8 15 9 14 10 13 11 6 12
REMARK SMILES IDX 7 13 8 14 9 15 12 16 11 17 10 18 4 20 20 22 17 24
REMARK H PARENT 10 19 4 21 20 23 17 25
REMARK Flexibility Score: inf
ROOT
ATOM      1  C   UNL     1     -24.271 -20.396 -13.776  1.00  0.00     0.180 A 
ATOM      2  C   UNL     1     -24.131 -19.953 -12.449  1.00  0.00     0.208 A 
ATOM      3  C   UNL     1     -23.922 -18.586 -12.206  1.00  0.00     0.238 A 
ATOM      4  O   UNL     1     -23.744 -18.204 -11.020  1.00  0.00    -0.285 OA
ATOM      5  C   UNL     1     -23.870 -17.677 -13.290  1.00  0.00     0.111 A 
ATOM      6  C   UNL     1     -23.703 -16.265 -13.157  1.00  0.00     0.134 A 
ATOM      7  C   UNL     1     -23.535 -15.479 -14.303  1.00  0.00     0.093 A 
ATOM      8  C   UNL     1     -23.595 -16.042 -15.578  1.00  0.00     0.123 A 
ATOM      9  C   UNL     1     -23.818 -17.412 -15.721  1.00  0.00     0.094 A 
ATOM     10  C   UNL     1     -23.952 -18.229 -14.595  1.00  0.00     0.146 A 
ATOM     11  O   UNL     1     -24.152 -19.529 -14.774  1.00  0.00    -0.452 OA
ENDROOT
BRANCH   1  12
ATOM     12  C   UNL     1     -24.519 -21.816 -14.110  1.00  0.00     0.021 A 
ATOM     13  C   UNL     1     -25.787 -22.206 -14.574  1.00  0.00     0.016 A 
ATOM     14  C   UNL     1     -26.051 -23.546 -14.873  1.00  0.00     0.047 A 
ATOM     15  C   UNL     1     -25.056 -24.515 -14.699  1.00  0.00     0.115 A 
ATOM     16  C   UNL     1     -23.531 -22.798 -13.919  1.00  0.00     0.016 A 
ATOM     17  C   UNL     1     -23.798 -24.139 -14.219  1.00  0.00     0.047 A 
BRANCH  15  18
ATOM     18  O   UNL     1     -25.306 -25.853 -14.994  1.00  0.00    -0.508 OA
ATOM     19  H   UNL     1     -24.933 -26.289 -15.830  1.00  0.00     0.293 HD
ENDBRANCH  15  18
ENDBRANCH   1  12
BRANCH   2  20
ATOM     20  O   UNL     1     -24.163 -20.870 -11.395  1.00  0.00    -0.502 OA
ATOM     21  H   UNL     1     -23.336 -21.118 -10.865  1.00  0.00     0.293 HD
ENDBRANCH   2  20
BRANCH   6  22
ATOM     22  O   UNL     1     -23.721 -15.589 -11.934  1.00  0.00    -0.507 OA
ATOM     23  H   UNL     1     -22.941 -15.533 -11.296  1.00  0.00     0.293 HD
ENDBRANCH   6  22
BRANCH   8  24
ATOM     24  O   UNL     1     -23.440 -15.227 -16.697  1.00  0.00    -0.508 OA
ATOM     25  H   UNL     1     -24.151 -14.557 -16.966  1.00  0.00     0.293 HD
ENDBRANCH   8  24
TORSDOF 5
ENDMDL
MODEL 5
REMARK VINA RESULT:    -5.927      2.352      7.709
REMARK INTER + INTRA:          -6.821
REMARK INTER:                  -7.272
REMARK INTRA:                   0.451
REMARK UNBOUND:                 0.146
REMARK SMILES O=c1c(O)c(-c2ccc(O)cc2)oc2cc(O)cc(O)c12
REMARK SMILES IDX 5 1 3 2 2 3 1 4 21 5 19 6 18 7 16 8 15 9 14 10 13 11 6 12
REMARK SMILES IDX 7 13 8 14 9 15 12 16 11 17 10 18 4 20 20 22 17 24
REMARK H PARENT 10 19 4 21 20 23 17 25
REMARK Flexibility Score: inf
ROOT
ATOM      1  C   UNL     1     -24.377 -20.475 -14.360  1.00  0.00     0.180 A 
ATOM      2  C   UNL     1     -23.327 -21.134 -13.696  1.00  0.00     0.208 A 
ATOM      3  C   UNL     1     -23.308 -22.538 -13.680  1.00  0.00     0.238 A 
ATOM      4  O   UNL     1     -22.396 -23.122 -13.038  1.00  0.00    -0.285 OA
ATOM      5  C   UNL     1     -24.329 -23.265 -14.338  1.00  0.00     0.111 A 
ATOM      6  C   UNL     1     -24.387 -24.689 -14.420  1.00  0.00     0.134 A 
ATOM      7  C   UNL     1     -25.512 -25.303 -14.985  1.00  0.00     0.093 A 
ATOM      8  C   UNL     1     -26.548 -24.546 -15.530  1.00  0.00     0.123 A 
ATOM      9  C   UNL     1     -26.474 -23.153 -15.510  1.00  0.00     0.094 A 
ATOM     10  C   UNL     1     -25.382 -22.511 -14.920  1.00  0.00     0.146 A 
ATOM     11  O   UNL     1     -25.354 -21.184 -14.912  1.00  0.00    -0.452 OA
ENDROOT
BRANCH   1  12
ATOM     12  C   UNL     1     -24.452 -18.999 -14.442  1.00  0.00     0.021 A 
ATOM     13  C   UNL     1     -23.287 -18.236 -14.255  1.00  0.00     0.016 A 
ATOM     14  C   UNL     1     -23.338 -16.840 -14.306  1.00  0.00     0.047 A 
ATOM     15  C   UNL     1     -24.557 -16.188 -14.530  1.00  0.00     0.115 A 
ATOM     16  C   UNL     1     -25.676 -18.336 -14.646  1.00  0.00     0.016 A 
ATOM     17  C   UNL     1     -25.724 -16.939 -14.696  1.00  0.00     0.047 A 
BRANCH  15  18
ATOM     18  O   UNL     1     -24.621 -14.797 -14.583  1.00  0.00    -0.508 OA
ATOM     19  H   UNL     1     -24.072 -14.268 -15.251  1.00  0.00     0.293 HD
ENDBRANCH  15  18
ENDBRANCH   1  12
BRANCH   2  20
ATOM     20  O   UNL     1     -22.342 -20.398 -13.033  1.00  0.00    -0.502 OA
ATOM     21  H   UNL     1     -22.550 -19.547 -12.524  1.00  0.00     0.293 HD
ENDBRANCH   2  20
BRANCH   6  22
ATOM     22  O   UNL     1     -23.363 -25.537 -13.989  1.00  0.00    -0.507 OA
ATOM     23  H   UNL     1     -22.550 -25.782 -14.534  1.00  0.00     0.293 HD
ENDBRANCH   6  22
BRANCH   8  24
ATOM     24  O   UNL     1     -27.644 -25.191 -16.098  1.00  0.00    -0.508 OA
ATOM     25  H   UNL     1     -28.474 -25.403 -15.556  1.00  0.00     0.293 HD
ENDBRANCH   8  24
TORSDOF 5
ENDMDL
MODEL 6
REMARK VINA RESULT:    -5.904      1.461      2.972
REMARK INTER + INTRA:          -6.794
REMARK INTER:                  -7.032
REMARK INTRA:                   0.238
REMARK UNBOUND:                 0.146
REMARK SMILES O=c1c(O)c(-c2ccc(O)cc2)oc2cc(O)cc(O)c12
REMARK SMILES IDX 5 1 3 2 2 3 1 4 21 5 19 6 18 7 16 8 15 9 14 10 13 11 6 12
REMARK SMILES IDX 7 13 8 14 9 15 12 16 11 17 10 18 4 20 20 22 17 24
REMARK H PARENT 10 19 4 21 20 23 17 25
REMARK Flexibility Score: inf
ROOT
ATOM      1  C   UNL     1     -23.928 -19.132 -14.222  1.00  0.00     0.180 A 
ATOM      2  C   UNL     1     -22.583 -18.732 -14.145  1.00  0.00     0.208 A 
ATOM      3  C   UNL     1     -22.266 -17.374 -14.308  1.00  0.00     0.238 A 
ATOM      4  O   UNL     1     -21.056 -17.029 -14.292  1.00  0.00    -0.285 OA
ATOM      5  C   UNL     1     -23.299 -16.431 -14.530  1.00  0.00     0.111 A 
ATOM      6  C   UNL     1     -23.097 -15.025 -14.668  1.00  0.00     0.134 A 
ATOM      7  C   UNL     1     -24.176 -14.203 -15.015  1.00  0.00     0.093 A 
ATOM      8  C   UNL     1     -25.461 -14.725 -15.163  1.00  0.00     0.123 A 
ATOM      9  C   UNL     1     -25.680 -16.090 -14.971  1.00  0.00     0.094 A 
ATOM     10  C   UNL     1     -24.617 -16.941 -14.661  1.00  0.00     0.146 A 
ATOM     11  O   UNL     1     -24.866 -18.235 -14.496  1.00  0.00    -0.452 OA
ENDROOT
BRANCH   1  12
ATOM     12  C   UNL     1     -24.342 -20.541 -14.035  1.00  0.00     0.021 A 
ATOM     13  C   UNL     1     -23.678 -21.337 -13.086  1.00  0.00     0.016 A 
ATOM     14  C   UNL     1     -24.037 -22.677 -12.909  1.00  0.00     0.047 A 
ATOM     15  C   UNL     1     -25.054 -23.242 -13.689  1.00  0.00     0.115 A 
ATOM     16  C   UNL     1     -25.348 -21.122 -14.828  1.00  0.00     0.016 A 
ATOM     17  C   UNL     1     -25.705 -22.463 -14.649  1.00  0.00     0.047 A 
BRANCH  15  18
ATOM     18  O   UNL     1     -25.420 -24.575 -13.521  1.00  0.00    -0.508 OA
ATOM     19  H   UNL     1     -25.251 -25.266 -14.244  1.00  0.00     0.293 HD
ENDBRANCH  15  18
ENDBRANCH   1  12
BRANCH   2  20
ATOM     20  O   UNL     1     -21.577 -19.682 -13.947  1.00  0.00    -0.502 OA
ATOM     21  H   UNL     1     -21.163 -20.203 -14.711  1.00  0.00     0.293 HD
ENDBRANCH   2  20
BRANCH   6  22
ATOM     22  O   UNL     1     -21.872 -14.387 -14.451  1.00  0.00    -0.507 OA
ATOM     23  H   UNL     1     -21.577 -13.537 -14.908  1.00  0.00     0.293 HD
ENDBRANCH   6  22
BRANCH   8  24
ATOM     24  O   UNL     1     -26.514 -13.875 -15.493  1.00  0.00    -0.508 OA
ATOM     25  H   UNL     1     -26.372 -12.880 -15.617  1.00  0.00     0.293 HD
ENDBRANCH   8  24
TORSDOF 5
ENDMDL
MODEL 7
REMARK VINA RESULT:    -5.321      4.233      7.204
REMARK INTER + INTRA:          -6.109
REMARK INTER:                  -6.254
REMARK INTRA:                   0.146
REMARK UNBOUND:                 0.146
REMARK SMILES O=c1c(O)c(-c2ccc(O)cc2)oc2cc(O)cc(O)c12
REMARK SMILES IDX 5 1 3 2 2 3 1 4 21 5 19 6 18 7 16 8 15 9 14 10 13 11 6 12
REMARK SMILES IDX 7 13 8 14 9 15 12 16 11 17 10 18 4 20 20 22 17 24
REMARK H PARENT 10 19 4 21 20 23 17 25
REMARK Flexibility Score: inf
ROOT
ATOM      1  C   UNL     1     -25.471 -20.211 -11.604  1.00  0.00     0.180 A 
ATOM      2  C   UNL     1     -24.186 -19.738 -11.923  1.00  0.00     0.208 A 
ATOM      3  C   UNL     1     -23.353 -20.525 -12.733  1.00  0.00     0.238 A 
ATOM      4  O   UNL     1     -22.184 -20.121 -12.970  1.00  0.00    -0.285 OA
ATOM      5  C   UNL     1     -23.818 -21.767 -13.228  1.00  0.00     0.111 A 
ATOM      6  C   UNL     1     -23.074 -22.627 -14.090  1.00  0.00     0.134 A 
ATOM      7  C   UNL     1     -23.582 -23.892 -14.411  1.00  0.00     0.093 A 
ATOM      8  C   UNL     1     -24.835 -24.301 -13.956  1.00  0.00     0.123 A 
ATOM      9  C   UNL     1     -25.598 -23.444 -13.162  1.00  0.00     0.094 A 
ATOM     10  C   UNL     1     -25.102 -22.190 -12.794  1.00  0.00     0.146 A 
ATOM     11  O   UNL     1     -25.854 -21.409 -12.028  1.00  0.00    -0.452 OA
ENDROOT
BRANCH   1  12
ATOM     12  C   UNL     1     -26.416 -19.427 -10.777  1.00  0.00     0.021 A 
ATOM     13  C   UNL     1     -27.756 -19.308 -11.183  1.00  0.00     0.016 A 
ATOM     14  C   UNL     1     -28.660 -18.553 -10.430  1.00  0.00     0.047 A 
ATOM     15  C   UNL     1     -28.233 -17.897  -9.268  1.00  0.00     0.115 A 
ATOM     16  C   UNL     1     -25.990 -18.749  -9.620  1.00  0.00     0.016 A 
ATOM     17  C   UNL     1     -26.898 -17.995  -8.869  1.00  0.00     0.047 A 
BRANCH  15  18
ATOM     18  O   UNL     1     -29.125 -17.143  -8.509  1.00  0.00    -0.508 OA
ATOM     19  H   UNL     1     -29.416 -17.441  -7.585  1.00  0.00     0.293 HD
ENDBRANCH  15  18
ENDBRANCH   1  12
BRANCH   2  20
ATOM     20  O   UNL     1     -23.738 -18.519 -11.406  1.00  0.00    -0.502 OA
ATOM     21  H   UNL     1     -24.346 -17.715 -11.304  1.00  0.00     0.293 HD
ENDBRANCH   2  20
BRANCH   6  22
ATOM     22  O   UNL     1     -21.852 -22.279 -14.674  1.00  0.00    -0.507 OA
ATOM     23  H   UNL     1     -20.959 -22.316 -14.205  1.00  0.00     0.293 HD
ENDBRANCH   6  22
BRANCH   8  24
ATOM     24  O   UNL     1     -25.317 -25.559 -14.308  1.00  0.00    -0.508 OA
ATOM     25  H   UNL     1     -24.918 -26.082 -15.079  1.00  0.00     0.293 HD
ENDBRANCH   8  24
TORSDOF 5
ENDMDL
MODEL 8
REMARK VINA RESULT:    -5.202      2.103      3.612
REMARK INTER + INTRA:          -5.969
REMARK INTER:                  -5.854
REMARK INTRA:                  -0.115
REMARK UNBOUND:                 0.146
REMARK SMILES O=c1c(O)c(-c2ccc(O)cc2)oc2cc(O)cc(O)c12
REMARK SMILES IDX 5 1 3 2 2 3 1 4 21 5 19 6 18 7 16 8 15 9 14 10 13 11 6 12
REMARK SMILES IDX 7 13 8 14 9 15 12 16 11 17 10 18 4 20 20 22 17 24
REMARK H PARENT 10 19 4 21 20 23 17 25
REMARK Flexibility Score: inf
ROOT
ATOM      1  C   UNL     1     -25.100 -19.397 -12.992  1.00  0.00     0.180 A 
ATOM      2  C   UNL     1     -23.709 -19.597 -13.006  1.00  0.00     0.208 A 
ATOM      3  C   UNL     1     -22.888 -18.627 -13.603  1.00  0.00     0.238 A 
ATOM      4  O   UNL     1     -21.648 -18.837 -13.662  1.00  0.00    -0.285 OA
ATOM      5  C   UNL     1     -23.466 -17.463 -14.164  1.00  0.00     0.111 A 
ATOM      6  C   UNL     1     -22.727 -16.396 -14.758  1.00  0.00     0.134 A 
ATOM      7  C   UNL     1     -23.410 -15.354 -15.398  1.00  0.00     0.093 A 
ATOM      8  C   UNL     1     -24.804 -15.307 -15.407  1.00  0.00     0.123 A 
ATOM      9  C   UNL     1     -25.536 -16.313 -14.777  1.00  0.00     0.094 A 
ATOM     10  C   UNL     1     -24.883 -17.385 -14.163  1.00  0.00     0.146 A 
ATOM     11  O   UNL     1     -25.617 -18.328 -13.584  1.00  0.00    -0.452 OA
ENDROOT
BRANCH   1  12
ATOM     12  C   UNL     1     -26.028 -20.362 -12.359  1.00  0.00     0.021 A 
ATOM     13  C   UNL     1     -26.162 -21.651 -12.903  1.00  0.00     0.016 A 
ATOM     14  C   UNL     1     -27.048 -22.571 -12.335  1.00  0.00     0.047 A 
ATOM     15  C   UNL     1     -27.823 -22.209 -11.226  1.00  0.00     0.115 A 
ATOM     16  C   UNL     1     -26.823 -20.000 -11.257  1.00  0.00     0.016 A 
ATOM     17  C   UNL     1     -27.710 -20.923 -10.692  1.00  0.00     0.047 A 
BRANCH  15  18
ATOM     18  O   UNL     1     -28.709 -23.117 -10.651  1.00  0.00    -0.508 OA
ATOM     19  H   UNL     1     -28.570 -23.470  -9.711  1.00  0.00     0.293 HD
ENDBRANCH  15  18
ENDBRANCH   1  12
BRANCH   2  20
ATOM     20  O   UNL     1     -23.161 -20.764 -12.467  1.00  0.00    -0.502 OA
ATOM     21  H   UNL     1     -22.162 -20.893 -12.351  1.00  0.00     0.293 HD
ENDBRANCH   2  20
BRANCH   6  22
ATOM     22  O   UNL     1     -21.333 -16.299 -14.725  1.00  0.00    -0.507 OA
ATOM     23  H   UNL     1     -20.706 -17.074 -14.566  1.00  0.00     0.293 HD
ENDBRANCH   6  22
BRANCH   8  24
ATOM     24  O   UNL     1     -25.451 -14.246 -16.039  1.00  0.00    -0.508 OA
ATOM     25  H   UNL     1     -24.991 -13.354 -16.180  1.00  0.00     0.293 HD
ENDBRANCH   8  24
TORSDOF 5
ENDMDL
