MODEL 1
REMARK VINA RESULT:    -5.931      0.000      0.000
REMARK INTER + INTRA:          -6.277
REMARK INTER:                  -6.277
REMARK INTRA:                   0.000
REMARK UNBOUND:                 0.000
REMARK SMILES Cc1cc(O)c(C)c(C)c1O
REMARK SMILES IDX 1 1 2 2 3 3 4 4 6 5 8 6 10 7 9 8 7 9 11 10 5 12
REMARK H PARENT 11 11 5 13
REMARK Flexibility Score: inf
ROOT
ATOM      1  C   UNL     1      13.089  -9.210 -27.870  1.00  0.00     0.048 C 
ATOM      2  C   UNL     1      12.585 -10.628 -27.859  1.00  0.00    -0.005 A 
ATOM      3  C   UNL     1      11.486 -10.969 -28.656  1.00  0.00     0.053 A 
ATOM      4  C   UNL     1      10.980 -12.267 -28.669  1.00  0.00     0.119 A 
ATOM      5  C   UNL     1      11.560 -13.264 -27.851  1.00  0.00    -0.003 A 
ATOM      6  C   UNL     1      12.716 -12.947 -27.085  1.00  0.00    -0.002 A 
ATOM      7  C   UNL     1      13.207 -11.621 -27.074  1.00  0.00     0.121 A 
ATOM      8  C   UNL     1      13.414 -14.006 -26.261  1.00  0.00     0.049 C 
ATOM      9  C   UNL     1      10.954 -14.651 -27.835  1.00  0.00     0.049 C 
ENDROOT
BRANCH   7  10
ATOM     10  O   UNL     1      14.313 -11.311 -26.274  1.00  0.00    -0.507 OA
ATOM     11  H   UNL     1      14.531 -11.792 -25.410  1.00  0.00     0.293 HD
ENDBRANCH   7  10
BRANCH   4  12
ATOM     12  O   UNL     1       9.898 -12.531 -29.515  1.00  0.00    -0.508 OA
ATOM     13  H   UNL     1       9.715 -12.017 -30.367  1.00  0.00     0.293 HD
ENDBRANCH   4  12
TORSDOF 2
ENDMDL
MODEL 2
REMARK VINA RESULT:    -5.786      1.442      3.335
REMARK INTER + INTRA:          -6.124
REMARK INTER:                  -6.124
REMARK INTRA:                   0.000
REMARK UNBOUND:                 0.000
REMARK SMILES Cc1cc(O)c(C)c(C)c1O
REMARK SMILES IDX 1 1 2 2 3 3 4 4 6 5 8 6 10 7 9 8 7 9 11 10 5 12
REMARK H PARENT 11 11 5 13
REMARK Flexibility Score: inf
ROOT
ATOM      1  C   UNL     1       9.888 -12.854 -29.377  1.00  0.00     0.048 C 
ATOM      2  C   UNL     1      11.095 -12.505 -28.549  1.00  0.00    -0.005 A 
ATOM      3  C   UNL     1      11.568 -11.188 -28.552  1.00  0.00     0.053 A 
ATOM      4  C   UNL     1      12.689 -10.824 -27.809  1.00  0.00     0.119 A 
ATOM      5  C   UNL     1      13.386 -11.792 -27.051  1.00  0.00    -0.003 A 
ATOM      6  C   UNL     1      12.879 -13.120 -26.989  1.00  0.00    -0.002 A 
ATOM      7  C   UNL     1      11.748 -13.476 -27.760  1.00  0.00     0.121 A 
ATOM      8  C   UNL     1      13.549 -14.165 -26.125  1.00  0.00     0.049 C 
ATOM      9  C   UNL     1      14.637 -11.385 -26.302  1.00  0.00     0.049 C 
ENDROOT
BRANCH   7  10
ATOM     10  O   UNL     1      11.292 -14.798 -27.731  1.00  0.00    -0.507 OA
ATOM     11  H   UNL     1      10.418 -15.079 -27.305  1.00  0.00     0.293 HD
ENDBRANCH   7  10
BRANCH   4  12
ATOM     12  O   UNL     1      13.079  -9.481 -27.844  1.00  0.00    -0.508 OA
ATOM     13  H   UNL     1      13.464  -8.988 -27.049  1.00  0.00     0.293 HD
ENDBRANCH   4  12
TORSDOF 2
ENDMDL
MODEL 3
REMARK VINA RESULT:    -5.687      2.075      3.034
REMARK INTER + INTRA:          -6.019
REMARK INTER:                  -6.019
REMARK INTRA:                   0.000
REMARK UNBOUND:                 0.000
REMARK SMILES Cc1cc(O)c(C)c(C)c1O
REMARK SMILES IDX 1 1 2 2 3 3 4 4 6 5 8 6 10 7 9 8 7 9 11 10 5 12
REMARK H PARENT 11 11 5 13
REMARK Flexibility Score: inf
ROOT
ATOM      1  C   UNL     1      12.769  -9.179 -27.617  1.00  0.00     0.048 C 
ATOM      2  C   UNL     1      12.951 -10.604 -27.171  1.00  0.00    -0.005 A 
ATOM      3  C   UNL     1      14.167 -11.249 -27.423  1.00  0.00     0.053 A 
ATOM      4  C   UNL     1      14.375 -12.572 -27.038  1.00  0.00     0.119 A 
ATOM      5  C   UNL     1      13.343 -13.298 -26.400  1.00  0.00    -0.003 A 
ATOM      6  C   UNL     1      12.125 -12.635 -26.081  1.00  0.00    -0.002 A 
ATOM      7  C   UNL     1      11.926 -11.297 -26.492  1.00  0.00     0.121 A 
ATOM      8  C   UNL     1      11.028 -13.353 -25.328  1.00  0.00     0.049 C 
ATOM      9  C   UNL     1      13.571 -14.752 -26.047  1.00  0.00     0.049 C 
ENDROOT
BRANCH   7  10
ATOM     10  O   UNL     1      10.703 -10.675 -26.219  1.00  0.00    -0.507 OA
ATOM     11  H   UNL     1       9.877 -10.789 -26.793  1.00  0.00     0.293 HD
ENDBRANCH   7  10
BRANCH   4  12
ATOM     12  O   UNL     1      15.630 -13.132 -27.301  1.00  0.00    -0.508 OA
ATOM     13  H   UNL     1      16.499 -12.620 -27.225  1.00  0.00     0.293 HD
ENDBRANCH   4  12
TORSDOF 2
ENDMDL
MODEL 4
REMARK VINA RESULT:    -5.497      2.165      3.013
REMARK INTER + INTRA:          -5.818
REMARK INTER:                  -5.818
REMARK INTRA:                   0.000
REMARK UNBOUND:                 0.000
REMARK SMILES Cc1cc(O)c(C)c(C)c1O
REMARK SMILES IDX 1 1 2 2 3 3 4 4 6 5 8 6 10 7 9 8 7 9 11 10 5 12
REMARK H PARENT 11 11 5 13
REMARK Flexibility Score: inf
ROOT
ATOM      1  C   UNL     1      12.494  -9.214 -27.884  1.00  0.00     0.048 C 
ATOM      2  C   UNL     1      12.052 -10.444 -27.140  1.00  0.00    -0.005 A 
ATOM      3  C   UNL     1      11.785 -10.355 -25.769  1.00  0.00     0.053 A 
ATOM      4  C   UNL     1      11.384 -11.472 -25.039  1.00  0.00     0.119 A 
ATOM      5  C   UNL     1      11.260 -12.730 -25.672  1.00  0.00    -0.003 A 
ATOM      6  C   UNL     1      11.466 -12.821 -27.077  1.00  0.00    -0.002 A 
ATOM      7  C   UNL     1      11.887 -11.681 -27.800  1.00  0.00     0.121 A 
ATOM      8  C   UNL     1      11.264 -14.131 -27.806  1.00  0.00     0.049 C 
ATOM      9  C   UNL     1      10.882 -13.940 -24.846  1.00  0.00     0.049 C 
ENDROOT
BRANCH   7  10
ATOM     10  O   UNL     1      12.138 -11.798 -29.172  1.00  0.00    -0.507 OA
ATOM     11  H   UNL     1      11.492 -12.226 -29.824  1.00  0.00     0.293 HD
ENDBRANCH   7  10
BRANCH   4  12
ATOM     12  O   UNL     1      11.109 -11.290 -23.679  1.00  0.00    -0.508 OA
ATOM     13  H   UNL     1      11.667 -10.709 -23.067  1.00  0.00     0.293 HD
ENDBRANCH   4  12
TORSDOF 2
ENDMDL
MODEL 5
REMARK VINA RESULT:    -5.451      2.419      3.448
REMARK INTER + INTRA:          -5.770
REMARK INTER:                  -5.770
REMARK INTRA:                   0.000
REMARK UNBOUND:                 0.000
REMARK SMILES Cc1cc(O)c(C)c(C)c1O
REMARK SMILES IDX 1 1 2 2 3 3 4 4 6 5 8 6 10 7 9 8 7 9 11 10 5 12
REMARK H PARENT 11 11 5 13
REMARK Flexibility Score: inf
ROOT
ATOM      1  C   UNL     1      15.657 -13.387 -27.188  1.00  0.00     0.048 C 
ATOM      2  C   UNL     1      14.367 -12.690 -26.853  1.00  0.00    -0.005 A 
ATOM      3  C   UNL     1      14.215 -11.338 -27.180  1.00  0.00     0.053 A 
ATOM      4  C   UNL     1      13.041 -10.651 -26.879  1.00  0.00     0.119 A 
ATOM      5  C   UNL     1      11.983 -11.309 -26.211  1.00  0.00    -0.003 A 
ATOM      6  C   UNL     1      12.099 -12.699 -25.931  1.00  0.00    -0.002 A 
ATOM      7  C   UNL     1      13.303 -13.377 -26.231  1.00  0.00     0.121 A 
ATOM      8  C   UNL     1      10.957 -13.458 -25.291  1.00  0.00     0.049 C 
ATOM      9  C   UNL     1      10.742 -10.526 -25.840  1.00  0.00     0.049 C 
ENDROOT
BRANCH   7  10
ATOM     10  O   UNL     1      13.423 -14.732 -25.900  1.00  0.00    -0.507 OA
ATOM     11  H   UNL     1      14.298 -15.240 -25.933  1.00  0.00     0.293 HD
ENDBRANCH   7  10
BRANCH   4  12
ATOM     12  O   UNL     1      12.960  -9.309 -27.266  1.00  0.00    -0.508 OA
ATOM     13  H   UNL     1      12.589  -8.577 -26.675  1.00  0.00     0.293 HD
ENDBRANCH   4  12
TORSDOF 2
ENDMDL
MODEL 6
REMARK VINA RESULT:    -5.320      2.445      3.799
REMARK INTER + INTRA:          -5.631
REMARK INTER:                  -5.631
REMARK INTRA:                   0.000
REMARK UNBOUND:                 0.000
REMARK SMILES Cc1cc(O)c(C)c(C)c1O
REMARK SMILES IDX 1 1 2 2 3 3 4 4 6 5 8 6 10 7 9 8 7 9 11 10 5 12
REMARK H PARENT 11 11 5 13
REMARK Flexibility Score: inf
ROOT
ATOM      1  C   UNL     1      10.782 -14.288 -24.294  1.00  0.00     0.048 C 
ATOM      2  C   UNL     1      11.476 -13.240 -25.121  1.00  0.00    -0.005 A 
ATOM      3  C   UNL     1      10.904 -11.968 -25.233  1.00  0.00     0.053 A 
ATOM      4  C   UNL     1      11.507 -10.972 -25.998  1.00  0.00     0.119 A 
ATOM      5  C   UNL     1      12.707 -11.240 -26.697  1.00  0.00    -0.003 A 
ATOM      6  C   UNL     1      13.332 -12.508 -26.540  1.00  0.00    -0.002 A 
ATOM      7  C   UNL     1      12.698 -13.512 -25.772  1.00  0.00     0.121 A 
ATOM      8  C   UNL     1      14.657 -12.806 -27.206  1.00  0.00     0.049 C 
ATOM      9  C   UNL     1      13.310 -10.160 -27.570  1.00  0.00     0.049 C 
ENDROOT
BRANCH   7  10
ATOM     10  O   UNL     1      13.298 -14.772 -25.670  1.00  0.00    -0.507 OA
ATOM     11  H   UNL     1      12.776 -15.640 -25.648  1.00  0.00     0.293 HD
ENDBRANCH   7  10
BRANCH   4  12
ATOM     12  O   UNL     1      10.886  -9.719 -26.033  1.00  0.00    -0.508 OA
ATOM     13  H   UNL     1      11.390  -8.843 -26.003  1.00  0.00     0.293 HD
ENDBRANCH   4  12
TORSDOF 2
ENDMDL
MODEL 7
REMARK VINA RESULT:    -5.299      1.888      3.519
REMARK INTER + INTRA:          -5.609
REMARK INTER:                  -5.609
REMARK INTRA:                   0.000
REMARK UNBOUND:                 0.000
REMARK SMILES Cc1cc(O)c(C)c(C)c1O
REMARK SMILES IDX 1 1 2 2 3 3 4 4 6 5 8 6 10 7 9 8 7 9 11 10 5 12
REMARK H PARENT 11 11 5 13
REMARK Flexibility Score: inf
ROOT
ATOM      1  C   UNL     1      10.249 -15.125 -27.899  1.00  0.00     0.048 C 
ATOM      2  C   UNL     1      10.870 -13.763 -27.744  1.00  0.00    -0.005 A 
ATOM      3  C   UNL     1      11.082 -12.976 -28.881  1.00  0.00     0.053 A 
ATOM      4  C   UNL     1      11.665 -11.714 -28.786  1.00  0.00     0.119 A 
ATOM      5  C   UNL     1      12.075 -11.213 -27.528  1.00  0.00    -0.003 A 
ATOM      6  C   UNL     1      11.807 -11.976 -26.358  1.00  0.00    -0.002 A 
ATOM      7  C   UNL     1      11.228 -13.261 -26.475  1.00  0.00     0.121 A 
ATOM      8  C   UNL     1      12.157 -11.440 -24.987  1.00  0.00     0.049 C 
ATOM      9  C   UNL     1      12.761  -9.866 -27.458  1.00  0.00     0.049 C 
ENDROOT
BRANCH   7  10
ATOM     10  O   UNL     1      11.020 -14.023 -25.320  1.00  0.00    -0.507 OA
ATOM     11  H   UNL     1      10.144 -14.040 -24.813  1.00  0.00     0.293 HD
ENDBRANCH   7  10
BRANCH   4  12
ATOM     12  O   UNL     1      11.814 -10.980 -29.967  1.00  0.00    -0.508 OA
ATOM     13  H   UNL     1      11.617  -9.990 -30.040  1.00  0.00     0.293 HD
ENDBRANCH   4  12
TORSDOF 2
ENDMDL
MODEL 8
REMARK VINA RESULT:    -5.210      2.401      3.271
REMARK INTER + INTRA:          -5.515
REMARK INTER:                  -5.515
REMARK INTRA:                   0.000
REMARK UNBOUND:                 0.000
REMARK SMILES Cc1cc(O)c(C)c(C)c1O
REMARK SMILES IDX 1 1 2 2 3 3 4 4 6 5 8 6 10 7 9 8 7 9 11 10 5 12
REMARK H PARENT 11 11 5 13
REMARK Flexibility Score: inf
ROOT
ATOM      1  C   UNL     1      11.276 -11.601 -23.842  1.00  0.00     0.048 C 
ATOM      2  C   UNL     1      11.392 -11.691 -25.339  1.00  0.00    -0.005 A 
ATOM      3  C   UNL     1      11.773 -10.557 -26.065  1.00  0.00     0.053 A 
ATOM      4  C   UNL     1      11.882 -10.593 -27.454  1.00  0.00     0.119 A 
ATOM      5  C   UNL     1      11.583 -11.781 -28.160  1.00  0.00    -0.003 A 
ATOM      6  C   UNL     1      11.256 -12.958 -27.430  1.00  0.00    -0.002 A 
ATOM      7  C   UNL     1      11.137 -12.899 -26.023  1.00  0.00     0.121 A 
ATOM      8  C   UNL     1      11.009 -14.268 -28.144  1.00  0.00     0.049 C 
ATOM      9  C   UNL     1      11.648 -11.778 -29.673  1.00  0.00     0.049 C 
ENDROOT
BRANCH   7  10
ATOM     10  O   UNL     1      10.762 -14.051 -25.322  1.00  0.00    -0.507 OA
ATOM     11  H   UNL     1      11.417 -14.642 -24.825  1.00  0.00     0.293 HD
ENDBRANCH   7  10
BRANCH   4  12
ATOM     12  O   UNL     1      12.297  -9.425 -28.100  1.00  0.00    -0.508 OA
ATOM     13  H   UNL     1      12.301  -8.513 -27.662  1.00  0.00     0.293 HD
ENDBRANCH   4  12
TORSDOF 2
ENDMDL
