MODEL 1
REMARK VINA RESULT:    -4.281      0.000      0.000
REMARK INTER + INTRA:         -15.691
REMARK INTER:                 -10.788
REMARK INTRA:                  -4.903
REMARK UNBOUND:                -4.903
REMARK SMILES CCCCCCCCCCCCCCCCCCCCCCCCCCCC(=O)[O-]
REMARK SMILES IDX 15 1 16 2 17 3 18 4 19 5 20 6 21 7 22 8 23 9 24 10 25 11
REMARK SMILES IDX 26 12 27 13 28 14 29 15 30 16 14 17 13 18 12 19 11 20 10 21
REMARK SMILES IDX 9 22 8 23 7 24 6 25 5 26 4 27 3 28 2 29 1 30
REMARK H PARENT
REMARK Flexibility Score: inf
ROOT
ATOM      1  C   UNL     1      62.069 -25.511  -3.146  1.00  0.00     0.000 C 
ENDROOT
BRANCH   1   2
ATOM      2  C   UNL     1      63.223 -26.325  -2.534  1.00  0.00     0.000 C 
BRANCH   2   3
ATOM      3  C   UNL     1      62.894 -27.831  -2.456  1.00  0.00     0.000 C 
BRANCH   3   4
ATOM      4  C   UNL     1      63.602 -28.560  -1.302  1.00  0.00     0.000 C 
BRANCH   4   5
ATOM      5  C   UNL     1      62.634 -29.019  -0.199  1.00  0.00     0.000 C 
BRANCH   5   6
ATOM      6  C   UNL     1      61.179 -29.104  -0.690  1.00  0.00     0.000 C 
BRANCH   6   7
ATOM      7  C   UNL     1      60.178 -29.313   0.459  1.00  0.00     0.000 C 
BRANCH   7   8
ATOM      8  C   UNL     1      58.992 -30.204   0.055  1.00  0.00     0.000 C 
BRANCH   8   9
ATOM      9  C   UNL     1      57.693 -29.822   0.786  1.00  0.00     0.000 C 
BRANCH   9  10
ATOM     10  C   UNL     1      57.751 -28.418   1.415  1.00  0.00     0.000 C 
BRANCH  10  11
ATOM     11  C   UNL     1      56.454 -27.951   2.100  1.00  0.00     0.000 C 
BRANCH  11  12
ATOM     12  C   UNL     1      55.153 -28.536   1.518  1.00  0.00     0.006 C 
BRANCH  12  13
ATOM     13  C   UNL     1      54.508 -29.626   2.394  1.00  0.00     0.053 C 
BRANCH  13  14
ATOM     14  C   UNL     1      53.396 -30.344   1.691  1.00  0.00     0.041 C 
ATOM     15  O   UNL     1      53.635 -31.020   0.656  1.00  0.00    -0.550 OA
ATOM     16  O   UNL     1      52.093 -30.242   2.158  1.00  0.00    -0.550 OA
ENDBRANCH  13  14
ENDBRANCH  12  13
ENDBRANCH  11  12
ENDBRANCH  10  11
ENDBRANCH   9  10
ENDBRANCH   8   9
ENDBRANCH   7   8
ENDBRANCH   6   7
ENDBRANCH   5   6
ENDBRANCH   4   5
ENDBRANCH   3   4
ENDBRANCH   2   3
ENDBRANCH   1   2
BRANCH   1  17
ATOM     17  C   UNL     1      60.753 -26.303  -3.216  1.00  0.00     0.000 C 
BRANCH  17  18
ATOM     18  C   UNL     1      59.601 -25.595  -2.479  1.00  0.00     0.000 C 
BRANCH  18  19
ATOM     19  C   UNL     1      58.713 -26.564  -1.678  1.00  0.00     0.000 C 
BRANCH  19  20
ATOM     20  C   UNL     1      58.028 -27.672  -2.506  1.00  0.00     0.000 C 
BRANCH  20  21
ATOM     21  C   UNL     1      56.557 -27.950  -2.144  1.00  0.00     0.000 C 
BRANCH  21  22
ATOM     22  C   UNL     1      55.781 -26.734  -1.603  1.00  0.00    -0.000 C 
BRANCH  22  23
ATOM     23  C   UNL     1      55.095 -25.893  -2.701  1.00  0.00    -0.000 C 
BRANCH  23  24
ATOM     24  C   UNL     1      55.670 -24.470  -2.801  1.00  0.00    -0.000 C 
BRANCH  24  25
ATOM     25  C   UNL     1      56.620 -24.305  -3.999  1.00  0.00    -0.000 C 
BRANCH  25  26
ATOM     26  C   UNL     1      56.385 -25.368  -5.088  1.00  0.00    -0.000 C 
BRANCH  26  27
ATOM     27  C   UNL     1      57.705 -25.843  -5.732  1.00  0.00    -0.000 C 
BRANCH  27  28
ATOM     28  C   UNL     1      58.404 -24.761  -6.579  1.00  0.00    -0.000 C 
BRANCH  28  29
ATOM     29  C   UNL     1      59.778 -24.318  -6.046  1.00  0.00    -0.003 C 
ATOM     30  C   UNL     1      60.939 -25.047  -6.723  1.00  0.00     0.004 C 
ENDBRANCH  28  29
ENDBRANCH  27  28
ENDBRANCH  26  27
ENDBRANCH  25  26
ENDBRANCH  24  25
ENDBRANCH  23  24
ENDBRANCH  22  23
ENDBRANCH  21  22
ENDBRANCH  20  21
ENDBRANCH  19  20
ENDBRANCH  18  19
ENDBRANCH  17  18
ENDBRANCH   1  17
TORSDOF 26
ENDMDL
MODEL 2
REMARK VINA RESULT:    -4.277      2.663      3.757
REMARK INTER + INTRA:         -15.680
REMARK INTER:                 -11.016
REMARK INTRA:                  -4.664
REMARK UNBOUND:                -4.903
REMARK SMILES CCCCCCCCCCCCCCCCCCCCCCCCCCCC(=O)[O-]
REMARK SMILES IDX 15 1 16 2 17 3 18 4 19 5 20 6 21 7 22 8 23 9 24 10 25 11
REMARK SMILES IDX 26 12 27 13 28 14 29 15 30 16 14 17 13 18 12 19 11 20 10 21
REMARK SMILES IDX 9 22 8 23 7 24 6 25 5 26 4 27 3 28 2 29 1 30
REMARK H PARENT
REMARK Flexibility Score: inf
ROOT
ATOM      1  C   UNL     1      63.482 -27.767  -1.255  1.00  0.00     0.000 C 
ENDROOT
BRANCH   1   2
ATOM      2  C   UNL     1      62.693 -29.065  -1.006  1.00  0.00     0.000 C 
BRANCH   2   3
ATOM      3  C   UNL     1      61.584 -28.875   0.052  1.00  0.00     0.000 C 
BRANCH   3   4
ATOM      4  C   UNL     1      60.182 -29.263  -0.445  1.00  0.00     0.000 C 
BRANCH   4   5
ATOM      5  C   UNL     1      59.474 -30.264   0.483  1.00  0.00     0.000 C 
BRANCH   5   6
ATOM      6  C   UNL     1      57.947 -30.260   0.298  1.00  0.00     0.000 C 
BRANCH   6   7
ATOM      7  C   UNL     1      57.482 -29.249  -0.763  1.00  0.00     0.000 C 
BRANCH   7   8
ATOM      8  C   UNL     1      56.489 -28.218  -0.202  1.00  0.00     0.000 C 
BRANCH   8   9
ATOM      9  C   UNL     1      57.194 -26.992   0.405  1.00  0.00     0.000 C 
BRANCH   9  10
ATOM     10  C   UNL     1      56.692 -26.653   1.820  1.00  0.00     0.000 C 
BRANCH  10  11
ATOM     11  C   UNL     1      56.954 -27.732   2.886  1.00  0.00     0.000 C 
BRANCH  11  12
ATOM     12  C   UNL     1      58.437 -27.977   3.225  1.00  0.00     0.006 C 
BRANCH  12  13
ATOM     13  C   UNL     1      58.687 -29.240   4.071  1.00  0.00     0.053 C 
BRANCH  13  14
ATOM     14  C   UNL     1      60.136 -29.617   4.125  1.00  0.00     0.041 C 
ATOM     15  O   UNL     1      61.003 -28.876   3.589  1.00  0.00    -0.550 OA
ATOM     16  O   UNL     1      60.529 -30.798   4.738  1.00  0.00    -0.550 OA
ENDBRANCH  13  14
ENDBRANCH  12  13
ENDBRANCH  11  12
ENDBRANCH  10  11
ENDBRANCH   9  10
ENDBRANCH   8   9
ENDBRANCH   7   8
ENDBRANCH   6   7
ENDBRANCH   5   6
ENDBRANCH   4   5
ENDBRANCH   3   4
ENDBRANCH   2   3
ENDBRANCH   1   2
BRANCH   1  17
ATOM     17  C   UNL     1      63.553 -27.388  -2.743  1.00  0.00     0.000 C 
BRANCH  17  18
ATOM     18  C   UNL     1      63.201 -25.910  -2.990  1.00  0.00     0.000 C 
BRANCH  18  19
ATOM     19  C   UNL     1      61.714 -25.597  -2.750  1.00  0.00     0.000 C 
BRANCH  19  20
ATOM     20  C   UNL     1      60.730 -26.727  -3.123  1.00  0.00     0.000 C 
BRANCH  20  21
ATOM     21  C   UNL     1      59.310 -26.581  -2.543  1.00  0.00     0.000 C 
BRANCH  21  22
ATOM     22  C   UNL     1      58.172 -26.902  -3.530  1.00  0.00    -0.000 C 
BRANCH  22  23
ATOM     23  C   UNL     1      56.881 -26.096  -3.275  1.00  0.00    -0.000 C 
BRANCH  23  24
ATOM     24  C   UNL     1      56.324 -25.453  -4.557  1.00  0.00    -0.000 C 
BRANCH  24  25
ATOM     25  C   UNL     1      56.642 -23.951  -4.646  1.00  0.00    -0.000 C 
BRANCH  25  26
ATOM     26  C   UNL     1      57.732 -23.640  -5.687  1.00  0.00    -0.000 C 
BRANCH  26  27
ATOM     27  C   UNL     1      59.127 -23.490  -5.043  1.00  0.00    -0.000 C 
BRANCH  27  28
ATOM     28  C   UNL     1      60.217 -24.343  -5.723  1.00  0.00    -0.000 C 
BRANCH  28  29
ATOM     29  C   UNL     1      59.681 -25.494  -6.592  1.00  0.00    -0.003 C 
ATOM     30  C   UNL     1      60.260 -25.487  -8.006  1.00  0.00     0.004 C 
ENDBRANCH  28  29
ENDBRANCH  27  28
ENDBRANCH  26  27
ENDBRANCH  25  26
ENDBRANCH  24  25
ENDBRANCH  23  24
ENDBRANCH  22  23
ENDBRANCH  21  22
ENDBRANCH  20  21
ENDBRANCH  19  20
ENDBRANCH  18  19
ENDBRANCH  17  18
ENDBRANCH   1  17
TORSDOF 26
ENDMDL
MODEL 3
REMARK VINA RESULT:    -4.250      3.884      8.142
REMARK INTER + INTRA:         -15.613
REMARK INTER:                 -11.126
REMARK INTRA:                  -4.487
REMARK UNBOUND:                -4.903
REMARK SMILES CCCCCCCCCCCCCCCCCCCCCCCCCCCC(=O)[O-]
REMARK SMILES IDX 15 1 16 2 17 3 18 4 19 5 20 6 21 7 22 8 23 9 24 10 25 11
REMARK SMILES IDX 26 12 27 13 28 14 29 15 30 16 14 17 13 18 12 19 11 20 10 21
REMARK SMILES IDX 9 22 8 23 7 24 6 25 5 26 4 27 3 28 2 29 1 30
REMARK H PARENT
REMARK Flexibility Score: inf
ROOT
ATOM      1  C   UNL     1      63.631 -27.127  -1.659  1.00  0.00     0.000 C 
ENDROOT
BRANCH   1   2
ATOM      2  C   UNL     1      62.824 -27.019  -2.964  1.00  0.00     0.000 C 
BRANCH   2   3
ATOM      3  C   UNL     1      61.956 -25.742  -3.005  1.00  0.00     0.000 C 
BRANCH   3   4
ATOM      4  C   UNL     1      60.507 -25.963  -2.543  1.00  0.00     0.000 C 
BRANCH   4   5
ATOM      5  C   UNL     1      59.897 -27.264  -3.087  1.00  0.00     0.000 C 
BRANCH   5   6
ATOM      6  C   UNL     1      58.382 -27.353  -2.841  1.00  0.00     0.000 C 
BRANCH   6   7
ATOM      7  C   UNL     1      57.872 -26.260  -1.885  1.00  0.00     0.000 C 
BRANCH   7   8
ATOM      8  C   UNL     1      56.762 -25.400  -2.510  1.00  0.00     0.000 C 
BRANCH   8   9
ATOM      9  C   UNL     1      56.973 -25.167  -4.016  1.00  0.00     0.000 C 
BRANCH   9  10
ATOM     10  C   UNL     1      57.838 -23.929  -4.314  1.00  0.00     0.000 C 
BRANCH  10  11
ATOM     11  C   UNL     1      58.619 -23.977  -5.640  1.00  0.00     0.000 C 
BRANCH  11  12
ATOM     12  C   UNL     1      59.174 -25.361  -6.028  1.00  0.00     0.006 C 
BRANCH  12  13
ATOM     13  C   UNL     1      60.645 -25.340  -6.489  1.00  0.00     0.053 C 
BRANCH  13  14
ATOM     14  C   UNL     1      60.777 -25.319  -7.981  1.00  0.00     0.041 C 
ATOM     15  O   UNL     1      61.311 -26.289  -8.582  1.00  0.00    -0.550 OA
ATOM     16  O   UNL     1      60.340 -24.219  -8.707  1.00  0.00    -0.550 OA
ENDBRANCH  13  14
ENDBRANCH  12  13
ENDBRANCH  11  12
ENDBRANCH  10  11
ENDBRANCH   9  10
ENDBRANCH   8   9
ENDBRANCH   7   8
ENDBRANCH   6   7
ENDBRANCH   5   6
ENDBRANCH   4   5
ENDBRANCH   3   4
ENDBRANCH   2   3
ENDBRANCH   1   2
BRANCH   1  17
ATOM     17  C   UNL     1      63.490 -28.501  -0.982  1.00  0.00     0.000 C 
BRANCH  17  18
ATOM     18  C   UNL     1      62.069 -29.078  -1.115  1.00  0.00     0.000 C 
BRANCH  18  19
ATOM     19  C   UNL     1      61.349 -29.224   0.236  1.00  0.00     0.000 C 
BRANCH  19  20
ATOM     20  C   UNL     1      59.860 -28.821   0.241  1.00  0.00     0.000 C 
BRANCH  20  21
ATOM     21  C   UNL     1      58.861 -29.989   0.344  1.00  0.00     0.000 C 
BRANCH  21  22
ATOM     22  C   UNL     1      57.378 -29.586   0.236  1.00  0.00    -0.000 C 
BRANCH  22  23
ATOM     23  C   UNL     1      57.016 -28.319   1.038  1.00  0.00    -0.000 C 
BRANCH  23  24
ATOM     24  C   UNL     1      57.099 -28.540   2.559  1.00  0.00    -0.000 C 
BRANCH  24  25
ATOM     25  C   UNL     1      57.744 -27.350   3.290  1.00  0.00    -0.000 C 
BRANCH  25  26
ATOM     26  C   UNL     1      58.533 -27.783   4.538  1.00  0.00    -0.000 C 
BRANCH  26  27
ATOM     27  C   UNL     1      60.059 -27.694   4.323  1.00  0.00    -0.000 C 
BRANCH  27  28
ATOM     28  C   UNL     1      60.688 -29.003   3.805  1.00  0.00    -0.000 C 
BRANCH  28  29
ATOM     29  C   UNL     1      60.140 -30.281   4.463  1.00  0.00    -0.003 C 
ATOM     30  C   UNL     1      60.863 -30.635   5.763  1.00  0.00     0.004 C 
ENDBRANCH  28  29
ENDBRANCH  27  28
ENDBRANCH  26  27
ENDBRANCH  25  26
ENDBRANCH  24  25
ENDBRANCH  23  24
ENDBRANCH  22  23
ENDBRANCH  21  22
ENDBRANCH  20  21
ENDBRANCH  19  20
ENDBRANCH  18  19
ENDBRANCH  17  18
ENDBRANCH   1  17
TORSDOF 26
ENDMDL
MODEL 4
REMARK VINA RESULT:    -4.177      3.774      8.270
REMARK INTER + INTRA:         -15.429
REMARK INTER:                 -11.821
REMARK INTRA:                  -3.608
REMARK UNBOUND:                -4.903
REMARK SMILES CCCCCCCCCCCCCCCCCCCCCCCCCCCC(=O)[O-]
REMARK SMILES IDX 15 1 16 2 17 3 18 4 19 5 20 6 21 7 22 8 23 9 24 10 25 11
REMARK SMILES IDX 26 12 27 13 28 14 29 15 30 16 14 17 13 18 12 19 11 20 10 21
REMARK SMILES IDX 9 22 8 23 7 24 6 25 5 26 4 27 3 28 2 29 1 30
REMARK H PARENT
REMARK Flexibility Score: inf
ROOT
ATOM      1  C   UNL     1      60.043 -25.139  -2.875  1.00  0.00     0.000 C 
ENDROOT
BRANCH   1   2
ATOM      2  C   UNL     1      59.035 -25.459  -3.993  1.00  0.00     0.000 C 
BRANCH   2   3
ATOM      3  C   UNL     1      58.805 -24.253  -4.930  1.00  0.00     0.000 C 
BRANCH   3   4
ATOM      4  C   UNL     1      59.895 -24.086  -6.002  1.00  0.00     0.000 C 
BRANCH   4   5
ATOM      5  C   UNL     1      60.438 -25.429  -6.517  1.00  0.00     0.000 C 
BRANCH   5   6
ATOM      6  C   UNL     1      60.683 -25.422  -8.035  1.00  0.00     0.000 C 
BRANCH   6   7
ATOM      7  C   UNL     1      59.475 -25.945  -8.832  1.00  0.00     0.000 C 
BRANCH   7   8
ATOM      8  C   UNL     1      58.434 -26.640  -7.939  1.00  0.00     0.000 C 
BRANCH   8   9
ATOM      9  C   UNL     1      57.061 -25.949  -7.986  1.00  0.00     0.000 C 
BRANCH   9  10
ATOM     10  C   UNL     1      57.039 -24.725  -8.920  1.00  0.00     0.000 C 
BRANCH  10  11
ATOM     11  C   UNL     1      56.556 -23.414  -8.274  1.00  0.00     0.000 C 
BRANCH  11  12
ATOM     12  C   UNL     1      55.538 -23.579  -7.129  1.00  0.00     0.006 C 
BRANCH  12  13
ATOM     13  C   UNL     1      55.703 -22.554  -5.991  1.00  0.00     0.053 C 
BRANCH  13  14
ATOM     14  C   UNL     1      55.279 -21.175  -6.396  1.00  0.00     0.041 C 
ATOM     15  O   UNL     1      56.137 -20.264  -6.535  1.00  0.00    -0.550 OA
ATOM     16  O   UNL     1      53.935 -20.886  -6.592  1.00  0.00    -0.550 OA
ENDBRANCH  13  14
ENDBRANCH  12  13
ENDBRANCH  11  12
ENDBRANCH  10  11
ENDBRANCH   9  10
ENDBRANCH   8   9
ENDBRANCH   7   8
ENDBRANCH   6   7
ENDBRANCH   5   6
ENDBRANCH   4   5
ENDBRANCH   3   4
ENDBRANCH   2   3
ENDBRANCH   1   2
BRANCH   1  17
ATOM     17  C   UNL     1      61.173 -26.176  -2.777  1.00  0.00     0.000 C 
BRANCH  17  18
ATOM     18  C   UNL     1      62.472 -25.696  -3.449  1.00  0.00     0.000 C 
BRANCH  18  19
ATOM     19  C   UNL     1      63.685 -26.582  -3.118  1.00  0.00     0.000 C 
BRANCH  19  20
ATOM     20  C   UNL     1      63.717 -27.153  -1.684  1.00  0.00     0.000 C 
BRANCH  20  21
ATOM     21  C   UNL     1      63.419 -28.660  -1.569  1.00  0.00     0.000 C 
BRANCH  21  22
ATOM     22  C   UNL     1      62.785 -29.096  -0.234  1.00  0.00    -0.000 C 
BRANCH  22  23
ATOM     23  C   UNL     1      61.242 -29.135  -0.260  1.00  0.00    -0.000 C 
BRANCH  23  24
ATOM     24  C   UNL     1      60.631 -29.212   1.150  1.00  0.00    -0.000 C 
BRANCH  24  25
ATOM     25  C   UNL     1      59.272 -29.932   1.161  1.00  0.00    -0.000 C 
BRANCH  25  26
ATOM     26  C   UNL     1      58.589 -29.924  -0.219  1.00  0.00    -0.000 C 
BRANCH  26  27
ATOM     27  C   UNL     1      57.386 -28.958  -0.268  1.00  0.00    -0.000 C 
BRANCH  27  28
ATOM     28  C   UNL     1      57.771 -27.510  -0.631  1.00  0.00    -0.000 C 
BRANCH  28  29
ATOM     29  C   UNL     1      56.607 -26.649  -1.152  1.00  0.00    -0.003 C 
ATOM     30  C   UNL     1      56.854 -25.150  -0.975  1.00  0.00     0.004 C 
ENDBRANCH  28  29
ENDBRANCH  27  28
ENDBRANCH  26  27
ENDBRANCH  25  26
ENDBRANCH  24  25
ENDBRANCH  23  24
ENDBRANCH  22  23
ENDBRANCH  21  22
ENDBRANCH  20  21
ENDBRANCH  19  20
ENDBRANCH  18  19
ENDBRANCH  17  18
ENDBRANCH   1  17
TORSDOF 26
ENDMDL
MODEL 5
REMARK VINA RESULT:    -4.169      1.767      4.689
REMARK INTER + INTRA:         -15.410
REMARK INTER:                 -11.311
REMARK INTRA:                  -4.099
REMARK UNBOUND:                -4.903
REMARK SMILES CCCCCCCCCCCCCCCCCCCCCCCCCCCC(=O)[O-]
REMARK SMILES IDX 15 1 16 2 17 3 18 4 19 5 20 6 21 7 22 8 23 9 24 10 25 11
REMARK SMILES IDX 26 12 27 13 28 14 29 15 30 16 14 17 13 18 12 19 11 20 10 21
REMARK SMILES IDX 9 22 8 23 7 24 6 25 5 26 4 27 3 28 2 29 1 30
REMARK H PARENT
REMARK Flexibility Score: inf
ROOT
ATOM      1  C   UNL     1      59.882 -28.547  -0.690  1.00  0.00     0.000 C 
ENDROOT
BRANCH   1   2
ATOM      2  C   UNL     1      59.112 -29.804  -0.250  1.00  0.00     0.000 C 
BRANCH   2   3
ATOM      3  C   UNL     1      59.118 -29.981   1.284  1.00  0.00     0.000 C 
BRANCH   3   4
ATOM      4  C   UNL     1      60.189 -29.141   2.000  1.00  0.00     0.000 C 
BRANCH   4   5
ATOM      5  C   UNL     1      60.288 -29.451   3.502  1.00  0.00     0.000 C 
BRANCH   5   6
ATOM      6  C   UNL     1      60.111 -28.198   4.375  1.00  0.00     0.000 C 
BRANCH   6   7
ATOM      7  C   UNL     1      58.804 -27.445   4.072  1.00  0.00     0.000 C 
BRANCH   7   8
ATOM      8  C   UNL     1      57.554 -28.256   4.447  1.00  0.00     0.000 C 
BRANCH   8   9
ATOM      9  C   UNL     1      56.259 -27.436   4.319  1.00  0.00     0.000 C 
BRANCH   9  10
ATOM     10  C   UNL     1      55.086 -28.255   3.749  1.00  0.00     0.000 C 
BRANCH  10  11
ATOM     11  C   UNL     1      55.425 -29.704   3.358  1.00  0.00     0.000 C 
BRANCH  11  12
ATOM     12  C   UNL     1      55.370 -30.010   1.849  1.00  0.00     0.006 C 
BRANCH  12  13
ATOM     13  C   UNL     1      53.954 -30.306   1.320  1.00  0.00     0.053 C 
BRANCH  13  14
ATOM     14  C   UNL     1      53.572 -31.747   1.481  1.00  0.00     0.041 C 
ATOM     15  O   UNL     1      54.460 -32.639   1.492  1.00  0.00    -0.550 OA
ATOM     16  O   UNL     1      52.236 -32.108   1.588  1.00  0.00    -0.550 OA
ENDBRANCH  13  14
ENDBRANCH  12  13
ENDBRANCH  11  12
ENDBRANCH  10  11
ENDBRANCH   9  10
ENDBRANCH   8   9
ENDBRANCH   7   8
ENDBRANCH   6   7
ENDBRANCH   5   6
ENDBRANCH   4   5
ENDBRANCH   3   4
ENDBRANCH   2   3
ENDBRANCH   1   2
BRANCH   1  17
ATOM     17  C   UNL     1      61.069 -28.867  -1.613  1.00  0.00     0.000 C 
BRANCH  17  18
ATOM     18  C   UNL     1      62.402 -28.957  -0.847  1.00  0.00     0.000 C 
BRANCH  18  19
ATOM     19  C   UNL     1      63.421 -27.890  -1.284  1.00  0.00     0.000 C 
BRANCH  19  20
ATOM     20  C   UNL     1      63.269 -27.384  -2.734  1.00  0.00     0.000 C 
BRANCH  20  21
ATOM     21  C   UNL     1      62.916 -25.892  -2.878  1.00  0.00     0.000 C 
BRANCH  21  22
ATOM     22  C   UNL     1      61.409 -25.590  -2.989  1.00  0.00    -0.000 C 
BRANCH  22  23
ATOM     23  C   UNL     1      60.893 -25.517  -4.441  1.00  0.00    -0.000 C 
BRANCH  23  24
ATOM     24  C   UNL     1      59.362 -25.639  -4.530  1.00  0.00    -0.000 C 
BRANCH  24  25
ATOM     25  C   UNL     1      58.834 -26.912  -3.849  1.00  0.00    -0.000 C 
BRANCH  25  26
ATOM     26  C   UNL     1      57.572 -26.649  -3.007  1.00  0.00    -0.000 C 
BRANCH  26  27
ATOM     27  C   UNL     1      57.635 -25.295  -2.268  1.00  0.00    -0.000 C 
BRANCH  27  28
ATOM     28  C   UNL     1      56.652 -25.191  -1.086  1.00  0.00    -0.000 C 
BRANCH  28  29
ATOM     29  C   UNL     1      56.265 -26.538  -0.452  1.00  0.00    -0.003 C 
ATOM     30  C   UNL     1      57.047 -26.837   0.827  1.00  0.00     0.004 C 
ENDBRANCH  28  29
ENDBRANCH  27  28
ENDBRANCH  26  27
ENDBRANCH  25  26
ENDBRANCH  24  25
ENDBRANCH  23  24
ENDBRANCH  22  23
ENDBRANCH  21  22
ENDBRANCH  20  21
ENDBRANCH  19  20
ENDBRANCH  18  19
ENDBRANCH  17  18
ENDBRANCH   1  17
TORSDOF 26
ENDMDL
MODEL 6
REMARK VINA RESULT:    -4.160      2.564      7.013
REMARK INTER + INTRA:         -15.385
REMARK INTER:                 -11.347
REMARK INTRA:                  -4.039
REMARK UNBOUND:                -4.903
REMARK SMILES CCCCCCCCCCCCCCCCCCCCCCCCCCCC(=O)[O-]
REMARK SMILES IDX 15 1 16 2 17 3 18 4 19 5 20 6 21 7 22 8 23 9 24 10 25 11
REMARK SMILES IDX 26 12 27 13 28 14 29 15 30 16 14 17 13 18 12 19 11 20 10 21
REMARK SMILES IDX 9 22 8 23 7 24 6 25 5 26 4 27 3 28 2 29 1 30
REMARK H PARENT
REMARK Flexibility Score: inf
ROOT
ATOM      1  C   UNL     1      62.819 -25.773  -2.753  1.00  0.00     0.000 C 
ENDROOT
BRANCH   1   2
ATOM      2  C   UNL     1      61.300 -26.017  -2.775  1.00  0.00     0.000 C 
BRANCH   2   3
ATOM      3  C   UNL     1      60.564 -25.012  -3.688  1.00  0.00     0.000 C 
BRANCH   3   4
ATOM      4  C   UNL     1      60.669 -25.345  -5.185  1.00  0.00     0.000 C 
BRANCH   4   5
ATOM      5  C   UNL     1      59.985 -24.298  -6.080  1.00  0.00     0.000 C 
BRANCH   5   6
ATOM      6  C   UNL     1      58.981 -23.427  -5.307  1.00  0.00     0.000 C 
BRANCH   6   7
ATOM      7  C   UNL     1      57.520 -23.751  -5.664  1.00  0.00     0.000 C 
BRANCH   7   8
ATOM      8  C   UNL     1      56.635 -23.933  -4.420  1.00  0.00     0.000 C 
BRANCH   8   9
ATOM      9  C   UNL     1      56.161 -25.385  -4.242  1.00  0.00     0.000 C 
BRANCH   9  10
ATOM     10  C   UNL     1      57.306 -26.346  -3.872  1.00  0.00     0.000 C 
BRANCH  10  11
ATOM     11  C   UNL     1      57.306 -26.837  -2.413  1.00  0.00     0.000 C 
BRANCH  11  12
ATOM     12  C   UNL     1      57.830 -25.825  -1.376  1.00  0.00     0.006 C 
BRANCH  12  13
ATOM     13  C   UNL     1      56.831 -25.510  -0.247  1.00  0.00     0.053 C 
BRANCH  13  14
ATOM     14  C   UNL     1      55.644 -24.734  -0.732  1.00  0.00     0.041 C 
ATOM     15  O   UNL     1      54.528 -25.301  -0.866  1.00  0.00    -0.550 OA
ATOM     16  O   UNL     1      55.775 -23.392  -1.065  1.00  0.00    -0.550 OA
ENDBRANCH  13  14
ENDBRANCH  12  13
ENDBRANCH  11  12
ENDBRANCH  10  11
ENDBRANCH   9  10
ENDBRANCH   8   9
ENDBRANCH   7   8
ENDBRANCH   6   7
ENDBRANCH   5   6
ENDBRANCH   4   5
ENDBRANCH   3   4
ENDBRANCH   2   3
ENDBRANCH   1   2
BRANCH   1  17
ATOM     17  C   UNL     1      63.634 -27.077  -2.770  1.00  0.00     0.000 C 
BRANCH  17  18
ATOM     18  C   UNL     1      63.600 -27.809  -1.417  1.00  0.00     0.000 C 
BRANCH  18  19
ATOM     19  C   UNL     1      62.617 -28.992  -1.397  1.00  0.00     0.000 C 
BRANCH  19  20
ATOM     20  C   UNL     1      61.494 -28.903  -0.341  1.00  0.00     0.000 C 
BRANCH  20  21
ATOM     21  C   UNL     1      60.080 -29.230  -0.854  1.00  0.00     0.000 C 
BRANCH  21  22
ATOM     22  C   UNL     1      59.176 -29.963   0.156  1.00  0.00    -0.000 C 
BRANCH  22  23
ATOM     23  C   UNL     1      57.668 -29.731  -0.074  1.00  0.00    -0.000 C 
BRANCH  23  24
ATOM     24  C   UNL     1      57.053 -28.777   0.964  1.00  0.00    -0.000 C 
BRANCH  24  25
ATOM     25  C   UNL     1      57.630 -28.992   2.373  1.00  0.00    -0.000 C 
BRANCH  25  26
ATOM     26  C   UNL     1      58.232 -27.705   2.966  1.00  0.00    -0.000 C 
BRANCH  26  27
ATOM     27  C   UNL     1      59.390 -28.000   3.943  1.00  0.00    -0.000 C 
BRANCH  27  28
ATOM     28  C   UNL     1      60.398 -29.038   3.411  1.00  0.00    -0.000 C 
BRANCH  28  29
ATOM     29  C   UNL     1      60.343 -30.405   4.114  1.00  0.00    -0.003 C 
ATOM     30  C   UNL     1      60.124 -30.287   5.622  1.00  0.00     0.004 C 
ENDBRANCH  28  29
ENDBRANCH  27  28
ENDBRANCH  26  27
ENDBRANCH  25  26
ENDBRANCH  24  25
ENDBRANCH  23  24
ENDBRANCH  22  23
ENDBRANCH  21  22
ENDBRANCH  20  21
ENDBRANCH  19  20
ENDBRANCH  18  19
ENDBRANCH  17  18
ENDBRANCH   1  17
TORSDOF 26
ENDMDL
MODEL 7
REMARK VINA RESULT:    -4.136      2.429      4.408
REMARK INTER + INTRA:         -15.326
REMARK INTER:                 -10.930
REMARK INTRA:                  -4.395
REMARK UNBOUND:                -4.903
REMARK SMILES CCCCCCCCCCCCCCCCCCCCCCCCCCCC(=O)[O-]
REMARK SMILES IDX 15 1 16 2 17 3 18 4 19 5 20 6 21 7 22 8 23 9 24 10 25 11
REMARK SMILES IDX 26 12 27 13 28 14 29 15 30 16 14 17 13 18 12 19 11 20 10 21
REMARK SMILES IDX 9 22 8 23 7 24 6 25 5 26 4 27 3 28 2 29 1 30
REMARK H PARENT
REMARK Flexibility Score: inf
ROOT
ATOM      1  C   UNL     1      63.136 -28.362  -1.889  1.00  0.00     0.000 C 
ENDROOT
BRANCH   1   2
ATOM      2  C   UNL     1      63.171 -28.833  -0.424  1.00  0.00     0.000 C 
BRANCH   2   3
ATOM      3  C   UNL     1      61.764 -29.187   0.105  1.00  0.00     0.000 C 
BRANCH   3   4
ATOM      4  C   UNL     1      60.680 -29.207  -0.985  1.00  0.00     0.000 C 
BRANCH   4   5
ATOM      5  C   UNL     1      59.256 -29.110  -0.414  1.00  0.00     0.000 C 
BRANCH   5   6
ATOM      6  C   UNL     1      58.375 -28.119  -1.192  1.00  0.00     0.000 C 
BRANCH   6   7
ATOM      7  C   UNL     1      56.896 -28.542  -1.227  1.00  0.00     0.000 C 
BRANCH   7   8
ATOM      8  C   UNL     1      56.018 -27.703  -0.285  1.00  0.00     0.000 C 
BRANCH   8   9
ATOM      9  C   UNL     1      56.787 -26.531   0.348  1.00  0.00     0.000 C 
BRANCH   9  10
ATOM     10  C   UNL     1      56.905 -26.649   1.878  1.00  0.00     0.000 C 
BRANCH  10  11
ATOM     11  C   UNL     1      56.475 -28.005   2.467  1.00  0.00     0.000 C 
BRANCH  11  12
ATOM     12  C   UNL     1      57.624 -28.898   2.974  1.00  0.00     0.006 C 
BRANCH  12  13
ATOM     13  C   UNL     1      58.930 -28.134   3.265  1.00  0.00     0.053 C 
BRANCH  13  14
ATOM     14  C   UNL     1      60.105 -29.050   3.434  1.00  0.00     0.041 C 
ATOM     15  O   UNL     1      60.113 -30.178   2.875  1.00  0.00    -0.550 OA
ATOM     16  O   UNL     1      61.176 -28.672   4.233  1.00  0.00    -0.550 OA
ENDBRANCH  13  14
ENDBRANCH  12  13
ENDBRANCH  11  12
ENDBRANCH  10  11
ENDBRANCH   9  10
ENDBRANCH   8   9
ENDBRANCH   7   8
ENDBRANCH   6   7
ENDBRANCH   5   6
ENDBRANCH   4   5
ENDBRANCH   3   4
ENDBRANCH   2   3
ENDBRANCH   1   2
BRANCH   1  17
ATOM     17  C   UNL     1      63.772 -26.977  -2.086  1.00  0.00     0.000 C 
BRANCH  17  18
ATOM     18  C   UNL     1      62.831 -25.995  -2.806  1.00  0.00     0.000 C 
BRANCH  18  19
ATOM     19  C   UNL     1      61.365 -26.464  -2.817  1.00  0.00     0.000 C 
BRANCH  19  20
ATOM     20  C   UNL     1      60.310 -25.338  -2.779  1.00  0.00     0.000 C 
BRANCH  20  21
ATOM     21  C   UNL     1      60.092 -24.593  -4.109  1.00  0.00     0.000 C 
BRANCH  21  22
ATOM     22  C   UNL     1      60.079 -25.491  -5.361  1.00  0.00    -0.000 C 
BRANCH  22  23
ATOM     23  C   UNL     1      59.624 -24.765  -6.644  1.00  0.00    -0.000 C 
BRANCH  23  24
ATOM     24  C   UNL     1      58.711 -25.637  -7.524  1.00  0.00    -0.000 C 
BRANCH  24  25
ATOM     25  C   UNL     1      57.257 -25.138  -7.534  1.00  0.00    -0.000 C 
BRANCH  25  26
ATOM     26  C   UNL     1      57.078 -23.826  -6.749  1.00  0.00    -0.000 C 
BRANCH  26  27
ATOM     27  C   UNL     1      56.075 -23.975  -5.585  1.00  0.00    -0.000 C 
BRANCH  27  28
ATOM     28  C   UNL     1      55.913 -25.427  -5.092  1.00  0.00    -0.000 C 
BRANCH  28  29
ATOM     29  C   UNL     1      56.620 -25.735  -3.761  1.00  0.00    -0.003 C 
ATOM     30  C   UNL     1      56.569 -24.565  -2.778  1.00  0.00     0.004 C 
ENDBRANCH  28  29
ENDBRANCH  27  28
ENDBRANCH  26  27
ENDBRANCH  25  26
ENDBRANCH  24  25
ENDBRANCH  23  24
ENDBRANCH  22  23
ENDBRANCH  21  22
ENDBRANCH  20  21
ENDBRANCH  19  20
ENDBRANCH  18  19
ENDBRANCH  17  18
ENDBRANCH   1  17
TORSDOF 26
ENDMDL
MODEL 8
REMARK VINA RESULT:    -4.124      1.348      3.602
REMARK INTER + INTRA:         -15.295
REMARK INTER:                 -10.147
REMARK INTRA:                  -5.147
REMARK UNBOUND:                -4.903
REMARK SMILES CCCCCCCCCCCCCCCCCCCCCCCCCCCC(=O)[O-]
REMARK SMILES IDX 15 1 16 2 17 3 18 4 19 5 20 6 21 7 22 8 23 9 24 10 25 11
REMARK SMILES IDX 26 12 27 13 28 14 29 15 30 16 14 17 13 18 12 19 11 20 10 21
REMARK SMILES IDX 9 22 8 23 7 24 6 25 5 26 4 27 3 28 2 29 1 30
REMARK H PARENT
REMARK Flexibility Score: inf
ROOT
ATOM      1  C   UNL     1      62.542 -28.954  -0.564  1.00  0.00     0.000 C 
ENDROOT
BRANCH   1   2
ATOM      2  C   UNL     1      61.046 -28.766  -0.872  1.00  0.00     0.000 C 
BRANCH   2   3
ATOM      3  C   UNL     1      60.157 -29.087   0.349  1.00  0.00     0.000 C 
BRANCH   3   4
ATOM      4  C   UNL     1      58.962 -29.997   0.022  1.00  0.00     0.000 C 
BRANCH   4   5
ATOM      5  C   UNL     1      57.705 -29.211  -0.388  1.00  0.00     0.000 C 
BRANCH   5   6
ATOM      6  C   UNL     1      57.653 -27.811   0.246  1.00  0.00     0.000 C 
BRANCH   6   7
ATOM      7  C   UNL     1      56.868 -27.790   1.569  1.00  0.00     0.000 C 
BRANCH   7   8
ATOM      8  C   UNL     1      55.947 -26.565   1.691  1.00  0.00     0.000 C 
BRANCH   8   9
ATOM      9  C   UNL     1      55.657 -25.909   0.330  1.00  0.00     0.000 C 
BRANCH   9  10
ATOM     10  C   UNL     1      54.243 -26.219  -0.194  1.00  0.00     0.000 C 
BRANCH  10  11
ATOM     11  C   UNL     1      54.163 -27.333  -1.253  1.00  0.00     0.000 C 
BRANCH  11  12
ATOM     12  C   UNL     1      53.297 -28.548  -0.869  1.00  0.00     0.006 C 
BRANCH  12  13
ATOM     13  C   UNL     1      54.056 -29.637  -0.088  1.00  0.00     0.053 C 
BRANCH  13  14
ATOM     14  C   UNL     1      53.520 -29.827   1.299  1.00  0.00     0.041 C 
ATOM     15  O   UNL     1      53.233 -28.828   2.009  1.00  0.00    -0.550 OA
ATOM     16  O   UNL     1      53.364 -31.105   1.819  1.00  0.00    -0.550 OA
ENDBRANCH  13  14
ENDBRANCH  12  13
ENDBRANCH  11  12
ENDBRANCH  10  11
ENDBRANCH   9  10
ENDBRANCH   8   9
ENDBRANCH   7   8
ENDBRANCH   6   7
ENDBRANCH   5   6
ENDBRANCH   4   5
ENDBRANCH   3   4
ENDBRANCH   2   3
ENDBRANCH   1   2
BRANCH   1  17
ATOM     17  C   UNL     1      63.450 -28.527  -1.728  1.00  0.00     0.000 C 
BRANCH  17  18
ATOM     18  C   UNL     1      63.685 -27.006  -1.764  1.00  0.00     0.000 C 
BRANCH  18  19
ATOM     19  C   UNL     1      63.302 -26.369  -3.111  1.00  0.00     0.000 C 
BRANCH  19  20
ATOM     20  C   UNL     1      61.790 -26.327  -3.418  1.00  0.00     0.000 C 
BRANCH  20  21
ATOM     21  C   UNL     1      60.993 -25.250  -2.656  1.00  0.00     0.000 C 
BRANCH  21  22
ATOM     22  C   UNL     1      59.566 -25.665  -2.251  1.00  0.00    -0.000 C 
BRANCH  22  23
ATOM     23  C   UNL     1      58.989 -26.821  -3.096  1.00  0.00    -0.000 C 
BRANCH  23  24
ATOM     24  C   UNL     1      57.484 -26.658  -3.369  1.00  0.00    -0.000 C 
BRANCH  24  25
ATOM     25  C   UNL     1      56.942 -25.305  -2.879  1.00  0.00    -0.000 C 
BRANCH  25  26
ATOM     26  C   UNL     1      56.351 -24.458  -4.021  1.00  0.00    -0.000 C 
BRANCH  26  27
ATOM     27  C   UNL     1      57.293 -24.388  -5.242  1.00  0.00    -0.000 C 
BRANCH  27  28
ATOM     28  C   UNL     1      58.527 -23.491  -5.018  1.00  0.00    -0.000 C 
BRANCH  28  29
ATOM     29  C   UNL     1      59.819 -24.000  -5.680  1.00  0.00    -0.003 C 
ATOM     30  C   UNL     1      59.641 -25.358  -6.359  1.00  0.00     0.004 C 
ENDBRANCH  28  29
ENDBRANCH  27  28
ENDBRANCH  26  27
ENDBRANCH  25  26
ENDBRANCH  24  25
ENDBRANCH  23  24
ENDBRANCH  22  23
ENDBRANCH  21  22
ENDBRANCH  20  21
ENDBRANCH  19  20
ENDBRANCH  18  19
ENDBRANCH  17  18
ENDBRANCH   1  17
TORSDOF 26
ENDMDL
MODEL 9
REMARK VINA RESULT:    -4.119      3.634      7.769
REMARK INTER + INTRA:         -15.283
REMARK INTER:                 -11.901
REMARK INTRA:                  -3.382
REMARK UNBOUND:                -4.903
REMARK SMILES CCCCCCCCCCCCCCCCCCCCCCCCCCCC(=O)[O-]
REMARK SMILES IDX 15 1 16 2 17 3 18 4 19 5 20 6 21 7 22 8 23 9 24 10 25 11
REMARK SMILES IDX 26 12 27 13 28 14 29 15 30 16 14 17 13 18 12 19 11 20 10 21
REMARK SMILES IDX 9 22 8 23 7 24 6 25 5 26 4 27 3 28 2 29 1 30
REMARK H PARENT
REMARK Flexibility Score: inf
ROOT
ATOM      1  C   UNL     1      62.750 -27.917  -2.154  1.00  0.00     0.000 C 
ENDROOT
BRANCH   1   2
ATOM      2  C   UNL     1      63.416 -26.615  -2.630  1.00  0.00     0.000 C 
BRANCH   2   3
ATOM      3  C   UNL     1      62.382 -25.589  -3.144  1.00  0.00     0.000 C 
BRANCH   3   4
ATOM      4  C   UNL     1      60.923 -25.998  -2.884  1.00  0.00     0.000 C 
BRANCH   4   5
ATOM      5  C   UNL     1      60.032 -25.861  -4.130  1.00  0.00     0.000 C 
BRANCH   5   6
ATOM      6  C   UNL     1      58.651 -26.509  -3.941  1.00  0.00     0.000 C 
BRANCH   6   7
ATOM      7  C   UNL     1      58.713 -27.803  -3.113  1.00  0.00     0.000 C 
BRANCH   7   8
ATOM      8  C   UNL     1      57.534 -27.937  -2.135  1.00  0.00     0.000 C 
BRANCH   8   9
ATOM      9  C   UNL     1      57.679 -27.019  -0.909  1.00  0.00     0.000 C 
BRANCH   9  10
ATOM     10  C   UNL     1      56.457 -27.072   0.026  1.00  0.00     0.000 C 
BRANCH  10  11
ATOM     11  C   UNL     1      56.783 -27.155   1.528  1.00  0.00     0.000 C 
BRANCH  11  12
ATOM     12  C   UNL     1      56.360 -28.464   2.223  1.00  0.00     0.006 C 
BRANCH  12  13
ATOM     13  C   UNL     1      56.234 -29.668   1.270  1.00  0.00     0.053 C 
BRANCH  13  14
ATOM     14  C   UNL     1      54.877 -30.302   1.325  1.00  0.00     0.041 C 
ATOM     15  O   UNL     1      53.945 -29.865   0.601  1.00  0.00    -0.550 OA
ATOM     16  O   UNL     1      54.633 -31.356   2.195  1.00  0.00    -0.550 OA
ENDBRANCH  13  14
ENDBRANCH  12  13
ENDBRANCH  11  12
ENDBRANCH  10  11
ENDBRANCH   9  10
ENDBRANCH   8   9
ENDBRANCH   7   8
ENDBRANCH   6   7
ENDBRANCH   5   6
ENDBRANCH   4   5
ENDBRANCH   3   4
ENDBRANCH   2   3
ENDBRANCH   1   2
BRANCH   1  17
ATOM     17  C   UNL     1      63.386 -28.479  -0.872  1.00  0.00     0.000 C 
BRANCH  17  18
ATOM     18  C   UNL     1      62.365 -29.210   0.019  1.00  0.00     0.000 C 
BRANCH  18  19
ATOM     19  C   UNL     1      60.931 -29.149  -0.533  1.00  0.00     0.000 C 
BRANCH  19  20
ATOM     20  C   UNL     1      59.811 -29.347   0.510  1.00  0.00     0.000 C 
BRANCH  20  21
ATOM     21  C   UNL     1      60.291 -29.600   1.952  1.00  0.00     0.000 C 
BRANCH  21  22
ATOM     22  C   UNL     1      59.917 -28.499   2.963  1.00  0.00    -0.000 C 
BRANCH  22  23
ATOM     23  C   UNL     1      59.582 -29.033   4.371  1.00  0.00    -0.000 C 
BRANCH  23  24
ATOM     24  C   UNL     1      60.389 -28.330   5.476  1.00  0.00    -0.000 C 
BRANCH  24  25
ATOM     25  C   UNL     1      61.572 -29.179   5.970  1.00  0.00    -0.000 C 
BRANCH  25  26
ATOM     26  C   UNL     1      61.180 -30.647   6.220  1.00  0.00    -0.000 C 
BRANCH  26  27
ATOM     27  C   UNL     1      62.266 -31.415   7.003  1.00  0.00    -0.000 C 
BRANCH  27  28
ATOM     28  C   UNL     1      63.512 -30.566   7.324  1.00  0.00    -0.000 C 
BRANCH  28  29
ATOM     29  C   UNL     1      64.739 -31.375   7.779  1.00  0.00    -0.003 C 
ATOM     30  C   UNL     1      64.729 -32.811   7.255  1.00  0.00     0.004 C 
ENDBRANCH  28  29
ENDBRANCH  27  28
ENDBRANCH  26  27
ENDBRANCH  25  26
ENDBRANCH  24  25
ENDBRANCH  23  24
ENDBRANCH  22  23
ENDBRANCH  21  22
ENDBRANCH  20  21
ENDBRANCH  19  20
ENDBRANCH  18  19
ENDBRANCH  17  18
ENDBRANCH   1  17
TORSDOF 26
ENDMDL
