MODEL 1
REMARK VINA RESULT:    -4.706      0.000      0.000
REMARK INTER + INTRA:          -8.353
REMARK INTER:                  -7.457
REMARK INTRA:                  -0.896
REMARK UNBOUND:                -0.896
REMARK SMILES CCCCCCCCCCCC(=O)[O-]
REMARK SMILES IDX 7 1 8 2 9 3 10 4 11 5 12 6 13 7 14 8 6 9 5 10 4 11 3 12 2 13
REMARK SMILES IDX 1 14
REMARK H PARENT
REMARK Flexibility Score: inf
ROOT
ATOM      1  C   UNL     1      52.788  57.113  94.152  1.00  0.00     0.000 C 
ENDROOT
BRANCH   1   2
ATOM      2  C   UNL     1      53.142  58.309  93.242  1.00  0.00     0.000 C 
BRANCH   2   3
ATOM      3  C   UNL     1      52.840  58.065  91.751  1.00  0.00     0.000 C 
BRANCH   3   4
ATOM      4  C   UNL     1      51.638  57.142  91.474  1.00  0.00     0.006 C 
BRANCH   4   5
ATOM      5  C   UNL     1      51.950  55.958  90.544  1.00  0.00     0.053 C 
BRANCH   5   6
ATOM      6  C   UNL     1      52.000  54.660  91.290  1.00  0.00     0.041 C 
ATOM      7  O   UNL     1      52.449  53.625  90.732  1.00  0.00    -0.550 OA
ATOM      8  O   UNL     1      51.518  54.588  92.591  1.00  0.00    -0.550 OA
ENDBRANCH   5   6
ENDBRANCH   4   5
ENDBRANCH   3   4
ENDBRANCH   2   3
ENDBRANCH   1   2
BRANCH   1   9
ATOM      9  C   UNL     1      51.655  57.441  95.136  1.00  0.00     0.000 C 
BRANCH   9  10
ATOM     10  C   UNL     1      50.408  57.938  94.395  1.00  0.00    -0.000 C 
BRANCH  10  11
ATOM     11  C   UNL     1      49.531  58.800  95.310  1.00  0.00    -0.000 C 
BRANCH  11  12
ATOM     12  C   UNL     1      49.566  60.271  94.880  1.00  0.00    -0.000 C 
BRANCH  12  13
ATOM     13  C   UNL     1      50.065  60.409  93.437  1.00  0.00    -0.003 C 
ATOM     14  C   UNL     1      51.269  61.344  93.358  1.00  0.00     0.004 C 
ENDBRANCH  12  13
ENDBRANCH  11  12
ENDBRANCH  10  11
ENDBRANCH   9  10
ENDBRANCH   1   9
TORSDOF 10
ENDMDL
MODEL 2
REMARK VINA RESULT:    -4.664      1.232      2.602
REMARK INTER + INTRA:          -8.287
REMARK INTER:                  -7.104
REMARK INTRA:                  -1.183
REMARK UNBOUND:                -0.896
REMARK SMILES CCCCCCCCCCCC(=O)[O-]
REMARK SMILES IDX 7 1 8 2 9 3 10 4 11 5 12 6 13 7 14 8 6 9 5 10 4 11 3 12 2 13
REMARK SMILES IDX 1 14
REMARK H PARENT
REMARK Flexibility Score: inf
ROOT
ATOM      1  C   UNL     1      53.089  58.345  92.371  1.00  0.00     0.000 C 
ENDROOT
BRANCH   1   2
ATOM      2  C   UNL     1      53.324  58.133  93.882  1.00  0.00     0.000 C 
BRANCH   2   3
ATOM      3  C   UNL     1      52.758  56.803  94.416  1.00  0.00     0.000 C 
BRANCH   3   4
ATOM      4  C   UNL     1      52.022  55.943  93.371  1.00  0.00     0.006 C 
BRANCH   4   5
ATOM      5  C   UNL     1      52.586  54.523  93.209  1.00  0.00     0.053 C 
BRANCH   5   6
ATOM      6  C   UNL     1      51.982  53.813  92.036  1.00  0.00     0.041 C 
ATOM      7  O   UNL     1      52.396  54.047  90.871  1.00  0.00    -0.550 OA
ATOM      8  O   UNL     1      50.938  52.917  92.229  1.00  0.00    -0.550 OA
ENDBRANCH   5   6
ENDBRANCH   4   5
ENDBRANCH   3   4
ENDBRANCH   2   3
ENDBRANCH   1   2
BRANCH   1   9
ATOM      9  C   UNL     1      52.702  59.793  92.036  1.00  0.00     0.000 C 
BRANCH   9  10
ATOM     10  C   UNL     1      52.478  60.612  93.313  1.00  0.00    -0.000 C 
BRANCH  10  11
ATOM     11  C   UNL     1      51.088  61.259  93.315  1.00  0.00    -0.000 C 
BRANCH  11  12
ATOM     12  C   UNL     1      49.988  60.201  93.457  1.00  0.00    -0.000 C 
BRANCH  12  13
ATOM     13  C   UNL     1      49.821  59.776  94.921  1.00  0.00    -0.003 C 
ATOM     14  C   UNL     1      49.543  58.279  95.031  1.00  0.00     0.004 C 
ENDBRANCH  12  13
ENDBRANCH  11  12
ENDBRANCH  10  11
ENDBRANCH   9  10
ENDBRANCH   1   9
TORSDOF 10
ENDMDL
MODEL 3
REMARK VINA RESULT:    -4.652      2.816      5.636
REMARK INTER + INTRA:          -8.267
REMARK INTER:                  -7.448
REMARK INTRA:                  -0.819
REMARK UNBOUND:                -0.896
REMARK SMILES CCCCCCCCCCCC(=O)[O-]
REMARK SMILES IDX 7 1 8 2 9 3 10 4 11 5 12 6 13 7 14 8 6 9 5 10 4 11 3 12 2 13
REMARK SMILES IDX 1 14
REMARK H PARENT
REMARK Flexibility Score: inf
ROOT
ATOM      1  C   UNL     1      52.650  57.071  94.102  1.00  0.00     0.000 C 
ENDROOT
BRANCH   1   2
ATOM      2  C   UNL     1      51.604  57.629  95.091  1.00  0.00     0.000 C 
BRANCH   2   3
ATOM      3  C   UNL     1      50.266  58.011  94.428  1.00  0.00     0.000 C 
BRANCH   3   4
ATOM      4  C   UNL     1      49.410  59.015  95.223  1.00  0.00     0.006 C 
BRANCH   4   5
ATOM      5  C   UNL     1      49.896  60.470  95.137  1.00  0.00     0.053 C 
BRANCH   5   6
ATOM      6  C   UNL     1      50.127  60.899  93.721  1.00  0.00     0.041 C 
ATOM      7  O   UNL     1      49.157  61.013  92.927  1.00  0.00    -0.550 OA
ATOM      8  O   UNL     1      51.418  61.140  93.269  1.00  0.00    -0.550 OA
ENDBRANCH   5   6
ENDBRANCH   4   5
ENDBRANCH   3   4
ENDBRANCH   2   3
ENDBRANCH   1   2
BRANCH   1   9
ATOM      9  C   UNL     1      53.100  58.118  93.072  1.00  0.00     0.000 C 
BRANCH   9  10
ATOM     10  C   UNL     1      52.515  57.816  91.688  1.00  0.00    -0.000 C 
BRANCH  10  11
ATOM     11  C   UNL     1      51.719  56.505  91.700  1.00  0.00    -0.000 C 
BRANCH  11  12
ATOM     12  C   UNL     1      52.103  55.618  90.511  1.00  0.00    -0.000 C 
BRANCH  12  13
ATOM     13  C   UNL     1      52.295  54.162  90.952  1.00  0.00    -0.003 C 
ATOM     14  C   UNL     1      51.942  53.982  92.426  1.00  0.00     0.004 C 
ENDBRANCH  12  13
ENDBRANCH  11  12
ENDBRANCH  10  11
ENDBRANCH   9  10
ENDBRANCH   1   9
TORSDOF 10
ENDMDL
MODEL 4
REMARK VINA RESULT:    -4.644      1.468      2.972
REMARK INTER + INTRA:          -8.255
REMARK INTER:                  -7.104
REMARK INTRA:                  -1.150
REMARK UNBOUND:                -0.896
REMARK SMILES CCCCCCCCCCCC(=O)[O-]
REMARK SMILES IDX 7 1 8 2 9 3 10 4 11 5 12 6 13 7 14 8 6 9 5 10 4 11 3 12 2 13
REMARK SMILES IDX 1 14
REMARK H PARENT
REMARK Flexibility Score: inf
ROOT
ATOM      1  C   UNL     1      53.485  59.602  91.222  1.00  0.00     0.000 C 
ENDROOT
BRANCH   1   2
ATOM      2  C   UNL     1      53.126  58.413  92.139  1.00  0.00     0.000 C 
BRANCH   2   3
ATOM      3  C   UNL     1      51.979  57.537  91.598  1.00  0.00     0.000 C 
BRANCH   3   4
ATOM      4  C   UNL     1      51.440  56.488  92.589  1.00  0.00     0.006 C 
BRANCH   4   5
ATOM      5  C   UNL     1      52.412  56.131  93.725  1.00  0.00     0.053 C 
BRANCH   5   6
ATOM      6  C   UNL     1      52.884  54.713  93.632  1.00  0.00     0.041 C 
ATOM      7  O   UNL     1      53.721  54.268  94.459  1.00  0.00    -0.550 OA
ATOM      8  O   UNL     1      52.424  53.893  92.609  1.00  0.00    -0.550 OA
ENDBRANCH   5   6
ENDBRANCH   4   5
ENDBRANCH   3   4
ENDBRANCH   2   3
ENDBRANCH   1   2
BRANCH   1   9
ATOM      9  C   UNL     1      52.914  60.932  91.738  1.00  0.00     0.000 C 
BRANCH   9  10
ATOM     10  C   UNL     1      52.442  60.802  93.190  1.00  0.00    -0.000 C 
BRANCH  10  11
ATOM     11  C   UNL     1      51.024  61.362  93.361  1.00  0.00    -0.000 C 
BRANCH  11  12
ATOM     12  C   UNL     1      49.988  60.233  93.403  1.00  0.00    -0.000 C 
BRANCH  12  13
ATOM     13  C   UNL     1      49.609  59.890  94.848  1.00  0.00    -0.003 C 
ATOM     14  C   UNL     1      49.766  58.396  95.119  1.00  0.00     0.004 C 
ENDBRANCH  12  13
ENDBRANCH  11  12
ENDBRANCH  10  11
ENDBRANCH   9  10
ENDBRANCH   1   9
TORSDOF 10
ENDMDL
MODEL 5
REMARK VINA RESULT:    -4.625      3.131      5.597
REMARK INTER + INTRA:          -8.224
REMARK INTER:                  -7.195
REMARK INTRA:                  -1.029
REMARK UNBOUND:                -0.896
REMARK SMILES CCCCCCCCCCCC(=O)[O-]
REMARK SMILES IDX 7 1 8 2 9 3 10 4 11 5 12 6 13 7 14 8 6 9 5 10 4 11 3 12 2 13
REMARK SMILES IDX 1 14
REMARK H PARENT
REMARK Flexibility Score: inf
ROOT
ATOM      1  C   UNL     1      52.629  58.390  93.451  1.00  0.00     0.000 C 
ENDROOT
BRANCH   1   2
ATOM      2  C   UNL     1      51.437  57.895  92.604  1.00  0.00     0.000 C 
BRANCH   2   3
ATOM      3  C   UNL     1      50.062  58.209  93.224  1.00  0.00     0.000 C 
BRANCH   3   4
ATOM      4  C   UNL     1      50.111  58.816  94.640  1.00  0.00     0.006 C 
BRANCH   4   5
ATOM      5  C   UNL     1      49.384  60.163  94.777  1.00  0.00     0.053 C 
BRANCH   5   6
ATOM      6  C   UNL     1      49.733  61.102  93.663  1.00  0.00     0.041 C 
ATOM      7  O   UNL     1      48.846  61.490  92.859  1.00  0.00    -0.550 OA
ATOM      8  O   UNL     1      51.047  61.523  93.495  1.00  0.00    -0.550 OA
ENDBRANCH   5   6
ENDBRANCH   4   5
ENDBRANCH   3   4
ENDBRANCH   2   3
ENDBRANCH   1   2
BRANCH   1   9
ATOM      9  C   UNL     1      53.411  57.234  94.093  1.00  0.00     0.000 C 
BRANCH   9  10
ATOM     10  C   UNL     1      52.536  56.462  95.088  1.00  0.00    -0.000 C 
BRANCH  10  11
ATOM     11  C   UNL     1      52.819  54.957  95.017  1.00  0.00    -0.000 C 
BRANCH  11  12
ATOM     12  C   UNL     1      53.224  54.539  93.599  1.00  0.00    -0.000 C 
BRANCH  12  13
ATOM     13  C   UNL     1      51.994  54.163  92.764  1.00  0.00    -0.003 C 
ATOM     14  C   UNL     1      52.315  54.178  91.272  1.00  0.00     0.004 C 
ENDBRANCH  12  13
ENDBRANCH  11  12
ENDBRANCH  10  11
ENDBRANCH   9  10
ENDBRANCH   1   9
TORSDOF 10
ENDMDL
MODEL 6
REMARK VINA RESULT:    -4.535      1.266      3.024
REMARK INTER + INTRA:          -8.082
REMARK INTER:                  -6.976
REMARK INTRA:                  -1.105
REMARK UNBOUND:                -0.896
REMARK SMILES CCCCCCCCCCCC(=O)[O-]
REMARK SMILES IDX 7 1 8 2 9 3 10 4 11 5 12 6 13 7 14 8 6 9 5 10 4 11 3 12 2 13
REMARK SMILES IDX 1 14
REMARK H PARENT
REMARK Flexibility Score: inf
ROOT
ATOM      1  C   UNL     1      49.667  58.559  95.215  1.00  0.00     0.000 C 
ENDROOT
BRANCH   1   2
ATOM      2  C   UNL     1      50.590  57.718  94.307  1.00  0.00     0.000 C 
BRANCH   2   3
ATOM      3  C   UNL     1      51.865  57.218  95.012  1.00  0.00     0.000 C 
BRANCH   3   4
ATOM      4  C   UNL     1      52.897  56.545  94.088  1.00  0.00     0.006 C 
BRANCH   4   5
ATOM      5  C   UNL     1      52.660  55.043  93.861  1.00  0.00     0.053 C 
BRANCH   5   6
ATOM      6  C   UNL     1      52.029  54.772  92.531  1.00  0.00     0.041 C 
ATOM      7  O   UNL     1      51.856  55.709  91.708  1.00  0.00    -0.550 OA
ATOM      8  O   UNL     1      51.601  53.489  92.213  1.00  0.00    -0.550 OA
ENDBRANCH   5   6
ENDBRANCH   4   5
ENDBRANCH   3   4
ENDBRANCH   2   3
ENDBRANCH   1   2
BRANCH   1   9
ATOM      9  C   UNL     1      49.750  60.061  94.904  1.00  0.00     0.000 C 
BRANCH   9  10
ATOM     10  C   UNL     1      49.926  60.303  93.401  1.00  0.00    -0.000 C 
BRANCH  10  11
ATOM     11  C   UNL     1      50.991  61.374  93.137  1.00  0.00    -0.000 C 
BRANCH  11  12
ATOM     12  C   UNL     1      52.402  60.783  93.239  1.00  0.00    -0.000 C 
BRANCH  12  13
ATOM     13  C   UNL     1      52.997  60.537  91.848  1.00  0.00    -0.003 C 
ATOM     14  C   UNL     1      53.172  59.045  91.579  1.00  0.00     0.004 C 
ENDBRANCH  12  13
ENDBRANCH  11  12
ENDBRANCH  10  11
ENDBRANCH   9  10
ENDBRANCH   1   9
TORSDOF 10
ENDMDL
MODEL 7
REMARK VINA RESULT:    -4.500      3.310      5.545
REMARK INTER + INTRA:          -8.026
REMARK INTER:                  -7.063
REMARK INTRA:                  -0.963
REMARK UNBOUND:                -0.896
REMARK SMILES CCCCCCCCCCCC(=O)[O-]
REMARK SMILES IDX 7 1 8 2 9 3 10 4 11 5 12 6 13 7 14 8 6 9 5 10 4 11 3 12 2 13
REMARK SMILES IDX 1 14
REMARK H PARENT
REMARK Flexibility Score: inf
ROOT
ATOM      1  C   UNL     1      51.680  57.176  91.596  1.00  0.00     0.000 C 
ENDROOT
BRANCH   1   2
ATOM      2  C   UNL     1      52.900  58.118  91.689  1.00  0.00     0.000 C 
BRANCH   2   3
ATOM      3  C   UNL     1      52.820  59.124  92.852  1.00  0.00     0.000 C 
BRANCH   3   4
ATOM      4  C   UNL     1      51.392  59.469  93.316  1.00  0.00     0.006 C 
BRANCH   4   5
ATOM      5  C   UNL     1      51.099  60.976  93.398  1.00  0.00     0.053 C 
BRANCH   5   6
ATOM      6  C   UNL     1      49.695  61.248  93.840  1.00  0.00     0.041 C 
ATOM      7  O   UNL     1      48.781  61.407  92.990  1.00  0.00    -0.550 OA
ATOM      8  O   UNL     1      49.403  61.360  95.194  1.00  0.00    -0.550 OA
ENDBRANCH   5   6
ENDBRANCH   4   5
ENDBRANCH   3   4
ENDBRANCH   2   3
ENDBRANCH   1   2
BRANCH   1   9
ATOM      9  C   UNL     1      51.939  55.971  90.680  1.00  0.00     0.000 C 
BRANCH   9  10
ATOM     10  C   UNL     1      52.307  54.727  91.497  1.00  0.00    -0.000 C 
BRANCH  10  11
ATOM     11  C   UNL     1      51.905  54.895  92.967  1.00  0.00    -0.000 C 
BRANCH  11  12
ATOM     12  C   UNL     1      53.102  54.663  93.895  1.00  0.00    -0.000 C 
BRANCH  12  13
ATOM     13  C   UNL     1      52.771  55.078  95.334  1.00  0.00    -0.003 C 
ATOM     14  C   UNL     1      52.331  56.538  95.398  1.00  0.00     0.004 C 
ENDBRANCH  12  13
ENDBRANCH  11  12
ENDBRANCH  10  11
ENDBRANCH   9  10
ENDBRANCH   1   9
TORSDOF 10
ENDMDL
MODEL 8
REMARK VINA RESULT:    -4.445      2.743      5.293
REMARK INTER + INTRA:          -7.939
REMARK INTER:                  -6.946
REMARK INTRA:                  -0.993
REMARK UNBOUND:                -0.896
REMARK SMILES CCCCCCCCCCCC(=O)[O-]
REMARK SMILES IDX 7 1 8 2 9 3 10 4 11 5 12 6 13 7 14 8 6 9 5 10 4 11 3 12 2 13
REMARK SMILES IDX 1 14
REMARK H PARENT
REMARK Flexibility Score: inf
ROOT
ATOM      1  C   UNL     1      53.201  57.977  93.599  1.00  0.00     0.000 C 
ENDROOT
BRANCH   1   2
ATOM      2  C   UNL     1      52.746  58.631  92.276  1.00  0.00     0.000 C 
BRANCH   2   3
ATOM      3  C   UNL     1      52.766  60.171  92.306  1.00  0.00     0.000 C 
BRANCH   3   4
ATOM      4  C   UNL     1      51.837  60.812  93.355  1.00  0.00     0.006 C 
BRANCH   4   5
ATOM      5  C   UNL     1      50.375  60.345  93.277  1.00  0.00     0.053 C 
BRANCH   5   6
ATOM      6  C   UNL     1      49.735  60.287  94.629  1.00  0.00     0.041 C 
ATOM      7  O   UNL     1      49.442  61.349  95.238  1.00  0.00    -0.550 OA
ATOM      8  O   UNL     1      49.491  59.059  95.230  1.00  0.00    -0.550 OA
ENDBRANCH   5   6
ENDBRANCH   4   5
ENDBRANCH   3   4
ENDBRANCH   2   3
ENDBRANCH   1   2
BRANCH   1   9
ATOM      9  C   UNL     1      52.115  57.083  94.214  1.00  0.00     0.000 C 
BRANCH   9  10
ATOM     10  C   UNL     1      52.729  55.834  94.858  1.00  0.00    -0.000 C 
BRANCH  10  11
ATOM     11  C   UNL     1      53.030  54.762  93.804  1.00  0.00    -0.000 C 
BRANCH  11  12
ATOM     12  C   UNL     1      51.850  54.592  92.840  1.00  0.00    -0.000 C 
BRANCH  12  13
ATOM     13  C   UNL     1      52.341  54.391  91.401  1.00  0.00    -0.003 C 
ATOM     14  C   UNL     1      51.983  55.589  90.525  1.00  0.00     0.004 C 
ENDBRANCH  12  13
ENDBRANCH  11  12
ENDBRANCH  10  11
ENDBRANCH   9  10
ENDBRANCH   1   9
TORSDOF 10
ENDMDL
MODEL 9
REMARK VINA RESULT:    -4.422      1.764      2.412
REMARK INTER + INTRA:          -7.903
REMARK INTER:                  -6.802
REMARK INTRA:                  -1.101
REMARK UNBOUND:                -0.896
REMARK SMILES CCCCCCCCCCCC(=O)[O-]
REMARK SMILES IDX 7 1 8 2 9 3 10 4 11 5 12 6 13 7 14 8 6 9 5 10 4 11 3 12 2 13
REMARK SMILES IDX 1 14
REMARK H PARENT
REMARK Flexibility Score: inf
ROOT
ATOM      1  C   UNL     1      51.463  58.458  92.644  1.00  0.00     0.000 C 
ENDROOT
BRANCH   1   2
ATOM      2  C   UNL     1      52.330  57.638  91.664  1.00  0.00     0.000 C 
BRANCH   2   3
ATOM      3  C   UNL     1      51.655  56.343  91.173  1.00  0.00     0.000 C 
BRANCH   3   4
ATOM      4  C   UNL     1      52.432  55.049  91.480  1.00  0.00     0.006 C 
BRANCH   4   5
ATOM      5  C   UNL     1      52.023  54.361  92.792  1.00  0.00     0.053 C 
BRANCH   5   6
ATOM      6  C   UNL     1      52.898  54.773  93.935  1.00  0.00     0.041 C 
ATOM      7  O   UNL     1      52.639  55.818  94.588  1.00  0.00    -0.550 OA
ATOM      8  O   UNL     1      54.021  54.020  94.258  1.00  0.00    -0.550 OA
ENDBRANCH   5   6
ENDBRANCH   4   5
ENDBRANCH   3   4
ENDBRANCH   2   3
ENDBRANCH   1   2
BRANCH   1   9
ATOM      9  C   UNL     1      50.139  57.757  92.982  1.00  0.00     0.000 C 
BRANCH   9  10
ATOM     10  C   UNL     1      49.716  58.045  94.427  1.00  0.00    -0.000 C 
BRANCH  10  11
ATOM     11  C   UNL     1      50.315  59.367  94.922  1.00  0.00    -0.000 C 
BRANCH  11  12
ATOM     12  C   UNL     1      49.274  60.492  94.882  1.00  0.00    -0.000 C 
BRANCH  12  13
ATOM     13  C   UNL     1      49.614  61.516  93.793  1.00  0.00    -0.003 C 
ATOM     14  C   UNL     1      48.626  61.435  92.632  1.00  0.00     0.004 C 
ENDBRANCH  12  13
ENDBRANCH  11  12
ENDBRANCH  10  11
ENDBRANCH   9  10
ENDBRANCH   1   9
TORSDOF 10
ENDMDL
