MODEL 1
REMARK VINA RESULT:    -3.245      0.000      0.000
REMARK INTER + INTRA:          -3.458
REMARK INTER:                  -3.435
REMARK INTRA:                  -0.023
REMARK UNBOUND:                -0.023
REMARK SMILES O=C([O-])c1cccnc1
REMARK SMILES IDX 4 1 5 2 9 3 6 4 8 5 7 6 2 7 1 8 3 9
REMARK H PARENT
REMARK Flexibility Score: inf
ROOT
ATOM      1  C   UNL     1      57.149  27.990  49.666  1.00  0.00     0.016 A 
ATOM      2  C   UNL     1      58.299  28.489  49.031  1.00  0.00     0.013 A 
ATOM      3  C   UNL     1      57.079  26.611  49.933  1.00  0.00     0.120 A 
ATOM      4  C   UNL     1      59.337  27.624  48.678  1.00  0.00     0.021 A 
ATOM      5  N   UNL     1      58.105  25.791  49.578  1.00  0.00    -0.264 NA
ATOM      6  C   UNL     1      59.219  26.264  48.963  1.00  0.00     0.111 A 
ENDROOT
BRANCH   1   7
ATOM      7  C   UNL     1      56.039  28.889  50.048  1.00  0.00     0.073 C 
ATOM      8  O   UNL     1      55.900  30.009  49.487  1.00  0.00    -0.545 OA
ATOM      9  O   UNL     1      55.133  28.509  51.031  1.00  0.00    -0.545 OA
ENDBRANCH   1   7
TORSDOF 1
ENDMDL
MODEL 2
REMARK VINA RESULT:    -3.168     17.506     17.967
REMARK INTER + INTRA:          -3.376
REMARK INTER:                  -3.357
REMARK INTRA:                  -0.019
REMARK UNBOUND:                -0.023
REMARK SMILES O=C([O-])c1cccnc1
REMARK SMILES IDX 4 1 5 2 9 3 6 4 8 5 7 6 2 7 1 8 3 9
REMARK H PARENT
REMARK Flexibility Score: inf
ROOT
ATOM      1  C   UNL     1      71.503  30.851  60.006  1.00  0.00     0.016 A 
ATOM      2  C   UNL     1      72.529  30.542  60.917  1.00  0.00     0.013 A 
ATOM      3  C   UNL     1      70.660  29.812  59.573  1.00  0.00     0.120 A 
ATOM      4  C   UNL     1      72.693  29.231  61.370  1.00  0.00     0.021 A 
ATOM      5  N   UNL     1      70.843  28.544  60.030  1.00  0.00    -0.264 NA
ATOM      6  C   UNL     1      71.830  28.236  60.909  1.00  0.00     0.111 A 
ENDROOT
BRANCH   1   7
ATOM      7  C   UNL     1      71.313  32.232  59.515  1.00  0.00     0.073 C 
ATOM      8  O   UNL     1      71.289  33.201  60.319  1.00  0.00    -0.545 OA
ATOM      9  O   UNL     1      71.158  32.480  58.155  1.00  0.00    -0.545 OA
ENDBRANCH   1   7
TORSDOF 1
ENDMDL
MODEL 3
REMARK VINA RESULT:    -3.157      9.734     10.373
REMARK INTER + INTRA:          -3.364
REMARK INTER:                  -3.348
REMARK INTRA:                  -0.017
REMARK UNBOUND:                -0.023
REMARK SMILES O=C([O-])c1cccnc1
REMARK SMILES IDX 4 1 5 2 9 3 6 4 8 5 7 6 2 7 1 8 3 9
REMARK H PARENT
REMARK Flexibility Score: inf
ROOT
ATOM      1  C   UNL     1      56.518  18.138  50.569  1.00  0.00     0.016 A 
ATOM      2  C   UNL     1      56.568  18.539  51.916  1.00  0.00     0.013 A 
ATOM      3  C   UNL     1      55.359  18.429  49.828  1.00  0.00     0.120 A 
ATOM      4  C   UNL     1      55.485  19.207  52.489  1.00  0.00     0.021 A 
ATOM      5  N   UNL     1      54.318  19.082  50.412  1.00  0.00    -0.264 NA
ATOM      6  C   UNL     1      54.356  19.472  51.712  1.00  0.00     0.111 A 
ENDROOT
BRANCH   1   7
ATOM      7  C   UNL     1      57.655  17.429  49.943  1.00  0.00     0.073 C 
ATOM      8  O   UNL     1      57.874  16.215  50.201  1.00  0.00    -0.545 OA
ATOM      9  O   UNL     1      58.498  18.094  49.060  1.00  0.00    -0.545 OA
ENDBRANCH   1   7
TORSDOF 1
ENDMDL
MODEL 4
REMARK VINA RESULT:    -3.137     17.509     18.029
REMARK INTER + INTRA:          -3.343
REMARK INTER:                  -3.326
REMARK INTRA:                  -0.017
REMARK UNBOUND:                -0.023
REMARK SMILES O=C([O-])c1cccnc1
REMARK SMILES IDX 4 1 5 2 9 3 6 4 8 5 7 6 2 7 1 8 3 9
REMARK H PARENT
REMARK Flexibility Score: inf
ROOT
ATOM      1  C   UNL     1      71.685  30.950  59.925  1.00  0.00     0.016 A 
ATOM      2  C   UNL     1      71.307  32.291  60.117  1.00  0.00     0.013 A 
ATOM      3  C   UNL     1      71.697  30.441  58.614  1.00  0.00     0.120 A 
ATOM      4  C   UNL     1      70.954  33.083  59.023  1.00  0.00     0.021 A 
ATOM      5  N   UNL     1      71.348  31.235  57.566  1.00  0.00    -0.264 NA
ATOM      6  C   UNL     1      70.981  32.531  57.741  1.00  0.00     0.111 A 
ENDROOT
BRANCH   1   7
ATOM      7  C   UNL     1      72.062  30.095  61.070  1.00  0.00     0.073 C 
ATOM      8  O   UNL     1      73.118  30.321  61.719  1.00  0.00    -0.545 OA
ATOM      9  O   UNL     1      71.255  29.027  61.446  1.00  0.00    -0.545 OA
ENDBRANCH   1   7
TORSDOF 1
ENDMDL
MODEL 5
REMARK VINA RESULT:    -3.121     17.960     18.509
REMARK INTER + INTRA:          -3.327
REMARK INTER:                  -3.304
REMARK INTRA:                  -0.022
REMARK UNBOUND:                -0.023
REMARK SMILES O=C([O-])c1cccnc1
REMARK SMILES IDX 4 1 5 2 9 3 6 4 8 5 7 6 2 7 1 8 3 9
REMARK H PARENT
REMARK Flexibility Score: inf
ROOT
ATOM      1  C   UNL     1      72.308  30.121  60.153  1.00  0.00     0.016 A 
ATOM      2  C   UNL     1      72.417  29.498  58.897  1.00  0.00     0.013 A 
ATOM      3  C   UNL     1      71.651  31.362  60.227  1.00  0.00     0.120 A 
ATOM      4  C   UNL     1      71.883  30.110  57.762  1.00  0.00     0.021 A 
ATOM      5  N   UNL     1      71.139  31.935  59.105  1.00  0.00    -0.264 NA
ATOM      6  C   UNL     1      71.240  31.342  57.888  1.00  0.00     0.111 A 
ENDROOT
BRANCH   1   7
ATOM      7  C   UNL     1      72.867  29.490  61.367  1.00  0.00     0.073 C 
ATOM      8  O   UNL     1      73.125  30.181  62.388  1.00  0.00    -0.545 OA
ATOM      9  O   UNL     1      73.116  28.123  61.398  1.00  0.00    -0.545 OA
ENDBRANCH   1   7
TORSDOF 1
ENDMDL
MODEL 6
REMARK VINA RESULT:    -3.068      9.509     10.034
REMARK INTER + INTRA:          -3.270
REMARK INTER:                  -3.246
REMARK INTRA:                  -0.024
REMARK UNBOUND:                -0.023
REMARK SMILES O=C([O-])c1cccnc1
REMARK SMILES IDX 4 1 5 2 9 3 6 4 8 5 7 6 2 7 1 8 3 9
REMARK H PARENT
REMARK Flexibility Score: inf
ROOT
ATOM      1  C   UNL     1      56.221  18.141  50.924  1.00  0.00     0.016 A 
ATOM      2  C   UNL     1      56.943  17.525  49.886  1.00  0.00     0.013 A 
ATOM      3  C   UNL     1      56.723  18.046  52.233  1.00  0.00     0.120 A 
ATOM      4  C   UNL     1      58.126  16.838  50.166  1.00  0.00     0.021 A 
ATOM      5  N   UNL     1      57.879  17.372  52.478  1.00  0.00    -0.264 NA
ATOM      6  C   UNL     1      58.582  16.773  51.483  1.00  0.00     0.111 A 
ENDROOT
BRANCH   1   7
ATOM      7  C   UNL     1      54.966  18.872  50.648  1.00  0.00     0.073 C 
ATOM      8  O   UNL     1      54.469  18.879  49.490  1.00  0.00    -0.545 OA
ATOM      9  O   UNL     1      54.317  19.563  51.664  1.00  0.00    -0.545 OA
ENDBRANCH   1   7
TORSDOF 1
ENDMDL
MODEL 7
REMARK VINA RESULT:    -3.013      3.543      4.348
REMARK INTER + INTRA:          -3.212
REMARK INTER:                  -3.190
REMARK INTRA:                  -0.021
REMARK UNBOUND:                -0.023
REMARK SMILES O=C([O-])c1cccnc1
REMARK SMILES IDX 4 1 5 2 9 3 6 4 8 5 7 6 2 7 1 8 3 9
REMARK H PARENT
REMARK Flexibility Score: inf
ROOT
ATOM      1  C   UNL     1      59.470  26.206  49.372  1.00  0.00     0.016 A 
ATOM      2  C   UNL     1      59.759  27.394  48.677  1.00  0.00     0.013 A 
ATOM      3  C   UNL     1      58.237  26.106  50.039  1.00  0.00     0.120 A 
ATOM      4  C   UNL     1      58.834  28.439  48.661  1.00  0.00     0.021 A 
ATOM      5  N   UNL     1      57.354  27.140  50.007  1.00  0.00    -0.264 NA
ATOM      6  C   UNL     1      57.623  28.292  49.340  1.00  0.00     0.111 A 
ENDROOT
BRANCH   1   7
ATOM      7  C   UNL     1      60.436  25.088  49.400  1.00  0.00     0.073 C 
ATOM      8  O   UNL     1      60.036  23.896  49.487  1.00  0.00    -0.545 OA
ATOM      9  O   UNL     1      61.802  25.336  49.332  1.00  0.00    -0.545 OA
ENDBRANCH   1   7
TORSDOF 1
ENDMDL
MODEL 8
REMARK VINA RESULT:    -3.004     17.091     17.594
REMARK INTER + INTRA:          -3.202
REMARK INTER:                  -3.186
REMARK INTRA:                  -0.016
REMARK UNBOUND:                -0.023
REMARK SMILES O=C([O-])c1cccnc1
REMARK SMILES IDX 4 1 5 2 9 3 6 4 8 5 7 6 2 7 1 8 3 9
REMARK H PARENT
REMARK Flexibility Score: inf
ROOT
ATOM      1  C   UNL     1      70.638  28.826  60.573  1.00  0.00     0.016 A 
ATOM      2  C   UNL     1      71.823  28.720  61.323  1.00  0.00     0.013 A 
ATOM      3  C   UNL     1      70.589  29.769  59.531  1.00  0.00     0.120 A 
ATOM      4  C   UNL     1      72.914  29.540  61.029  1.00  0.00     0.021 A 
ATOM      5  N   UNL     1      71.668  30.555  59.266  1.00  0.00    -0.264 NA
ATOM      6  C   UNL     1      72.816  30.461  59.985  1.00  0.00     0.111 A 
ENDROOT
BRANCH   1   7
ATOM      7  C   UNL     1      69.471  27.968  60.868  1.00  0.00     0.073 C 
ATOM      8  O   UNL     1      68.642  28.296  61.758  1.00  0.00    -0.545 OA
ATOM      9  O   UNL     1      69.273  26.784  60.166  1.00  0.00    -0.545 OA
ENDBRANCH   1   7
TORSDOF 1
ENDMDL
MODEL 9
REMARK VINA RESULT:    -2.990      9.526     10.055
REMARK INTER + INTRA:          -3.187
REMARK INTER:                  -3.163
REMARK INTRA:                  -0.024
REMARK UNBOUND:                -0.023
REMARK SMILES O=C([O-])c1cccnc1
REMARK SMILES IDX 4 1 5 2 9 3 6 4 8 5 7 6 2 7 1 8 3 9
REMARK H PARENT
REMARK Flexibility Score: inf
ROOT
ATOM      1  C   UNL     1      56.266  18.161  50.891  1.00  0.00     0.016 A 
ATOM      2  C   UNL     1      56.854  17.970  52.154  1.00  0.00     0.013 A 
ATOM      3  C   UNL     1      56.929  17.651  49.761  1.00  0.00     0.120 A 
ATOM      4  C   UNL     1      58.068  17.290  52.265  1.00  0.00     0.021 A 
ATOM      5  N   UNL     1      58.111  16.992  49.899  1.00  0.00    -0.264 NA
ATOM      6  C   UNL     1      58.688  16.803  51.114  1.00  0.00     0.111 A 
ENDROOT
BRANCH   1   7
ATOM      7  C   UNL     1      54.981  18.879  50.751  1.00  0.00     0.073 C 
ATOM      8  O   UNL     1      54.452  19.447  51.744  1.00  0.00    -0.545 OA
ATOM      9  O   UNL     1      54.338  18.936  49.520  1.00  0.00    -0.545 OA
ENDBRANCH   1   7
TORSDOF 1
ENDMDL
