MODEL 1
REMARK VINA RESULT:    -4.852      0.000      0.000
REMARK INTER + INTRA:          -4.679
REMARK INTER:                  -5.987
REMARK INTRA:                   1.308
REMARK UNBOUND:                 1.308
REMARK SMILES C=C1CC[C@@H]2[C@H]([C@@H]3[C@H](C)CC[C@@H]13)C2(C)C
REMARK SMILES IDX 3 1 2 2 1 3 12 4 9 5 8 6 10 7 7 8 11 9 4 11 5 12 6 13 13 14
REMARK SMILES IDX 14 16 15 17
REMARK H PARENT
REMARK Flexibility Score: 80.00
ROOT
ATOM      1  C   UNL     1       9.420  34.107  24.555  1.00  0.00     0.031 C 
ENDROOT
BRANCH   1   2
ATOM      2  C   UNL     1       8.979  32.778  25.147  1.00  0.00    -0.074 C 
ATOM      3  C   UNL     1       9.533  32.381  26.312  1.00  0.00     0.008 C 
BRANCH   2   4
ATOM      4  C   UNL     1       7.810  32.028  24.495  1.00  0.00     0.018 C 
ATOM      5  C   UNL     1       6.246  30.430  21.615  1.00  0.00     0.008 C 
ATOM      6  C   UNL     1       7.266  30.354  22.762  1.00  0.00    -0.010 C 
ATOM      7  C   UNL     1       6.589  29.995  24.087  1.00  0.00     0.004 C 
ATOM      8  C   UNL     1       8.097  31.640  23.035  1.00  0.00     0.003 CG0
ATOM      9  C   UNL     1       7.396  30.710  25.152  1.00  0.00     0.008 C 
ATOM     10  G   UNL     1       7.780  32.828  22.089  1.00  0.00     0.000 G0
ENDBRANCH   2   4
ENDBRANCH   1   2
BRANCH   1  11
ATOM     11  C   UNL     1       9.929  33.975  23.111  1.00  0.00     0.009 C 
BRANCH  11  12
ATOM     12  C   UNL     1       8.757  34.034  22.109  1.00  0.00    -0.001 C 
ATOM     13  C   UNL     1       7.790  32.838  22.081  1.00  0.00     0.002 CG0
ATOM     14  C   UNL     1       8.689  33.127  20.865  1.00  0.00    -0.029 C 
ATOM     15  G   UNL     1       8.106  31.647  23.025  1.00  0.00     0.000 G0
ATOM     16  C   UNL     1       9.812  32.136  20.506  1.00  0.00     0.011 C 
ATOM     17  C   UNL     1       7.931  33.718  19.670  1.00  0.00     0.011 C 
ENDBRANCH  11  12
ENDBRANCH   1  11
TORSDOF 0
ENDMDL
MODEL 2
REMARK VINA RESULT:    -4.613      1.796      4.512
REMARK INTER + INTRA:          -4.384
REMARK INTER:                  -5.717
REMARK INTRA:                   1.333
REMARK UNBOUND:                 1.308
REMARK SMILES C=C1CC[C@@H]2[C@H]([C@@H]3[C@H](C)CC[C@@H]13)C2(C)C
REMARK SMILES IDX 3 1 2 2 1 3 12 4 9 5 8 6 10 7 7 8 11 9 4 11 5 12 6 13 13 14
REMARK SMILES IDX 14 16 15 17
REMARK H PARENT
REMARK Flexibility Score: 80.00
ROOT
ATOM      1  C   UNL     1      12.443  32.630  21.900  1.00  0.00     0.031 C 
ENDROOT
BRANCH   1   2
ATOM      2  C   UNL     1      11.856  33.309  20.672  1.00  0.00    -0.074 C 
ATOM      3  C   UNL     1      12.700  33.906  19.806  1.00  0.00     0.008 C 
BRANCH   2   4
ATOM      4  C   UNL     1      10.358  33.145  20.381  1.00  0.00     0.018 C 
ATOM      5  C   UNL     1       6.858  33.477  21.345  1.00  0.00     0.008 C 
ATOM      6  C   UNL     1       8.144  34.143  20.828  1.00  0.00    -0.010 C 
ATOM      7  C   UNL     1       8.331  33.903  19.328  1.00  0.00     0.004 C 
ATOM      8  C   UNL     1       9.472  33.701  21.507  1.00  0.00     0.003 CG0
ATOM      9  C   UNL     1       9.831  33.835  19.121  1.00  0.00     0.008 C 
ATOM     10  G   UNL     1       9.303  32.646  22.632  1.00  0.00     0.000 G0
ENDBRANCH   2   4
ENDBRANCH   1   2
BRANCH   1  11
ATOM     11  C   UNL     1      11.827  33.137  23.213  1.00  0.00     0.009 C 
BRANCH  11  12
ATOM     12  C   UNL     1      10.529  32.371  23.542  1.00  0.00    -0.001 C 
ATOM     13  C   UNL     1       9.308  32.631  22.643  1.00  0.00     0.002 CG0
ATOM     14  C   UNL     1       9.283  33.070  24.120  1.00  0.00    -0.029 C 
ATOM     15  G   UNL     1       9.468  33.685  21.515  1.00  0.00     0.000 G0
ATOM     16  C   UNL     1       9.264  34.572  24.459  1.00  0.00     0.011 C 
ATOM     17  C   UNL     1       8.395  32.188  25.005  1.00  0.00     0.011 C 
ENDBRANCH  11  12
ENDBRANCH   1  11
TORSDOF 0
ENDMDL
MODEL 3
REMARK VINA RESULT:    -4.527      1.385      3.413
REMARK INTER + INTRA:          -4.278
REMARK INTER:                  -5.612
REMARK INTRA:                   1.334
REMARK UNBOUND:                 1.308
REMARK SMILES C=C1CC[C@@H]2[C@H]([C@@H]3[C@H](C)CC[C@@H]13)C2(C)C
REMARK SMILES IDX 3 1 2 2 1 3 12 4 9 5 8 6 10 7 7 8 11 9 4 11 5 12 6 13 13 14
REMARK SMILES IDX 14 16 15 17
REMARK H PARENT
REMARK Flexibility Score: 80.00
ROOT
ATOM      1  C   UNL     1       8.830  32.326  25.213  1.00  0.00     0.031 C 
ENDROOT
BRANCH   1   2
ATOM      2  C   UNL     1      10.074  32.963  24.613  1.00  0.00    -0.074 C 
ATOM      3  C   UNL     1      10.773  33.837  25.367  1.00  0.00     0.008 C 
BRANCH   2   4
ATOM      4  C   UNL     1      10.578  32.465  23.253  1.00  0.00     0.018 C 
ATOM      5  C   UNL     1      10.080  31.823  19.698  1.00  0.00     0.008 C 
ATOM      6  C   UNL     1      10.369  32.835  20.819  1.00  0.00    -0.010 C 
ATOM      7  C   UNL     1      11.842  32.802  21.233  1.00  0.00     0.004 C 
ATOM      8  C   UNL     1       9.548  32.668  22.130  1.00  0.00     0.003 CG0
ATOM      9  C   UNL     1      11.847  33.128  22.713  1.00  0.00     0.008 C 
ATOM     10  G   UNL     1       8.532  31.494  22.111  1.00  0.00     0.000 G0
ENDBRANCH   2   4
ENDBRANCH   1   2
BRANCH   1  11
ATOM     11  C   UNL     1       7.582  32.521  24.339  1.00  0.00     0.009 C 
BRANCH  11  12
ATOM     12  C   UNL     1       7.498  31.429  23.252  1.00  0.00    -0.001 C 
ATOM     13  C   UNL     1       8.531  31.483  22.114  1.00  0.00     0.002 CG0
ATOM     14  C   UNL     1       7.041  31.732  21.811  1.00  0.00    -0.029 C 
ATOM     15  G   UNL     1       9.536  32.666  22.123  1.00  0.00     0.000 G0
ATOM     16  C   UNL     1       6.586  33.136  21.370  1.00  0.00     0.011 C 
ATOM     17  C   UNL     1       6.361  30.566  21.085  1.00  0.00     0.011 C 
ENDBRANCH  11  12
ENDBRANCH   1  11
TORSDOF 0
ENDMDL
MODEL 4
REMARK VINA RESULT:    -4.432      1.812      3.225
REMARK INTER + INTRA:          -4.160
REMARK INTER:                  -5.495
REMARK INTRA:                   1.335
REMARK UNBOUND:                 1.308
REMARK SMILES C=C1CC[C@@H]2[C@H]([C@@H]3[C@H](C)CC[C@@H]13)C2(C)C
REMARK SMILES IDX 3 1 2 2 1 3 12 4 9 5 8 6 10 7 7 8 11 9 4 11 5 12 6 13 13 14
REMARK SMILES IDX 14 16 15 17
REMARK H PARENT
REMARK Flexibility Score: 80.00
ROOT
ATOM      1  C   UNL     1      10.059  33.238  24.544  1.00  0.00     0.031 C 
ENDROOT
BRANCH   1   2
ATOM      2  C   UNL     1       8.673  33.009  23.961  1.00  0.00    -0.074 C 
ATOM      3  C   UNL     1       7.693  32.587  24.787  1.00  0.00     0.008 C 
BRANCH   2   4
ATOM      4  C   UNL     1       8.402  33.424  22.509  1.00  0.00     0.018 C 
ATOM      5  C   UNL     1       9.139  33.245  18.943  1.00  0.00     0.008 C 
ATOM      6  C   UNL     1       8.486  32.607  20.180  1.00  0.00    -0.010 C 
ATOM      7  C   UNL     1       7.124  33.238  20.479  1.00  0.00     0.004 C 
ATOM      8  C   UNL     1       9.297  32.679  21.505  1.00  0.00     0.003 CG0
ATOM      9  C   UNL     1       6.984  33.185  21.987  1.00  0.00     0.008 C 
ATOM     10  G   UNL     1      10.674  33.386  21.383  1.00  0.00     0.000 G0
ENDBRANCH   2   4
ENDBRANCH   1   2
BRANCH   1  11
ATOM     11  C   UNL     1      11.153  32.453  23.805  1.00  0.00     0.009 C 
BRANCH  11  12
ATOM     12  C   UNL     1      11.650  33.235  22.572  1.00  0.00    -0.001 C 
ATOM     13  C   UNL     1      10.681  33.377  21.386  1.00  0.00     0.002 CG0
ATOM     14  C   UNL     1      11.967  32.545  21.230  1.00  0.00    -0.029 C 
ATOM     15  G   UNL     1       9.303  32.673  21.507  1.00  0.00     0.000 G0
ATOM     16  C   UNL     1      11.861  31.020  21.043  1.00  0.00     0.011 C 
ATOM     17  C   UNL     1      13.043  33.235  20.382  1.00  0.00     0.011 C 
ENDBRANCH  11  12
ENDBRANCH   1  11
TORSDOF 0
ENDMDL
MODEL 5
REMARK VINA RESULT:    -4.381      1.606      3.273
REMARK INTER + INTRA:          -4.098
REMARK INTER:                  -5.406
REMARK INTRA:                   1.308
REMARK UNBOUND:                 1.308
REMARK SMILES C=C1CC[C@@H]2[C@H]([C@@H]3[C@H](C)CC[C@@H]13)C2(C)C
REMARK SMILES IDX 3 1 2 2 1 3 12 4 9 5 8 6 10 7 7 8 11 9 4 11 5 12 6 13 13 14
REMARK SMILES IDX 14 16 15 17
REMARK H PARENT
REMARK Flexibility Score: 80.00
ROOT
ATOM      1  C   UNL     1      11.183  33.737  20.382  1.00  0.00     0.031 C 
ENDROOT
BRANCH   1   2
ATOM      2  C   UNL     1      11.612  33.359  21.791  1.00  0.00    -0.074 C 
ATOM      3  C   UNL     1      12.902  33.024  21.999  1.00  0.00     0.008 C 
BRANCH   2   4
ATOM      4  C   UNL     1      10.613  33.535  22.942  1.00  0.00     0.018 C 
ATOM      5  C   UNL     1       7.408  32.828  24.530  1.00  0.00     0.008 C 
ATOM      6  C   UNL     1       8.840  32.370  24.206  1.00  0.00    -0.010 C 
ATOM      7  C   UNL     1       9.856  33.000  25.163  1.00  0.00     0.004 C 
ATOM      8  C   UNL     1       9.353  32.671  22.770  1.00  0.00     0.003 CG0
ATOM      9  C   UNL     1      11.117  33.177  24.341  1.00  0.00     0.008 C 
ATOM     10  G   UNL     1       8.327  33.390  21.853  1.00  0.00     0.000 G0
ENDBRANCH   2   4
ENDBRANCH   1   2
BRANCH   1  11
ATOM     11  C   UNL     1      10.002  32.896  19.874  1.00  0.00     0.009 C 
BRANCH  11  12
ATOM     12  C   UNL     1       8.660  33.496  20.341  1.00  0.00    -0.001 C 
ATOM     13  C   UNL     1       8.332  33.412  21.841  1.00  0.00     0.002 CG0
ATOM     14  C   UNL     1       7.488  32.620  20.825  1.00  0.00    -0.029 C 
ATOM     15  G   UNL     1       9.353  32.680  22.752  1.00  0.00     0.000 G0
ATOM     16  C   UNL     1       7.556  31.082  20.826  1.00  0.00     0.011 C 
ATOM     17  C   UNL     1       6.093  33.213  20.593  1.00  0.00     0.011 C 
ENDBRANCH  11  12
ENDBRANCH   1  11
TORSDOF 0
ENDMDL
MODEL 6
REMARK VINA RESULT:    -4.326      1.944      3.651
REMARK INTER + INTRA:          -4.029
REMARK INTER:                  -5.328
REMARK INTRA:                   1.298
REMARK UNBOUND:                 1.308
REMARK SMILES C=C1CC[C@@H]2[C@H]([C@@H]3[C@H](C)CC[C@@H]13)C2(C)C
REMARK SMILES IDX 3 1 2 2 1 3 12 4 9 5 8 6 10 7 7 8 11 9 4 11 5 12 6 13 13 14
REMARK SMILES IDX 14 16 15 17
REMARK H PARENT
REMARK Flexibility Score: 80.00
ROOT
ATOM      1  C   UNL     1       7.654  33.056  23.394  1.00  0.00     0.031 C 
ENDROOT
BRANCH   1   2
ATOM      2  C   UNL     1       9.101  33.458  23.635  1.00  0.00    -0.074 C 
ATOM      3  C   UNL     1       9.384  34.214  24.715  1.00  0.00     0.008 C 
BRANCH   2   4
ATOM      4  C   UNL     1      10.195  32.852  22.746  1.00  0.00     0.018 C 
ATOM      5  C   UNL     1      11.677  32.237  19.471  1.00  0.00     0.008 C 
ATOM      6  C   UNL     1      11.443  33.205  20.643  1.00  0.00    -0.010 C 
ATOM      7  C   UNL     1      12.406  32.924  21.799  1.00  0.00     0.004 C 
ATOM      8  C   UNL     1      10.016  33.210  21.261  1.00  0.00     0.003 CG0
ATOM      9  C   UNL     1      11.633  33.273  23.055  1.00  0.00     0.008 C 
ATOM     10  G   UNL     1       9.016  32.231  20.588  1.00  0.00     0.000 G0
ENDBRANCH   2   4
ENDBRANCH   1   2
BRANCH   1  11
ATOM     11  C   UNL     1       7.150  33.454  21.999  1.00  0.00     0.009 C 
BRANCH  11  12
ATOM     12  C   UNL     1       7.512  32.376  20.957  1.00  0.00    -0.001 C 
ATOM     13  C   UNL     1       8.997  32.220  20.587  1.00  0.00     0.002 CG0
ATOM     14  C   UNL     1       7.993  32.729  19.536  1.00  0.00    -0.029 C 
ATOM     15  G   UNL     1      10.001  33.200  21.251  1.00  0.00     0.000 G0
ATOM     16  C   UNL     1       8.095  34.183  19.039  1.00  0.00     0.011 C 
ATOM     17  C   UNL     1       7.657  31.692  18.458  1.00  0.00     0.011 C 
ENDBRANCH  11  12
ENDBRANCH   1  11
TORSDOF 0
ENDMDL
MODEL 7
REMARK VINA RESULT:    -4.282      1.084      3.412
REMARK INTER + INTRA:          -3.975
REMARK INTER:                  -5.318
REMARK INTRA:                   1.343
REMARK UNBOUND:                 1.308
REMARK SMILES C=C1CC[C@@H]2[C@H]([C@@H]3[C@H](C)CC[C@@H]13)C2(C)C
REMARK SMILES IDX 3 1 2 2 1 3 12 4 9 5 8 6 10 7 7 8 11 9 4 11 5 12 6 13 13 14
REMARK SMILES IDX 14 16 15 17
REMARK H PARENT
REMARK Flexibility Score: 80.00
ROOT
ATOM      1  C   UNL     1       6.988  30.871  25.328  1.00  0.00     0.031 C 
ENDROOT
BRANCH   1   2
ATOM      2  C   UNL     1       6.966  30.179  23.973  1.00  0.00    -0.074 C 
ATOM      3  C   UNL     1       6.709  28.855  23.935  1.00  0.00     0.008 C 
BRANCH   2   4
ATOM      4  C   UNL     1       7.068  31.034  22.703  1.00  0.00     0.018 C 
ATOM      5  C   UNL     1       8.800  33.476  20.623  1.00  0.00     0.008 C 
ATOM      6  C   UNL     1       8.685  32.027  21.122  1.00  0.00    -0.010 C 
ATOM      7  C   UNL     1       7.594  31.263  20.366  1.00  0.00     0.004 C 
ATOM      8  C   UNL     1       8.376  31.838  22.634  1.00  0.00     0.003 CG0
ATOM      9  C   UNL     1       7.027  30.281  21.372  1.00  0.00     0.008 C 
ATOM     10  G   UNL     1       8.239  33.160  23.436  1.00  0.00     0.000 G0
ENDBRANCH   2   4
ENDBRANCH   1   2
BRANCH   1  11
ATOM     11  C   UNL     1       8.300  31.628  25.588  1.00  0.00     0.009 C 
BRANCH  11  12
ATOM     12  C   UNL     1       8.245  33.045  24.981  1.00  0.00    -0.001 C 
ATOM     13  C   UNL     1       8.255  33.159  23.447  1.00  0.00     0.002 CG0
ATOM     14  C   UNL     1       9.451  33.683  24.263  1.00  0.00    -0.029 C 
ATOM     15  G   UNL     1       8.376  31.839  22.638  1.00  0.00     0.000 G0
ATOM     16  C   UNL     1      10.811  32.971  24.149  1.00  0.00     0.011 C 
ATOM     17  C   UNL     1       9.517  35.213  24.337  1.00  0.00     0.011 C 
ENDBRANCH  11  12
ENDBRANCH   1  11
TORSDOF 0
ENDMDL
MODEL 8
REMARK VINA RESULT:    -3.960      3.556      5.488
REMARK INTER + INTRA:          -3.578
REMARK INTER:                  -4.886
REMARK INTRA:                   1.307
REMARK UNBOUND:                 1.308
REMARK SMILES C=C1CC[C@@H]2[C@H]([C@@H]3[C@H](C)CC[C@@H]13)C2(C)C
REMARK SMILES IDX 3 1 2 2 1 3 12 4 9 5 8 6 10 7 7 8 11 9 4 11 5 12 6 13 13 14
REMARK SMILES IDX 14 16 15 17
REMARK H PARENT
REMARK Flexibility Score: 80.00
ROOT
ATOM      1  C   UNL     1      11.934  32.376  23.039  1.00  0.00     0.031 C 
ENDROOT
BRANCH   1   2
ATOM      2  C   UNL     1      10.629  32.691  22.323  1.00  0.00    -0.074 C 
ATOM      3  C   UNL     1       9.483  32.198  22.835  1.00  0.00     0.008 C 
BRANCH   2   4
ATOM      4  C   UNL     1      10.647  33.686  21.155  1.00  0.00     0.018 C 
ATOM      5  C   UNL     1      11.837  34.748  17.877  1.00  0.00     0.008 C 
ATOM      6  C   UNL     1      10.911  33.842  18.704  1.00  0.00    -0.010 C 
ATOM      7  C   UNL     1       9.657  34.595  19.159  1.00  0.00     0.004 C 
ATOM      8  C   UNL     1      11.525  33.211  19.986  1.00  0.00     0.003 CG0
ATOM      9  C   UNL     1       9.298  33.992  20.502  1.00  0.00     0.008 C 
ATOM     10  G   UNL     1      13.011  33.582  20.242  1.00  0.00     0.000 G0
ENDBRANCH   2   4
ENDBRANCH   1   2
BRANCH   1  11
ATOM     11  C   UNL     1      12.978  31.730  22.115  1.00  0.00     0.009 C 
BRANCH  11  12
ATOM     12  C   UNL     1      13.767  32.807  21.342  1.00  0.00    -0.001 C 
ATOM     13  C   UNL     1      13.015  33.588  20.251  1.00  0.00     0.002 CG0
ATOM     14  C   UNL     1      14.163  32.637  19.862  1.00  0.00    -0.029 C 
ATOM     15  G   UNL     1      11.540  33.187  19.980  1.00  0.00     0.000 G0
ATOM     16  C   UNL     1      13.844  31.357  19.067  1.00  0.00     0.011 C 
ATOM     17  C   UNL     1      15.446  33.365  19.444  1.00  0.00     0.011 C 
ENDBRANCH  11  12
ENDBRANCH   1  11
TORSDOF 0
ENDMDL
MODEL 9
REMARK VINA RESULT:    -3.884      3.919      5.473
REMARK INTER + INTRA:          -3.484
REMARK INTER:                  -4.839
REMARK INTRA:                   1.355
REMARK UNBOUND:                 1.308
REMARK SMILES C=C1CC[C@@H]2[C@H]([C@@H]3[C@H](C)CC[C@@H]13)C2(C)C
REMARK SMILES IDX 3 1 2 2 1 3 12 4 9 5 8 6 10 7 7 8 11 9 4 11 5 12 6 13 13 14
REMARK SMILES IDX 14 16 15 17
REMARK H PARENT
REMARK Flexibility Score: 80.00
ROOT
ATOM      1  C   UNL     1      13.335  33.059  21.923  1.00  0.00     0.031 C 
ENDROOT
BRANCH   1   2
ATOM      2  C   UNL     1      11.840  32.782  21.975  1.00  0.00    -0.074 C 
ATOM      3  C   UNL     1      11.114  33.370  22.949  1.00  0.00     0.008 C 
BRANCH   2   4
ATOM      4  C   UNL     1      11.193  31.992  20.831  1.00  0.00     0.018 C 
ATOM      5  C   UNL     1      10.927  29.002  18.761  1.00  0.00     0.008 C 
ATOM      6  C   UNL     1      10.622  29.704  20.094  1.00  0.00    -0.010 C 
ATOM      7  C   UNL     1       9.406  30.627  19.972  1.00  0.00     0.004 C 
ATOM      8  C   UNL     1      11.764  30.571  20.696  1.00  0.00     0.003 CG0
ATOM      9  C   UNL     1       9.682  31.774  20.924  1.00  0.00     0.008 C 
ATOM     10  G   UNL     1      13.071  30.592  19.858  1.00  0.00     0.000 G0
ENDBRANCH   2   4
ENDBRANCH   1   2
BRANCH   1  11
ATOM     11  C   UNL     1      14.178  31.775  21.935  1.00  0.00     0.009 C 
BRANCH  11  12
ATOM     12  C   UNL     1      14.323  31.201  20.510  1.00  0.00    -0.001 C 
ATOM     13  C   UNL     1      13.066  30.600  19.858  1.00  0.00     0.002 CG0
ATOM     14  C   UNL     1      14.255  29.689  20.218  1.00  0.00    -0.029 C 
ATOM     15  G   UNL     1      11.769  30.571  20.710  1.00  0.00     0.000 G0
ATOM     16  C   UNL     1      14.089  28.642  21.335  1.00  0.00     0.011 C 
ATOM     17  C   UNL     1      15.061  29.224  19.000  1.00  0.00     0.011 C 
ENDBRANCH  11  12
ENDBRANCH   1  11
TORSDOF 0
ENDMDL
