MODEL 1
REMARK VINA RESULT:    -3.904      0.000      0.000
REMARK INTER + INTRA:         -10.461
REMARK INTER:                  -7.555
REMARK INTRA:                  -2.906
REMARK UNBOUND:                -2.906
REMARK SMILES CCCCCCCCCCCCCCCCCC(=O)[O-]
REMARK SMILES IDX 10 1 11 2 12 3 13 4 14 5 15 6 16 7 17 8 18 9 19 10 20 11
REMARK SMILES IDX 9 12 8 13 7 14 6 15 5 16 4 17 3 18 2 19 1 20
REMARK H PARENT
REMARK Flexibility Score: inf
ROOT
ATOM      1  C   UNL     1      27.432  30.470 -13.242  1.00  0.00     0.000 C 
ENDROOT
BRANCH   1   2
ATOM      2  C   UNL     1      28.942  30.305 -13.023  1.00  0.00     0.000 C 
BRANCH   2   3
ATOM      3  C   UNL     1      29.270  30.145 -11.530  1.00  0.00     0.000 C 
BRANCH   3   4
ATOM      4  C   UNL     1      28.079  30.530 -10.627  1.00  0.00     0.000 C 
BRANCH   4   5
ATOM      5  C   UNL     1      27.565  29.372  -9.749  1.00  0.00     0.000 C 
BRANCH   5   6
ATOM      6  C   UNL     1      26.181  28.828 -10.142  1.00  0.00     0.000 C 
BRANCH   6   7
ATOM      7  C   UNL     1      26.227  27.368 -10.619  1.00  0.00     0.006 C 
BRANCH   7   8
ATOM      8  C   UNL     1      26.960  27.257 -11.958  1.00  0.00     0.053 C 
BRANCH   8   9
ATOM      9  C   UNL     1      26.646  25.954 -12.625  1.00  0.00     0.041 C 
ATOM     10  O   UNL     1      25.708  25.233 -12.194  1.00  0.00    -0.550 OA
ATOM     11  O   UNL     1      27.359  25.558 -13.750  1.00  0.00    -0.550 OA
ENDBRANCH   8   9
ENDBRANCH   7   8
ENDBRANCH   6   7
ENDBRANCH   5   6
ENDBRANCH   4   5
ENDBRANCH   3   4
ENDBRANCH   2   3
ENDBRANCH   1   2
BRANCH   1  12
ATOM     12  C   UNL     1      27.038  30.420 -14.727  1.00  0.00     0.000 C 
BRANCH  12  13
ATOM     13  C   UNL     1      26.354  29.096 -15.114  1.00  0.00    -0.000 C 
BRANCH  13  14
ATOM     14  C   UNL     1      24.820  29.218 -15.164  1.00  0.00    -0.000 C 
BRANCH  14  15
ATOM     15  C   UNL     1      24.077  28.224 -14.251  1.00  0.00    -0.000 C 
BRANCH  15  16
ATOM     16  C   UNL     1      23.728  28.830 -12.880  1.00  0.00    -0.000 C 
BRANCH  16  17
ATOM     17  C   UNL     1      23.309  30.306 -12.976  1.00  0.00    -0.000 C 
BRANCH  17  18
ATOM     18  C   UNL     1      24.199  31.231 -12.131  1.00  0.00    -0.000 C 
BRANCH  18  19
ATOM     19  C   UNL     1      24.137  32.673 -12.649  1.00  0.00    -0.003 C 
ATOM     20  C   UNL     1      24.509  32.743 -14.127  1.00  0.00     0.004 C 
ENDBRANCH  18  19
ENDBRANCH  17  18
ENDBRANCH  16  17
ENDBRANCH  15  16
ENDBRANCH  14  15
ENDBRANCH  13  14
ENDBRANCH  12  13
ENDBRANCH   1  12
TORSDOF 16
ENDMDL
MODEL 2
REMARK VINA RESULT:    -3.773      2.026      4.185
REMARK INTER + INTRA:         -10.207
REMARK INTER:                  -7.422
REMARK INTRA:                  -2.785
REMARK UNBOUND:                -2.906
REMARK SMILES CCCCCCCCCCCCCCCCCC(=O)[O-]
REMARK SMILES IDX 10 1 11 2 12 3 13 4 14 5 15 6 16 7 17 8 18 9 19 10 20 11
REMARK SMILES IDX 9 12 8 13 7 14 6 15 5 16 4 17 3 18 2 19 1 20
REMARK H PARENT
REMARK Flexibility Score: inf
ROOT
ATOM      1  C   UNL     1      23.737  28.915 -14.621  1.00  0.00     0.000 C 
ENDROOT
BRANCH   1   2
ATOM      2  C   UNL     1      25.220  28.563 -14.438  1.00  0.00     0.000 C 
BRANCH   2   3
ATOM      3  C   UNL     1      26.077  29.186 -15.552  1.00  0.00     0.000 C 
BRANCH   3   4
ATOM      4  C   UNL     1      27.151  30.145 -14.995  1.00  0.00     0.000 C 
BRANCH   4   5
ATOM      5  C   UNL     1      27.339  30.046 -13.468  1.00  0.00     0.000 C 
BRANCH   5   6
ATOM      6  C   UNL     1      28.733  30.453 -12.960  1.00  0.00     0.000 C 
BRANCH   6   7
ATOM      7  C   UNL     1      29.065  29.856 -11.585  1.00  0.00     0.006 C 
BRANCH   7   8
ATOM      8  C   UNL     1      28.095  30.372 -10.520  1.00  0.00     0.053 C 
BRANCH   8   9
ATOM      9  C   UNL     1      27.450  29.231  -9.796  1.00  0.00     0.041 C 
ATOM     10  O   UNL     1      26.993  28.251 -10.441  1.00  0.00    -0.550 OA
ATOM     11  O   UNL     1      27.397  29.227  -8.407  1.00  0.00    -0.550 OA
ENDBRANCH   8   9
ENDBRANCH   7   8
ENDBRANCH   6   7
ENDBRANCH   5   6
ENDBRANCH   4   5
ENDBRANCH   3   4
ENDBRANCH   2   3
ENDBRANCH   1   2
BRANCH   1  12
ATOM     12  C   UNL     1      23.501  29.916 -15.763  1.00  0.00     0.000 C 
BRANCH  12  13
ATOM     13  C   UNL     1      22.925  31.254 -15.268  1.00  0.00    -0.000 C 
BRANCH  13  14
ATOM     14  C   UNL     1      23.950  32.401 -15.346  1.00  0.00    -0.000 C 
BRANCH  14  15
ATOM     15  C   UNL     1      24.678  32.688 -14.019  1.00  0.00    -0.000 C 
BRANCH  15  16
ATOM     16  C   UNL     1      23.832  32.312 -12.789  1.00  0.00    -0.000 C 
BRANCH  16  17
ATOM     17  C   UNL     1      24.642  31.561 -11.721  1.00  0.00    -0.000 C 
BRANCH  17  18
ATOM     18  C   UNL     1      24.025  30.202 -11.356  1.00  0.00    -0.000 C 
BRANCH  18  19
ATOM     19  C   UNL     1      23.721  30.125  -9.854  1.00  0.00    -0.003 C 
ATOM     20  C   UNL     1      22.438  29.343  -9.591  1.00  0.00     0.004 C 
ENDBRANCH  18  19
ENDBRANCH  17  18
ENDBRANCH  16  17
ENDBRANCH  15  16
ENDBRANCH  14  15
ENDBRANCH  13  14
ENDBRANCH  12  13
ENDBRANCH   1  12
TORSDOF 16
ENDMDL
MODEL 3
REMARK VINA RESULT:    -3.763      1.076      2.122
REMARK INTER + INTRA:         -10.189
REMARK INTER:                  -7.671
REMARK INTRA:                  -2.518
REMARK UNBOUND:                -2.906
REMARK SMILES CCCCCCCCCCCCCCCCCC(=O)[O-]
REMARK SMILES IDX 10 1 11 2 12 3 13 4 14 5 15 6 16 7 17 8 18 9 19 10 20 11
REMARK SMILES IDX 9 12 8 13 7 14 6 15 5 16 4 17 3 18 2 19 1 20
REMARK H PARENT
REMARK Flexibility Score: inf
ROOT
ATOM      1  C   UNL     1      27.148  30.117 -14.918  1.00  0.00     0.000 C 
ENDROOT
BRANCH   1   2
ATOM      2  C   UNL     1      27.443  30.478 -13.455  1.00  0.00     0.000 C 
BRANCH   2   3
ATOM      3  C   UNL     1      28.945  30.358 -13.149  1.00  0.00     0.000 C 
BRANCH   3   4
ATOM      4  C   UNL     1      29.214  30.057 -11.658  1.00  0.00     0.000 C 
BRANCH   4   5
ATOM      5  C   UNL     1      27.968  30.201 -10.762  1.00  0.00     0.000 C 
BRANCH   5   6
ATOM      6  C   UNL     1      27.534  28.911 -10.046  1.00  0.00     0.000 C 
BRANCH   6   7
ATOM      7  C   UNL     1      26.290  28.268 -10.677  1.00  0.00     0.006 C 
BRANCH   7   8
ATOM      8  C   UNL     1      26.690  27.223 -11.722  1.00  0.00     0.053 C 
BRANCH   8   9
ATOM      9  C   UNL     1      26.162  25.873 -11.348  1.00  0.00     0.041 C 
ATOM     10  O   UNL     1      26.759  24.833 -11.731  1.00  0.00    -0.550 OA
ATOM     11  O   UNL     1      25.039  25.765 -10.537  1.00  0.00    -0.550 OA
ENDBRANCH   8   9
ENDBRANCH   7   8
ENDBRANCH   6   7
ENDBRANCH   5   6
ENDBRANCH   4   5
ENDBRANCH   3   4
ENDBRANCH   2   3
ENDBRANCH   1   2
BRANCH   1  12
ATOM     12  C   UNL     1      26.214  28.904 -15.053  1.00  0.00     0.000 C 
BRANCH  12  13
ATOM     13  C   UNL     1      24.917  29.237 -15.811  1.00  0.00    -0.000 C 
BRANCH  13  14
ATOM     14  C   UNL     1      23.755  29.587 -14.863  1.00  0.00    -0.000 C 
BRANCH  14  15
ATOM     15  C   UNL     1      22.898  30.780 -15.328  1.00  0.00    -0.000 C 
BRANCH  15  16
ATOM     16  C   UNL     1      22.828  31.900 -14.274  1.00  0.00    -0.000 C 
BRANCH  16  17
ATOM     17  C   UNL     1      24.216  32.421 -13.870  1.00  0.00    -0.000 C 
BRANCH  17  18
ATOM     18  C   UNL     1      24.341  32.666 -12.359  1.00  0.00    -0.000 C 
BRANCH  18  19
ATOM     19  C   UNL     1      24.525  31.345 -11.603  1.00  0.00    -0.003 C 
ATOM     20  C   UNL     1      23.323  31.046 -10.713  1.00  0.00     0.004 C 
ENDBRANCH  18  19
ENDBRANCH  17  18
ENDBRANCH  16  17
ENDBRANCH  15  16
ENDBRANCH  14  15
ENDBRANCH  13  14
ENDBRANCH  12  13
ENDBRANCH   1  12
TORSDOF 16
ENDMDL
MODEL 4
REMARK VINA RESULT:    -3.746      1.753      3.137
REMARK INTER + INTRA:         -10.155
REMARK INTER:                  -7.613
REMARK INTRA:                  -2.542
REMARK UNBOUND:                -2.906
REMARK SMILES CCCCCCCCCCCCCCCCCC(=O)[O-]
REMARK SMILES IDX 10 1 11 2 12 3 13 4 14 5 15 6 16 7 17 8 18 9 19 10 20 11
REMARK SMILES IDX 9 12 8 13 7 14 6 15 5 16 4 17 3 18 2 19 1 20
REMARK H PARENT
REMARK Flexibility Score: inf
ROOT
ATOM      1  C   UNL     1      27.205  30.373 -12.822  1.00  0.00     0.000 C 
ENDROOT
BRANCH   1   2
ATOM      2  C   UNL     1      27.959  29.174 -12.230  1.00  0.00     0.000 C 
BRANCH   2   3
ATOM      3  C   UNL     1      27.034  28.323 -11.345  1.00  0.00     0.000 C 
BRANCH   3   4
ATOM      4  C   UNL     1      26.296  27.233 -12.151  1.00  0.00     0.000 C 
BRANCH   4   5
ATOM      5  C   UNL     1      27.182  26.526 -13.195  1.00  0.00     0.000 C 
BRANCH   5   6
ATOM      6  C   UNL     1      26.413  25.717 -14.254  1.00  0.00     0.000 C 
BRANCH   6   7
ATOM      7  C   UNL     1      26.441  24.205 -13.986  1.00  0.00     0.006 C 
BRANCH   7   8
ATOM      8  C   UNL     1      27.688  23.817 -13.187  1.00  0.00     0.053 C 
BRANCH   8   9
ATOM      9  C   UNL     1      27.333  22.875 -12.080  1.00  0.00     0.041 C 
ATOM     10  O   UNL     1      28.131  21.957 -11.751  1.00  0.00    -0.550 OA
ATOM     11  O   UNL     1      26.143  23.037 -11.380  1.00  0.00    -0.550 OA
ENDBRANCH   8   9
ENDBRANCH   7   8
ENDBRANCH   6   7
ENDBRANCH   5   6
ENDBRANCH   4   5
ENDBRANCH   3   4
ENDBRANCH   2   3
ENDBRANCH   1   2
BRANCH   1  12
ATOM     12  C   UNL     1      27.399  30.505 -14.342  1.00  0.00     0.000 C 
BRANCH  12  13
ATOM     13  C   UNL     1      26.432  29.613 -15.141  1.00  0.00    -0.000 C 
BRANCH  13  14
ATOM     14  C   UNL     1      24.985  29.700 -14.622  1.00  0.00    -0.000 C 
BRANCH  14  15
ATOM     15  C   UNL     1      24.072  30.627 -15.446  1.00  0.00    -0.000 C 
BRANCH  15  16
ATOM     16  C   UNL     1      23.407  31.716 -14.585  1.00  0.00    -0.000 C 
BRANCH  16  17
ATOM     17  C   UNL     1      24.429  32.654 -13.924  1.00  0.00    -0.000 C 
BRANCH  17  18
ATOM     18  C   UNL     1      24.314  32.670 -12.391  1.00  0.00    -0.000 C 
BRANCH  18  19
ATOM     19  C   UNL     1      23.325  31.604 -11.905  1.00  0.00    -0.003 C 
ATOM     20  C   UNL     1      24.016  30.576 -11.015  1.00  0.00     0.004 C 
ENDBRANCH  18  19
ENDBRANCH  17  18
ENDBRANCH  16  17
ENDBRANCH  15  16
ENDBRANCH  14  15
ENDBRANCH  13  14
ENDBRANCH  12  13
ENDBRANCH   1  12
TORSDOF 16
ENDMDL
MODEL 5
REMARK VINA RESULT:    -3.670      2.767      4.873
REMARK INTER + INTRA:         -10.008
REMARK INTER:                  -7.134
REMARK INTRA:                  -2.874
REMARK UNBOUND:                -2.906
REMARK SMILES CCCCCCCCCCCCCCCCCC(=O)[O-]
REMARK SMILES IDX 10 1 11 2 12 3 13 4 14 5 15 6 16 7 17 8 18 9 19 10 20 11
REMARK SMILES IDX 9 12 8 13 7 14 6 15 5 16 4 17 3 18 2 19 1 20
REMARK H PARENT
REMARK Flexibility Score: inf
ROOT
ATOM      1  C   UNL     1      25.751  29.002 -10.146  1.00  0.00     0.000 C 
ENDROOT
BRANCH   1   2
ATOM      2  C   UNL     1      27.249  29.080  -9.819  1.00  0.00     0.000 C 
BRANCH   2   3
ATOM      3  C   UNL     1      27.919  30.242 -10.570  1.00  0.00     0.000 C 
BRANCH   3   4
ATOM      4  C   UNL     1      28.866  29.747 -11.685  1.00  0.00     0.000 C 
BRANCH   4   5
ATOM      5  C   UNL     1      28.668  30.468 -13.033  1.00  0.00     0.000 C 
BRANCH   5   6
ATOM      6  C   UNL     1      27.450  29.996 -13.846  1.00  0.00     0.000 C 
BRANCH   6   7
ATOM      7  C   UNL     1      26.465  31.133 -14.159  1.00  0.00     0.006 C 
BRANCH   7   8
ATOM      8  C   UNL     1      25.392  31.237 -13.074  1.00  0.00     0.053 C 
BRANCH   8   9
ATOM      9  C   UNL     1      24.496  32.408 -13.328  1.00  0.00     0.041 C 
ATOM     10  O   UNL     1      24.117  33.135 -12.372  1.00  0.00    -0.550 OA
ATOM     11  O   UNL     1      24.116  32.727 -14.627  1.00  0.00    -0.550 OA
ENDBRANCH   8   9
ENDBRANCH   7   8
ENDBRANCH   6   7
ENDBRANCH   5   6
ENDBRANCH   4   5
ENDBRANCH   3   4
ENDBRANCH   2   3
ENDBRANCH   1   2
BRANCH   1  12
ATOM     12  C   UNL     1      25.449  28.069 -11.329  1.00  0.00     0.000 C 
BRANCH  12  13
ATOM     13  C   UNL     1      26.323  26.803 -11.323  1.00  0.00    -0.000 C 
BRANCH  13  14
ATOM     14  C   UNL     1      27.084  26.606 -12.646  1.00  0.00    -0.000 C 
BRANCH  14  15
ATOM     15  C   UNL     1      26.839  25.241 -13.319  1.00  0.00    -0.000 C 
BRANCH  15  16
ATOM     16  C   UNL     1      26.008  25.362 -14.609  1.00  0.00    -0.000 C 
BRANCH  16  17
ATOM     17  C   UNL     1      25.850  26.817 -15.077  1.00  0.00    -0.000 C 
BRANCH  17  18
ATOM     18  C   UNL     1      24.438  27.122 -15.602  1.00  0.00    -0.000 C 
BRANCH  18  19
ATOM     19  C   UNL     1      24.048  28.576 -15.312  1.00  0.00    -0.003 C 
ATOM     20  C   UNL     1      23.016  28.658 -14.192  1.00  0.00     0.004 C 
ENDBRANCH  18  19
ENDBRANCH  17  18
ENDBRANCH  16  17
ENDBRANCH  15  16
ENDBRANCH  14  15
ENDBRANCH  13  14
ENDBRANCH  12  13
ENDBRANCH   1  12
TORSDOF 16
ENDMDL
MODEL 6
REMARK VINA RESULT:    -3.653      1.711      3.543
REMARK INTER + INTRA:          -9.976
REMARK INTER:                  -6.997
REMARK INTRA:                  -2.979
REMARK UNBOUND:                -2.906
REMARK SMILES CCCCCCCCCCCCCCCCCC(=O)[O-]
REMARK SMILES IDX 10 1 11 2 12 3 13 4 14 5 15 6 16 7 17 8 18 9 19 10 20 11
REMARK SMILES IDX 9 12 8 13 7 14 6 15 5 16 4 17 3 18 2 19 1 20
REMARK H PARENT
REMARK Flexibility Score: inf
ROOT
ATOM      1  C   UNL     1      27.199  30.688 -13.954  1.00  0.00     0.000 C 
ENDROOT
BRANCH   1   2
ATOM      2  C   UNL     1      26.946  29.926 -15.263  1.00  0.00     0.000 C 
BRANCH   2   3
ATOM      3  C   UNL     1      25.469  29.519 -15.388  1.00  0.00     0.000 C 
BRANCH   3   4
ATOM      4  C   UNL     1      25.287  27.987 -15.424  1.00  0.00     0.000 C 
BRANCH   4   5
ATOM      5  C   UNL     1      26.499  27.205 -14.880  1.00  0.00     0.000 C 
BRANCH   5   6
ATOM      6  C   UNL     1      26.157  25.858 -14.220  1.00  0.00     0.000 C 
BRANCH   6   7
ATOM      7  C   UNL     1      27.340  25.255 -13.448  1.00  0.00     0.006 C 
BRANCH   7   8
ATOM      8  C   UNL     1      26.845  24.385 -12.290  1.00  0.00     0.053 C 
BRANCH   8   9
ATOM      9  C   UNL     1      27.068  22.935 -12.587  1.00  0.00     0.041 C 
ATOM     10  O   UNL     1      26.393  22.362 -13.483  1.00  0.00    -0.550 OA
ATOM     11  O   UNL     1      28.053  22.227 -11.908  1.00  0.00    -0.550 OA
ENDBRANCH   8   9
ENDBRANCH   7   8
ENDBRANCH   6   7
ENDBRANCH   5   6
ENDBRANCH   4   5
ENDBRANCH   3   4
ENDBRANCH   2   3
ENDBRANCH   1   2
BRANCH   1  12
ATOM     12  C   UNL     1      28.494  30.249 -13.252  1.00  0.00     0.000 C 
BRANCH  12  13
ATOM     13  C   UNL     1      28.260  29.824 -11.791  1.00  0.00    -0.000 C 
BRANCH  13  14
ATOM     14  C   UNL     1      27.345  28.591 -11.676  1.00  0.00    -0.000 C 
BRANCH  14  15
ATOM     15  C   UNL     1      26.021  28.855 -10.934  1.00  0.00    -0.000 C 
BRANCH  15  16
ATOM     16  C   UNL     1      24.789  28.621 -11.827  1.00  0.00    -0.000 C 
BRANCH  16  17
ATOM     17  C   UNL     1      24.019  29.917 -12.125  1.00  0.00    -0.000 C 
BRANCH  17  18
ATOM     18  C   UNL     1      24.603  31.135 -11.392  1.00  0.00    -0.000 C 
BRANCH  18  19
ATOM     19  C   UNL     1      24.386  32.418 -12.204  1.00  0.00    -0.003 C 
ATOM     20  C   UNL     1      23.617  32.133 -13.490  1.00  0.00     0.004 C 
ENDBRANCH  18  19
ENDBRANCH  17  18
ENDBRANCH  16  17
ENDBRANCH  15  16
ENDBRANCH  14  15
ENDBRANCH  13  14
ENDBRANCH  12  13
ENDBRANCH   1  12
TORSDOF 16
ENDMDL
MODEL 7
REMARK VINA RESULT:    -3.649      2.055      5.530
REMARK INTER + INTRA:          -9.968
REMARK INTER:                  -7.305
REMARK INTRA:                  -2.664
REMARK UNBOUND:                -2.906
REMARK SMILES CCCCCCCCCCCCCCCCCC(=O)[O-]
REMARK SMILES IDX 10 1 11 2 12 3 13 4 14 5 15 6 16 7 17 8 18 9 19 10 20 11
REMARK SMILES IDX 9 12 8 13 7 14 6 15 5 16 4 17 3 18 2 19 1 20
REMARK H PARENT
REMARK Flexibility Score: inf
ROOT
ATOM      1  C   UNL     1      26.811  29.816 -14.845  1.00  0.00     0.000 C 
ENDROOT
BRANCH   1   2
ATOM      2  C   UNL     1      25.340  29.419 -14.662  1.00  0.00     0.000 C 
BRANCH   2   3
ATOM      3  C   UNL     1      24.476  29.951 -15.817  1.00  0.00     0.000 C 
BRANCH   3   4
ATOM      4  C   UNL     1      23.425  30.975 -15.337  1.00  0.00     0.000 C 
BRANCH   4   5
ATOM      5  C   UNL     1      23.976  32.407 -15.193  1.00  0.00     0.000 C 
BRANCH   5   6
ATOM      6  C   UNL     1      24.463  32.773 -13.780  1.00  0.00     0.000 C 
BRANCH   6   7
ATOM      7  C   UNL     1      23.564  32.204 -12.673  1.00  0.00     0.006 C 
BRANCH   7   8
ATOM      8  C   UNL     1      24.396  31.462 -11.624  1.00  0.00     0.053 C 
BRANCH   8   9
ATOM      9  C   UNL     1      23.637  30.294 -11.078  1.00  0.00     0.041 C 
ATOM     10  O   UNL     1      22.988  29.543 -11.853  1.00  0.00    -0.550 OA
ATOM     11  O   UNL     1      23.685  30.005  -9.719  1.00  0.00    -0.550 OA
ENDBRANCH   8   9
ENDBRANCH   7   8
ENDBRANCH   6   7
ENDBRANCH   5   6
ENDBRANCH   4   5
ENDBRANCH   3   4
ENDBRANCH   2   3
ENDBRANCH   1   2
BRANCH   1  12
ATOM     12  C   UNL     1      27.353  30.649 -13.673  1.00  0.00     0.000 C 
BRANCH  12  13
ATOM     13  C   UNL     1      28.798  30.276 -13.299  1.00  0.00    -0.000 C 
BRANCH  13  14
ATOM     14  C   UNL     1      28.990  30.113 -11.780  1.00  0.00    -0.000 C 
BRANCH  14  15
ATOM     15  C   UNL     1      27.675  30.087 -10.976  1.00  0.00    -0.000 C 
BRANCH  15  16
ATOM     16  C   UNL     1      27.350  28.687 -10.425  1.00  0.00    -0.000 C 
BRANCH  16  17
ATOM     17  C   UNL     1      26.334  27.931 -11.295  1.00  0.00    -0.000 C 
BRANCH  17  18
ATOM     18  C   UNL     1      27.005  27.036 -12.349  1.00  0.00    -0.000 C 
BRANCH  18  19
ATOM     19  C   UNL     1      26.153  25.793 -12.633  1.00  0.00    -0.003 C 
ATOM     20  C   UNL     1      26.512  24.650 -11.688  1.00  0.00     0.004 C 
ENDBRANCH  18  19
ENDBRANCH  17  18
ENDBRANCH  16  17
ENDBRANCH  15  16
ENDBRANCH  14  15
ENDBRANCH  13  14
ENDBRANCH  12  13
ENDBRANCH   1  12
TORSDOF 16
ENDMDL
MODEL 8
REMARK VINA RESULT:    -3.638      2.119      4.299
REMARK INTER + INTRA:          -9.946
REMARK INTER:                  -7.431
REMARK INTRA:                  -2.515
REMARK UNBOUND:                -2.906
REMARK SMILES CCCCCCCCCCCCCCCCCC(=O)[O-]
REMARK SMILES IDX 10 1 11 2 12 3 13 4 14 5 15 6 16 7 17 8 18 9 19 10 20 11
REMARK SMILES IDX 9 12 8 13 7 14 6 15 5 16 4 17 3 18 2 19 1 20
REMARK H PARENT
REMARK Flexibility Score: inf
ROOT
ATOM      1  C   UNL     1      26.987  28.513 -10.532  1.00  0.00     0.000 C 
ENDROOT
BRANCH   1   2
ATOM      2  C   UNL     1      25.536  28.288 -10.981  1.00  0.00     0.000 C 
BRANCH   2   3
ATOM      3  C   UNL     1      25.438  27.112 -11.966  1.00  0.00     0.000 C 
BRANCH   3   4
ATOM      4  C   UNL     1      26.822  26.519 -12.306  1.00  0.00     0.000 C 
BRANCH   4   5
ATOM      5  C   UNL     1      27.010  26.201 -13.802  1.00  0.00     0.000 C 
BRANCH   5   6
ATOM      6  C   UNL     1      26.046  25.142 -14.365  1.00  0.00     0.000 C 
BRANCH   6   7
ATOM      7  C   UNL     1      26.578  23.709 -14.211  1.00  0.00     0.006 C 
BRANCH   7   8
ATOM      8  C   UNL     1      25.671  22.888 -13.292  1.00  0.00     0.053 C 
BRANCH   8   9
ATOM      9  C   UNL     1      26.455  21.823 -12.591  1.00  0.00     0.041 C 
ATOM     10  O   UNL     1      26.102  20.617 -12.678  1.00  0.00    -0.550 OA
ATOM     11  O   UNL     1      27.602  22.156 -11.881  1.00  0.00    -0.550 OA
ENDBRANCH   8   9
ENDBRANCH   7   8
ENDBRANCH   6   7
ENDBRANCH   5   6
ENDBRANCH   4   5
ENDBRANCH   3   4
ENDBRANCH   2   3
ENDBRANCH   1   2
BRANCH   1  12
ATOM     12  C   UNL     1      27.302  29.992 -10.261  1.00  0.00     0.000 C 
BRANCH  12  13
ATOM     13  C   UNL     1      28.629  30.441 -10.899  1.00  0.00    -0.000 C 
BRANCH  13  14
ATOM     14  C   UNL     1      28.914  29.724 -12.231  1.00  0.00    -0.000 C 
BRANCH  14  15
ATOM     15  C   UNL     1      28.434  30.492 -13.478  1.00  0.00    -0.000 C 
BRANCH  15  16
ATOM     16  C   UNL     1      27.086  29.971 -14.008  1.00  0.00    -0.000 C 
BRANCH  16  17
ATOM     17  C   UNL     1      26.080  31.101 -14.277  1.00  0.00    -0.000 C 
BRANCH  17  18
ATOM     18  C   UNL     1      24.789  30.952 -13.458  1.00  0.00    -0.000 C 
BRANCH  18  19
ATOM     19  C   UNL     1      24.840  31.817 -12.193  1.00  0.00    -0.003 C 
ATOM     20  C   UNL     1      23.620  31.576 -11.310  1.00  0.00     0.004 C 
ENDBRANCH  18  19
ENDBRANCH  17  18
ENDBRANCH  16  17
ENDBRANCH  15  16
ENDBRANCH  14  15
ENDBRANCH  13  14
ENDBRANCH  12  13
ENDBRANCH   1  12
TORSDOF 16
ENDMDL
MODEL 9
REMARK VINA RESULT:    -3.636      3.014      5.851
REMARK INTER + INTRA:          -9.943
REMARK INTER:                  -7.253
REMARK INTRA:                  -2.690
REMARK UNBOUND:                -2.906
REMARK SMILES CCCCCCCCCCCCCCCCCC(=O)[O-]
REMARK SMILES IDX 10 1 11 2 12 3 13 4 14 5 15 6 16 7 17 8 18 9 19 10 20 11
REMARK SMILES IDX 9 12 8 13 7 14 6 15 5 16 4 17 3 18 2 19 1 20
REMARK H PARENT
REMARK Flexibility Score: inf
ROOT
ATOM      1  C   UNL     1      26.810  27.528 -11.422  1.00  0.00     0.000 C 
ENDROOT
BRANCH   1   2
ATOM      2  C   UNL     1      26.848  28.656 -10.381  1.00  0.00     0.000 C 
BRANCH   2   3
ATOM      3  C   UNL     1      27.658  29.857 -10.896  1.00  0.00     0.000 C 
BRANCH   3   4
ATOM      4  C   UNL     1      28.523  29.494 -12.122  1.00  0.00     0.000 C 
BRANCH   4   5
ATOM      5  C   UNL     1      28.402  30.497 -13.286  1.00  0.00     0.000 C 
BRANCH   5   6
ATOM      6  C   UNL     1      27.284  30.185 -14.296  1.00  0.00     0.000 C 
BRANCH   6   7
ATOM      7  C   UNL     1      26.175  31.247 -14.304  1.00  0.00     0.006 C 
BRANCH   7   8
ATOM      8  C   UNL     1      25.015  30.828 -13.397  1.00  0.00     0.053 C 
BRANCH   8   9
ATOM      9  C   UNL     1      24.051  31.959 -13.217  1.00  0.00     0.041 C 
ATOM     10  O   UNL     1      24.321  32.899 -12.423  1.00  0.00    -0.550 OA
ATOM     11  O   UNL     1      22.878  32.000 -13.960  1.00  0.00    -0.550 OA
ENDBRANCH   8   9
ENDBRANCH   7   8
ENDBRANCH   6   7
ENDBRANCH   5   6
ENDBRANCH   4   5
ENDBRANCH   3   4
ENDBRANCH   2   3
ENDBRANCH   1   2
BRANCH   1  12
ATOM     12  C   UNL     1      25.407  27.311 -12.012  1.00  0.00     0.000 C 
BRANCH  12  13
ATOM     13  C   UNL     1      25.430  27.127 -13.539  1.00  0.00    -0.000 C 
BRANCH  13  14
ATOM     14  C   UNL     1      26.517  26.137 -13.997  1.00  0.00    -0.000 C 
BRANCH  14  15
ATOM     15  C   UNL     1      25.970  24.872 -14.686  1.00  0.00    -0.000 C 
BRANCH  15  16
ATOM     16  C   UNL     1      26.579  23.580 -14.114  1.00  0.00    -0.000 C 
BRANCH  16  17
ATOM     17  C   UNL     1      27.495  23.841 -12.908  1.00  0.00    -0.000 C 
BRANCH  17  18
ATOM     18  C   UNL     1      27.103  23.011 -11.675  1.00  0.00    -0.000 C 
BRANCH  18  19
ATOM     19  C   UNL     1      26.352  23.872 -10.652  1.00  0.00    -0.003 C 
ATOM     20  C   UNL     1      24.850  23.860 -10.917  1.00  0.00     0.004 C 
ENDBRANCH  18  19
ENDBRANCH  17  18
ENDBRANCH  16  17
ENDBRANCH  15  16
ENDBRANCH  14  15
ENDBRANCH  13  14
ENDBRANCH  12  13
ENDBRANCH   1  12
TORSDOF 16
ENDMDL
