MODEL 1
REMARK VINA RESULT:    -6.479      0.000      0.000
REMARK INTER + INTRA:          -6.479
REMARK INTER:                  -6.479
REMARK INTRA:                   0.000
REMARK UNBOUND:                 0.000
REMARK SMILES C=C1CCC[C@@]2(C)C=C3OC(=O)C(C)=C3C[C@H]12
REMARK SMILES IDX 14 1 13 2 15 3 16 4 17 5 2 6 1 7 3 8 4 9 5 10 6 11 8 12 9 13
REMARK SMILES IDX 10 14 11 15 12 16 7 17
REMARK H PARENT
REMARK Flexibility Score: inf
ROOT
ATOM      1  C   UNL     1      -7.391 -57.234 -33.099  1.00  0.00     0.053 C 
ATOM      2  C   UNL     1      -7.263 -57.678 -34.520  1.00  0.00     0.041 C 
ATOM      3  C   UNL     1      -6.741 -56.981 -35.525  1.00  0.00     0.005 C 
ATOM      4  C   UNL     1      -6.216 -55.575 -35.533  1.00  0.00     0.049 C 
ATOM      5  C   UNL     1      -5.267 -55.406 -36.753  1.00  0.00     0.029 C 
ATOM      6  C   UNL     1      -4.700 -54.010 -36.972  1.00  0.00    -0.073 C 
ATOM      7  C   UNL     1      -4.978 -52.957 -36.182  1.00  0.00     0.008 C 
ATOM      8  C   UNL     1      -3.712 -53.866 -38.106  1.00  0.00     0.031 C 
ATOM      9  C   UNL     1      -4.283 -54.445 -39.408  1.00  0.00     0.005 C 
ATOM     10  C   UNL     1      -4.843 -55.868 -39.218  1.00  0.00     0.012 C 
ATOM     11  C   UNL     1      -5.902 -55.950 -38.086  1.00  0.00    -0.004 C 
ATOM     12  C   UNL     1      -6.321 -57.405 -37.904  1.00  0.00     0.027 C 
ATOM     13  C   UNL     1      -6.751 -57.820 -36.713  1.00  0.00     0.131 C 
ATOM     14  O   UNL     1      -7.256 -59.076 -36.409  1.00  0.00    -0.423 OA
ATOM     15  C   UNL     1      -7.573 -59.008 -35.057  1.00  0.00     0.339 C 
ATOM     16  O   UNL     1      -8.055 -59.967 -34.401  1.00  0.00    -0.246 OA
ATOM     17  C   UNL     1      -7.169 -55.149 -38.480  1.00  0.00     0.016 C 
ENDROOT
TORSDOF 0
ENDMDL
MODEL 2
REMARK VINA RESULT:    -6.444      3.246      5.543
REMARK INTER + INTRA:          -6.444
REMARK INTER:                  -6.444
REMARK INTRA:                   0.000
REMARK UNBOUND:                 0.000
REMARK SMILES C=C1CCC[C@@]2(C)C=C3OC(=O)C(C)=C3C[C@H]12
REMARK SMILES IDX 14 1 13 2 15 3 16 4 17 5 2 6 1 7 3 8 4 9 5 10 6 11 8 12 9 13
REMARK SMILES IDX 10 14 11 15 12 16 7 17
REMARK H PARENT
REMARK Flexibility Score: inf
ROOT
ATOM      1  C   UNL     1      -1.821 -57.989 -39.288  1.00  0.00     0.053 C 
ATOM      2  C   UNL     1      -2.698 -56.813 -39.574  1.00  0.00     0.041 C 
ATOM      3  C   UNL     1      -3.892 -56.567 -39.042  1.00  0.00     0.005 C 
ATOM      4  C   UNL     1      -4.699 -57.404 -38.093  1.00  0.00     0.049 C 
ATOM      5  C   UNL     1      -5.733 -56.488 -37.379  1.00  0.00     0.029 C 
ATOM      6  C   UNL     1      -6.703 -57.183 -36.433  1.00  0.00    -0.073 C 
ATOM      7  C   UNL     1      -6.701 -58.508 -36.201  1.00  0.00     0.008 C 
ATOM      8  C   UNL     1      -7.651 -56.283 -35.675  1.00  0.00     0.031 C 
ATOM      9  C   UNL     1      -8.389 -55.335 -36.631  1.00  0.00     0.005 C 
ATOM     10  C   UNL     1      -7.426 -54.601 -37.584  1.00  0.00     0.012 C 
ATOM     11  C   UNL     1      -6.520 -55.572 -38.388  1.00  0.00    -0.004 C 
ATOM     12  C   UNL     1      -5.538 -54.758 -39.222  1.00  0.00     0.027 C 
ATOM     13  C   UNL     1      -4.356 -55.283 -39.543  1.00  0.00     0.131 C 
ATOM     14  O   UNL     1      -3.397 -54.716 -40.369  1.00  0.00    -0.423 OA
ATOM     15  C   UNL     1      -2.364 -55.646 -40.396  1.00  0.00     0.339 C 
ATOM     16  O   UNL     1      -1.294 -55.487 -41.039  1.00  0.00    -0.246 OA
ATOM     17  C   UNL     1      -7.376 -56.413 -39.369  1.00  0.00     0.016 C 
ENDROOT
TORSDOF 0
ENDMDL
MODEL 3
REMARK VINA RESULT:    -6.426      2.228      4.976
REMARK INTER + INTRA:          -6.426
REMARK INTER:                  -6.426
REMARK INTRA:                   0.000
REMARK UNBOUND:                 0.000
REMARK SMILES C=C1CCC[C@@]2(C)C=C3OC(=O)C(C)=C3C[C@H]12
REMARK SMILES IDX 14 1 13 2 15 3 16 4 17 5 2 6 1 7 3 8 4 9 5 10 6 11 8 12 9 13
REMARK SMILES IDX 10 14 11 15 12 16 7 17
REMARK H PARENT
REMARK Flexibility Score: inf
ROOT
ATOM      1  C   UNL     1      -4.456 -54.876 -39.408  1.00  0.00     0.053 C 
ATOM      2  C   UNL     1      -5.779 -55.268 -38.835  1.00  0.00     0.041 C 
ATOM      3  C   UNL     1      -6.031 -55.594 -37.571  1.00  0.00     0.005 C 
ATOM      4  C   UNL     1      -5.081 -55.723 -36.416  1.00  0.00     0.049 C 
ATOM      5  C   UNL     1      -5.888 -55.607 -35.093  1.00  0.00     0.029 C 
ATOM      6  C   UNL     1      -5.096 -55.798 -33.806  1.00  0.00    -0.073 C 
ATOM      7  C   UNL     1      -3.776 -56.056 -33.772  1.00  0.00     0.008 C 
ATOM      8  C   UNL     1      -5.863 -55.600 -32.519  1.00  0.00     0.031 C 
ATOM      9  C   UNL     1      -7.148 -56.440 -32.512  1.00  0.00     0.005 C 
ATOM     10  C   UNL     1      -7.980 -56.245 -33.795  1.00  0.00     0.012 C 
ATOM     11  C   UNL     1      -7.166 -56.525 -35.087  1.00  0.00    -0.004 C 
ATOM     12  C   UNL     1      -8.036 -56.210 -36.298  1.00  0.00     0.027 C 
ATOM     13  C   UNL     1      -7.459 -55.834 -37.440  1.00  0.00     0.131 C 
ATOM     14  O   UNL     1      -8.097 -55.607 -38.651  1.00  0.00    -0.423 OA
ATOM     15  C   UNL     1      -7.075 -55.252 -39.523  1.00  0.00     0.339 C 
ATOM     16  O   UNL     1      -7.256 -54.956 -40.733  1.00  0.00    -0.246 OA
ATOM     17  C   UNL     1      -6.786 -58.026 -35.165  1.00  0.00     0.016 C 
ENDROOT
TORSDOF 0
ENDMDL
MODEL 4
REMARK VINA RESULT:    -6.326     11.407     14.725
REMARK INTER + INTRA:          -6.326
REMARK INTER:                  -6.326
REMARK INTRA:                   0.000
REMARK UNBOUND:                 0.000
REMARK SMILES C=C1CCC[C@@]2(C)C=C3OC(=O)C(C)=C3C[C@H]12
REMARK SMILES IDX 14 1 13 2 15 3 16 4 17 5 2 6 1 7 3 8 4 9 5 10 6 11 8 12 9 13
REMARK SMILES IDX 10 14 11 15 12 16 7 17
REMARK H PARENT
REMARK Flexibility Score: inf
ROOT
ATOM      1  C   UNL     1      -5.388 -64.681 -29.201  1.00  0.00     0.053 C 
ATOM      2  C   UNL     1      -6.412 -65.711 -29.555  1.00  0.00     0.041 C 
ATOM      3  C   UNL     1      -7.239 -66.327 -28.717  1.00  0.00     0.005 C 
ATOM      4  C   UNL     1      -7.330 -66.221 -27.223  1.00  0.00     0.049 C 
ATOM      5  C   UNL     1      -8.739 -66.704 -26.775  1.00  0.00     0.029 C 
ATOM      6  C   UNL     1      -8.987 -66.745 -25.273  1.00  0.00    -0.073 C 
ATOM      7  C   UNL     1      -8.069 -66.394 -24.354  1.00  0.00     0.008 C 
ATOM      8  C   UNL     1     -10.382 -67.131 -24.841  1.00  0.00     0.031 C 
ATOM      9  C   UNL     1     -10.822 -68.440 -25.513  1.00  0.00     0.005 C 
ATOM     10  C   UNL     1     -10.602 -68.414 -27.039  1.00  0.00     0.012 C 
ATOM     11  C   UNL     1      -9.138 -68.078 -27.430  1.00  0.00    -0.004 C 
ATOM     12  C   UNL     1      -9.042 -67.976 -28.948  1.00  0.00     0.027 C 
ATOM     13  C   UNL     1      -8.112 -67.192 -29.495  1.00  0.00     0.131 C 
ATOM     14  O   UNL     1      -7.832 -67.065 -30.848  1.00  0.00    -0.423 OA
ATOM     15  C   UNL     1      -6.786 -66.150 -30.904  1.00  0.00     0.339 C 
ATOM     16  O   UNL     1      -6.252 -65.761 -31.974  1.00  0.00    -0.246 OA
ATOM     17  C   UNL     1      -8.189 -69.217 -26.980  1.00  0.00     0.016 C 
ENDROOT
TORSDOF 0
ENDMDL
MODEL 5
REMARK VINA RESULT:    -6.185      2.163      3.328
REMARK INTER + INTRA:          -6.185
REMARK INTER:                  -6.185
REMARK INTRA:                   0.000
REMARK UNBOUND:                 0.000
REMARK SMILES C=C1CCC[C@@]2(C)C=C3OC(=O)C(C)=C3C[C@H]12
REMARK SMILES IDX 14 1 13 2 15 3 16 4 17 5 2 6 1 7 3 8 4 9 5 10 6 11 8 12 9 13
REMARK SMILES IDX 10 14 11 15 12 16 7 17
REMARK H PARENT
REMARK Flexibility Score: inf
ROOT
ATOM      1  C   UNL     1      -8.345 -56.715 -34.596  1.00  0.00     0.053 C 
ATOM      2  C   UNL     1      -7.003 -56.169 -34.962  1.00  0.00     0.041 C 
ATOM      3  C   UNL     1      -6.554 -55.924 -36.190  1.00  0.00     0.005 C 
ATOM      4  C   UNL     1      -7.215 -56.183 -37.511  1.00  0.00     0.049 C 
ATOM      5  C   UNL     1      -6.550 -55.277 -38.586  1.00  0.00     0.029 C 
ATOM      6  C   UNL     1      -7.039 -55.464 -40.016  1.00  0.00    -0.073 C 
ATOM      7  C   UNL     1      -7.988 -56.349 -40.372  1.00  0.00     0.008 C 
ATOM      8  C   UNL     1      -6.455 -54.524 -41.045  1.00  0.00     0.031 C 
ATOM      9  C   UNL     1      -4.921 -54.523 -40.978  1.00  0.00     0.005 C 
ATOM     10  C   UNL     1      -4.400 -54.312 -39.543  1.00  0.00     0.012 C 
ATOM     11  C   UNL     1      -4.979 -55.343 -38.536  1.00  0.00    -0.004 C 
ATOM     12  C   UNL     1      -4.490 -54.995 -37.135  1.00  0.00     0.027 C 
ATOM     13  C   UNL     1      -5.230 -55.332 -36.079  1.00  0.00     0.131 C 
ATOM     14  O   UNL     1      -4.885 -55.175 -34.744  1.00  0.00    -0.423 OA
ATOM     15  C   UNL     1      -5.970 -55.683 -34.040  1.00  0.00     0.339 C 
ATOM     16  O   UNL     1      -6.041 -55.709 -32.784  1.00  0.00    -0.246 OA
ATOM     17  C   UNL     1      -4.459 -56.765 -38.869  1.00  0.00     0.016 C 
ENDROOT
TORSDOF 0
ENDMDL
MODEL 6
REMARK VINA RESULT:    -6.078      2.902      5.597
REMARK INTER + INTRA:          -6.078
REMARK INTER:                  -6.078
REMARK INTRA:                   0.000
REMARK UNBOUND:                 0.000
REMARK SMILES C=C1CCC[C@@]2(C)C=C3OC(=O)C(C)=C3C[C@H]12
REMARK SMILES IDX 14 1 13 2 15 3 16 4 17 5 2 6 1 7 3 8 4 9 5 10 6 11 8 12 9 13
REMARK SMILES IDX 10 14 11 15 12 16 7 17
REMARK H PARENT
REMARK Flexibility Score: inf
ROOT
ATOM      1  C   UNL     1      -4.260 -54.188 -41.022  1.00  0.00     0.053 C 
ATOM      2  C   UNL     1      -3.650 -55.110 -40.015  1.00  0.00     0.041 C 
ATOM      3  C   UNL     1      -4.229 -55.574 -38.912  1.00  0.00     0.005 C 
ATOM      4  C   UNL     1      -5.584 -55.262 -38.348  1.00  0.00     0.049 C 
ATOM      5  C   UNL     1      -5.994 -56.405 -37.377  1.00  0.00     0.029 C 
ATOM      6  C   UNL     1      -7.314 -56.218 -36.641  1.00  0.00    -0.073 C 
ATOM      7  C   UNL     1      -8.108 -55.143 -36.790  1.00  0.00     0.008 C 
ATOM      8  C   UNL     1      -7.753 -57.368 -35.764  1.00  0.00     0.031 C 
ATOM      9  C   UNL     1      -6.632 -57.782 -34.800  1.00  0.00     0.005 C 
ATOM     10  C   UNL     1      -5.290 -58.001 -35.526  1.00  0.00     0.012 C 
ATOM     11  C   UNL     1      -4.850 -56.767 -36.359  1.00  0.00    -0.004 C 
ATOM     12  C   UNL     1      -3.573 -57.112 -37.117  1.00  0.00     0.027 C 
ATOM     13  C   UNL     1      -3.305 -56.494 -38.268  1.00  0.00     0.131 C 
ATOM     14  O   UNL     1      -2.149 -56.621 -39.024  1.00  0.00    -0.423 OA
ATOM     15  C   UNL     1      -2.347 -55.776 -40.110  1.00  0.00     0.339 C 
ATOM     16  O   UNL     1      -1.513 -55.622 -41.039  1.00  0.00    -0.246 OA
ATOM     17  C   UNL     1      -4.527 -55.576 -35.422  1.00  0.00     0.016 C 
ENDROOT
TORSDOF 0
ENDMDL
MODEL 7
REMARK VINA RESULT:    -6.067      2.884      5.405
REMARK INTER + INTRA:          -6.067
REMARK INTER:                  -6.067
REMARK INTRA:                   0.000
REMARK UNBOUND:                 0.000
REMARK SMILES C=C1CCC[C@@]2(C)C=C3OC(=O)C(C)=C3C[C@H]12
REMARK SMILES IDX 14 1 13 2 15 3 16 4 17 5 2 6 1 7 3 8 4 9 5 10 6 11 8 12 9 13
REMARK SMILES IDX 10 14 11 15 12 16 7 17
REMARK H PARENT
REMARK Flexibility Score: inf
ROOT
ATOM      1  C   UNL     1      -7.165 -55.252 -40.289  1.00  0.00     0.053 C 
ATOM      2  C   UNL     1      -5.969 -54.935 -39.450  1.00  0.00     0.041 C 
ATOM      3  C   UNL     1      -5.855 -55.101 -38.135  1.00  0.00     0.005 C 
ATOM      4  C   UNL     1      -6.882 -55.569 -37.146  1.00  0.00     0.049 C 
ATOM      5  C   UNL     1      -6.148 -56.083 -35.875  1.00  0.00     0.029 C 
ATOM      6  C   UNL     1      -7.038 -56.525 -34.721  1.00  0.00    -0.073 C 
ATOM      7  C   UNL     1      -8.382 -56.489 -34.756  1.00  0.00     0.008 C 
ATOM      8  C   UNL     1      -6.327 -57.104 -33.519  1.00  0.00     0.031 C 
ATOM      9  C   UNL     1      -5.214 -56.163 -33.035  1.00  0.00     0.005 C 
ATOM     10  C   UNL     1      -4.285 -55.720 -34.182  1.00  0.00     0.012 C 
ATOM     11  C   UNL     1      -5.057 -55.072 -35.363  1.00  0.00    -0.004 C 
ATOM     12  C   UNL     1      -4.073 -54.760 -36.485  1.00  0.00     0.027 C 
ATOM     13  C   UNL     1      -4.503 -54.734 -37.747  1.00  0.00     0.131 C 
ATOM     14  O   UNL     1      -3.763 -54.376 -38.864  1.00  0.00    -0.423 OA
ATOM     15  C   UNL     1      -4.652 -54.498 -39.926  1.00  0.00     0.339 C 
ATOM     16  O   UNL     1      -4.348 -54.266 -41.125  1.00  0.00    -0.246 OA
ATOM     17  C   UNL     1      -5.690 -53.730 -34.916  1.00  0.00     0.016 C 
ENDROOT
TORSDOF 0
ENDMDL
MODEL 8
REMARK VINA RESULT:    -6.052      3.834      5.292
REMARK INTER + INTRA:          -6.052
REMARK INTER:                  -6.052
REMARK INTRA:                   0.000
REMARK UNBOUND:                 0.000
REMARK SMILES C=C1CCC[C@@]2(C)C=C3OC(=O)C(C)=C3C[C@H]12
REMARK SMILES IDX 14 1 13 2 15 3 16 4 17 5 2 6 1 7 3 8 4 9 5 10 6 11 8 12 9 13
REMARK SMILES IDX 10 14 11 15 12 16 7 17
REMARK H PARENT
REMARK Flexibility Score: inf
ROOT
ATOM      1  C   UNL     1      -2.837 -51.892 -32.273  1.00  0.00     0.053 C 
ATOM      2  C   UNL     1      -3.188 -53.330 -32.483  1.00  0.00     0.041 C 
ATOM      3  C   UNL     1      -4.214 -53.801 -33.185  1.00  0.00     0.005 C 
ATOM      4  C   UNL     1      -5.313 -53.052 -33.880  1.00  0.00     0.049 C 
ATOM      5  C   UNL     1      -5.942 -53.979 -34.958  1.00  0.00     0.029 C 
ATOM      6  C   UNL     1      -7.136 -53.413 -35.715  1.00  0.00    -0.073 C 
ATOM      7  C   UNL     1      -7.649 -52.189 -35.494  1.00  0.00     0.008 C 
ATOM      8  C   UNL     1      -7.693 -54.280 -36.820  1.00  0.00     0.031 C 
ATOM      9  C   UNL     1      -7.979 -55.700 -36.312  1.00  0.00     0.005 C 
ATOM     10  C   UNL     1      -6.776 -56.305 -35.562  1.00  0.00     0.012 C 
ATOM     11  C   UNL     1      -6.284 -55.408 -34.394  1.00  0.00    -0.004 C 
ATOM     12  C   UNL     1      -5.036 -56.034 -33.781  1.00  0.00     0.027 C 
ATOM     13  C   UNL     1      -4.134 -55.253 -33.187  1.00  0.00     0.131 C 
ATOM     14  O   UNL     1      -3.003 -55.672 -32.501  1.00  0.00    -0.423 OA
ATOM     15  C   UNL     1      -2.404 -54.497 -32.063  1.00  0.00     0.339 C 
ATOM     16  O   UNL     1      -1.334 -54.459 -31.403  1.00  0.00    -0.246 OA
ATOM     17  C   UNL     1      -7.361 -55.337 -33.283  1.00  0.00     0.016 C 
ENDROOT
TORSDOF 0
ENDMDL
MODEL 9
REMARK VINA RESULT:    -5.891      3.308      5.526
REMARK INTER + INTRA:          -5.891
REMARK INTER:                  -5.891
REMARK INTRA:                   0.000
REMARK UNBOUND:                 0.000
REMARK SMILES C=C1CCC[C@@]2(C)C=C3OC(=O)C(C)=C3C[C@H]12
REMARK SMILES IDX 14 1 13 2 15 3 16 4 17 5 2 6 1 7 3 8 4 9 5 10 6 11 8 12 9 13
REMARK SMILES IDX 10 14 11 15 12 16 7 17
REMARK H PARENT
REMARK Flexibility Score: inf
ROOT
ATOM      1  C   UNL     1      -4.135 -51.881 -34.683  1.00  0.00     0.053 C 
ATOM      2  C   UNL     1      -4.355 -53.054 -33.783  1.00  0.00     0.041 C 
ATOM      3  C   UNL     1      -5.098 -54.126 -34.044  1.00  0.00     0.005 C 
ATOM      4  C   UNL     1      -5.952 -54.420 -35.242  1.00  0.00     0.049 C 
ATOM      5  C   UNL     1      -6.185 -55.955 -35.321  1.00  0.00     0.029 C 
ATOM      6  C   UNL     1      -7.105 -56.436 -36.435  1.00  0.00    -0.073 C 
ATOM      7  C   UNL     1      -7.702 -55.616 -37.319  1.00  0.00     0.008 C 
ATOM      8  C   UNL     1      -7.263 -57.934 -36.565  1.00  0.00     0.031 C 
ATOM      9  C   UNL     1      -7.644 -58.564 -35.218  1.00  0.00     0.005 C 
ATOM     10  C   UNL     1      -6.712 -58.110 -34.077  1.00  0.00     0.012 C 
ATOM     11  C   UNL     1      -6.636 -56.565 -33.942  1.00  0.00    -0.004 C 
ATOM     12  C   UNL     1      -5.619 -56.212 -32.863  1.00  0.00     0.027 C 
ATOM     13  C   UNL     1      -4.972 -55.048 -32.927  1.00  0.00     0.131 C 
ATOM     14  O   UNL     1      -4.094 -54.539 -31.980  1.00  0.00    -0.423 OA
ATOM     15  C   UNL     1      -3.700 -53.309 -32.495  1.00  0.00     0.339 C 
ATOM     16  O   UNL     1      -2.888 -52.537 -31.923  1.00  0.00    -0.246 OA
ATOM     17  C   UNL     1      -8.006 -55.999 -33.492  1.00  0.00     0.016 C 
ENDROOT
TORSDOF 0
ENDMDL
