MODEL 1
REMARK VINA RESULT:    -3.124      0.000      0.000
REMARK INTER + INTRA:          -8.255
REMARK INTER:                  -5.680
REMARK INTRA:                  -2.575
REMARK UNBOUND:                -2.575
REMARK SMILES CCCCCCCCCCCCCC[C@H](C)C(=O)[O-]
REMARK SMILES IDX 9 1 10 2 11 3 12 4 13 5 14 6 15 7 16 8 17 9 18 10 19 11 8 12
REMARK SMILES IDX 7 13 6 14 5 15 4 16 3 17 2 18 1 19
REMARK H PARENT
REMARK Flexibility Score: inf
ROOT
ATOM      1  C   UNL     1      -5.151  -5.109   7.429  1.00  0.00     0.000 C 
ENDROOT
BRANCH   1   2
ATOM      2  C   UNL     1      -4.495  -5.188   8.817  1.00  0.00     0.000 C 
BRANCH   2   3
ATOM      3  C   UNL     1      -5.014  -6.375   9.647  1.00  0.00     0.000 C 
BRANCH   3   4
ATOM      4  C   UNL     1      -5.692  -7.453   8.785  1.00  0.00     0.000 C 
BRANCH   4   5
ATOM      5  C   UNL     1      -4.820  -8.689   8.486  1.00  0.00     0.001 C 
BRANCH   5   6
ATOM      6  C   UNL     1      -4.398  -8.859   7.012  1.00  0.00     0.009 C 
BRANCH   6   7
ATOM      7  C   UNL     1      -2.878  -8.755   6.753  1.00  0.00     0.032 C 
ATOM      8  C   UNL     1      -2.157  -7.934   7.830  1.00  0.00     0.014 C 
BRANCH   7   9
ATOM      9  C   UNL     1      -2.643  -8.135   5.402  1.00  0.00     0.044 C 
ATOM     10  O   UNL     1      -2.757  -6.891   5.248  1.00  0.00    -0.550 OA
ATOM     11  O   UNL     1      -2.282  -8.928   4.319  1.00  0.00    -0.550 OA
ENDBRANCH   7   9
ENDBRANCH   6   7
ENDBRANCH   5   6
ENDBRANCH   4   5
ENDBRANCH   3   4
ENDBRANCH   2   3
ENDBRANCH   1   2
BRANCH   1  12
ATOM     12  C   UNL     1      -5.770  -3.727   7.149  1.00  0.00     0.000 C 
BRANCH  12  13
ATOM     13  C   UNL     1      -6.166  -2.983   8.434  1.00  0.00    -0.000 C 
BRANCH  13  14
ATOM     14  C   UNL     1      -7.680  -3.042   8.706  1.00  0.00    -0.000 C 
BRANCH  14  15
ATOM     15  C   UNL     1      -8.090  -4.275   9.532  1.00  0.00    -0.000 C 
BRANCH  15  16
ATOM     16  C   UNL     1      -8.768  -5.407   8.733  1.00  0.00    -0.000 C 
BRANCH  16  17
ATOM     17  C   UNL     1      -9.358  -4.986   7.375  1.00  0.00    -0.000 C 
BRANCH  17  18
ATOM     18  C   UNL     1      -8.690  -5.696   6.189  1.00  0.00    -0.003 C 
ATOM     19  C   UNL     1      -8.686  -4.806   4.949  1.00  0.00     0.004 C 
ENDBRANCH  17  18
ENDBRANCH  16  17
ENDBRANCH  15  16
ENDBRANCH  14  15
ENDBRANCH  13  14
ENDBRANCH  12  13
ENDBRANCH   1  12
TORSDOF 14
ENDMDL
MODEL 2
REMARK VINA RESULT:    -3.020      0.988      1.645
REMARK INTER + INTRA:          -8.067
REMARK INTER:                  -5.828
REMARK INTRA:                  -2.239
REMARK UNBOUND:                -2.575
REMARK SMILES CCCCCCCCCCCCCC[C@H](C)C(=O)[O-]
REMARK SMILES IDX 9 1 10 2 11 3 12 4 13 5 14 6 15 7 16 8 17 9 18 10 19 11 8 12
REMARK SMILES IDX 7 13 6 14 5 15 4 16 3 17 2 18 1 19
REMARK H PARENT
REMARK Flexibility Score: inf
ROOT
ATOM      1  C   UNL     1      -5.920  -3.751   7.119  1.00  0.00     0.000 C 
ENDROOT
BRANCH   1   2
ATOM      2  C   UNL     1      -4.888  -4.877   7.288  1.00  0.00     0.000 C 
BRANCH   2   3
ATOM      3  C   UNL     1      -4.554  -5.154   8.764  1.00  0.00     0.000 C 
BRANCH   3   4
ATOM      4  C   UNL     1      -4.850  -6.605   9.179  1.00  0.00     0.000 C 
BRANCH   4   5
ATOM      5  C   UNL     1      -3.606  -7.442   9.542  1.00  0.00     0.001 C 
BRANCH   5   6
ATOM      6  C   UNL     1      -2.465  -7.414   8.504  1.00  0.00     0.009 C 
BRANCH   6   7
ATOM      7  C   UNL     1      -2.541  -8.517   7.423  1.00  0.00     0.032 C 
ATOM      8  C   UNL     1      -1.152  -8.992   6.976  1.00  0.00     0.014 C 
BRANCH   7   9
ATOM      9  C   UNL     1      -3.306  -8.000   6.235  1.00  0.00     0.044 C 
ATOM     10  O   UNL     1      -4.489  -8.380   6.030  1.00  0.00    -0.550 OA
ATOM     11  O   UNL     1      -2.720  -7.089   5.364  1.00  0.00    -0.550 OA
ENDBRANCH   7   9
ENDBRANCH   6   7
ENDBRANCH   5   6
ENDBRANCH   4   5
ENDBRANCH   3   4
ENDBRANCH   2   3
ENDBRANCH   1   2
BRANCH   1  12
ATOM     12  C   UNL     1      -6.130  -2.946   8.414  1.00  0.00     0.000 C 
BRANCH  12  13
ATOM     13  C   UNL     1      -7.594  -2.942   8.879  1.00  0.00    -0.000 C 
BRANCH  13  14
ATOM     14  C   UNL     1      -8.007  -4.269   9.539  1.00  0.00    -0.000 C 
BRANCH  14  15
ATOM     15  C   UNL     1      -9.028  -5.061   8.701  1.00  0.00    -0.000 C 
BRANCH  15  16
ATOM     16  C   UNL     1      -8.524  -6.413   8.157  1.00  0.00    -0.000 C 
BRANCH  16  17
ATOM     17  C   UNL     1      -8.239  -6.442   6.644  1.00  0.00    -0.000 C 
BRANCH  17  18
ATOM     18  C   UNL     1      -9.309  -5.711   5.821  1.00  0.00    -0.003 C 
ATOM     19  C   UNL     1      -8.672  -4.742   4.830  1.00  0.00     0.004 C 
ENDBRANCH  17  18
ENDBRANCH  16  17
ENDBRANCH  15  16
ENDBRANCH  14  15
ENDBRANCH  13  14
ENDBRANCH  12  13
ENDBRANCH   1  12
TORSDOF 14
ENDMDL
MODEL 3
REMARK VINA RESULT:    -2.976      1.565      2.741
REMARK INTER + INTRA:          -7.987
REMARK INTER:                  -5.659
REMARK INTRA:                  -2.328
REMARK UNBOUND:                -2.575
REMARK SMILES CCCCCCCCCCCCCC[C@H](C)C(=O)[O-]
REMARK SMILES IDX 9 1 10 2 11 3 12 4 13 5 14 6 15 7 16 8 17 9 18 10 19 11 8 12
REMARK SMILES IDX 7 13 6 14 5 15 4 16 3 17 2 18 1 19
REMARK H PARENT
REMARK Flexibility Score: inf
ROOT
ATOM      1  C   UNL     1      -6.356  -5.202   7.437  1.00  0.00     0.000 C 
ENDROOT
BRANCH   1   2
ATOM      2  C   UNL     1      -4.902  -4.852   7.789  1.00  0.00     0.000 C 
BRANCH   2   3
ATOM      3  C   UNL     1      -4.513  -5.303   9.207  1.00  0.00     0.000 C 
BRANCH   3   4
ATOM      4  C   UNL     1      -3.497  -6.458   9.207  1.00  0.00     0.000 C 
BRANCH   4   5
ATOM      5  C   UNL     1      -4.118  -7.868   9.276  1.00  0.00     0.001 C 
BRANCH   5   6
ATOM      6  C   UNL     1      -3.708  -8.826   8.139  1.00  0.00     0.009 C 
BRANCH   6   7
ATOM      7  C   UNL     1      -3.998  -8.307   6.712  1.00  0.00     0.032 C 
ATOM      8  C   UNL     1      -4.584  -9.394   5.803  1.00  0.00     0.014 C 
BRANCH   7   9
ATOM      9  C   UNL     1      -2.728  -7.772   6.108  1.00  0.00     0.044 C 
ATOM     10  O   UNL     1      -2.774  -6.852   5.250  1.00  0.00    -0.550 OA
ATOM     11  O   UNL     1      -1.495  -8.276   6.503  1.00  0.00    -0.550 OA
ENDBRANCH   7   9
ENDBRANCH   6   7
ENDBRANCH   5   6
ENDBRANCH   4   5
ENDBRANCH   3   4
ENDBRANCH   2   3
ENDBRANCH   1   2
BRANCH   1  12
ATOM     12  C   UNL     1      -7.113  -5.830   8.622  1.00  0.00     0.000 C 
BRANCH  12  13
ATOM     13  C   UNL     1      -8.338  -6.644   8.179  1.00  0.00    -0.000 C 
BRANCH  13  14
ATOM     14  C   UNL     1      -7.949  -7.962   7.486  1.00  0.00    -0.000 C 
BRANCH  14  15
ATOM     15  C   UNL     1      -8.183  -7.929   5.964  1.00  0.00    -0.000 C 
BRANCH  15  16
ATOM     16  C   UNL     1      -9.422  -7.133   5.505  1.00  0.00    -0.000 C 
BRANCH  16  17
ATOM     17  C   UNL     1      -9.217  -6.276   4.243  1.00  0.00    -0.000 C 
BRANCH  17  18
ATOM     18  C   UNL     1      -8.734  -4.853   4.559  1.00  0.00    -0.003 C 
ATOM     19  C   UNL     1      -9.574  -4.222   5.665  1.00  0.00     0.004 C 
ENDBRANCH  17  18
ENDBRANCH  16  17
ENDBRANCH  15  16
ENDBRANCH  14  15
ENDBRANCH  13  14
ENDBRANCH  12  13
ENDBRANCH   1  12
TORSDOF 14
ENDMDL
MODEL 4
REMARK VINA RESULT:    -2.932     19.403     21.194
REMARK INTER + INTRA:          -7.907
REMARK INTER:                  -6.404
REMARK INTRA:                  -1.503
REMARK UNBOUND:                -2.575
REMARK SMILES CCCCCCCCCCCCCC[C@H](C)C(=O)[O-]
REMARK SMILES IDX 9 1 10 2 11 3 12 4 13 5 14 6 15 7 16 8 17 9 18 10 19 11 8 12
REMARK SMILES IDX 7 13 6 14 5 15 4 16 3 17 2 18 1 19
REMARK H PARENT
REMARK Flexibility Score: inf
ROOT
ATOM      1  C   UNL     1       7.912   7.313  -3.235  1.00  0.00     0.000 C 
ENDROOT
BRANCH   1   2
ATOM      2  C   UNL     1       8.203   6.397  -4.434  1.00  0.00     0.000 C 
BRANCH   2   3
ATOM      3  C   UNL     1       7.896   7.073  -5.781  1.00  0.00     0.000 C 
BRANCH   3   4
ATOM      4  C   UNL     1       6.529   6.664  -6.355  1.00  0.00     0.000 C 
BRANCH   4   5
ATOM      5  C   UNL     1       6.040   5.264  -5.931  1.00  0.00     0.001 C 
BRANCH   5   6
ATOM      6  C   UNL     1       6.213   4.155  -6.989  1.00  0.00     0.009 C 
BRANCH   6   7
ATOM      7  C   UNL     1       5.091   3.093  -7.010  1.00  0.00     0.032 C 
ATOM      8  C   UNL     1       4.117   3.249  -5.836  1.00  0.00     0.014 C 
BRANCH   7   9
ATOM      9  C   UNL     1       5.703   1.718  -6.981  1.00  0.00     0.044 C 
ATOM     10  O   UNL     1       5.627   1.014  -5.941  1.00  0.00    -0.550 OA
ATOM     11  O   UNL     1       6.341   1.209  -8.106  1.00  0.00    -0.550 OA
ENDBRANCH   7   9
ENDBRANCH   6   7
ENDBRANCH   5   6
ENDBRANCH   4   5
ENDBRANCH   3   4
ENDBRANCH   2   3
ENDBRANCH   1   2
BRANCH   1  12
ATOM     12  C   UNL     1       6.481   7.136  -2.693  1.00  0.00     0.000 C 
BRANCH  12  13
ATOM     13  C   UNL     1       5.611   8.385  -2.898  1.00  0.00    -0.000 C 
BRANCH  13  14
ATOM     14  C   UNL     1       6.011   9.542  -1.965  1.00  0.00    -0.000 C 
BRANCH  14  15
ATOM     15  C   UNL     1       5.159   9.599  -0.684  1.00  0.00    -0.000 C 
BRANCH  15  16
ATOM     16  C   UNL     1       5.953   9.556   0.638  1.00  0.00    -0.000 C 
BRANCH  16  17
ATOM     17  C   UNL     1       7.170   8.613   0.638  1.00  0.00    -0.000 C 
BRANCH  17  18
ATOM     18  C   UNL     1       8.497   9.352   0.859  1.00  0.00    -0.003 C 
ATOM     19  C   UNL     1       9.284   9.469  -0.443  1.00  0.00     0.004 C 
ENDBRANCH  17  18
ENDBRANCH  16  17
ENDBRANCH  15  16
ENDBRANCH  14  15
ENDBRANCH  13  14
ENDBRANCH  12  13
ENDBRANCH   1  12
TORSDOF 14
ENDMDL
MODEL 5
REMARK VINA RESULT:    -2.913      1.510      2.765
REMARK INTER + INTRA:          -7.873
REMARK INTER:                  -6.047
REMARK INTRA:                  -1.826
REMARK UNBOUND:                -2.575
REMARK SMILES CCCCCCCCCCCCCC[C@H](C)C(=O)[O-]
REMARK SMILES IDX 9 1 10 2 11 3 12 4 13 5 14 6 15 7 16 8 17 9 18 10 19 11 8 12
REMARK SMILES IDX 7 13 6 14 5 15 4 16 3 17 2 18 1 19
REMARK H PARENT
REMARK Flexibility Score: inf
ROOT
ATOM      1  C   UNL     1      -5.599  -4.042   7.118  1.00  0.00     0.000 C 
ENDROOT
BRANCH   1   2
ATOM      2  C   UNL     1      -5.830  -3.427   8.507  1.00  0.00     0.000 C 
BRANCH   2   3
ATOM      3  C   UNL     1      -5.151  -4.231   9.629  1.00  0.00     0.000 C 
BRANCH   3   4
ATOM      4  C   UNL     1      -5.429  -5.741   9.531  1.00  0.00     0.000 C 
BRANCH   4   5
ATOM      5  C   UNL     1      -4.271  -6.646   9.998  1.00  0.00     0.001 C 
BRANCH   5   6
ATOM      6  C   UNL     1      -3.217  -6.977   8.922  1.00  0.00     0.009 C 
BRANCH   6   7
ATOM      7  C   UNL     1      -3.785  -7.216   7.505  1.00  0.00     0.032 C 
ATOM      8  C   UNL     1      -4.677  -8.463   7.436  1.00  0.00     0.014 C 
BRANCH   7   9
ATOM      9  C   UNL     1      -2.650  -7.351   6.527  1.00  0.00     0.044 C 
ATOM     10  O   UNL     1      -1.568  -7.887   6.883  1.00  0.00    -0.550 OA
ATOM     11  O   UNL     1      -2.791  -6.900   5.220  1.00  0.00    -0.550 OA
ENDBRANCH   7   9
ENDBRANCH   6   7
ENDBRANCH   5   6
ENDBRANCH   4   5
ENDBRANCH   3   4
ENDBRANCH   2   3
ENDBRANCH   1   2
BRANCH   1  12
ATOM     12  C   UNL     1      -6.915  -4.434   6.422  1.00  0.00     0.000 C 
BRANCH  12  13
ATOM     13  C   UNL     1      -8.157  -4.026   7.230  1.00  0.00    -0.000 C 
BRANCH  13  14
ATOM     14  C   UNL     1      -9.453  -4.112   6.404  1.00  0.00    -0.000 C 
BRANCH  14  15
ATOM     15  C   UNL     1      -9.195  -4.434   4.920  1.00  0.00    -0.000 C 
BRANCH  15  16
ATOM     16  C   UNL     1     -10.107  -5.521   4.314  1.00  0.00    -0.000 C 
BRANCH  16  17
ATOM     17  C   UNL     1      -9.466  -6.915   4.190  1.00  0.00    -0.000 C 
BRANCH  17  18
ATOM     18  C   UNL     1      -9.601  -7.750   5.472  1.00  0.00    -0.003 C 
ATOM     19  C   UNL     1      -8.275  -7.820   6.222  1.00  0.00     0.004 C 
ENDBRANCH  17  18
ENDBRANCH  16  17
ENDBRANCH  15  16
ENDBRANCH  14  15
ENDBRANCH  13  14
ENDBRANCH  12  13
ENDBRANCH   1  12
TORSDOF 14
ENDMDL
MODEL 6
REMARK VINA RESULT:    -2.905     18.875     21.707
REMARK INTER + INTRA:          -7.858
REMARK INTER:                  -5.303
REMARK INTRA:                  -2.555
REMARK UNBOUND:                -2.575
REMARK SMILES CCCCCCCCCCCCCC[C@H](C)C(=O)[O-]
REMARK SMILES IDX 9 1 10 2 11 3 12 4 13 5 14 6 15 7 16 8 17 9 18 10 19 11 8 12
REMARK SMILES IDX 7 13 6 14 5 15 4 16 3 17 2 18 1 19
REMARK H PARENT
REMARK Flexibility Score: inf
ROOT
ATOM      1  C   UNL     1       8.861   0.004  -9.472  1.00  0.00     0.000 C 
ENDROOT
BRANCH   1   2
ATOM      2  C   UNL     1       9.960   0.646  -8.610  1.00  0.00     0.000 C 
BRANCH   2   3
ATOM      3  C   UNL     1       9.726   0.436  -7.104  1.00  0.00     0.000 C 
BRANCH   3   4
ATOM      4  C   UNL     1       9.595   1.760  -6.332  1.00  0.00     0.000 C 
BRANCH   4   5
ATOM      5  C   UNL     1       9.669   3.030  -7.204  1.00  0.00     0.001 C 
BRANCH   5   6
ATOM      6  C   UNL     1       8.468   3.989  -7.076  1.00  0.00     0.009 C 
BRANCH   6   7
ATOM      7  C   UNL     1       7.087   3.342  -7.329  1.00  0.00     0.032 C 
ATOM      8  C   UNL     1       6.857   3.020  -8.811  1.00  0.00     0.014 C 
BRANCH   7   9
ATOM      9  C   UNL     1       6.005   4.265  -6.838  1.00  0.00     0.044 C 
ATOM     10  O   UNL     1       5.073   3.820  -6.118  1.00  0.00    -0.550 OA
ATOM     11  O   UNL     1       6.035   5.617  -7.160  1.00  0.00    -0.550 OA
ENDBRANCH   7   9
ENDBRANCH   6   7
ENDBRANCH   5   6
ENDBRANCH   4   5
ENDBRANCH   3   4
ENDBRANCH   2   3
ENDBRANCH   1   2
BRANCH   1  12
ATOM     12  C   UNL     1       8.851  -1.532  -9.363  1.00  0.00     0.000 C 
BRANCH  12  13
ATOM     13  C   UNL     1       7.430  -2.113  -9.311  1.00  0.00    -0.000 C 
BRANCH  13  14
ATOM     14  C   UNL     1       6.352  -1.024  -9.169  1.00  0.00    -0.000 C 
BRANCH  14  15
ATOM     15  C   UNL     1       5.595  -1.103  -7.830  1.00  0.00    -0.000 C 
BRANCH  15  16
ATOM     16  C   UNL     1       5.800   0.100  -6.886  1.00  0.00    -0.000 C 
BRANCH  16  17
ATOM     17  C   UNL     1       6.533  -0.220  -5.570  1.00  0.00    -0.000 C 
BRANCH  17  18
ATOM     18  C   UNL     1       7.122  -1.638  -5.546  1.00  0.00    -0.003 C 
ATOM     19  C   UNL     1       6.299  -2.560  -4.651  1.00  0.00     0.004 C 
ENDBRANCH  17  18
ENDBRANCH  16  17
ENDBRANCH  15  16
ENDBRANCH  14  15
ENDBRANCH  13  14
ENDBRANCH  12  13
ENDBRANCH   1  12
TORSDOF 14
ENDMDL
MODEL 7
REMARK VINA RESULT:    -2.871     19.076     21.530
REMARK INTER + INTRA:          -7.795
REMARK INTER:                  -6.281
REMARK INTRA:                  -1.514
REMARK UNBOUND:                -2.575
REMARK SMILES CCCCCCCCCCCCCC[C@H](C)C(=O)[O-]
REMARK SMILES IDX 9 1 10 2 11 3 12 4 13 5 14 6 15 7 16 8 17 9 18 10 19 11 8 12
REMARK SMILES IDX 7 13 6 14 5 15 4 16 3 17 2 18 1 19
REMARK H PARENT
REMARK Flexibility Score: inf
ROOT
ATOM      1  C   UNL     1       4.350   3.838  -8.738  1.00  0.00     0.000 C 
ENDROOT
BRANCH   1   2
ATOM      2  C   UNL     1       4.497   3.708  -7.214  1.00  0.00     0.000 C 
BRANCH   2   3
ATOM      3  C   UNL     1       5.917   4.044  -6.727  1.00  0.00     0.000 C 
BRANCH   3   4
ATOM      4  C   UNL     1       6.479   5.323  -7.371  1.00  0.00     0.000 C 
BRANCH   4   5
ATOM      5  C   UNL     1       6.460   6.570  -6.462  1.00  0.00     0.001 C 
BRANCH   5   6
ATOM      6  C   UNL     1       6.359   6.282  -4.950  1.00  0.00     0.009 C 
BRANCH   6   7
ATOM      7  C   UNL     1       7.109   7.285  -4.044  1.00  0.00     0.032 C 
ATOM      8  C   UNL     1       8.454   6.736  -3.553  1.00  0.00     0.014 C 
BRANCH   7   9
ATOM      9  C   UNL     1       6.244   7.636  -2.864  1.00  0.00     0.044 C 
ATOM     10  O   UNL     1       5.291   8.448  -2.998  1.00  0.00    -0.550 OA
ATOM     11  O   UNL     1       6.479   7.055  -1.623  1.00  0.00    -0.550 OA
ENDBRANCH   7   9
ENDBRANCH   6   7
ENDBRANCH   5   6
ENDBRANCH   4   5
ENDBRANCH   3   4
ENDBRANCH   2   3
ENDBRANCH   1   2
BRANCH   1  12
ATOM     12  C   UNL     1       4.492   2.486  -9.461  1.00  0.00     0.000 C 
BRANCH  12  13
ATOM     13  C   UNL     1       5.890   2.280 -10.064  1.00  0.00    -0.000 C 
BRANCH  13  14
ATOM     14  C   UNL     1       6.588   1.021  -9.521  1.00  0.00    -0.000 C 
BRANCH  14  15
ATOM     15  C   UNL     1       5.594  -0.053  -9.041  1.00  0.00    -0.000 C 
BRANCH  15  16
ATOM     16  C   UNL     1       5.906  -0.669  -7.662  1.00  0.00    -0.000 C 
BRANCH  16  17
ATOM     17  C   UNL     1       6.105   0.347  -6.522  1.00  0.00    -0.000 C 
BRANCH  17  18
ATOM     18  C   UNL     1       6.655  -0.294  -5.241  1.00  0.00    -0.003 C 
ATOM     19  C   UNL     1       6.807  -1.804  -5.404  1.00  0.00     0.004 C 
ENDBRANCH  17  18
ENDBRANCH  16  17
ENDBRANCH  15  16
ENDBRANCH  14  15
ENDBRANCH  13  14
ENDBRANCH  12  13
ENDBRANCH   1  12
TORSDOF 14
ENDMDL
MODEL 8
REMARK VINA RESULT:    -2.864     19.441     21.278
REMARK INTER + INTRA:          -7.784
REMARK INTER:                  -6.321
REMARK INTRA:                  -1.463
REMARK UNBOUND:                -2.575
REMARK SMILES CCCCCCCCCCCCCC[C@H](C)C(=O)[O-]
REMARK SMILES IDX 9 1 10 2 11 3 12 4 13 5 14 6 15 7 16 8 17 9 18 10 19 11 8 12
REMARK SMILES IDX 7 13 6 14 5 15 4 16 3 17 2 18 1 19
REMARK H PARENT
REMARK Flexibility Score: inf
ROOT
ATOM      1  C   UNL     1       6.402   7.266  -3.116  1.00  0.00     0.000 C 
ENDROOT
BRANCH   1   2
ATOM      2  C   UNL     1       6.384   6.435  -4.408  1.00  0.00     0.000 C 
BRANCH   2   3
ATOM      3  C   UNL     1       7.757   6.396  -5.102  1.00  0.00     0.000 C 
BRANCH   3   4
ATOM      4  C   UNL     1       7.732   5.612  -6.426  1.00  0.00     0.000 C 
BRANCH   4   5
ATOM      5  C   UNL     1       6.355   5.035  -6.813  1.00  0.00     0.001 C 
BRANCH   5   6
ATOM      6  C   UNL     1       6.377   3.599  -7.376  1.00  0.00     0.009 C 
BRANCH   6   7
ATOM      7  C   UNL     1       5.134   2.746  -7.034  1.00  0.00     0.032 C 
ATOM      8  C   UNL     1       4.430   3.226  -5.759  1.00  0.00     0.014 C 
BRANCH   7   9
ATOM      9  C   UNL     1       5.543   1.307  -6.875  1.00  0.00     0.044 C 
ATOM     10  O   UNL     1       5.677   0.572  -7.889  1.00  0.00    -0.550 OA
ATOM     11  O   UNL     1       5.793   0.783  -5.612  1.00  0.00    -0.550 OA
ENDBRANCH   7   9
ENDBRANCH   6   7
ENDBRANCH   5   6
ENDBRANCH   4   5
ENDBRANCH   3   4
ENDBRANCH   2   3
ENDBRANCH   1   2
BRANCH   1  12
ATOM     12  C   UNL     1       5.557   8.549  -3.229  1.00  0.00     0.000 C 
BRANCH  12  13
ATOM     13  C   UNL     1       6.388   9.825  -3.027  1.00  0.00    -0.000 C 
BRANCH  13  14
ATOM     14  C   UNL     1       7.902   9.553  -3.047  1.00  0.00    -0.000 C 
BRANCH  14  15
ATOM     15  C   UNL     1       8.592   9.915  -1.720  1.00  0.00    -0.000 C 
BRANCH  15  16
ATOM     16  C   UNL     1       8.551   8.819  -0.635  1.00  0.00    -0.000 C 
BRANCH  16  17
ATOM     17  C   UNL     1       8.023   9.276   0.736  1.00  0.00    -0.000 C 
BRANCH  17  18
ATOM     18  C   UNL     1       6.644   8.689   1.070  1.00  0.00    -0.003 C 
ATOM     19  C   UNL     1       5.527   9.521   0.448  1.00  0.00     0.004 C 
ENDBRANCH  17  18
ENDBRANCH  16  17
ENDBRANCH  15  16
ENDBRANCH  14  15
ENDBRANCH  13  14
ENDBRANCH  12  13
ENDBRANCH   1  12
TORSDOF 14
ENDMDL
MODEL 9
REMARK VINA RESULT:    -2.849     19.349     21.878
REMARK INTER + INTRA:          -7.756
REMARK INTER:                  -5.341
REMARK INTRA:                  -2.415
REMARK UNBOUND:                -2.575
REMARK SMILES CCCCCCCCCCCCCC[C@H](C)C(=O)[O-]
REMARK SMILES IDX 9 1 10 2 11 3 12 4 13 5 14 6 15 7 16 8 17 9 18 10 19 11 8 12
REMARK SMILES IDX 7 13 6 14 5 15 4 16 3 17 2 18 1 19
REMARK H PARENT
REMARK Flexibility Score: inf
ROOT
ATOM      1  C   UNL     1       6.412  -1.499  -6.377  1.00  0.00     0.000 C 
ENDROOT
BRANCH   1   2
ATOM      2  C   UNL     1       6.397  -0.165  -5.614  1.00  0.00     0.000 C 
BRANCH   2   3
ATOM      3  C   UNL     1       5.863   0.997  -6.469  1.00  0.00     0.000 C 
BRANCH   3   4
ATOM      4  C   UNL     1       5.074   2.028  -5.645  1.00  0.00     0.000 C 
BRANCH   4   5
ATOM      5  C   UNL     1       4.768   3.350  -6.380  1.00  0.00     0.001 C 
BRANCH   5   6
ATOM      6  C   UNL     1       5.707   3.682  -7.558  1.00  0.00     0.009 C 
BRANCH   6   7
ATOM      7  C   UNL     1       6.492   5.005  -7.413  1.00  0.00     0.032 C 
ATOM      8  C   UNL     1       6.367   5.607  -6.008  1.00  0.00     0.014 C 
BRANCH   7   9
ATOM      9  C   UNL     1       5.999   5.994  -8.434  1.00  0.00     0.044 C 
ATOM     10  O   UNL     1       4.882   5.825  -8.990  1.00  0.00    -0.550 OA
ATOM     11  O   UNL     1       6.763   7.109  -8.758  1.00  0.00    -0.550 OA
ENDBRANCH   7   9
ENDBRANCH   6   7
ENDBRANCH   5   6
ENDBRANCH   4   5
ENDBRANCH   3   4
ENDBRANCH   2   3
ENDBRANCH   1   2
BRANCH   1  12
ATOM     12  C   UNL     1       5.465  -1.493  -7.591  1.00  0.00     0.000 C 
BRANCH  12  13
ATOM     13  C   UNL     1       6.165  -1.919  -8.891  1.00  0.00    -0.000 C 
BRANCH  13  14
ATOM     14  C   UNL     1       7.630  -1.450  -8.953  1.00  0.00    -0.000 C 
BRANCH  14  15
ATOM     15  C   UNL     1       7.782  -0.047  -9.568  1.00  0.00    -0.000 C 
BRANCH  15  16
ATOM     16  C   UNL     1       8.721   0.909  -8.803  1.00  0.00    -0.000 C 
BRANCH  16  17
ATOM     17  C   UNL     1       9.545   0.254  -7.679  1.00  0.00    -0.000 C 
BRANCH  17  18
ATOM     18  C   UNL     1       9.640   1.131  -6.422  1.00  0.00    -0.003 C 
ATOM     19  C   UNL     1       9.282   2.580  -6.735  1.00  0.00     0.004 C 
ENDBRANCH  17  18
ENDBRANCH  16  17
ENDBRANCH  15  16
ENDBRANCH  14  15
ENDBRANCH  13  14
ENDBRANCH  12  13
ENDBRANCH   1  12
TORSDOF 14
ENDMDL
