MODEL 1
REMARK VINA RESULT:    -3.711      0.000      0.000
REMARK INTER + INTRA:          -4.676
REMARK INTER:                  -4.471
REMARK INTRA:                  -0.206
REMARK UNBOUND:                -0.206
REMARK SMILES O=c1ccn([C@H]2O[C@H](CO)[C@@H](O)[C@H]2O)c(=O)[nH]1
REMARK SMILES IDX 6 1 13 2 11 3 8 4 7 5 5 6 3 7 4 8 2 9 17 10 1 11 15 12 16 14
REMARK SMILES IDX 14 15 12 17 9 19 10 20
REMARK H PARENT 17 13 14 16 12 18 10 21
REMARK Flexibility Score: inf
ROOT
ATOM      1  C   UNL     1     137.997 138.019 125.761  1.00  0.00     0.255 C 
ATOM      2  C   UNL     1     136.745 137.967 124.886  1.00  0.00     0.196 C 
ATOM      3  C   UNL     1     136.615 136.482 124.650  1.00  0.00     0.179 C 
ATOM      4  C   UNL     1     137.222 135.875 125.923  1.00  0.00     0.178 C 
ATOM      5  O   UNL     1     138.119 136.811 126.486  1.00  0.00    -0.347 OA
ENDROOT
BRANCH   1   6
ATOM      6  N   UNL     1     138.005 139.193 126.662  1.00  0.00    -0.271 N 
ATOM      7  C   UNL     1     137.626 140.078 128.861  1.00  0.00     0.090 A 
ATOM      8  C   UNL     1     137.622 139.014 127.963  1.00  0.00     0.099 A 
ATOM      9  C   UNL     1     138.041 141.326 128.412  1.00  0.00     0.253 A 
ATOM     10  N   UNL     1     138.437 141.483 127.121  1.00  0.00    -0.274 N 
ATOM     11  O   UNL     1     138.053 142.308 129.202  1.00  0.00    -0.269 OA
ATOM     12  C   UNL     1     138.431 140.436 126.251  1.00  0.00     0.330 A 
ATOM     13  H   UNL     1     138.757 142.424 126.794  1.00  0.00     0.175 HD
ATOM     14  O   UNL     1     138.832 140.622 125.069  1.00  0.00    -0.248 OA
ENDBRANCH   1   6
BRANCH   2  15
ATOM     15  O   UNL     1     135.630 138.478 125.575  1.00  0.00    -0.386 OA
ATOM     16  H   UNL     1     134.958 137.748 125.610  1.00  0.00     0.211 HD
ENDBRANCH   2  15
BRANCH   3  17
ATOM     17  O   UNL     1     135.291 136.066 124.406  1.00  0.00    -0.387 OA
ATOM     18  H   UNL     1     134.673 136.781 124.707  1.00  0.00     0.211 HD
ENDBRANCH   3  17
BRANCH   4  19
ATOM     19  C   UNL     1     137.957 134.561 125.648  1.00  0.00     0.191 C 
BRANCH  19  20
ATOM     20  O   UNL     1     138.903 134.743 124.632  1.00  0.00    -0.394 OA
ATOM     21  H   UNL     1     138.587 135.516 124.097  1.00  0.00     0.210 HD
ENDBRANCH  19  20
ENDBRANCH   4  19
TORSDOF 5
ENDMDL
MODEL 2
REMARK VINA RESULT:    -3.711      6.932      8.174
REMARK INTER + INTRA:          -4.676
REMARK INTER:                  -4.458
REMARK INTRA:                  -0.218
REMARK UNBOUND:                -0.206
REMARK SMILES O=c1ccn([C@H]2O[C@H](CO)[C@@H](O)[C@H]2O)c(=O)[nH]1
REMARK SMILES IDX 6 1 13 2 11 3 8 4 7 5 5 6 3 7 4 8 2 9 17 10 1 11 15 12 16 14
REMARK SMILES IDX 14 15 12 17 9 19 10 20
REMARK H PARENT 17 13 14 16 12 18 10 21
REMARK Flexibility Score: inf
ROOT
ATOM      1  C   UNL     1     130.762 138.008 125.782  1.00  0.00     0.255 C 
ATOM      2  C   UNL     1     130.815 136.813 124.829  1.00  0.00     0.196 C 
ATOM      3  C   UNL     1     132.303 136.691 124.597  1.00  0.00     0.179 C 
ATOM      4  C   UNL     1     132.901 137.212 125.911  1.00  0.00     0.178 C 
ATOM      5  O   UNL     1     131.965 138.077 126.523  1.00  0.00    -0.347 OA
ENDROOT
BRANCH   1   6
ATOM      6  N   UNL     1     129.581 137.964 126.672  1.00  0.00    -0.271 N 
ATOM      7  C   UNL     1     128.682 137.483 128.845  1.00  0.00     0.090 A 
ATOM      8  C   UNL     1     129.754 137.529 127.957  1.00  0.00     0.099 A 
ATOM      9  C   UNL     1     127.433 137.902 128.403  1.00  0.00     0.253 A 
ATOM     10  N   UNL     1     127.282 138.350 127.128  1.00  0.00    -0.274 N 
ATOM     11  O   UNL     1     126.444 137.870 129.183  1.00  0.00    -0.269 OA
ATOM     12  C   UNL     1     128.337 138.393 126.268  1.00  0.00     0.330 A 
ATOM     13  H   UNL     1     126.341 138.673 126.806  1.00  0.00     0.175 HD
ATOM     14  O   UNL     1     128.155 138.840 125.102  1.00  0.00    -0.248 OA
ENDBRANCH   1   6
BRANCH   2  15
ATOM     15  O   UNL     1     130.294 135.660 125.441  1.00  0.00    -0.386 OA
ATOM     16  H   UNL     1     130.550 135.704 126.399  1.00  0.00     0.211 HD
ENDBRANCH   2  15
BRANCH   3  17
ATOM     17  O   UNL     1     132.714 135.383 124.272  1.00  0.00    -0.387 OA
ATOM     18  H   UNL     1     132.614 134.810 125.076  1.00  0.00     0.211 HD
ENDBRANCH   3  17
BRANCH   4  19
ATOM     19  C   UNL     1     134.222 137.956 125.694  1.00  0.00     0.191 C 
BRANCH  19  20
ATOM     20  O   UNL     1     134.100 138.845 124.620  1.00  0.00    -0.394 OA
ATOM     21  H   UNL     1     134.760 138.549 123.940  1.00  0.00     0.210 HD
ENDBRANCH  19  20
ENDBRANCH   4  19
TORSDOF 5
ENDMDL
MODEL 3
REMARK VINA RESULT:    -3.700     17.178     18.823
REMARK INTER + INTRA:          -4.663
REMARK INTER:                  -4.453
REMARK INTRA:                  -0.210
REMARK UNBOUND:                -0.206
REMARK SMILES O=c1ccn([C@H]2O[C@H](CO)[C@@H](O)[C@H]2O)c(=O)[nH]1
REMARK SMILES IDX 6 1 13 2 11 3 8 4 7 5 5 6 3 7 4 8 2 9 17 10 1 11 15 12 16 14
REMARK SMILES IDX 14 15 12 17 9 19 10 20
REMARK H PARENT 17 13 14 16 12 18 10 21
REMARK Flexibility Score: inf
ROOT
ATOM      1  C   UNL     1     137.982 130.774 142.967  1.00  0.00     0.255 C 
ATOM      2  C   UNL     1     136.686 130.877 143.771  1.00  0.00     0.196 C 
ATOM      3  C   UNL     1     136.580 132.371 143.964  1.00  0.00     0.179 C 
ATOM      4  C   UNL     1     137.269 132.930 142.711  1.00  0.00     0.178 C 
ATOM      5  O   UNL     1     138.172 131.959 142.220  1.00  0.00    -0.347 OA
ENDROOT
BRANCH   1   6
ATOM      6  N   UNL     1     138.009 129.577 142.097  1.00  0.00    -0.271 N 
ATOM      7  C   UNL     1     137.742 128.647 139.900  1.00  0.00     0.090 A 
ATOM      8  C   UNL     1     137.715 129.734 140.770  1.00  0.00     0.099 A 
ATOM      9  C   UNL     1     138.088 127.399 140.404  1.00  0.00     0.253 A 
ATOM     10  N   UNL     1     138.396 127.264 141.721  1.00  0.00    -0.274 N 
ATOM     11  O   UNL     1     138.119 126.397 139.641  1.00  0.00    -0.269 OA
ATOM     12  C   UNL     1     138.369 128.334 142.564  1.00  0.00     0.330 A 
ATOM     13  H   UNL     1     138.665 126.323 142.090  1.00  0.00     0.175 HD
ATOM     14  O   UNL     1     138.688 128.165 143.773  1.00  0.00    -0.248 OA
ENDBRANCH   1   6
BRANCH   2  15
ATOM     15  O   UNL     1     135.598 130.375 143.036  1.00  0.00    -0.386 OA
ATOM     16  H   UNL     1     135.785 129.415 142.868  1.00  0.00     0.211 HD
ENDBRANCH   2  15
BRANCH   3  17
ATOM     17  O   UNL     1     135.255 132.823 144.125  1.00  0.00    -0.387 OA
ATOM     18  H   UNL     1     134.800 132.244 144.789  1.00  0.00     0.211 HD
ENDBRANCH   3  17
BRANCH   4  19
ATOM     19  C   UNL     1     138.019 134.234 142.993  1.00  0.00     0.191 C 
BRANCH  19  20
ATOM     20  O   UNL     1     138.874 134.068 144.090  1.00  0.00    -0.394 OA
ATOM     21  H   UNL     1     139.622 133.498 143.773  1.00  0.00     0.210 HD
ENDBRANCH  19  20
ENDBRANCH   4  19
TORSDOF 5
ENDMDL
MODEL 4
REMARK VINA RESULT:    -3.664      8.574     11.232
REMARK INTER + INTRA:          -4.620
REMARK INTER:                  -4.430
REMARK INTRA:                  -0.190
REMARK UNBOUND:                -0.206
REMARK SMILES O=c1ccn([C@H]2O[C@H](CO)[C@@H](O)[C@H]2O)c(=O)[nH]1
REMARK SMILES IDX 6 1 13 2 11 3 8 4 7 5 5 6 3 7 4 8 2 9 17 10 1 11 15 12 16 14
REMARK SMILES IDX 14 15 12 17 9 19 10 20
REMARK H PARENT 17 13 14 16 12 18 10 21
REMARK Flexibility Score: inf
ROOT
ATOM      1  C   UNL     1     130.959 131.002 125.499  1.00  0.00     0.255 C 
ATOM      2  C   UNL     1     132.239 130.985 124.664  1.00  0.00     0.196 C 
ATOM      3  C   UNL     1     132.385 132.449 124.324  1.00  0.00     0.179 C 
ATOM      4  C   UNL     1     131.741 133.149 125.529  1.00  0.00     0.178 C 
ATOM      5  O   UNL     1     130.821 132.260 126.129  1.00  0.00    -0.347 OA
ENDROOT
BRANCH   1   6
ATOM      6  N   UNL     1     130.915 129.897 126.482  1.00  0.00    -0.271 N 
ATOM      7  C   UNL     1     131.171 129.184 128.760  1.00  0.00     0.090 A 
ATOM      8  C   UNL     1     131.213 130.180 127.788  1.00  0.00     0.099 A 
ATOM      9  C   UNL     1     130.806 127.898 128.381  1.00  0.00     0.253 A 
ATOM     10  N   UNL     1     130.495 127.638 127.083  1.00  0.00    -0.274 N 
ATOM     11  O   UNL     1     130.761 126.976 129.239  1.00  0.00    -0.269 OA
ATOM     12  C   UNL     1     130.537 128.619 126.140  1.00  0.00     0.330 A 
ATOM     13  H   UNL     1     130.212 126.669 126.808  1.00  0.00     0.175 HD
ATOM     14  O   UNL     1     130.214 128.337 124.953  1.00  0.00    -0.248 OA
ENDBRANCH   1   6
BRANCH   2  15
ATOM     15  O   UNL     1     133.327 130.522 125.423  1.00  0.00    -0.386 OA
ATOM     16  H   UNL     1     133.614 129.662 125.018  1.00  0.00     0.211 HD
ENDBRANCH   2  15
BRANCH   3  17
ATOM     17  O   UNL     1     133.719 132.840 124.093  1.00  0.00    -0.387 OA
ATOM     18  H   UNL     1     133.823 133.789 124.365  1.00  0.00     0.211 HD
ENDBRANCH   3  17
BRANCH   4  19
ATOM     19  C   UNL     1     131.024 134.443 125.134  1.00  0.00     0.191 C 
BRANCH  19  20
ATOM     20  O   UNL     1     129.880 134.147 124.382  1.00  0.00    -0.394 OA
ATOM     21  H   UNL     1     129.241 134.887 124.550  1.00  0.00     0.210 HD
ENDBRANCH  19  20
ENDBRANCH   4  19
TORSDOF 5
ENDMDL
MODEL 5
REMARK VINA RESULT:    -3.638      6.727      8.009
REMARK INTER + INTRA:          -4.588
REMARK INTER:                  -4.415
REMARK INTRA:                  -0.172
REMARK UNBOUND:                -0.206
REMARK SMILES O=c1ccn([C@H]2O[C@H](CO)[C@@H](O)[C@H]2O)c(=O)[nH]1
REMARK SMILES IDX 6 1 13 2 11 3 8 4 7 5 5 6 3 7 4 8 2 9 17 10 1 11 15 12 16 14
REMARK SMILES IDX 14 15 12 17 9 19 10 20
REMARK H PARENT 17 13 14 16 12 18 10 21
REMARK Flexibility Score: inf
ROOT
ATOM      1  C   UNL     1     137.903 131.049 125.287  1.00  0.00     0.255 C 
ATOM      2  C   UNL     1     138.038 132.378 124.545  1.00  0.00     0.196 C 
ATOM      3  C   UNL     1     136.623 132.586 124.059  1.00  0.00     0.179 C 
ATOM      4  C   UNL     1     135.782 131.886 125.136  1.00  0.00     0.178 C 
ATOM      5  O   UNL     1     136.581 130.906 125.767  1.00  0.00    -0.347 OA
ENDROOT
BRANCH   1   6
ATOM      6  N   UNL     1     138.892 130.913 126.379  1.00  0.00    -0.271 N 
ATOM      7  C   UNL     1     139.358 131.014 128.732  1.00  0.00     0.090 A 
ATOM      8  C   UNL     1     138.477 131.144 127.662  1.00  0.00     0.099 A 
ATOM      9  C   UNL     1     140.669 130.630 128.472  1.00  0.00     0.253 A 
ATOM     10  N   UNL     1     141.060 130.386 127.193  1.00  0.00    -0.274 N 
ATOM     11  O   UNL     1     141.490 130.506 129.420  1.00  0.00    -0.269 OA
ATOM     12  C   UNL     1     140.190 130.514 126.154  1.00  0.00     0.330 A 
ATOM     13  H   UNL     1     142.046 130.088 127.007  1.00  0.00     0.175 HD
ATOM     14  O   UNL     1     140.591 130.251 124.987  1.00  0.00    -0.248 OA
ENDBRANCH   1   6
BRANCH   2  15
ATOM     15  O   UNL     1     138.436 133.404 125.420  1.00  0.00    -0.386 OA
ATOM     16  H   UNL     1     138.740 134.160 124.854  1.00  0.00     0.211 HD
ENDBRANCH   2  15
BRANCH   3  17
ATOM     17  O   UNL     1     136.286 133.942 123.876  1.00  0.00    -0.387 OA
ATOM     18  H   UNL     1     135.946 134.304 124.735  1.00  0.00     0.211 HD
ENDBRANCH   3  17
BRANCH   4  19
ATOM     19  C   UNL     1     134.525 131.231 124.557  1.00  0.00     0.191 C 
BRANCH  19  20
ATOM     20  O   UNL     1     134.747 129.863 124.354  1.00  0.00    -0.394 OA
ATOM     21  H   UNL     1     134.107 129.389 124.945  1.00  0.00     0.210 HD
ENDBRANCH  19  20
ENDBRANCH   4  19
TORSDOF 5
ENDMDL
MODEL 6
REMARK VINA RESULT:    -3.631     15.677     17.403
REMARK INTER + INTRA:          -4.579
REMARK INTER:                  -4.288
REMARK INTRA:                  -0.291
REMARK UNBOUND:                -0.206
REMARK SMILES O=c1ccn([C@H]2O[C@H](CO)[C@@H](O)[C@H]2O)c(=O)[nH]1
REMARK SMILES IDX 6 1 13 2 11 3 8 4 7 5 5 6 3 7 4 8 2 9 17 10 1 11 15 12 16 14
REMARK SMILES IDX 14 15 12 17 9 19 10 20
REMARK H PARENT 17 13 14 16 12 18 10 21
REMARK Flexibility Score: inf
ROOT
ATOM      1  C   UNL     1     130.633 138.147 142.535  1.00  0.00     0.255 C 
ATOM      2  C   UNL     1     131.717 137.939 143.592  1.00  0.00     0.196 C 
ATOM      3  C   UNL     1     131.781 136.432 143.651  1.00  0.00     0.179 C 
ATOM      4  C   UNL     1     131.391 136.013 142.227  1.00  0.00     0.178 C 
ATOM      5  O   UNL     1     130.617 137.045 141.649  1.00  0.00    -0.347 OA
ENDROOT
BRANCH   1   6
ATOM      6  N   UNL     1     130.798 139.424 141.805  1.00  0.00    -0.271 N 
ATOM      7  C   UNL     1     131.590 140.567 139.848  1.00  0.00     0.090 A 
ATOM      8  C   UNL     1     131.423 139.399 140.588  1.00  0.00     0.099 A 
ATOM      9  C   UNL     1     131.096 141.759 140.365  1.00  0.00     0.253 A 
ATOM     10  N   UNL     1     130.461 141.763 141.567  1.00  0.00    -0.274 N 
ATOM     11  O   UNL     1     131.235 142.832 139.719  1.00  0.00    -0.269 OA
ATOM     12  C   UNL     1     130.300 140.615 142.282  1.00  0.00     0.330 A 
ATOM     13  H   UNL     1     130.084 142.663 141.944  1.00  0.00     0.175 HD
ATOM     14  O   UNL     1     129.681 140.663 143.380  1.00  0.00    -0.248 OA
ENDBRANCH   1   6
BRANCH   2  15
ATOM     15  O   UNL     1     132.941 138.489 143.171  1.00  0.00    -0.386 OA
ATOM     16  H   UNL     1     132.995 139.399 143.565  1.00  0.00     0.211 HD
ENDBRANCH   2  15
BRANCH   3  17
ATOM     17  O   UNL     1     133.038 135.939 144.057  1.00  0.00    -0.387 OA
ATOM     18  H   UNL     1     133.279 136.358 144.923  1.00  0.00     0.211 HD
ENDBRANCH   3  17
BRANCH   4  19
ATOM     19  C   UNL     1     130.599 134.702 142.203  1.00  0.00     0.191 C 
BRANCH  19  20
ATOM     20  O   UNL     1     130.233 134.339 143.505  1.00  0.00    -0.394 OA
ATOM     21  H   UNL     1     129.644 135.065 143.838  1.00  0.00     0.210 HD
ENDBRANCH  19  20
ENDBRANCH   4  19
TORSDOF 5
ENDMDL
MODEL 7
REMARK VINA RESULT:    -3.601     17.166     17.863
REMARK INTER + INTRA:          -4.543
REMARK INTER:                  -4.413
REMARK INTRA:                  -0.130
REMARK UNBOUND:                -0.206
REMARK SMILES O=c1ccn([C@H]2O[C@H](CO)[C@@H](O)[C@H]2O)c(=O)[nH]1
REMARK SMILES IDX 6 1 13 2 11 3 8 4 7 5 5 6 3 7 4 8 2 9 17 10 1 11 15 12 16 14
REMARK SMILES IDX 14 15 12 17 9 19 10 20
REMARK H PARENT 17 13 14 16 12 18 10 21
REMARK Flexibility Score: inf
ROOT
ATOM      1  C   UNL     1     128.602 130.945 139.400  1.00  0.00     0.255 C 
ATOM      2  C   UNL     1     127.534 130.304 140.286  1.00  0.00     0.196 C 
ATOM      3  C   UNL     1     127.650 128.854 139.879  1.00  0.00     0.179 C 
ATOM      4  C   UNL     1     129.128 128.723 139.486  1.00  0.00     0.178 C 
ATOM      5  O   UNL     1     129.612 129.998 139.113  1.00  0.00    -0.347 OA
ENDROOT
BRANCH   1   6
ATOM      6  N   UNL     1     129.169 132.172 140.004  1.00  0.00    -0.271 N 
ATOM      7  C   UNL     1     130.911 133.185 141.310  1.00  0.00     0.090 A 
ATOM      8  C   UNL     1     130.322 132.062 140.733  1.00  0.00     0.099 A 
ATOM      9  C   UNL     1     130.311 134.424 141.117  1.00  0.00     0.253 A 
ATOM     10  N   UNL     1     129.178 134.518 140.373  1.00  0.00    -0.274 N 
ATOM     11  O   UNL     1     130.821 135.457 141.628  1.00  0.00    -0.269 OA
ATOM     12  C   UNL     1     128.610 133.415 139.812  1.00  0.00     0.330 A 
ATOM     13  H   UNL     1     128.739 135.456 140.225  1.00  0.00     0.175 HD
ATOM     14  O   UNL     1     127.573 133.554 139.107  1.00  0.00    -0.248 OA
ENDBRANCH   1   6
BRANCH   2  15
ATOM     15  O   UNL     1     127.838 130.481 141.647  1.00  0.00    -0.386 OA
ATOM     16  H   UNL     1     128.253 131.379 141.732  1.00  0.00     0.211 HD
ENDBRANCH   2  15
BRANCH   3  17
ATOM     17  O   UNL     1     127.255 127.955 140.889  1.00  0.00    -0.387 OA
ATOM     18  H   UNL     1     127.853 127.164 140.862  1.00  0.00     0.211 HD
ENDBRANCH   3  17
BRANCH   4  19
ATOM     19  C   UNL     1     129.338 127.736 138.334  1.00  0.00     0.191 C 
BRANCH  19  20
ATOM     20  O   UNL     1     129.887 126.543 138.820  1.00  0.00    -0.394 OA
ATOM     21  H   UNL     1     130.234 126.747 139.726  1.00  0.00     0.210 HD
ENDBRANCH  19  20
ENDBRANCH   4  19
TORSDOF 5
ENDMDL
MODEL 8
REMARK VINA RESULT:    -3.586      6.125      8.413
REMARK INTER + INTRA:          -4.525
REMARK INTER:                  -4.406
REMARK INTRA:                  -0.119
REMARK UNBOUND:                -0.206
REMARK SMILES O=c1ccn([C@H]2O[C@H](CO)[C@@H](O)[C@H]2O)c(=O)[nH]1
REMARK SMILES IDX 6 1 13 2 11 3 8 4 7 5 5 6 3 7 4 8 2 9 17 10 1 11 15 12 16 14
REMARK SMILES IDX 14 15 12 17 9 19 10 20
REMARK H PARENT 17 13 14 16 12 18 10 21
REMARK Flexibility Score: inf
ROOT
ATOM      1  C   UNL     1     140.197 130.939 129.404  1.00  0.00     0.255 C 
ATOM      2  C   UNL     1     141.261 130.291 128.518  1.00  0.00     0.196 C 
ATOM      3  C   UNL     1     141.116 128.838 128.904  1.00  0.00     0.179 C 
ATOM      4  C   UNL     1     139.633 128.727 129.282  1.00  0.00     0.178 C 
ATOM      5  O   UNL     1     139.168 130.005 129.669  1.00  0.00    -0.347 OA
ENDROOT
BRANCH   1   6
ATOM      6  N   UNL     1     139.657 132.183 128.813  1.00  0.00    -0.271 N 
ATOM      7  C   UNL     1     137.958 133.242 127.488  1.00  0.00     0.090 A 
ATOM      8  C   UNL     1     138.521 132.102 128.054  1.00  0.00     0.099 A 
ATOM      9  C   UNL     1     138.565 134.470 127.721  1.00  0.00     0.253 A 
ATOM     10  N   UNL     1     139.681 134.537 128.493  1.00  0.00    -0.274 N 
ATOM     11  O   UNL     1     138.079 135.519 127.220  1.00  0.00    -0.269 OA
ATOM     12  C   UNL     1     140.224 133.416 129.045  1.00  0.00     0.330 A 
ATOM     13  H   UNL     1     140.126 135.467 128.672  1.00  0.00     0.175 HD
ATOM     14  O   UNL     1     141.246 133.530 129.776  1.00  0.00    -0.248 OA
ENDBRANCH   1   6
BRANCH   2  15
ATOM     15  O   UNL     1     140.972 130.493 127.157  1.00  0.00    -0.386 OA
ATOM     16  H   UNL     1     140.139 131.031 127.119  1.00  0.00     0.211 HD
ENDBRANCH   2  15
BRANCH   3  17
ATOM     17  O   UNL     1     141.504 127.946 127.884  1.00  0.00    -0.387 OA
ATOM     18  H   UNL     1     141.864 128.470 127.123  1.00  0.00     0.211 HD
ENDBRANCH   3  17
BRANCH   4  19
ATOM     19  C   UNL     1     139.395 127.728 130.418  1.00  0.00     0.191 C 
BRANCH  19  20
ATOM     20  O   UNL     1     138.883 126.531 129.904  1.00  0.00    -0.394 OA
ATOM     21  H   UNL     1     139.656 125.915 129.816  1.00  0.00     0.210 HD
ENDBRANCH  19  20
ENDBRANCH   4  19
TORSDOF 5
ENDMDL
MODEL 9
REMARK VINA RESULT:    -3.548     18.015     19.423
REMARK INTER + INTRA:          -4.480
REMARK INTER:                  -4.153
REMARK INTRA:                  -0.327
REMARK UNBOUND:                -0.206
REMARK SMILES O=c1ccn([C@H]2O[C@H](CO)[C@@H](O)[C@H]2O)c(=O)[nH]1
REMARK SMILES IDX 6 1 13 2 11 3 8 4 7 5 5 6 3 7 4 8 2 9 17 10 1 11 15 12 16 14
REMARK SMILES IDX 14 15 12 17 9 19 10 20
REMARK H PARENT 17 13 14 16 12 18 10 21
REMARK Flexibility Score: inf
ROOT
ATOM      1  C   UNL     1     126.110 128.875 138.730  1.00  0.00     0.255 C 
ATOM      2  C   UNL     1     125.839 130.379 138.693  1.00  0.00     0.196 C 
ATOM      3  C   UNL     1     126.406 130.810 140.025  1.00  0.00     0.179 C 
ATOM      4  C   UNL     1     127.530 129.793 140.268  1.00  0.00     0.178 C 
ATOM      5  O   UNL     1     127.240 128.616 139.541  1.00  0.00    -0.347 OA
ENDROOT
BRANCH   1   6
ATOM      6  N   UNL     1     126.274 128.300 137.376  1.00  0.00    -0.271 N 
ATOM      7  C   UNL     1     127.757 127.504 135.665  1.00  0.00     0.090 A 
ATOM      8  C   UNL     1     127.542 128.060 136.923  1.00  0.00     0.099 A 
ATOM      9  C   UNL     1     126.655 127.184 134.882  1.00  0.00     0.253 A 
ATOM     10  N   UNL     1     125.401 127.412 135.354  1.00  0.00    -0.274 N 
ATOM     11  O   UNL     1     126.818 126.682 133.737  1.00  0.00    -0.269 OA
ATOM     12  C   UNL     1     125.201 127.954 136.587  1.00  0.00     0.330 A 
ATOM     13  H   UNL     1     124.576 127.159 134.762  1.00  0.00     0.175 HD
ATOM     14  O   UNL     1     124.019 128.122 136.995  1.00  0.00    -0.248 OA
ENDBRANCH   1   6
BRANCH   2  15
ATOM     15  O   UNL     1     126.521 130.985 137.624  1.00  0.00    -0.386 OA
ATOM     16  H   UNL     1     125.831 131.268 136.969  1.00  0.00     0.211 HD
ENDBRANCH   2  15
BRANCH   3  17
ATOM     17  O   UNL     1     126.846 132.148 140.040  1.00  0.00    -0.387 OA
ATOM     18  H   UNL     1     126.929 132.445 140.983  1.00  0.00     0.211 HD
ENDBRANCH   3  17
BRANCH   4  19
ATOM     19  C   UNL     1     127.696 129.454 141.751  1.00  0.00     0.191 C 
BRANCH  19  20
ATOM     20  O   UNL     1     128.043 130.604 142.471  1.00  0.00    -0.394 OA
ATOM     21  H   UNL     1     127.677 131.371 141.958  1.00  0.00     0.210 HD
ENDBRANCH  19  20
ENDBRANCH   4  19
TORSDOF 5
ENDMDL
