MODEL 1
REMARK VINA RESULT:    -6.225      0.000      0.000
REMARK INTER + INTRA:         -17.148
REMARK INTER:                 -14.232
REMARK INTRA:                  -2.916
REMARK UNBOUND:                -2.916
REMARK SMILES CCCCCCCCCCCCCCCCCCCCCCCC(=O)[O-]
REMARK SMILES IDX 13 1 14 2 15 3 16 4 17 5 18 6 19 7 20 8 21 9 22 10 23 11
REMARK SMILES IDX 24 12 25 13 26 14 12 15 11 16 10 17 9 18 8 19 7 20 6 21 5 22
REMARK SMILES IDX 4 23 3 24 2 25 1 26
REMARK H PARENT
REMARK Flexibility Score: inf
ROOT
ATOM      1  C   UNL     1       9.012 -32.345  20.885  1.00  0.00     0.000 C 
ENDROOT
BRANCH   1   2
ATOM      2  C   UNL     1      10.369 -32.993  21.220  1.00  0.00     0.000 C 
BRANCH   2   3
ATOM      3  C   UNL     1      11.569 -32.028  21.233  1.00  0.00     0.000 C 
BRANCH   3   4
ATOM      4  C   UNL     1      12.645 -32.417  22.260  1.00  0.00     0.000 C 
BRANCH   4   5
ATOM      5  C   UNL     1      13.008 -31.219  23.152  1.00  0.00     0.000 C 
BRANCH   5   6
ATOM      6  C   UNL     1      11.840 -30.234  23.331  1.00  0.00     0.000 C 
BRANCH   6   7
ATOM      7  C   UNL     1      10.907 -30.618  24.494  1.00  0.00     0.000 C 
BRANCH   7   8
ATOM      8  C   UNL     1      11.434 -31.830  25.282  1.00  0.00     0.000 C 
BRANCH   8   9
ATOM      9  C   UNL     1      10.433 -32.998  25.302  1.00  0.00     0.000 C 
BRANCH   9  10
ATOM     10  C   UNL     1      11.070 -34.331  25.737  1.00  0.00     0.006 C 
BRANCH  10  11
ATOM     11  C   UNL     1      11.830 -35.060  24.616  1.00  0.00     0.053 C 
BRANCH  11  12
ATOM     12  C   UNL     1      13.312 -35.076  24.843  1.00  0.00     0.041 C 
ATOM     13  O   UNL     1      14.023 -35.966  24.306  1.00  0.00    -0.550 OA
ATOM     14  O   UNL     1      13.906 -34.133  25.674  1.00  0.00    -0.550 OA
ENDBRANCH  11  12
ENDBRANCH  10  11
ENDBRANCH   9  10
ENDBRANCH   8   9
ENDBRANCH   7   8
ENDBRANCH   6   7
ENDBRANCH   5   6
ENDBRANCH   4   5
ENDBRANCH   3   4
ENDBRANCH   2   3
ENDBRANCH   1   2
BRANCH   1  15
ATOM     15  C   UNL     1       9.050 -30.806  20.914  1.00  0.00     0.000 C 
BRANCH  15  16
ATOM     16  C   UNL     1       8.181 -30.228  22.043  1.00  0.00     0.000 C 
BRANCH  16  17
ATOM     17  C   UNL     1       6.975 -31.122  22.374  1.00  0.00     0.000 C 
BRANCH  17  18
ATOM     18  C   UNL     1       6.799 -31.339  23.890  1.00  0.00    -0.000 C 
BRANCH  18  19
ATOM     19  C   UNL     1       7.306 -30.177  24.771  1.00  0.00    -0.000 C 
BRANCH  19  20
ATOM     20  C   UNL     1       6.227 -29.494  25.636  1.00  0.00    -0.000 C 
BRANCH  20  21
ATOM     21  C   UNL     1       4.832 -29.464  24.973  1.00  0.00    -0.000 C 
BRANCH  21  22
ATOM     22  C   UNL     1       3.757 -28.777  25.835  1.00  0.00    -0.000 C 
BRANCH  22  23
ATOM     23  C   UNL     1       2.334 -29.008  25.295  1.00  0.00    -0.000 C 
BRANCH  23  24
ATOM     24  C   UNL     1       2.330 -29.708  23.925  1.00  0.00    -0.000 C 
BRANCH  24  25
ATOM     25  C   UNL     1       1.028 -29.480  23.144  1.00  0.00    -0.003 C 
ATOM     26  C   UNL     1       0.266 -30.790  22.942  1.00  0.00     0.004 C 
ENDBRANCH  24  25
ENDBRANCH  23  24
ENDBRANCH  22  23
ENDBRANCH  21  22
ENDBRANCH  20  21
ENDBRANCH  19  20
ENDBRANCH  18  19
ENDBRANCH  17  18
ENDBRANCH  16  17
ENDBRANCH  15  16
ENDBRANCH   1  15
TORSDOF 22
ENDMDL
MODEL 2
REMARK VINA RESULT:    -6.168      1.988      2.916
REMARK INTER + INTRA:         -17.017
REMARK INTER:                 -13.801
REMARK INTRA:                  -3.216
REMARK UNBOUND:                -2.916
REMARK SMILES CCCCCCCCCCCCCCCCCCCCCCCC(=O)[O-]
REMARK SMILES IDX 13 1 14 2 15 3 16 4 17 5 18 6 19 7 20 8 21 9 22 10 23 11
REMARK SMILES IDX 24 12 25 13 26 14 12 15 11 16 10 17 9 18 8 19 7 20 6 21 5 22
REMARK SMILES IDX 4 23 3 24 2 25 1 26
REMARK H PARENT
REMARK Flexibility Score: inf
ROOT
ATOM      1  C   UNL     1      10.193 -32.054  20.936  1.00  0.00     0.000 C 
ENDROOT
BRANCH   1   2
ATOM      2  C   UNL     1      11.112 -33.137  21.532  1.00  0.00     0.000 C 
BRANCH   2   3
ATOM      3  C   UNL     1      12.602 -32.755  21.621  1.00  0.00     0.000 C 
BRANCH   3   4
ATOM      4  C   UNL     1      13.239 -33.119  22.972  1.00  0.00     0.000 C 
BRANCH   4   5
ATOM      5  C   UNL     1      12.393 -34.169  23.710  1.00  0.00     0.000 C 
BRANCH   5   6
ATOM      6  C   UNL     1      12.435 -34.001  25.238  1.00  0.00     0.000 C 
BRANCH   6   7
ATOM      7  C   UNL     1      11.035 -33.978  25.876  1.00  0.00     0.000 C 
BRANCH   7   8
ATOM      8  C   UNL     1      10.512 -32.545  26.070  1.00  0.00     0.000 C 
BRANCH   8   9
ATOM      9  C   UNL     1       9.976 -31.932  24.765  1.00  0.00     0.000 C 
BRANCH   9  10
ATOM     10  C   UNL     1      10.472 -30.495  24.523  1.00  0.00     0.006 C 
BRANCH  10  11
ATOM     11  C   UNL     1      11.995 -30.325  24.659  1.00  0.00     0.053 C 
BRANCH  11  12
ATOM     12  C   UNL     1      12.591 -29.551  23.522  1.00  0.00     0.041 C 
ATOM     13  O   UNL     1      11.942 -29.395  22.455  1.00  0.00    -0.550 OA
ATOM     14  O   UNL     1      13.877 -29.031  23.624  1.00  0.00    -0.550 OA
ENDBRANCH  11  12
ENDBRANCH  10  11
ENDBRANCH   9  10
ENDBRANCH   8   9
ENDBRANCH   7   8
ENDBRANCH   6   7
ENDBRANCH   5   6
ENDBRANCH   4   5
ENDBRANCH   3   4
ENDBRANCH   2   3
ENDBRANCH   1   2
BRANCH   1  15
ATOM     15  C   UNL     1       8.716 -32.482  20.864  1.00  0.00     0.000 C 
BRANCH  15  16
ATOM     16  C   UNL     1       7.837 -31.693  21.848  1.00  0.00     0.000 C 
BRANCH  16  17
ATOM     17  C   UNL     1       7.929 -30.173  21.631  1.00  0.00     0.000 C 
BRANCH  17  18
ATOM     18  C   UNL     1       7.375 -29.372  22.826  1.00  0.00    -0.000 C 
BRANCH  18  19
ATOM     19  C   UNL     1       6.377 -30.144  23.714  1.00  0.00    -0.000 C 
BRANCH  19  20
ATOM     20  C   UNL     1       6.524 -29.898  25.229  1.00  0.00    -0.000 C 
BRANCH  20  21
ATOM     21  C   UNL     1       5.173 -29.796  25.973  1.00  0.00    -0.000 C 
BRANCH  21  22
ATOM     22  C   UNL     1       4.313 -28.601  25.524  1.00  0.00    -0.000 C 
BRANCH  22  23
ATOM     23  C   UNL     1       2.877 -29.016  25.155  1.00  0.00    -0.000 C 
BRANCH  23  24
ATOM     24  C   UNL     1       2.694 -29.222  23.642  1.00  0.00    -0.000 C 
BRANCH  24  25
ATOM     25  C   UNL     1       1.219 -29.214  23.214  1.00  0.00    -0.003 C 
ATOM     26  C   UNL     1       0.510 -30.497  23.645  1.00  0.00     0.004 C 
ENDBRANCH  24  25
ENDBRANCH  23  24
ENDBRANCH  22  23
ENDBRANCH  21  22
ENDBRANCH  20  21
ENDBRANCH  19  20
ENDBRANCH  18  19
ENDBRANCH  17  18
ENDBRANCH  16  17
ENDBRANCH  15  16
ENDBRANCH   1  15
TORSDOF 22
ENDMDL
MODEL 3
REMARK VINA RESULT:    -6.157      4.121      8.737
REMARK INTER + INTRA:         -16.992
REMARK INTER:                 -13.942
REMARK INTRA:                  -3.050
REMARK UNBOUND:                -2.916
REMARK SMILES CCCCCCCCCCCCCCCCCCCCCCCC(=O)[O-]
REMARK SMILES IDX 13 1 14 2 15 3 16 4 17 5 18 6 19 7 20 8 21 9 22 10 23 11
REMARK SMILES IDX 24 12 25 13 26 14 12 15 11 16 10 17 9 18 8 19 7 20 6 21 5 22
REMARK SMILES IDX 4 23 3 24 2 25 1 26
REMARK H PARENT
REMARK Flexibility Score: inf
ROOT
ATOM      1  C   UNL     1       8.253 -32.741  21.215  1.00  0.00     0.000 C 
ENDROOT
BRANCH   1   2
ATOM      2  C   UNL     1       7.320 -31.577  21.600  1.00  0.00     0.000 C 
BRANCH   2   3
ATOM      3  C   UNL     1       7.976 -30.183  21.596  1.00  0.00     0.000 C 
BRANCH   3   4
ATOM      4  C   UNL     1       7.468 -29.275  22.728  1.00  0.00     0.000 C 
BRANCH   4   5
ATOM      5  C   UNL     1       6.895 -30.109  23.884  1.00  0.00     0.000 C 
BRANCH   5   6
ATOM      6  C   UNL     1       6.724 -29.295  25.178  1.00  0.00     0.000 C 
BRANCH   6   7
ATOM      7  C   UNL     1       5.519 -29.754  26.019  1.00  0.00     0.000 C 
BRANCH   7   8
ATOM      8  C   UNL     1       4.273 -28.890  25.762  1.00  0.00     0.000 C 
BRANCH   8   9
ATOM      9  C   UNL     1       3.505 -29.325  24.502  1.00  0.00     0.000 C 
BRANCH   9  10
ATOM     10  C   UNL     1       2.277 -28.444  24.208  1.00  0.00     0.006 C 
BRANCH  10  11
ATOM     11  C   UNL     1       1.356 -28.997  23.107  1.00  0.00     0.053 C 
BRANCH  11  12
ATOM     12  C   UNL     1       0.522 -30.150  23.579  1.00  0.00     0.041 C 
ATOM     13  O   UNL     1       0.081 -30.169  24.758  1.00  0.00    -0.550 OA
ATOM     14  O   UNL     1       0.260 -31.220  22.732  1.00  0.00    -0.550 OA
ENDBRANCH  11  12
ENDBRANCH  10  11
ENDBRANCH   9  10
ENDBRANCH   8   9
ENDBRANCH   7   8
ENDBRANCH   6   7
ENDBRANCH   5   6
ENDBRANCH   4   5
ENDBRANCH   3   4
ENDBRANCH   2   3
ENDBRANCH   1   2
BRANCH   1  15
ATOM     15  C   UNL     1       9.514 -32.284  20.459  1.00  0.00     0.000 C 
BRANCH  15  16
ATOM     16  C   UNL     1      10.804 -32.736  21.161  1.00  0.00     0.000 C 
BRANCH  16  17
ATOM     17  C   UNL     1      11.881 -31.639  21.177  1.00  0.00     0.000 C 
BRANCH  17  18
ATOM     18  C   UNL     1      11.463 -30.414  22.015  1.00  0.00    -0.000 C 
BRANCH  18  19
ATOM     19  C   UNL     1      12.350 -30.143  23.249  1.00  0.00    -0.000 C 
BRANCH  19  20
ATOM     20  C   UNL     1      11.701 -30.482  24.606  1.00  0.00    -0.000 C 
BRANCH  20  21
ATOM     21  C   UNL     1      10.257 -31.018  24.485  1.00  0.00    -0.000 C 
BRANCH  21  22
ATOM     22  C   UNL     1      10.053 -32.391  25.149  1.00  0.00    -0.000 C 
BRANCH  22  23
ATOM     23  C   UNL     1      11.385 -33.067  25.523  1.00  0.00    -0.000 C 
BRANCH  23  24
ATOM     24  C   UNL     1      11.903 -34.001  24.416  1.00  0.00    -0.000 C 
BRANCH  24  25
ATOM     25  C   UNL     1      13.411 -33.853  24.169  1.00  0.00    -0.003 C 
ATOM     26  C   UNL     1      14.197 -34.967  24.861  1.00  0.00     0.004 C 
ENDBRANCH  24  25
ENDBRANCH  23  24
ENDBRANCH  22  23
ENDBRANCH  21  22
ENDBRANCH  20  21
ENDBRANCH  19  20
ENDBRANCH  18  19
ENDBRANCH  17  18
ENDBRANCH  16  17
ENDBRANCH  15  16
ENDBRANCH   1  15
TORSDOF 22
ENDMDL
MODEL 4
REMARK VINA RESULT:    -6.084      3.866      8.560
REMARK INTER + INTRA:         -16.824
REMARK INTER:                 -13.695
REMARK INTRA:                  -3.128
REMARK UNBOUND:                -2.916
REMARK SMILES CCCCCCCCCCCCCCCCCCCCCCCC(=O)[O-]
REMARK SMILES IDX 13 1 14 2 15 3 16 4 17 5 18 6 19 7 20 8 21 9 22 10 23 11
REMARK SMILES IDX 24 12 25 13 26 14 12 15 11 16 10 17 9 18 8 19 7 20 6 21 5 22
REMARK SMILES IDX 4 23 3 24 2 25 1 26
REMARK H PARENT
REMARK Flexibility Score: inf
ROOT
ATOM      1  C   UNL     1      10.398 -31.915  20.492  1.00  0.00     0.000 C 
ENDROOT
BRANCH   1   2
ATOM      2  C   UNL     1       9.274 -30.938  20.883  1.00  0.00     0.000 C 
BRANCH   2   3
ATOM      3  C   UNL     1       9.668 -29.868  21.919  1.00  0.00     0.000 C 
BRANCH   3   4
ATOM      4  C   UNL     1       8.777 -29.883  23.172  1.00  0.00     0.000 C 
BRANCH   4   5
ATOM      5  C   UNL     1       7.352 -30.340  22.824  1.00  0.00     0.000 C 
BRANCH   5   6
ATOM      6  C   UNL     1       6.664 -31.079  23.984  1.00  0.00     0.000 C 
BRANCH   6   7
ATOM      7  C   UNL     1       6.990 -30.469  25.359  1.00  0.00     0.000 C 
BRANCH   7   8
ATOM      8  C   UNL     1       5.775 -29.756  25.976  1.00  0.00     0.000 C 
BRANCH   8   9
ATOM      9  C   UNL     1       4.625 -29.576  24.971  1.00  0.00     0.000 C 
BRANCH   9  10
ATOM     10  C   UNL     1       3.508 -28.652  25.489  1.00  0.00     0.006 C 
BRANCH  10  11
ATOM     11  C   UNL     1       2.086 -29.187  25.245  1.00  0.00     0.053 C 
BRANCH  11  12
ATOM     12  C   UNL     1       1.801 -29.420  23.791  1.00  0.00     0.041 C 
ATOM     13  O   UNL     1       1.325 -30.521  23.410  1.00  0.00    -0.550 OA
ATOM     14  O   UNL     1       2.093 -28.437  22.852  1.00  0.00    -0.550 OA
ENDBRANCH  11  12
ENDBRANCH  10  11
ENDBRANCH   9  10
ENDBRANCH   8   9
ENDBRANCH   7   8
ENDBRANCH   6   7
ENDBRANCH   5   6
ENDBRANCH   4   5
ENDBRANCH   3   4
ENDBRANCH   2   3
ENDBRANCH   1   2
BRANCH   1  15
ATOM     15  C   UNL     1      11.092 -32.561  21.705  1.00  0.00     0.000 C 
BRANCH  15  16
ATOM     16  C   UNL     1      12.624 -32.468  21.611  1.00  0.00     0.000 C 
BRANCH  16  17
ATOM     17  C   UNL     1      13.268 -32.021  22.934  1.00  0.00     0.000 C 
BRANCH  17  18
ATOM     18  C   UNL     1      12.972 -30.545  23.266  1.00  0.00    -0.000 C 
BRANCH  18  19
ATOM     19  C   UNL     1      12.460 -30.295  24.700  1.00  0.00    -0.000 C 
BRANCH  19  20
ATOM     20  C   UNL     1      12.582 -31.499  25.656  1.00  0.00    -0.000 C 
BRANCH  20  21
ATOM     21  C   UNL     1      11.219 -32.093  26.078  1.00  0.00    -0.000 C 
BRANCH  21  22
ATOM     22  C   UNL     1      10.734 -33.229  25.160  1.00  0.00    -0.000 C 
BRANCH  22  23
ATOM     23  C   UNL     1      11.359 -34.588  25.526  1.00  0.00    -0.000 C 
BRANCH  23  24
ATOM     24  C   UNL     1      11.986 -35.294  24.312  1.00  0.00    -0.000 C 
BRANCH  24  25
ATOM     25  C   UNL     1      13.419 -35.778  24.580  1.00  0.00    -0.003 C 
ATOM     26  C   UNL     1      14.294 -34.648  25.120  1.00  0.00     0.004 C 
ENDBRANCH  24  25
ENDBRANCH  23  24
ENDBRANCH  22  23
ENDBRANCH  21  22
ENDBRANCH  20  21
ENDBRANCH  19  20
ENDBRANCH  18  19
ENDBRANCH  17  18
ENDBRANCH  16  17
ENDBRANCH  15  16
ENDBRANCH   1  15
TORSDOF 22
ENDMDL
MODEL 5
REMARK VINA RESULT:    -6.049      4.119      8.790
REMARK INTER + INTRA:         -16.744
REMARK INTER:                 -13.825
REMARK INTRA:                  -2.918
REMARK UNBOUND:                -2.916
REMARK SMILES CCCCCCCCCCCCCCCCCCCCCCCC(=O)[O-]
REMARK SMILES IDX 13 1 14 2 15 3 16 4 17 5 18 6 19 7 20 8 21 9 22 10 23 11
REMARK SMILES IDX 24 12 25 13 26 14 12 15 11 16 10 17 9 18 8 19 7 20 6 21 5 22
REMARK SMILES IDX 4 23 3 24 2 25 1 26
REMARK H PARENT
REMARK Flexibility Score: inf
ROOT
ATOM      1  C   UNL     1      10.318 -31.370  21.257  1.00  0.00     0.000 C 
ENDROOT
BRANCH   1   2
ATOM      2  C   UNL     1       8.872 -31.010  20.869  1.00  0.00     0.000 C 
BRANCH   2   3
ATOM      3  C   UNL     1       8.256 -29.837  21.655  1.00  0.00     0.000 C 
BRANCH   3   4
ATOM      4  C   UNL     1       7.463 -30.290  22.892  1.00  0.00     0.000 C 
BRANCH   4   5
ATOM      5  C   UNL     1       8.246 -29.996  24.182  1.00  0.00     0.000 C 
BRANCH   5   6
ATOM      6  C   UNL     1       7.404 -30.207  25.451  1.00  0.00     0.000 C 
BRANCH   6   7
ATOM      7  C   UNL     1       5.893 -30.273  25.162  1.00  0.00     0.000 C 
BRANCH   7   8
ATOM      8  C   UNL     1       5.158 -29.009  25.639  1.00  0.00     0.000 C 
BRANCH   8   9
ATOM      9  C   UNL     1       3.640 -29.087  25.401  1.00  0.00     0.000 C 
BRANCH   9  10
ATOM     10  C   UNL     1       3.273 -29.446  23.950  1.00  0.00     0.006 C 
BRANCH  10  11
ATOM     11  C   UNL     1       1.850 -29.031  23.540  1.00  0.00     0.053 C 
BRANCH  11  12
ATOM     12  C   UNL     1       0.828 -30.077  23.869  1.00  0.00     0.041 C 
ATOM     13  O   UNL     1       0.332 -30.133  25.025  1.00  0.00    -0.550 OA
ATOM     14  O   UNL     1       0.447 -31.012  22.913  1.00  0.00    -0.550 OA
ENDBRANCH  11  12
ENDBRANCH  10  11
ENDBRANCH   9  10
ENDBRANCH   8   9
ENDBRANCH   7   8
ENDBRANCH   6   7
ENDBRANCH   5   6
ENDBRANCH   4   5
ENDBRANCH   3   4
ENDBRANCH   2   3
ENDBRANCH   1   2
BRANCH   1  15
ATOM     15  C   UNL     1      10.404 -32.487  22.313  1.00  0.00     0.000 C 
BRANCH  15  16
ATOM     16  C   UNL     1      11.648 -33.370  22.121  1.00  0.00     0.000 C 
BRANCH  16  17
ATOM     17  C   UNL     1      12.942 -32.547  22.012  1.00  0.00     0.000 C 
BRANCH  17  18
ATOM     18  C   UNL     1      14.079 -33.117  22.885  1.00  0.00    -0.000 C 
BRANCH  18  19
ATOM     19  C   UNL     1      13.657 -34.267  23.824  1.00  0.00    -0.000 C 
BRANCH  19  20
ATOM     20  C   UNL     1      13.398 -33.854  25.286  1.00  0.00    -0.000 C 
BRANCH  20  21
ATOM     21  C   UNL     1      11.899 -33.769  25.648  1.00  0.00    -0.000 C 
BRANCH  21  22
ATOM     22  C   UNL     1      11.448 -32.359  26.071  1.00  0.00    -0.000 C 
BRANCH  22  23
ATOM     23  C   UNL     1      12.506 -31.285  25.758  1.00  0.00    -0.000 C 
BRANCH  23  24
ATOM     24  C   UNL     1      12.054 -30.319  24.650  1.00  0.00    -0.000 C 
BRANCH  24  25
ATOM     25  C   UNL     1      13.193 -29.423  24.140  1.00  0.00    -0.003 C 
ATOM     26  C   UNL     1      13.845 -28.649  25.286  1.00  0.00     0.004 C 
ENDBRANCH  24  25
ENDBRANCH  23  24
ENDBRANCH  22  23
ENDBRANCH  21  22
ENDBRANCH  20  21
ENDBRANCH  19  20
ENDBRANCH  18  19
ENDBRANCH  17  18
ENDBRANCH  16  17
ENDBRANCH  15  16
ENDBRANCH   1  15
TORSDOF 22
ENDMDL
MODEL 6
REMARK VINA RESULT:    -5.914      3.781      7.951
REMARK INTER + INTRA:         -16.436
REMARK INTER:                 -13.039
REMARK INTRA:                  -3.398
REMARK UNBOUND:                -2.916
REMARK SMILES CCCCCCCCCCCCCCCCCCCCCCCC(=O)[O-]
REMARK SMILES IDX 13 1 14 2 15 3 16 4 17 5 18 6 19 7 20 8 21 9 22 10 23 11
REMARK SMILES IDX 24 12 25 13 26 14 12 15 11 16 10 17 9 18 8 19 7 20 6 21 5 22
REMARK SMILES IDX 4 23 3 24 2 25 1 26
REMARK H PARENT
REMARK Flexibility Score: inf
ROOT
ATOM      1  C   UNL     1      12.493 -32.747  21.279  1.00  0.00     0.000 C 
ENDROOT
BRANCH   1   2
ATOM      2  C   UNL     1      11.029 -33.052  21.648  1.00  0.00     0.000 C 
BRANCH   2   3
ATOM      3  C   UNL     1       9.997 -32.037  21.122  1.00  0.00     0.000 C 
BRANCH   3   4
ATOM      4  C   UNL     1       8.575 -32.615  21.028  1.00  0.00     0.000 C 
BRANCH   4   5
ATOM      5  C   UNL     1       7.554 -31.665  21.674  1.00  0.00     0.000 C 
BRANCH   5   6
ATOM      6  C   UNL     1       7.956 -30.186  21.551  1.00  0.00     0.000 C 
BRANCH   6   7
ATOM      7  C   UNL     1       7.586 -29.360  22.796  1.00  0.00     0.000 C 
BRANCH   7   8
ATOM      8  C   UNL     1       6.615 -30.112  23.721  1.00  0.00     0.000 C 
BRANCH   8   9
ATOM      9  C   UNL     1       6.465 -29.433  25.093  1.00  0.00     0.000 C 
BRANCH   9  10
ATOM     10  C   UNL     1       5.124 -29.748  25.780  1.00  0.00     0.006 C 
BRANCH  10  11
ATOM     11  C   UNL     1       4.082 -28.621  25.673  1.00  0.00     0.053 C 
BRANCH  11  12
ATOM     12  C   UNL     1       2.859 -29.039  24.913  1.00  0.00     0.041 C 
ATOM     13  O   UNL     1       2.856 -29.008  23.655  1.00  0.00    -0.550 OA
ATOM     14  O   UNL     1       1.710 -29.429  25.592  1.00  0.00    -0.550 OA
ENDBRANCH  11  12
ENDBRANCH  10  11
ENDBRANCH   9  10
ENDBRANCH   8   9
ENDBRANCH   7   8
ENDBRANCH   6   7
ENDBRANCH   5   6
ENDBRANCH   4   5
ENDBRANCH   3   4
ENDBRANCH   2   3
ENDBRANCH   1   2
BRANCH   1  15
ATOM     15  C   UNL     1      13.442 -32.765  22.491  1.00  0.00     0.000 C 
BRANCH  15  16
ATOM     16  C   UNL     1      13.067 -33.860  23.503  1.00  0.00     0.000 C 
BRANCH  16  17
ATOM     17  C   UNL     1      13.788 -33.688  24.850  1.00  0.00     0.000 C 
BRANCH  17  18
ATOM     18  C   UNL     1      12.844 -33.198  25.967  1.00  0.00    -0.000 C 
BRANCH  18  19
ATOM     19  C   UNL     1      11.528 -33.995  26.096  1.00  0.00    -0.000 C 
BRANCH  19  20
ATOM     20  C   UNL     1      10.349 -33.448  25.268  1.00  0.00    -0.000 C 
BRANCH  20  21
ATOM     21  C   UNL     1       9.910 -32.025  25.681  1.00  0.00    -0.000 C 
BRANCH  21  22
ATOM     22  C   UNL     1      10.114 -30.974  24.575  1.00  0.00    -0.000 C 
BRANCH  22  23
ATOM     23  C   UNL     1      11.426 -30.187  24.746  1.00  0.00    -0.000 C 
BRANCH  23  24
ATOM     24  C   UNL     1      12.028 -29.744  23.402  1.00  0.00    -0.000 C 
BRANCH  24  25
ATOM     25  C   UNL     1      13.452 -29.187  23.541  1.00  0.00    -0.003 C 
ATOM     26  C   UNL     1      13.745 -28.770  24.982  1.00  0.00     0.004 C 
ENDBRANCH  24  25
ENDBRANCH  23  24
ENDBRANCH  22  23
ENDBRANCH  21  22
ENDBRANCH  20  21
ENDBRANCH  19  20
ENDBRANCH  18  19
ENDBRANCH  17  18
ENDBRANCH  16  17
ENDBRANCH  15  16
ENDBRANCH   1  15
TORSDOF 22
ENDMDL
MODEL 7
REMARK VINA RESULT:    -5.865      2.721      7.412
REMARK INTER + INTRA:         -16.324
REMARK INTER:                 -13.302
REMARK INTRA:                  -3.022
REMARK UNBOUND:                -2.916
REMARK SMILES CCCCCCCCCCCCCCCCCCCCCCCC(=O)[O-]
REMARK SMILES IDX 13 1 14 2 15 3 16 4 17 5 18 6 19 7 20 8 21 9 22 10 23 11
REMARK SMILES IDX 24 12 25 13 26 14 12 15 11 16 10 17 9 18 8 19 7 20 6 21 5 22
REMARK SMILES IDX 4 23 3 24 2 25 1 26
REMARK H PARENT
REMARK Flexibility Score: inf
ROOT
ATOM      1  C   UNL     1       7.516 -31.112  22.288  1.00  0.00     0.000 C 
ENDROOT
BRANCH   1   2
ATOM      2  C   UNL     1       6.279 -31.365  23.169  1.00  0.00     0.000 C 
BRANCH   2   3
ATOM      3  C   UNL     1       5.730 -30.124  23.899  1.00  0.00     0.000 C 
BRANCH   3   4
ATOM      4  C   UNL     1       6.030 -30.131  25.407  1.00  0.00     0.000 C 
BRANCH   4   5
ATOM      5  C   UNL     1       7.147 -29.132  25.747  1.00  0.00     0.000 C 
BRANCH   5   6
ATOM      6  C   UNL     1       8.551 -29.687  25.456  1.00  0.00     0.000 C 
BRANCH   6   7
ATOM      7  C   UNL     1       8.746 -31.123  25.974  1.00  0.00     0.000 C 
BRANCH   7   8
ATOM      8  C   UNL     1       9.800 -31.893  25.160  1.00  0.00     0.000 C 
BRANCH   8   9
ATOM      9  C   UNL     1      11.040 -32.254  25.996  1.00  0.00     0.000 C 
BRANCH   9  10
ATOM     10  C   UNL     1      12.215 -31.282  25.784  1.00  0.00     0.006 C 
BRANCH  10  11
ATOM     11  C   UNL     1      12.069 -30.380  24.546  1.00  0.00     0.053 C 
BRANCH  11  12
ATOM     12  C   UNL     1      13.133 -29.326  24.474  1.00  0.00     0.041 C 
ATOM     13  O   UNL     1      13.446 -28.820  23.364  1.00  0.00    -0.550 OA
ATOM     14  O   UNL     1      13.804 -28.925  25.624  1.00  0.00    -0.550 OA
ENDBRANCH  11  12
ENDBRANCH  10  11
ENDBRANCH   9  10
ENDBRANCH   8   9
ENDBRANCH   7   8
ENDBRANCH   6   7
ENDBRANCH   5   6
ENDBRANCH   4   5
ENDBRANCH   3   4
ENDBRANCH   2   3
ENDBRANCH   1   2
BRANCH   1  15
ATOM     15  C   UNL     1       7.754 -32.215  21.241  1.00  0.00     0.000 C 
BRANCH  15  16
ATOM     16  C   UNL     1       8.933 -31.885  20.311  1.00  0.00     0.000 C 
BRANCH  16  17
ATOM     17  C   UNL     1      10.273 -31.815  21.062  1.00  0.00     0.000 C 
BRANCH  17  18
ATOM     18  C   UNL     1      10.850 -33.212  21.372  1.00  0.00    -0.000 C 
BRANCH  18  19
ATOM     19  C   UNL     1      11.938 -33.232  22.466  1.00  0.00    -0.000 C 
BRANCH  19  20
ATOM     20  C   UNL     1      13.324 -32.726  22.019  1.00  0.00    -0.000 C 
BRANCH  20  21
ATOM     21  C   UNL     1      14.483 -33.236  22.903  1.00  0.00    -0.000 C 
BRANCH  21  22
ATOM     22  C   UNL     1      14.067 -33.527  24.356  1.00  0.00    -0.000 C 
BRANCH  22  23
ATOM     23  C   UNL     1      14.587 -34.887  24.856  1.00  0.00    -0.000 C 
BRANCH  23  24
ATOM     24  C   UNL     1      13.617 -36.039  24.547  1.00  0.00    -0.000 C 
BRANCH  24  25
ATOM     25  C   UNL     1      12.145 -35.606  24.588  1.00  0.00    -0.003 C 
ATOM     26  C   UNL     1      11.236 -36.769  24.986  1.00  0.00     0.004 C 
ENDBRANCH  24  25
ENDBRANCH  23  24
ENDBRANCH  22  23
ENDBRANCH  21  22
ENDBRANCH  20  21
ENDBRANCH  19  20
ENDBRANCH  18  19
ENDBRANCH  17  18
ENDBRANCH  16  17
ENDBRANCH  15  16
ENDBRANCH   1  15
TORSDOF 22
ENDMDL
MODEL 8
REMARK VINA RESULT:    -5.638      4.234      9.035
REMARK INTER + INTRA:         -15.805
REMARK INTER:                 -12.679
REMARK INTRA:                  -3.127
REMARK UNBOUND:                -2.916
REMARK SMILES CCCCCCCCCCCCCCCCCCCCCCCC(=O)[O-]
REMARK SMILES IDX 13 1 14 2 15 3 16 4 17 5 18 6 19 7 20 8 21 9 22 10 23 11
REMARK SMILES IDX 24 12 25 13 26 14 12 15 11 16 10 17 9 18 8 19 7 20 6 21 5 22
REMARK SMILES IDX 4 23 3 24 2 25 1 26
REMARK H PARENT
REMARK Flexibility Score: inf
ROOT
ATOM      1  C   UNL     1       9.954 -32.599  22.526  1.00  0.00     0.000 C 
ENDROOT
BRANCH   1   2
ATOM      2  C   UNL     1       9.541 -31.783  21.287  1.00  0.00     0.000 C 
BRANCH   2   3
ATOM      3  C   UNL     1       8.073 -31.318  21.268  1.00  0.00     0.000 C 
BRANCH   3   4
ATOM      4  C   UNL     1       7.924 -29.788  21.265  1.00  0.00     0.000 C 
BRANCH   4   5
ATOM      5  C   UNL     1       7.557 -29.271  22.665  1.00  0.00     0.000 C 
BRANCH   5   6
ATOM      6  C   UNL     1       6.672 -30.253  23.450  1.00  0.00     0.000 C 
BRANCH   6   7
ATOM      7  C   UNL     1       6.607 -29.929  24.953  1.00  0.00     0.000 C 
BRANCH   7   8
ATOM      8  C   UNL     1       5.209 -29.451  25.381  1.00  0.00     0.000 C 
BRANCH   8   9
ATOM      9  C   UNL     1       4.168 -29.598  24.258  1.00  0.00     0.000 C 
BRANCH   9  10
ATOM     10  C   UNL     1       2.776 -29.072  24.652  1.00  0.00     0.006 C 
BRANCH  10  11
ATOM     11  C   UNL     1       1.889 -28.682  23.456  1.00  0.00     0.053 C 
BRANCH  11  12
ATOM     12  C   UNL     1       0.625 -29.485  23.392  1.00  0.00     0.041 C 
ATOM     13  O   UNL     1      -0.105 -29.432  22.367  1.00  0.00    -0.550 OA
ATOM     14  O   UNL     1       0.232 -30.265  24.474  1.00  0.00    -0.550 OA
ENDBRANCH  11  12
ENDBRANCH  10  11
ENDBRANCH   9  10
ENDBRANCH   8   9
ENDBRANCH   7   8
ENDBRANCH   6   7
ENDBRANCH   5   6
ENDBRANCH   4   5
ENDBRANCH   3   4
ENDBRANCH   2   3
ENDBRANCH   1   2
BRANCH   1  15
ATOM     15  C   UNL     1       9.985 -31.765  23.820  1.00  0.00     0.000 C 
BRANCH  15  16
ATOM     16  C   UNL     1      10.821 -30.484  23.662  1.00  0.00     0.000 C 
BRANCH  16  17
ATOM     17  C   UNL     1      11.992 -30.419  24.656  1.00  0.00     0.000 C 
BRANCH  17  18
ATOM     18  C   UNL     1      13.355 -30.670  23.980  1.00  0.00    -0.000 C 
BRANCH  18  19
ATOM     19  C   UNL     1      13.277 -31.404  22.624  1.00  0.00    -0.000 C 
BRANCH  19  20
ATOM     20  C   UNL     1      13.706 -32.885  22.657  1.00  0.00    -0.000 C 
BRANCH  20  21
ATOM     21  C   UNL     1      14.580 -33.248  23.879  1.00  0.00    -0.000 C 
BRANCH  21  22
ATOM     22  C   UNL     1      13.992 -34.379  24.741  1.00  0.00    -0.000 C 
BRANCH  22  23
ATOM     23  C   UNL     1      12.989 -33.859  25.787  1.00  0.00    -0.000 C 
BRANCH  23  24
ATOM     24  C   UNL     1      11.579 -34.443  25.594  1.00  0.00    -0.000 C 
BRANCH  24  25
ATOM     25  C   UNL     1      11.495 -35.415  24.407  1.00  0.00    -0.003 C 
ATOM     26  C   UNL     1      11.247 -36.847  24.880  1.00  0.00     0.004 C 
ENDBRANCH  24  25
ENDBRANCH  23  24
ENDBRANCH  22  23
ENDBRANCH  21  22
ENDBRANCH  20  21
ENDBRANCH  19  20
ENDBRANCH  18  19
ENDBRANCH  17  18
ENDBRANCH  16  17
ENDBRANCH  15  16
ENDBRANCH   1  15
TORSDOF 22
ENDMDL
MODEL 9
REMARK VINA RESULT:    -5.593      4.260      9.138
REMARK INTER + INTRA:         -15.701
REMARK INTER:                 -12.768
REMARK INTRA:                  -2.933
REMARK UNBOUND:                -2.916
REMARK SMILES CCCCCCCCCCCCCCCCCCCCCCCC(=O)[O-]
REMARK SMILES IDX 13 1 14 2 15 3 16 4 17 5 18 6 19 7 20 8 21 9 22 10 23 11
REMARK SMILES IDX 24 12 25 13 26 14 12 15 11 16 10 17 9 18 8 19 7 20 6 21 5 22
REMARK SMILES IDX 4 23 3 24 2 25 1 26
REMARK H PARENT
REMARK Flexibility Score: inf
ROOT
ATOM      1  C   UNL     1       9.017 -31.261  20.663  1.00  0.00     0.000 C 
ENDROOT
BRANCH   1   2
ATOM      2  C   UNL     1       7.966 -30.574  21.555  1.00  0.00     0.000 C 
BRANCH   2   3
ATOM      3  C   UNL     1       6.991 -31.529  22.271  1.00  0.00     0.000 C 
BRANCH   3   4
ATOM      4  C   UNL     1       6.802 -31.192  23.759  1.00  0.00     0.000 C 
BRANCH   4   5
ATOM      5  C   UNL     1       7.482 -29.860  24.110  1.00  0.00     0.000 C 
BRANCH   5   6
ATOM      6  C   UNL     1       7.141 -29.372  25.528  1.00  0.00     0.000 C 
BRANCH   6   7
ATOM      7  C   UNL     1       5.712 -29.744  25.961  1.00  0.00     0.000 C 
BRANCH   7   8
ATOM      8  C   UNL     1       4.673 -28.728  25.457  1.00  0.00     0.000 C 
BRANCH   8   9
ATOM      9  C   UNL     1       3.300 -29.371  25.197  1.00  0.00     0.000 C 
BRANCH   9  10
ATOM     10  C   UNL     1       2.264 -28.379  24.637  1.00  0.00     0.006 C 
BRANCH  10  11
ATOM     11  C   UNL     1       1.842 -28.664  23.185  1.00  0.00     0.053 C 
BRANCH  11  12
ATOM     12  C   UNL     1       0.532 -29.387  23.098  1.00  0.00     0.041 C 
ATOM     13  O   UNL     1      -0.125 -29.377  22.024  1.00  0.00    -0.550 OA
ATOM     14  O   UNL     1       0.016 -30.043  24.210  1.00  0.00    -0.550 OA
ENDBRANCH  11  12
ENDBRANCH  10  11
ENDBRANCH   9  10
ENDBRANCH   8   9
ENDBRANCH   7   8
ENDBRANCH   6   7
ENDBRANCH   5   6
ENDBRANCH   4   5
ENDBRANCH   3   4
ENDBRANCH   2   3
ENDBRANCH   1   2
BRANCH   1  15
ATOM     15  C   UNL     1      10.368 -31.476  21.370  1.00  0.00     0.000 C 
BRANCH  15  16
ATOM     16  C   UNL     1      10.743 -30.290  22.273  1.00  0.00     0.000 C 
BRANCH  16  17
ATOM     17  C   UNL     1      10.837 -30.686  23.756  1.00  0.00     0.000 C 
BRANCH  17  18
ATOM     18  C   UNL     1      10.366 -32.132  24.012  1.00  0.00    -0.000 C 
BRANCH  18  19
ATOM     19  C   UNL     1       9.906 -32.415  25.458  1.00  0.00    -0.000 C 
BRANCH  19  20
ATOM     20  C   UNL     1      10.469 -33.707  26.081  1.00  0.00    -0.000 C 
BRANCH  20  21
ATOM     21  C   UNL     1      11.979 -33.911  25.824  1.00  0.00    -0.000 C 
BRANCH  21  22
ATOM     22  C   UNL     1      12.291 -35.117  24.919  1.00  0.00    -0.000 C 
BRANCH  22  23
ATOM     23  C   UNL     1      13.581 -34.921  24.102  1.00  0.00    -0.000 C 
BRANCH  23  24
ATOM     24  C   UNL     1      14.114 -33.480  24.179  1.00  0.00    -0.000 C 
BRANCH  24  25
ATOM     25  C   UNL     1      13.759 -32.647  22.938  1.00  0.00    -0.003 C 
ATOM     26  C   UNL     1      14.521 -33.137  21.706  1.00  0.00     0.004 C 
ENDBRANCH  24  25
ENDBRANCH  23  24
ENDBRANCH  22  23
ENDBRANCH  21  22
ENDBRANCH  20  21
ENDBRANCH  19  20
ENDBRANCH  18  19
ENDBRANCH  17  18
ENDBRANCH  16  17
ENDBRANCH  15  16
ENDBRANCH   1  15
TORSDOF 22
ENDMDL
