MODEL 1
REMARK VINA RESULT:    -4.948      0.000      0.000
REMARK INTER + INTRA:          -5.986
REMARK INTER:                  -5.816
REMARK INTRA:                  -0.170
REMARK UNBOUND:                -0.170
REMARK SMILES CCCC[C@H]1OC(=O)C2=C1CCC=C2
REMARK SMILES IDX 3 1 2 2 1 3 4 4 5 5 10 6 6 7 9 8 11 9 7 10 14 11 12 12 8 13
REMARK SMILES IDX 13 14
REMARK H PARENT
REMARK Flexibility Score: inf
ROOT
ATOM      1  C   UNL     1      28.556  -7.287  34.647  1.00  0.00     0.004 C 
ENDROOT
BRANCH   1   2
ATOM      2  C   UNL     1      28.719  -8.766  35.028  1.00  0.00    -0.003 C 
ATOM      3  C   UNL     1      27.386  -9.512  35.092  1.00  0.00     0.004 C 
ENDBRANCH   1   2
BRANCH   1   4
ATOM      4  C   UNL     1      29.888  -6.631  34.245  1.00  0.00     0.050 C 
BRANCH   4   5
ATOM      5  C   UNL     1      29.692  -5.238  33.621  1.00  0.00     0.204 C 
ATOM      6  C   UNL     1      30.968  -4.421  33.583  1.00  0.00    -0.015 C 
ATOM      7  O   UNL     1      28.843  -4.457  34.468  1.00  0.00    -0.454 OA
ATOM      8  C   UNL     1      30.862  -3.354  34.358  1.00  0.00     0.062 C 
ATOM      9  C   UNL     1      32.263  -4.761  32.893  1.00  0.00     0.040 C 
ATOM     10  C   UNL     1      29.540  -3.351  34.921  1.00  0.00     0.338 C 
ATOM     11  C   UNL     1      31.960  -2.400  34.558  1.00  0.00     0.011 C 
ATOM     12  C   UNL     1      33.121  -3.496  32.654  1.00  0.00     0.032 C 
ATOM     13  O   UNL     1      29.068  -2.484  35.703  1.00  0.00    -0.246 OA
ATOM     14  C   UNL     1      33.062  -2.516  33.807  1.00  0.00    -0.026 C 
ENDBRANCH   4   5
ENDBRANCH   1   4
TORSDOF 3
ENDMDL
MODEL 2
REMARK VINA RESULT:    -4.815      5.669      7.254
REMARK INTER + INTRA:          -5.829
REMARK INTER:                  -5.521
REMARK INTRA:                  -0.308
REMARK UNBOUND:                -0.170
REMARK SMILES CCCC[C@H]1OC(=O)C2=C1CCC=C2
REMARK SMILES IDX 3 1 2 2 1 3 4 4 5 5 10 6 6 7 9 8 11 9 7 10 14 11 12 12 8 13
REMARK SMILES IDX 13 14
REMARK H PARENT
REMARK Flexibility Score: inf
ROOT
ATOM      1  C   UNL     1      27.656  -2.583  35.279  1.00  0.00     0.004 C 
ENDROOT
BRANCH   1   2
ATOM      2  C   UNL     1      27.428  -3.657  34.204  1.00  0.00    -0.003 C 
ATOM      3  C   UNL     1      28.587  -4.648  34.101  1.00  0.00     0.004 C 
ENDBRANCH   1   2
BRANCH   1   4
ATOM      4  C   UNL     1      26.454  -1.637  35.433  1.00  0.00     0.050 C 
BRANCH   4   5
ATOM      5  C   UNL     1      25.420  -1.813  34.307  1.00  0.00     0.204 C 
ATOM      6  C   UNL     1      25.012  -0.500  33.667  1.00  0.00    -0.015 C 
ATOM      7  O   UNL     1      24.191  -2.287  34.864  1.00  0.00    -0.454 OA
ATOM      8  C   UNL     1      23.733  -0.249  33.893  1.00  0.00     0.062 C 
ATOM      9  C   UNL     1      25.894   0.500  32.966  1.00  0.00     0.040 C 
ATOM     10  C   UNL     1      23.194  -1.354  34.638  1.00  0.00     0.338 C 
ATOM     11  C   UNL     1      23.067   0.977  33.436  1.00  0.00     0.011 C 
ATOM     12  C   UNL     1      25.070   1.418  32.033  1.00  0.00     0.032 C 
ATOM     13  O   UNL     1      22.003  -1.476  35.028  1.00  0.00    -0.246 OA
ATOM     14  C   UNL     1      23.729   1.806  32.619  1.00  0.00    -0.026 C 
ENDBRANCH   4   5
ENDBRANCH   1   4
TORSDOF 3
ENDMDL
MODEL 3
REMARK VINA RESULT:    -4.750      6.199      8.139
REMARK INTER + INTRA:          -5.754
REMARK INTER:                  -5.159
REMARK INTRA:                  -0.595
REMARK UNBOUND:                -0.170
REMARK SMILES CCCC[C@H]1OC(=O)C2=C1CCC=C2
REMARK SMILES IDX 3 1 2 2 1 3 4 4 5 5 10 6 6 7 9 8 11 9 7 10 14 11 12 12 8 13
REMARK SMILES IDX 13 14
REMARK H PARENT
REMARK Flexibility Score: inf
ROOT
ATOM      1  C   UNL     1      25.807  -1.302  36.762  1.00  0.00     0.004 C 
ENDROOT
BRANCH   1   2
ATOM      2  C   UNL     1      26.239   0.074  37.291  1.00  0.00    -0.003 C 
ATOM      3  C   UNL     1      25.248   1.183  36.937  1.00  0.00     0.004 C 
ENDBRANCH   1   2
BRANCH   1   4
ATOM      4  C   UNL     1      26.433  -1.633  35.397  1.00  0.00     0.050 C 
BRANCH   4   5
ATOM      5  C   UNL     1      25.376  -1.800  34.291  1.00  0.00     0.204 C 
ATOM      6  C   UNL     1      24.955  -0.483  33.669  1.00  0.00    -0.015 C 
ATOM      7  O   UNL     1      24.158  -2.279  34.870  1.00  0.00    -0.454 OA
ATOM      8  C   UNL     1      23.681  -0.234  33.923  1.00  0.00     0.062 C 
ATOM      9  C   UNL     1      25.822   0.522  32.957  1.00  0.00     0.040 C 
ATOM     10  C   UNL     1      23.158  -1.344  34.671  1.00  0.00     0.338 C 
ATOM     11  C   UNL     1      23.006   0.995  33.489  1.00  0.00     0.011 C 
ATOM     12  C   UNL     1      24.980   1.446  32.048  1.00  0.00     0.032 C 
ATOM     13  O   UNL     1      21.975  -1.469  35.085  1.00  0.00    -0.246 OA
ATOM     14  C   UNL     1      23.650   1.830  32.665  1.00  0.00    -0.026 C 
ENDBRANCH   4   5
ENDBRANCH   1   4
TORSDOF 3
ENDMDL
MODEL 4
REMARK VINA RESULT:    -4.704      2.928      4.132
REMARK INTER + INTRA:          -5.699
REMARK INTER:                  -5.301
REMARK INTRA:                  -0.398
REMARK UNBOUND:                -0.170
REMARK SMILES CCCC[C@H]1OC(=O)C2=C1CCC=C2
REMARK SMILES IDX 3 1 2 2 1 3 4 4 5 5 10 6 6 7 9 8 11 9 7 10 14 11 12 12 8 13
REMARK SMILES IDX 13 14
REMARK H PARENT
REMARK Flexibility Score: inf
ROOT
ATOM      1  C   UNL     1      30.200  -5.642  33.766  1.00  0.00     0.004 C 
ENDROOT
BRANCH   1   2
ATOM      2  C   UNL     1      28.859  -4.941  34.033  1.00  0.00    -0.003 C 
ATOM      3  C   UNL     1      28.988  -3.762  34.997  1.00  0.00     0.004 C 
ENDBRANCH   1   2
BRANCH   1   4
ATOM      4  C   UNL     1      31.009  -4.962  32.649  1.00  0.00     0.050 C 
BRANCH   4   5
ATOM      5  C   UNL     1      32.518  -4.931  32.952  1.00  0.00     0.204 C 
ATOM      6  C   UNL     1      32.992  -3.583  33.459  1.00  0.00    -0.015 C 
ATOM      7  O   UNL     1      33.248  -5.084  31.732  1.00  0.00    -0.454 OA
ATOM      8  C   UNL     1      33.832  -3.031  32.599  1.00  0.00     0.062 C 
ATOM      9  C   UNL     1      32.532  -2.843  34.688  1.00  0.00     0.040 C 
ATOM     10  C   UNL     1      34.012  -3.951  31.510  1.00  0.00     0.338 C 
ATOM     11  C   UNL     1      34.420  -1.700  32.798  1.00  0.00     0.011 C 
ATOM     12  C   UNL     1      33.575  -1.792  35.134  1.00  0.00     0.032 C 
ATOM     13  O   UNL     1      34.750  -3.777  30.504  1.00  0.00    -0.246 OA
ATOM     14  C   UNL     1      34.231  -1.079  33.969  1.00  0.00    -0.026 C 
ENDBRANCH   4   5
ENDBRANCH   1   4
TORSDOF 3
ENDMDL
MODEL 5
REMARK VINA RESULT:    -4.686      3.585      5.674
REMARK INTER + INTRA:          -5.678
REMARK INTER:                  -5.332
REMARK INTRA:                  -0.346
REMARK UNBOUND:                -0.170
REMARK SMILES CCCC[C@H]1OC(=O)C2=C1CCC=C2
REMARK SMILES IDX 3 1 2 2 1 3 4 4 5 5 10 6 6 7 9 8 11 9 7 10 14 11 12 12 8 13
REMARK SMILES IDX 13 14
REMARK H PARENT
REMARK Flexibility Score: inf
ROOT
ATOM      1  C   UNL     1      30.018  -3.751  35.349  1.00  0.00     0.004 C 
ENDROOT
BRANCH   1   2
ATOM      2  C   UNL     1      29.706  -4.540  34.069  1.00  0.00    -0.003 C 
ATOM      3  C   UNL     1      29.457  -6.025  34.333  1.00  0.00     0.004 C 
ENDBRANCH   1   2
BRANCH   1   4
ATOM      4  C   UNL     1      29.184  -2.464  35.468  1.00  0.00     0.050 C 
BRANCH   4   5
ATOM      5  C   UNL     1      27.862  -2.688  36.224  1.00  0.00     0.204 C 
ATOM      6  C   UNL     1      26.651  -2.194  35.458  1.00  0.00    -0.015 C 
ATOM      7  O   UNL     1      27.846  -1.873  37.399  1.00  0.00    -0.454 OA
ATOM      8  C   UNL     1      26.072  -1.191  36.097  1.00  0.00     0.062 C 
ATOM      9  C   UNL     1      26.173  -2.634  34.098  1.00  0.00     0.040 C 
ATOM     10  C   UNL     1      26.799  -0.972  37.318  1.00  0.00     0.338 C 
ATOM     11  C   UNL     1      24.902  -0.477  35.572  1.00  0.00     0.011 C 
ATOM     12  C   UNL     1      24.679  -2.294  33.891  1.00  0.00     0.032 C 
ATOM     13  O   UNL     1      26.537  -0.105  38.193  1.00  0.00    -0.246 OA
ATOM     14  C   UNL     1      24.291  -0.953  34.480  1.00  0.00    -0.026 C 
ENDBRANCH   4   5
ENDBRANCH   1   4
TORSDOF 3
ENDMDL
MODEL 6
REMARK VINA RESULT:    -4.607      6.607      8.534
REMARK INTER + INTRA:          -5.586
REMARK INTER:                  -4.975
REMARK INTRA:                  -0.611
REMARK UNBOUND:                -0.170
REMARK SMILES CCCC[C@H]1OC(=O)C2=C1CCC=C2
REMARK SMILES IDX 3 1 2 2 1 3 4 4 5 5 10 6 6 7 9 8 11 9 7 10 14 11 12 12 8 13
REMARK SMILES IDX 13 14
REMARK H PARENT
REMARK Flexibility Score: inf
ROOT
ATOM      1  C   UNL     1      25.484  -1.385  33.550  1.00  0.00     0.004 C 
ENDROOT
BRANCH   1   2
ATOM      2  C   UNL     1      25.408  -0.072  32.756  1.00  0.00    -0.003 C 
ATOM      3  C   UNL     1      26.044   1.105  33.494  1.00  0.00     0.004 C 
ENDBRANCH   1   2
BRANCH   1   4
ATOM      4  C   UNL     1      24.163  -1.722  34.262  1.00  0.00     0.050 C 
BRANCH   4   5
ATOM      5  C   UNL     1      24.282  -1.629  35.794  1.00  0.00     0.204 C 
ATOM      6  C   UNL     1      23.975  -0.245  36.330  1.00  0.00    -0.015 C 
ATOM      7  O   UNL     1      25.648  -1.819  36.174  1.00  0.00    -0.454 OA
ATOM      8  C   UNL     1      25.051   0.290  36.882  1.00  0.00     0.062 C 
ATOM      9  C   UNL     1      22.696   0.539  36.187  1.00  0.00     0.040 C 
ATOM     10  C   UNL     1      26.112  -0.676  36.801  1.00  0.00     0.338 C 
ATOM     11  C   UNL     1      25.069   1.646  37.445  1.00  0.00     0.011 C 
ATOM     12  C   UNL     1      22.590   1.641  37.267  1.00  0.00     0.032 C 
ATOM     13  O   UNL     1      27.286  -0.527  37.232  1.00  0.00    -0.246 OA
ATOM     14  C   UNL     1      23.916   2.317  37.553  1.00  0.00    -0.026 C 
ENDBRANCH   4   5
ENDBRANCH   1   4
TORSDOF 3
ENDMDL
MODEL 7
REMARK VINA RESULT:    -4.602      2.546      5.426
REMARK INTER + INTRA:          -5.579
REMARK INTER:                  -5.112
REMARK INTRA:                  -0.467
REMARK UNBOUND:                -0.170
REMARK SMILES CCCC[C@H]1OC(=O)C2=C1CCC=C2
REMARK SMILES IDX 3 1 2 2 1 3 4 4 5 5 10 6 6 7 9 8 11 9 7 10 14 11 12 12 8 13
REMARK SMILES IDX 13 14
REMARK H PARENT
REMARK Flexibility Score: inf
ROOT
ATOM      1  C   UNL     1      34.925  -2.896  35.094  1.00  0.00     0.004 C 
ENDROOT
BRANCH   1   2
ATOM      2  C   UNL     1      35.244  -4.224  35.796  1.00  0.00    -0.003 C 
ATOM      3  C   UNL     1      35.746  -5.299  34.832  1.00  0.00     0.004 C 
ENDBRANCH   1   2
BRANCH   1   4
ATOM      4  C   UNL     1      33.488  -2.417  35.362  1.00  0.00     0.050 C 
BRANCH   4   5
ATOM      5  C   UNL     1      32.587  -2.539  34.120  1.00  0.00     0.204 C 
ATOM      6  C   UNL     1      31.457  -3.534  34.304  1.00  0.00    -0.015 C 
ATOM      7  O   UNL     1      33.338  -3.110  33.046  1.00  0.00    -0.454 OA
ATOM      8  C   UNL     1      31.598  -4.557  33.478  1.00  0.00     0.062 C 
ATOM      9  C   UNL     1      30.362  -3.508  35.338  1.00  0.00     0.040 C 
ATOM     10  C   UNL     1      32.767  -4.315  32.676  1.00  0.00     0.338 C 
ATOM     11  C   UNL     1      30.680  -5.702  33.461  1.00  0.00     0.011 C 
ATOM     12  C   UNL     1      29.153  -4.366  34.896  1.00  0.00     0.032 C 
ATOM     13  O   UNL     1      33.214  -5.067  31.770  1.00  0.00    -0.246 OA
ATOM     14  C   UNL     1      29.562  -5.646  34.195  1.00  0.00    -0.026 C 
ENDBRANCH   4   5
ENDBRANCH   1   4
TORSDOF 3
ENDMDL
MODEL 8
REMARK VINA RESULT:    -4.545      6.223      8.669
REMARK INTER + INTRA:          -5.512
REMARK INTER:                  -5.106
REMARK INTRA:                  -0.406
REMARK UNBOUND:                -0.170
REMARK SMILES CCCC[C@H]1OC(=O)C2=C1CCC=C2
REMARK SMILES IDX 3 1 2 2 1 3 4 4 5 5 10 6 6 7 9 8 11 9 7 10 14 11 12 12 8 13
REMARK SMILES IDX 13 14
REMARK H PARENT
REMARK Flexibility Score: inf
ROOT
ATOM      1  C   UNL     1      26.385   1.685  34.477  1.00  0.00     0.004 C 
ENDROOT
BRANCH   1   2
ATOM      2  C   UNL     1      27.693   1.168  35.094  1.00  0.00    -0.003 C 
ATOM      3  C   UNL     1      27.466   0.065  36.127  1.00  0.00     0.004 C 
ENDBRANCH   1   2
BRANCH   1   4
ATOM      4  C   UNL     1      26.309   1.441  32.961  1.00  0.00     0.050 C 
BRANCH   4   5
ATOM      5  C   UNL     1      25.349   0.294  32.598  1.00  0.00     0.204 C 
ATOM      6  C   UNL     1      24.178   0.177  33.554  1.00  0.00    -0.015 C 
ATOM      7  O   UNL     1      26.021  -0.957  32.767  1.00  0.00    -0.454 OA
ATOM      8  C   UNL     1      24.229  -0.969  34.215  1.00  0.00     0.062 C 
ATOM      9  C   UNL     1      23.132   1.214  33.867  1.00  0.00     0.040 C 
ATOM     10  C   UNL     1      25.372  -1.699  33.738  1.00  0.00     0.338 C 
ATOM     11  C   UNL     1      23.253  -1.340  35.246  1.00  0.00     0.011 C 
ATOM     12  C   UNL     1      21.863   0.567  34.469  1.00  0.00     0.032 C 
ATOM     13  O   UNL     1      25.740  -2.839  34.126  1.00  0.00    -0.246 OA
ATOM     14  C   UNL     1      22.173  -0.569  35.422  1.00  0.00    -0.026 C 
ENDBRANCH   4   5
ENDBRANCH   1   4
TORSDOF 3
ENDMDL
MODEL 9
REMARK VINA RESULT:    -4.481      6.269      8.534
REMARK INTER + INTRA:          -5.437
REMARK INTER:                  -4.837
REMARK INTRA:                  -0.600
REMARK UNBOUND:                -0.170
REMARK SMILES CCCC[C@H]1OC(=O)C2=C1CCC=C2
REMARK SMILES IDX 3 1 2 2 1 3 4 4 5 5 10 6 6 7 9 8 11 9 7 10 14 11 12 12 8 13
REMARK SMILES IDX 13 14
REMARK H PARENT
REMARK Flexibility Score: inf
ROOT
ATOM      1  C   UNL     1      22.839   0.993  33.469  1.00  0.00     0.004 C 
ENDROOT
BRANCH   1   2
ATOM      2  C   UNL     1      24.147   1.750  33.190  1.00  0.00    -0.003 C 
ATOM      3  C   UNL     1      25.198   0.882  32.497  1.00  0.00     0.004 C 
ENDBRANCH   1   2
BRANCH   1   4
ATOM      4  C   UNL     1      22.456   1.006  34.958  1.00  0.00     0.050 C 
BRANCH   4   5
ATOM      5  C   UNL     1      22.804  -0.316  35.666  1.00  0.00     0.204 C 
ATOM      6  C   UNL     1      24.276  -0.433  36.010  1.00  0.00    -0.015 C 
ATOM      7  O   UNL     1      22.605  -1.404  34.759  1.00  0.00    -0.454 OA
ATOM      8  C   UNL     1      24.836  -1.422  35.333  1.00  0.00     0.062 C 
ATOM      9  C   UNL     1      25.096   0.478  36.886  1.00  0.00     0.040 C 
ATOM     10  C   UNL     1      23.810  -2.049  34.544  1.00  0.00     0.338 C 
ATOM     11  C   UNL     1      26.265  -1.745  35.425  1.00  0.00     0.011 C 
ATOM     12  C   UNL     1      26.373  -0.232  37.394  1.00  0.00     0.032 C 
ATOM     13  O   UNL     1      23.962  -3.036  33.776  1.00  0.00    -0.246 OA
ATOM     14  C   UNL     1      27.010  -1.123  36.347  1.00  0.00    -0.026 C 
ENDBRANCH   4   5
ENDBRANCH   1   4
TORSDOF 3
ENDMDL
