MODEL 1
REMARK VINA RESULT:    -3.270      0.000      0.000
REMARK INTER + INTRA:          -5.464
REMARK INTER:                  -4.991
REMARK INTRA:                  -0.473
REMARK UNBOUND:                -0.473
REMARK SMILES O=C([O-])CCCCCCCCC(=O)[O-]
REMARK SMILES IDX 7 1 6 2 5 3 4 4 2 5 1 6 3 7 8 8 9 9 10 10 11 11 12 12 13 13
REMARK SMILES IDX 14 14
REMARK H PARENT
REMARK Flexibility Score: inf
ROOT
ATOM      1  C   UNL     1       7.413  -5.533   3.350  1.00  0.00     0.000 C 
ENDROOT
BRANCH   1   2
ATOM      2  C   UNL     1       8.777  -6.210   3.147  1.00  0.00     0.000 C 
BRANCH   2   3
ATOM      3  C   UNL     1       9.822  -5.639   4.113  1.00  0.00     0.006 C 
BRANCH   3   4
ATOM      4  C   UNL     1      11.218  -5.653   3.484  1.00  0.00     0.053 C 
BRANCH   4   5
ATOM      5  C   UNL     1      12.207  -6.277   4.418  1.00  0.00     0.041 C 
ATOM      6  O   UNL     1      13.376  -6.532   4.026  1.00  0.00    -0.550 OA
ATOM      7  O   UNL     1      11.853  -6.532   5.737  1.00  0.00    -0.550 OA
ENDBRANCH   4   5
ENDBRANCH   3   4
ENDBRANCH   2   3
ENDBRANCH   1   2
BRANCH   1   8
ATOM      8  C   UNL     1       6.322  -6.521   3.793  1.00  0.00     0.000 C 
BRANCH   8   9
ATOM      9  C   UNL     1       5.291  -5.881   4.735  1.00  0.00     0.000 C 
BRANCH   9  10
ATOM     10  C   UNL     1       5.505  -6.344   6.180  1.00  0.00     0.006 C 
BRANCH  10  11
ATOM     11  C   UNL     1       6.005  -7.791   6.226  1.00  0.00     0.053 C 
BRANCH  11  12
ATOM     12  C   UNL     1       4.874  -8.727   6.509  1.00  0.00     0.041 C 
ATOM     13  O   UNL     1       4.213  -9.227   5.562  1.00  0.00    -0.550 OA
ATOM     14  O   UNL     1       4.581  -9.088   7.818  1.00  0.00    -0.550 OA
ENDBRANCH  11  12
ENDBRANCH  10  11
ENDBRANCH   9  10
ENDBRANCH   8   9
ENDBRANCH   1   8
TORSDOF 9
ENDMDL
MODEL 2
REMARK VINA RESULT:    -3.261      4.370      6.477
REMARK INTER + INTRA:          -5.451
REMARK INTER:                  -4.563
REMARK INTRA:                  -0.888
REMARK UNBOUND:                -0.473
REMARK SMILES O=C([O-])CCCCCCCCC(=O)[O-]
REMARK SMILES IDX 7 1 6 2 5 3 4 4 2 5 1 6 3 7 8 8 9 9 10 10 11 11 12 12 13 13
REMARK SMILES IDX 14 14
REMARK H PARENT
REMARK Flexibility Score: inf
ROOT
ATOM      1  C   UNL     1       5.716  -6.580   6.281  1.00  0.00     0.000 C 
ENDROOT
BRANCH   1   2
ATOM      2  C   UNL     1       5.280  -7.907   6.920  1.00  0.00     0.000 C 
BRANCH   2   3
ATOM      3  C   UNL     1       5.089  -8.993   5.854  1.00  0.00     0.006 C 
BRANCH   3   4
ATOM      4  C   UNL     1       3.606  -9.193   5.533  1.00  0.00     0.053 C 
BRANCH   4   5
ATOM      5  C   UNL     1       3.402  -9.320   4.056  1.00  0.00     0.041 C 
ATOM      6  O   UNL     1       4.391  -9.307   3.277  1.00  0.00    -0.550 OA
ATOM      7  O   UNL     1       2.124  -9.501   3.543  1.00  0.00    -0.550 OA
ENDBRANCH   4   5
ENDBRANCH   3   4
ENDBRANCH   2   3
ENDBRANCH   1   2
BRANCH   1   8
ATOM      8  C   UNL     1       6.596  -6.782   5.038  1.00  0.00     0.000 C 
BRANCH   8   9
ATOM      9  C   UNL     1       6.078  -6.012   3.814  1.00  0.00     0.000 C 
BRANCH   9  10
ATOM     10  C   UNL     1       4.559  -5.819   3.889  1.00  0.00     0.006 C 
BRANCH  10  11
ATOM     11  C   UNL     1       4.160  -4.412   3.433  1.00  0.00     0.053 C 
BRANCH  11  12
ATOM     12  C   UNL     1       3.447  -3.688   4.530  1.00  0.00     0.041 C 
ATOM     13  O   UNL     1       3.876  -3.747   5.712  1.00  0.00    -0.550 OA
ATOM     14  O   UNL     1       2.335  -2.908   4.240  1.00  0.00    -0.550 OA
ENDBRANCH  11  12
ENDBRANCH  10  11
ENDBRANCH   9  10
ENDBRANCH   8   9
ENDBRANCH   1   8
TORSDOF 9
ENDMDL
MODEL 3
REMARK VINA RESULT:    -3.253      1.238      1.642
REMARK INTER + INTRA:          -5.438
REMARK INTER:                  -5.065
REMARK INTRA:                  -0.373
REMARK UNBOUND:                -0.473
REMARK SMILES O=C([O-])CCCCCCCCC(=O)[O-]
REMARK SMILES IDX 7 1 6 2 5 3 4 4 2 5 1 6 3 7 8 8 9 9 10 10 11 11 12 12 13 13
REMARK SMILES IDX 14 14
REMARK H PARENT
REMARK Flexibility Score: inf
ROOT
ATOM      1  C   UNL     1       8.944  -4.886   3.473  1.00  0.00     0.000 C 
ENDROOT
BRANCH   1   2
ATOM      2  C   UNL     1       9.877  -5.685   4.396  1.00  0.00     0.000 C 
BRANCH   2   3
ATOM      3  C   UNL     1      11.200  -6.009   3.692  1.00  0.00     0.006 C 
BRANCH   3   4
ATOM      4  C   UNL     1      12.321  -6.240   4.708  1.00  0.00     0.053 C 
BRANCH   4   5
ATOM      5  C   UNL     1      13.460  -5.303   4.454  1.00  0.00     0.041 C 
ATOM      6  O   UNL     1      13.450  -4.553   3.443  1.00  0.00    -0.550 OA
ATOM      7  O   UNL     1      14.509  -5.223   5.361  1.00  0.00    -0.550 OA
ENDBRANCH   4   5
ENDBRANCH   3   4
ENDBRANCH   2   3
ENDBRANCH   1   2
BRANCH   1   8
ATOM      8  C   UNL     1       7.496  -5.402   3.504  1.00  0.00     0.000 C 
BRANCH   8   9
ATOM      9  C   UNL     1       7.379  -6.802   4.124  1.00  0.00     0.000 C 
BRANCH   9  10
ATOM     10  C   UNL     1       6.231  -6.860   5.138  1.00  0.00     0.006 C 
BRANCH  10  11
ATOM     11  C   UNL     1       6.266  -8.167   5.935  1.00  0.00     0.053 C 
BRANCH  11  12
ATOM     12  C   UNL     1       4.885  -8.565   6.349  1.00  0.00     0.041 C 
ATOM     13  O   UNL     1       3.967  -8.656   5.492  1.00  0.00    -0.550 OA
ATOM     14  O   UNL     1       4.621  -8.883   7.675  1.00  0.00    -0.550 OA
ENDBRANCH  11  12
ENDBRANCH  10  11
ENDBRANCH   9  10
ENDBRANCH   8   9
ENDBRANCH   1   8
TORSDOF 9
ENDMDL
MODEL 4
REMARK VINA RESULT:    -3.167      4.200      8.862
REMARK INTER + INTRA:          -5.307
REMARK INTER:                  -4.878
REMARK INTRA:                  -0.429
REMARK UNBOUND:                -0.473
REMARK SMILES O=C([O-])CCCCCCCCC(=O)[O-]
REMARK SMILES IDX 7 1 6 2 5 3 4 4 2 5 1 6 3 7 8 8 9 9 10 10 11 11 12 12 13 13
REMARK SMILES IDX 14 14
REMARK H PARENT
REMARK Flexibility Score: inf
ROOT
ATOM      1  C   UNL     1      13.876  -4.990   3.434  1.00  0.00     0.000 C 
ENDROOT
BRANCH   1   2
ATOM      2  C   UNL     1      13.149  -5.513   4.681  1.00  0.00     0.000 C 
BRANCH   2   3
ATOM      3  C   UNL     1      11.944  -6.378   4.292  1.00  0.00     0.006 C 
BRANCH   3   4
ATOM      4  C   UNL     1      11.111  -5.701   3.200  1.00  0.00     0.053 C 
BRANCH   4   5
ATOM      5  C   UNL     1       9.787  -5.267   3.744  1.00  0.00     0.041 C 
ATOM      6  O   UNL     1       9.360  -5.744   4.829  1.00  0.00    -0.550 OA
ATOM      7  O   UNL     1       9.045  -4.300   3.079  1.00  0.00    -0.550 OA
ENDBRANCH   4   5
ENDBRANCH   3   4
ENDBRANCH   2   3
ENDBRANCH   1   2
BRANCH   1   8
ATOM      8  C   UNL     1      15.067  -5.873   3.028  1.00  0.00     0.000 C 
BRANCH   8   9
ATOM      9  C   UNL     1      16.405  -5.350   3.572  1.00  0.00     0.000 C 
BRANCH   9  10
ATOM     10  C   UNL     1      16.902  -6.217   4.735  1.00  0.00     0.006 C 
BRANCH  10  11
ATOM     11  C   UNL     1      17.486  -7.538   4.226  1.00  0.00     0.053 C 
BRANCH  11  12
ATOM     12  C   UNL     1      17.562  -8.539   5.335  1.00  0.00     0.041 C 
ATOM     13  O   UNL     1      17.544  -9.772   5.079  1.00  0.00    -0.550 OA
ATOM     14  O   UNL     1      17.702  -8.112   6.649  1.00  0.00    -0.550 OA
ENDBRANCH  11  12
ENDBRANCH  10  11
ENDBRANCH   9  10
ENDBRANCH   8   9
ENDBRANCH   1   8
TORSDOF 9
ENDMDL
MODEL 5
REMARK VINA RESULT:    -3.139      1.110      7.261
REMARK INTER + INTRA:          -5.265
REMARK INTER:                  -5.007
REMARK INTRA:                  -0.258
REMARK UNBOUND:                -0.473
REMARK SMILES O=C([O-])CCCCCCCCC(=O)[O-]
REMARK SMILES IDX 7 1 6 2 5 3 4 4 2 5 1 6 3 7 8 8 9 9 10 10 11 11 12 12 13 13
REMARK SMILES IDX 14 14
REMARK H PARENT
REMARK Flexibility Score: inf
ROOT
ATOM      1  C   UNL     1       7.911  -6.371   3.407  1.00  0.00     0.000 C 
ENDROOT
BRANCH   1   2
ATOM      2  C   UNL     1       6.581  -6.433   4.172  1.00  0.00     0.000 C 
BRANCH   2   3
ATOM      3  C   UNL     1       6.755  -7.143   5.520  1.00  0.00     0.006 C 
BRANCH   3   4
ATOM      4  C   UNL     1       5.459  -7.102   6.335  1.00  0.00     0.053 C 
BRANCH   4   5
ATOM      5  C   UNL     1       4.883  -8.476   6.471  1.00  0.00     0.041 C 
ATOM      6  O   UNL     1       4.690  -9.186   5.450  1.00  0.00    -0.550 OA
ATOM      7  O   UNL     1       4.606  -8.992   7.731  1.00  0.00    -0.550 OA
ENDBRANCH   4   5
ENDBRANCH   3   4
ENDBRANCH   2   3
ENDBRANCH   1   2
BRANCH   1   8
ATOM      8  C   UNL     1       9.013  -5.643   4.193  1.00  0.00     0.000 C 
BRANCH   8   9
ATOM      9  C   UNL     1      10.213  -5.260   3.313  1.00  0.00     0.000 C 
BRANCH   9  10
ATOM     10  C   UNL     1      11.471  -6.029   3.735  1.00  0.00     0.006 C 
BRANCH  10  11
ATOM     11  C   UNL     1      12.739  -5.253   3.370  1.00  0.00     0.053 C 
BRANCH  11  12
ATOM     12  C   UNL     1      13.895  -5.720   4.196  1.00  0.00     0.041 C 
ATOM     13  O   UNL     1      14.665  -6.615   3.759  1.00  0.00    -0.550 OA
ATOM     14  O   UNL     1      14.153  -5.133   5.428  1.00  0.00    -0.550 OA
ENDBRANCH  11  12
ENDBRANCH  10  11
ENDBRANCH   9  10
ENDBRANCH   8   9
ENDBRANCH   1   8
TORSDOF 9
ENDMDL
MODEL 6
REMARK VINA RESULT:    -3.025      2.250      7.750
REMARK INTER + INTRA:          -5.090
REMARK INTER:                  -4.781
REMARK INTRA:                  -0.308
REMARK UNBOUND:                -0.473
REMARK SMILES O=C([O-])CCCCCCCCC(=O)[O-]
REMARK SMILES IDX 7 1 6 2 5 3 4 4 2 5 1 6 3 7 8 8 9 9 10 10 11 11 12 12 13 13
REMARK SMILES IDX 14 14
REMARK H PARENT
REMARK Flexibility Score: inf
ROOT
ATOM      1  C   UNL     1       9.813  -5.588   4.136  1.00  0.00     0.000 C 
ENDROOT
BRANCH   1   2
ATOM      2  C   UNL     1       8.748  -4.916   3.256  1.00  0.00     0.000 C 
BRANCH   2   3
ATOM      3  C   UNL     1       7.364  -5.525   3.509  1.00  0.00     0.006 C 
BRANCH   3   4
ATOM      4  C   UNL     1       7.403  -6.514   4.677  1.00  0.00     0.053 C 
BRANCH   4   5
ATOM      5  C   UNL     1       6.071  -6.574   5.357  1.00  0.00     0.041 C 
ATOM      6  O   UNL     1       5.105  -5.899   4.918  1.00  0.00    -0.550 OA
ATOM      7  O   UNL     1       5.885  -7.415   6.447  1.00  0.00    -0.550 OA
ENDBRANCH   4   5
ENDBRANCH   3   4
ENDBRANCH   2   3
ENDBRANCH   1   2
BRANCH   1   8
ATOM      8  C   UNL     1      11.133  -5.831   3.386  1.00  0.00     0.000 C 
BRANCH   8   9
ATOM      9  C   UNL     1      12.286  -6.216   4.326  1.00  0.00     0.000 C 
BRANCH   9  10
ATOM     10  C   UNL     1      13.483  -5.277   4.141  1.00  0.00     0.006 C 
BRANCH  10  11
ATOM     11  C   UNL     1      14.297  -5.162   5.434  1.00  0.00     0.053 C 
BRANCH  11  12
ATOM     12  C   UNL     1      15.725  -5.533   5.188  1.00  0.00     0.041 C 
ATOM     13  O   UNL     1      16.082  -5.970   4.063  1.00  0.00    -0.550 OA
ATOM     14  O   UNL     1      16.672  -5.350   6.188  1.00  0.00    -0.550 OA
ENDBRANCH  11  12
ENDBRANCH  10  11
ENDBRANCH   9  10
ENDBRANCH   8   9
ENDBRANCH   1   8
TORSDOF 9
ENDMDL
MODEL 7
REMARK VINA RESULT:    -3.006      4.215      5.876
REMARK INTER + INTRA:          -5.062
REMARK INTER:                  -4.124
REMARK INTRA:                  -0.938
REMARK UNBOUND:                -0.473
REMARK SMILES O=C([O-])CCCCCCCCC(=O)[O-]
REMARK SMILES IDX 7 1 6 2 5 3 4 4 2 5 1 6 3 7 8 8 9 9 10 10 11 11 12 12 13 13
REMARK SMILES IDX 14 14
REMARK H PARENT
REMARK Flexibility Score: inf
ROOT
ATOM      1  C   UNL     1       2.345  -9.092   3.489  1.00  0.00     0.000 C 
ENDROOT
BRANCH   1   2
ATOM      2  C   UNL     1       2.732  -7.713   2.933  1.00  0.00     0.000 C 
BRANCH   2   3
ATOM      3  C   UNL     1       2.649  -6.638   4.024  1.00  0.00     0.006 C 
BRANCH   3   4
ATOM      4  C   UNL     1       2.889  -5.243   3.441  1.00  0.00     0.053 C 
BRANCH   4   5
ATOM      5  C   UNL     1       4.024  -4.569   4.146  1.00  0.00     0.041 C 
ATOM      6  O   UNL     1       3.815  -3.919   5.204  1.00  0.00    -0.550 OA
ATOM      7  O   UNL     1       5.319  -4.699   3.661  1.00  0.00    -0.550 OA
ENDBRANCH   4   5
ENDBRANCH   3   4
ENDBRANCH   2   3
ENDBRANCH   1   2
BRANCH   1   8
ATOM      8  C   UNL     1       3.366  -9.629   4.505  1.00  0.00     0.000 C 
BRANCH   8   9
ATOM      9  C   UNL     1       4.785  -9.724   3.924  1.00  0.00     0.000 C 
BRANCH   9  10
ATOM     10  C   UNL     1       5.837  -9.386   4.987  1.00  0.00     0.006 C 
BRANCH  10  11
ATOM     11  C   UNL     1       5.985  -7.871   5.153  1.00  0.00     0.053 C 
BRANCH  11  12
ATOM     12  C   UNL     1       5.526  -7.445   6.512  1.00  0.00     0.041 C 
ATOM     13  O   UNL     1       5.081  -8.297   7.326  1.00  0.00    -0.550 OA
ATOM     14  O   UNL     1       5.635  -6.116   6.898  1.00  0.00    -0.550 OA
ENDBRANCH  11  12
ENDBRANCH  10  11
ENDBRANCH   9  10
ENDBRANCH   8   9
ENDBRANCH   1   8
TORSDOF 9
ENDMDL
MODEL 8
REMARK VINA RESULT:    -3.001      2.642      4.069
REMARK INTER + INTRA:          -5.053
REMARK INTER:                  -4.861
REMARK INTRA:                  -0.192
REMARK UNBOUND:                -0.473
REMARK SMILES O=C([O-])CCCCCCCCC(=O)[O-]
REMARK SMILES IDX 7 1 6 2 5 3 4 4 2 5 1 6 3 7 8 8 9 9 10 10 11 11 12 12 13 13
REMARK SMILES IDX 14 14
REMARK H PARENT
REMARK Flexibility Score: inf
ROOT
ATOM      1  C   UNL     1      11.776  -6.040   4.483  1.00  0.00     0.000 C 
ENDROOT
BRANCH   1   2
ATOM      2  C   UNL     1      13.080  -5.701   3.745  1.00  0.00     0.000 C 
BRANCH   2   3
ATOM      3  C   UNL     1      14.176  -5.281   4.732  1.00  0.00     0.006 C 
BRANCH   3   4
ATOM      4  C   UNL     1      15.569  -5.555   4.157  1.00  0.00     0.053 C 
BRANCH   4   5
ATOM      5  C   UNL     1      16.502  -6.003   5.237  1.00  0.00     0.041 C 
ATOM      6  O   UNL     1      16.543  -5.387   6.334  1.00  0.00    -0.550 OA
ATOM      7  O   UNL     1      17.292  -7.130   5.051  1.00  0.00    -0.550 OA
ENDBRANCH   4   5
ENDBRANCH   3   4
ENDBRANCH   2   3
ENDBRANCH   1   2
BRANCH   1   8
ATOM      8  C   UNL     1      10.524  -5.690   3.664  1.00  0.00     0.000 C 
BRANCH   8   9
ATOM      9  C   UNL     1       9.244  -5.681   4.513  1.00  0.00     0.000 C 
BRANCH   9  10
ATOM     10  C   UNL     1       7.995  -5.711   3.624  1.00  0.00     0.006 C 
BRANCH  10  11
ATOM     11  C   UNL     1       7.088  -6.890   3.990  1.00  0.00     0.053 C 
BRANCH  11  12
ATOM     12  C   UNL     1       5.965  -6.436   4.867  1.00  0.00     0.041 C 
ATOM     13  O   UNL     1       4.929  -5.931   4.359  1.00  0.00    -0.550 OA
ATOM     14  O   UNL     1       6.041  -6.613   6.242  1.00  0.00    -0.550 OA
ENDBRANCH  11  12
ENDBRANCH  10  11
ENDBRANCH   9  10
ENDBRANCH   8   9
ENDBRANCH   1   8
TORSDOF 9
ENDMDL
MODEL 9
REMARK VINA RESULT:    -2.864      3.968      5.483
REMARK INTER + INTRA:          -4.845
REMARK INTER:                  -4.325
REMARK INTRA:                  -0.520
REMARK UNBOUND:                -0.473
REMARK SMILES O=C([O-])CCCCCCCCC(=O)[O-]
REMARK SMILES IDX 7 1 6 2 5 3 4 4 2 5 1 6 3 7 8 8 9 9 10 10 11 11 12 12 13 13
REMARK SMILES IDX 14 14
REMARK H PARENT
REMARK Flexibility Score: inf
ROOT
ATOM      1  C   UNL     1       6.562  -5.388   2.960  1.00  0.00     0.000 C 
ENDROOT
BRANCH   1   2
ATOM      2  C   UNL     1       5.253  -4.583   2.948  1.00  0.00     0.000 C 
BRANCH   2   3
ATOM      3  C   UNL     1       4.037  -5.514   2.875  1.00  0.00     0.006 C 
BRANCH   3   4
ATOM      4  C   UNL     1       3.172  -5.388   4.132  1.00  0.00     0.053 C 
BRANCH   4   5
ATOM      5  C   UNL     1       3.230  -3.993   4.670  1.00  0.00     0.041 C 
ATOM      6  O   UNL     1       3.915  -3.738   5.695  1.00  0.00    -0.550 OA
ATOM      7  O   UNL     1       2.568  -2.965   4.012  1.00  0.00    -0.550 OA
ENDBRANCH   4   5
ENDBRANCH   3   4
ENDBRANCH   2   3
ENDBRANCH   1   2
BRANCH   1   8
ATOM      8  C   UNL     1       6.407  -6.759   3.636  1.00  0.00     0.000 C 
BRANCH   8   9
ATOM      9  C   UNL     1       6.917  -6.767   5.086  1.00  0.00     0.000 C 
BRANCH   9  10
ATOM     10  C   UNL     1       5.754  -6.893   6.077  1.00  0.00     0.006 C 
BRANCH  10  11
ATOM     11  C   UNL     1       5.657  -8.318   6.632  1.00  0.00     0.053 C 
BRANCH  11  12
ATOM     12  C   UNL     1       4.581  -9.081   5.928  1.00  0.00     0.041 C 
ATOM     13  O   UNL     1       3.431  -9.167   6.434  1.00  0.00    -0.550 OA
ATOM     14  O   UNL     1       4.833  -9.658   4.690  1.00  0.00    -0.550 OA
ENDBRANCH  11  12
ENDBRANCH  10  11
ENDBRANCH   9  10
ENDBRANCH   8   9
ENDBRANCH   1   8
TORSDOF 9
ENDMDL
