MODEL 1
REMARK VINA RESULT:    19.452      0.000      0.000
REMARK INTER + INTRA:          28.286
REMARK INTER:                  27.412
REMARK INTRA:                   0.874
REMARK UNBOUND:                 0.874
REMARK SMILES CC1=CCC(=C(C)C)C(=O)CC(C)=CCC1
REMARK SMILES IDX 12 1 14 2 13 3 15 4 16 5 2 6 1 7 3 8 11 10 9 11 10 12 5 13
REMARK SMILES IDX 6 14 7 15 8 16 4 17
REMARK H PARENT
REMARK Flexibility Score: 60.00
ROOT
ATOM      1  C   UNL     1      32.577  11.508  41.449  1.00  0.00    -0.070 C 
ATOM      2  C   UNL     1      32.931  10.257  41.073  1.00  0.00    -0.027 C 
ATOM      3  C   UNL     1      32.017  11.684  42.840  1.00  0.00     0.039 C 
ENDROOT
BRANCH   2   4
ATOM      4  C   UNL     1      33.604   9.869  39.779  1.00  0.00     0.032 C 
BRANCH   4   5
ATOM      5  C   UNL     1      34.964   9.179  40.000  1.00  0.00     0.034 C 
BRANCH   5   6
ATOM      6  C   UNL     1      36.129  10.105  39.714  1.00  0.00    -0.077 C 
ATOM      7  C   UNL     1      36.977   9.833  38.498  1.00  0.00     0.039 C 
ATOM      8  C   UNL     1      36.468  11.150  40.502  1.00  0.00    -0.023 CG0
ATOM      9  G   UNL     1      35.766  11.560  41.774  1.00  0.00     0.000 G0
ENDBRANCH   5   6
ENDBRANCH   4   5
ENDBRANCH   2   4
BRANCH   1  10
ATOM     10  C   UNL     1      32.774  12.739  40.581  1.00  0.00     0.111 C 
BRANCH  10  11
ATOM     11  C   UNL     1      34.225  13.150  40.522  1.00  0.00     0.163 C 
ATOM     12  O   UNL     1      34.654  13.657  39.451  1.00  0.00    -0.294 OA
BRANCH  11  13
ATOM     13  C   UNL     1      35.160  12.923  41.668  1.00  0.00    -0.002 C 
ATOM     14  C   UNL     1      35.384  13.884  42.614  1.00  0.00    -0.069 C 
ATOM     15  C   UNL     1      34.643  15.202  42.596  1.00  0.00     0.039 C 
ATOM     16  C   UNL     1      36.360  13.661  43.749  1.00  0.00     0.039 C 
BRANCH  13  17
ATOM     17  C   UNL     1      35.794  11.548  41.778  1.00  0.00     0.066 CG0
ATOM     18  G   UNL     1      36.440  11.175  40.466  1.00  0.00     0.000 G0
ENDBRANCH  13  17
ENDBRANCH  11  13
ENDBRANCH  10  11
ENDBRANCH   1  10
TORSDOF 0
ENDMDL
MODEL 2
REMARK VINA RESULT:    20.020      1.734      2.754
REMARK INTER + INTRA:          29.087
REMARK INTER:                  26.794
REMARK INTRA:                   2.293
REMARK UNBOUND:                 0.874
REMARK SMILES CC1=CCC(=C(C)C)C(=O)CC(C)=CCC1
REMARK SMILES IDX 12 1 14 2 13 3 15 4 16 5 2 6 1 7 3 8 11 10 9 11 10 12 5 13
REMARK SMILES IDX 6 14 7 15 8 16 4 17
REMARK H PARENT
REMARK Flexibility Score: 60.00
ROOT
ATOM      1  C   UNL     1      33.395  12.527  39.562  1.00  0.00    -0.070 C 
ATOM      2  C   UNL     1      32.934  11.261  39.434  1.00  0.00    -0.027 C 
ATOM      3  C   UNL     1      32.414  13.651  39.329  1.00  0.00     0.039 C 
ENDROOT
BRANCH   2   4
ATOM      4  C   UNL     1      33.706   9.995  39.721  1.00  0.00     0.032 C 
BRANCH   4   5
ATOM      5  C   UNL     1      33.684   9.613  41.213  1.00  0.00     0.034 C 
BRANCH   5   6
ATOM      6  C   UNL     1      32.921  10.620  42.050  1.00  0.00    -0.077 C 
ATOM      7  C   UNL     1      31.414  10.571  42.030  1.00  0.00     0.039 C 
ATOM      8  C   UNL     1      33.513  11.579  42.797  1.00  0.00    -0.023 CG0
ATOM      9  G   UNL     1      35.000  11.810  42.918  1.00  0.00     0.000 G0
ENDBRANCH   5   6
ENDBRANCH   4   5
ENDBRANCH   2   4
BRANCH   1  10
ATOM     10  C   UNL     1      34.812  12.872  39.988  1.00  0.00     0.111 C 
BRANCH  10  11
ATOM     11  C   UNL     1      34.823  13.772  41.199  1.00  0.00     0.163 C 
ATOM     12  O   UNL     1      34.474  14.974  41.048  1.00  0.00    -0.294 OA
BRANCH  11  13
ATOM     13  C   UNL     1      35.282  13.291  42.541  1.00  0.00    -0.002 C 
ATOM     14  C   UNL     1      35.881  14.129  43.439  1.00  0.00    -0.069 C 
ATOM     15  C   UNL     1      36.047  15.606  43.156  1.00  0.00     0.039 C 
ATOM     16  C   UNL     1      36.375  13.627  44.778  1.00  0.00     0.039 C 
BRANCH  13  17
ATOM     17  C   UNL     1      34.983  11.845  42.893  1.00  0.00     0.066 CG0
ATOM     18  G   UNL     1      33.499  11.590  42.799  1.00  0.00     0.000 G0
ENDBRANCH  13  17
ENDBRANCH  11  13
ENDBRANCH  10  11
ENDBRANCH   1  10
TORSDOF 0
ENDMDL
MODEL 3
REMARK VINA RESULT:    20.451      1.515      3.556
REMARK INTER + INTRA:          29.694
REMARK INTER:                  28.855
REMARK INTRA:                   0.839
REMARK UNBOUND:                 0.874
REMARK SMILES CC1=CCC(=C(C)C)C(=O)CC(C)=CCC1
REMARK SMILES IDX 12 1 14 2 13 3 15 4 16 5 2 6 1 7 3 8 11 10 9 11 10 12 5 13
REMARK SMILES IDX 6 14 7 15 8 16 4 17
REMARK H PARENT
REMARK Flexibility Score: 60.00
ROOT
ATOM      1  C   UNL     1      35.746  10.075  39.933  1.00  0.00    -0.070 C 
ATOM      2  C   UNL     1      34.696   9.463  39.338  1.00  0.00    -0.027 C 
ATOM      3  C   UNL     1      37.042  10.140  39.161  1.00  0.00     0.039 C 
ENDROOT
BRANCH   2   4
ATOM      4  C   UNL     1      33.288   9.376  39.878  1.00  0.00     0.032 C 
BRANCH   4   5
ATOM      5  C   UNL     1      32.509  10.696  39.719  1.00  0.00     0.034 C 
BRANCH   5   6
ATOM      6  C   UNL     1      32.142  11.308  41.056  1.00  0.00    -0.077 C 
ATOM      7  C   UNL     1      31.119  10.601  41.909  1.00  0.00     0.039 C 
ATOM      8  C   UNL     1      32.660  12.468  41.519  1.00  0.00    -0.023 CG0
ATOM      9  G   UNL     1      33.664  13.335  40.800  1.00  0.00     0.000 G0
ENDBRANCH   5   6
ENDBRANCH   4   5
ENDBRANCH   2   4
BRANCH   1  10
ATOM     10  C   UNL     1      35.672  10.752  41.292  1.00  0.00     0.111 C 
BRANCH  10  11
ATOM     11  C   UNL     1      35.976  12.226  41.194  1.00  0.00     0.163 C 
ATOM     12  O   UNL     1      37.112  12.571  40.772  1.00  0.00    -0.294 OA
BRANCH  11  13
ATOM     13  C   UNL     1      34.994  13.269  41.630  1.00  0.00    -0.002 C 
ATOM     14  C   UNL     1      35.278  14.148  42.637  1.00  0.00    -0.069 C 
ATOM     15  C   UNL     1      36.629  14.165  43.317  1.00  0.00     0.039 C 
ATOM     16  C   UNL     1      34.266  15.174  43.097  1.00  0.00     0.039 C 
BRANCH  13  17
ATOM     17  C   UNL     1      33.693  13.358  40.853  1.00  0.00     0.066 CG0
ATOM     18  G   UNL     1      32.629  12.534  41.537  1.00  0.00     0.000 G0
ENDBRANCH  13  17
ENDBRANCH  11  13
ENDBRANCH  10  11
ENDBRANCH   1  10
TORSDOF 0
ENDMDL
MODEL 4
REMARK VINA RESULT:    21.396      1.817      4.409
REMARK INTER + INTRA:          31.026
REMARK INTER:                  28.338
REMARK INTRA:                   2.688
REMARK UNBOUND:                 0.874
REMARK SMILES CC1=CCC(=C(C)C)C(=O)CC(C)=CCC1
REMARK SMILES IDX 12 1 14 2 13 3 15 4 16 5 2 6 1 7 3 8 11 10 9 11 10 12 5 13
REMARK SMILES IDX 6 14 7 15 8 16 4 17
REMARK H PARENT
REMARK Flexibility Score: 60.00
ROOT
ATOM      1  C   UNL     1      35.464  13.390  42.748  1.00  0.00    -0.070 C 
ATOM      2  C   UNL     1      34.940  12.390  43.496  1.00  0.00    -0.027 C 
ATOM      3  C   UNL     1      36.489  14.284  43.403  1.00  0.00     0.039 C 
ENDROOT
BRANCH   2   4
ATOM      4  C   UNL     1      33.987  11.322  43.018  1.00  0.00     0.032 C 
BRANCH   4   5
ATOM      5  C   UNL     1      32.597  11.883  42.661  1.00  0.00     0.034 C 
BRANCH   5   6
ATOM      6  C   UNL     1      31.871  11.015  41.653  1.00  0.00    -0.077 C 
ATOM      7  C   UNL     1      30.834  10.045  42.160  1.00  0.00     0.039 C 
ATOM      8  C   UNL     1      32.118  11.041  40.324  1.00  0.00    -0.023 CG0
ATOM      9  G   UNL     1      33.137  11.913  39.633  1.00  0.00     0.000 G0
ENDBRANCH   5   6
ENDBRANCH   4   5
ENDBRANCH   2   4
BRANCH   1  10
ATOM     10  C   UNL     1      35.129  13.615  41.283  1.00  0.00     0.111 C 
BRANCH  10  11
ATOM     11  C   UNL     1      35.522  12.430  40.436  1.00  0.00     0.163 C 
ATOM     12  O   UNL     1      36.722  12.344  40.057  1.00  0.00    -0.294 OA
BRANCH  11  13
ATOM     13  C   UNL     1      34.527  11.400  40.001  1.00  0.00    -0.002 C 
ATOM     14  C   UNL     1      34.826  10.066  39.999  1.00  0.00    -0.069 C 
ATOM     15  C   UNL     1      36.155   9.551  40.507  1.00  0.00     0.039 C 
ATOM     16  C   UNL     1      33.827   9.035  39.522  1.00  0.00     0.039 C 
BRANCH  13  17
ATOM     17  C   UNL     1      33.140  11.895  39.633  1.00  0.00     0.066 CG0
ATOM     18  G   UNL     1      32.095  11.044  40.312  1.00  0.00     0.000 G0
ENDBRANCH  13  17
ENDBRANCH  11  13
ENDBRANCH  10  11
ENDBRANCH   1  10
TORSDOF 0
ENDMDL
MODEL 5
REMARK VINA RESULT:    21.520      1.913      3.704
REMARK INTER + INTRA:          31.200
REMARK INTER:                  28.944
REMARK INTRA:                   2.256
REMARK UNBOUND:                 0.874
REMARK SMILES CC1=CCC(=C(C)C)C(=O)CC(C)=CCC1
REMARK SMILES IDX 12 1 14 2 13 3 15 4 16 5 2 6 1 7 3 8 11 10 9 11 10 12 5 13
REMARK SMILES IDX 6 14 7 15 8 16 4 17
REMARK H PARENT
REMARK Flexibility Score: 60.00
ROOT
ATOM      1  C   UNL     1      35.171  12.794  42.045  1.00  0.00    -0.070 C 
ATOM      2  C   UNL     1      35.896  12.934  40.911  1.00  0.00    -0.027 C 
ATOM      3  C   UNL     1      34.935  14.031  42.878  1.00  0.00     0.039 C 
ENDROOT
BRANCH   2   4
ATOM      4  C   UNL     1      36.164  11.861  39.883  1.00  0.00     0.032 C 
BRANCH   4   5
ATOM      5  C   UNL     1      35.916  10.442  40.428  1.00  0.00     0.034 C 
BRANCH   5   6
ATOM      6  C   UNL     1      35.381   9.506  39.363  1.00  0.00    -0.077 C 
ATOM      7  C   UNL     1      36.289   9.130  38.219  1.00  0.00     0.039 C 
ATOM      8  C   UNL     1      34.124   9.006  39.364  1.00  0.00    -0.023 CG0
ATOM      9  G   UNL     1      33.063   9.292  40.398  1.00  0.00     0.000 G0
ENDBRANCH   5   6
ENDBRANCH   4   5
ENDBRANCH   2   4
BRANCH   1  10
ATOM     10  C   UNL     1      34.531  11.486  42.484  1.00  0.00     0.111 C 
BRANCH  10  11
ATOM     11  C   UNL     1      33.143  11.330  41.916  1.00  0.00     0.163 C 
ATOM     12  O   UNL     1      32.164  11.639  42.649  1.00  0.00    -0.294 OA
BRANCH  11  13
ATOM     13  C   UNL     1      32.904  10.778  40.545  1.00  0.00    -0.002 C 
ATOM     14  C   UNL     1      32.617  11.590  39.483  1.00  0.00    -0.069 C 
ATOM     15  C   UNL     1      32.598  13.096  39.619  1.00  0.00     0.039 C 
ATOM     16  C   UNL     1      32.340  11.021  38.109  1.00  0.00     0.039 C 
BRANCH  13  17
ATOM     17  C   UNL     1      33.069   9.280  40.368  1.00  0.00     0.066 CG0
ATOM     18  G   UNL     1      34.128   9.000  39.330  1.00  0.00     0.000 G0
ENDBRANCH  13  17
ENDBRANCH  11  13
ENDBRANCH  10  11
ENDBRANCH   1  10
TORSDOF 0
ENDMDL
MODEL 6
REMARK VINA RESULT:    22.124      1.969      4.102
REMARK INTER + INTRA:          32.052
REMARK INTER:                  30.940
REMARK INTRA:                   1.111
REMARK UNBOUND:                 0.874
REMARK SMILES CC1=CCC(=C(C)C)C(=O)CC(C)=CCC1
REMARK SMILES IDX 12 1 14 2 13 3 15 4 16 5 2 6 1 7 3 8 11 10 9 11 10 12 5 13
REMARK SMILES IDX 6 14 7 15 8 16 4 17
REMARK H PARENT
REMARK Flexibility Score: 60.00
ROOT
ATOM      1  C   UNL     1      33.595  12.534  39.528  1.00  0.00    -0.070 C 
ATOM      2  C   UNL     1      34.600  13.294  40.022  1.00  0.00    -0.027 C 
ATOM      3  C   UNL     1      32.275  13.215  39.260  1.00  0.00     0.039 C 
ENDROOT
BRANCH   2   4
ATOM      4  C   UNL     1      36.022  12.849  40.263  1.00  0.00     0.032 C 
BRANCH   4   5
ATOM      5  C   UNL     1      36.540  13.248  41.658  1.00  0.00     0.034 C 
BRANCH   5   6
ATOM      6  C   UNL     1      35.411  13.505  42.636  1.00  0.00    -0.077 C 
ATOM      7  C   UNL     1      35.249  14.897  43.192  1.00  0.00     0.039 C 
ATOM      8  C   UNL     1      34.552  12.551  43.059  1.00  0.00    -0.023 CG0
ATOM      9  G   UNL     1      34.573  11.099  42.646  1.00  0.00     0.000 G0
ENDBRANCH   5   6
ENDBRANCH   4   5
ENDBRANCH   2   4
BRANCH   1  10
ATOM     10  C   UNL     1      33.744  11.065  39.168  1.00  0.00     0.111 C 
BRANCH  10  11
ATOM     11  C   UNL     1      33.813  10.197  40.400  1.00  0.00     0.163 C 
ATOM     12  O   UNL     1      34.160   8.993  40.259  1.00  0.00    -0.294 OA
BRANCH  11  13
ATOM     13  C   UNL     1      33.433  10.710  41.754  1.00  0.00    -0.002 C 
ATOM     14  C   UNL     1      32.128  10.788  42.153  1.00  0.00    -0.069 C 
ATOM     15  C   UNL     1      31.000  10.292  41.277  1.00  0.00     0.039 C 
ATOM     16  C   UNL     1      31.751  11.344  43.509  1.00  0.00     0.039 C 
BRANCH  13  17
ATOM     17  C   UNL     1      34.567  11.070  42.697  1.00  0.00     0.066 CG0
ATOM     18  G   UNL     1      34.512  12.541  43.027  1.00  0.00     0.000 G0
ENDBRANCH  13  17
ENDBRANCH  11  13
ENDBRANCH  10  11
ENDBRANCH   1  10
TORSDOF 0
ENDMDL
MODEL 7
REMARK VINA RESULT:    22.251      2.277      4.636
REMARK INTER + INTRA:          32.231
REMARK INTER:                  30.277
REMARK INTRA:                   1.954
REMARK UNBOUND:                 0.874
REMARK SMILES CC1=CCC(=C(C)C)C(=O)CC(C)=CCC1
REMARK SMILES IDX 12 1 14 2 13 3 15 4 16 5 2 6 1 7 3 8 11 10 9 11 10 12 5 13
REMARK SMILES IDX 6 14 7 15 8 16 4 17
REMARK H PARENT
REMARK Flexibility Score: 60.00
ROOT
ATOM      1  C   UNL     1      35.060  13.195  41.782  1.00  0.00    -0.070 C 
ATOM      2  C   UNL     1      34.480  13.871  40.763  1.00  0.00    -0.027 C 
ATOM      3  C   UNL     1      35.455  13.986  43.005  1.00  0.00     0.039 C 
ENDROOT
BRANCH   2   4
ATOM      4  C   UNL     1      33.915  13.271  39.498  1.00  0.00     0.032 C 
BRANCH   4   5
ATOM      5  C   UNL     1      32.424  12.903  39.631  1.00  0.00     0.034 C 
BRANCH   5   6
ATOM      6  C   UNL     1      31.984  11.908  38.576  1.00  0.00    -0.077 C 
ATOM      7  C   UNL     1      31.555  12.435  37.230  1.00  0.00     0.039 C 
ATOM      8  C   UNL     1      31.930  10.572  38.780  1.00  0.00    -0.023 CG0
ATOM      9  G   UNL     1      32.284   9.861  40.063  1.00  0.00     0.000 G0
ENDBRANCH   5   6
ENDBRANCH   4   5
ENDBRANCH   2   4
BRANCH   1  10
ATOM     10  C   UNL     1      35.270  11.690  41.786  1.00  0.00     0.111 C 
BRANCH  10  11
ATOM     11  C   UNL     1      33.970  10.948  41.602  1.00  0.00     0.163 C 
ATOM     12  O   UNL     1      33.097  11.048  42.507  1.00  0.00    -0.294 OA
BRANCH  11  13
ATOM     13  C   UNL     1      33.718  10.070  40.416  1.00  0.00    -0.002 C 
ATOM     14  C   UNL     1      34.740   9.463  39.742  1.00  0.00    -0.069 C 
ATOM     15  C   UNL     1      36.176   9.585  40.201  1.00  0.00     0.039 C 
ATOM     16  C   UNL     1      34.479   8.608  38.521  1.00  0.00     0.039 C 
BRANCH  13  17
ATOM     17  C   UNL     1      32.269   9.821  40.039  1.00  0.00     0.066 CG0
ATOM     18  G   UNL     1      31.931  10.575  38.776  1.00  0.00     0.000 G0
ENDBRANCH  13  17
ENDBRANCH  11  13
ENDBRANCH  10  11
ENDBRANCH   1  10
TORSDOF 0
ENDMDL
MODEL 8
REMARK VINA RESULT:    22.298      2.027      4.186
REMARK INTER + INTRA:          32.297
REMARK INTER:                  30.746
REMARK INTRA:                   1.551
REMARK UNBOUND:                 0.874
REMARK SMILES CC1=CCC(=C(C)C)C(=O)CC(C)=CCC1
REMARK SMILES IDX 12 1 14 2 13 3 15 4 16 5 2 6 1 7 3 8 11 10 9 11 10 12 5 13
REMARK SMILES IDX 6 14 7 15 8 16 4 17
REMARK H PARENT
REMARK Flexibility Score: 60.00
ROOT
ATOM      1  C   UNL     1      32.074   9.886  40.754  1.00  0.00    -0.070 C 
ATOM      2  C   UNL     1      32.059  10.632  41.883  1.00  0.00    -0.027 C 
ATOM      3  C   UNL     1      31.210   8.648  40.727  1.00  0.00     0.039 C 
ENDROOT
BRANCH   2   4
ATOM      4  C   UNL     1      32.758  11.954  42.090  1.00  0.00     0.032 C 
BRANCH   4   5
ATOM      5  C   UNL     1      34.293  11.822  42.077  1.00  0.00     0.034 C 
BRANCH   5   6
ATOM      6  C   UNL     1      34.883  12.135  40.716  1.00  0.00    -0.077 C 
ATOM      7  C   UNL     1      34.540  13.456  40.075  1.00  0.00     0.039 C 
ATOM      8  C   UNL     1      35.680  11.287  40.029  1.00  0.00    -0.023 CG0
ATOM      9  G   UNL     1      36.105   9.912  40.485  1.00  0.00     0.000 G0
ENDBRANCH   5   6
ENDBRANCH   4   5
ENDBRANCH   2   4
BRANCH   1  10
ATOM     10  C   UNL     1      32.851  10.260  39.503  1.00  0.00     0.111 C 
BRANCH  10  11
ATOM     11  C   UNL     1      33.935   9.255  39.202  1.00  0.00     0.163 C 
ATOM     12  O   UNL     1      33.923   8.691  38.074  1.00  0.00    -0.294 OA
BRANCH  11  13
ATOM     13  C   UNL     1      34.973   8.881  40.213  1.00  0.00    -0.002 C 
ATOM     14  C   UNL     1      34.970   7.661  40.830  1.00  0.00    -0.069 C 
ATOM     15  C   UNL     1      33.959   6.594  40.471  1.00  0.00     0.039 C 
ATOM     16  C   UNL     1      36.001   7.305  41.879  1.00  0.00     0.039 C 
BRANCH  13  17
ATOM     17  C   UNL     1      36.079   9.889  40.470  1.00  0.00     0.066 CG0
ATOM     18  G   UNL     1      35.650  11.254  39.990  1.00  0.00     0.000 G0
ENDBRANCH  13  17
ENDBRANCH  11  13
ENDBRANCH  10  11
ENDBRANCH   1  10
TORSDOF 0
ENDMDL
