MODEL 1
REMARK VINA RESULT:    -5.383      0.000      0.000
REMARK INTER + INTRA:          -7.026
REMARK INTER:                  -6.641
REMARK INTRA:                  -0.385
REMARK UNBOUND:                -0.385
REMARK SMILES Oc1cc(O)c2cc(O)c(-c3cc(O)c(O)c(O)c3)[o+]c2c1
REMARK SMILES IDX 10 1 20 2 21 3 22 4 2 5 3 6 4 7 6 8 7 9 8 10 11 11 12 12
REMARK SMILES IDX 13 13 19 14 15 15 17 16 14 17 16 19 18 21 9 23 1 25 5 27
REMARK H PARENT 14 18 16 20 18 22 9 24 1 26 5 28
REMARK Flexibility Score: inf
ROOT
ATOM      1  C   UNL     1      -1.462  -6.761   8.470  1.00  0.00     0.402 A 
ATOM      2  O   UNL     1      -0.780  -7.142   7.393  1.00  0.00    -0.202 OA
ATOM      3  C   UNL     1       0.528  -6.955   7.253  1.00  0.00     0.368 A 
ATOM      4  C   UNL     1       1.156  -7.388   6.083  1.00  0.00     0.162 A 
ATOM      5  C   UNL     1       2.528  -7.201   5.908  1.00  0.00     0.128 A 
ATOM      6  C   UNL     1       3.280  -6.576   6.909  1.00  0.00     0.093 A 
ATOM      7  C   UNL     1       2.674  -6.132   8.091  1.00  0.00     0.136 A 
ATOM      8  C   UNL     1       1.280  -6.323   8.274  1.00  0.00     0.125 A 
ATOM      9  C   UNL     1       0.591  -5.923   9.430  1.00  0.00     0.078 A 
ATOM     10  C   UNL     1      -0.784  -6.149   9.541  1.00  0.00     0.223 A 
ENDROOT
BRANCH   1  11
ATOM     11  C   UNL     1      -2.919  -7.017   8.503  1.00  0.00     0.091 A 
ATOM     12  C   UNL     1      -3.845  -6.035   8.111  1.00  0.00     0.068 A 
ATOM     13  C   UNL     1      -5.221  -6.304   8.127  1.00  0.00     0.162 A 
ATOM     14  C   UNL     1      -3.388  -8.284   8.880  1.00  0.00     0.068 A 
ATOM     15  C   UNL     1      -5.682  -7.569   8.529  1.00  0.00     0.200 A 
ATOM     16  C   UNL     1      -4.759  -8.561   8.903  1.00  0.00     0.162 A 
BRANCH  13  17
ATOM     17  O   UNL     1      -6.130  -5.320   7.742  1.00  0.00    -0.504 OA
ATOM     18  H   UNL     1      -6.155  -4.414   8.194  1.00  0.00     0.293 HD
ENDBRANCH  13  17
BRANCH  15  19
ATOM     19  O   UNL     1      -7.048  -7.853   8.557  1.00  0.00    -0.502 OA
ATOM     20  H   UNL     1      -7.727  -7.203   8.932  1.00  0.00     0.293 HD
ENDBRANCH  15  19
BRANCH  16  21
ATOM     21  O   UNL     1      -5.185  -9.829   9.298  1.00  0.00    -0.504 OA
ATOM     22  H   UNL     1      -5.879  -9.963  10.024  1.00  0.00     0.293 HD
ENDBRANCH  16  21
ENDBRANCH   1  11
BRANCH  10  23
ATOM     23  O   UNL     1      -1.459  -5.796  10.710  1.00  0.00    -0.500 OA
ATOM     24  H   UNL     1      -1.070  -5.983  11.627  1.00  0.00     0.294 HD
ENDBRANCH  10  23
BRANCH   5  25
ATOM     25  O   UNL     1       3.136  -7.641   4.733  1.00  0.00    -0.507 OA
ATOM     26  H   UNL     1       2.634  -7.664   3.853  1.00  0.00     0.293 HD
ENDBRANCH   5  25
BRANCH   7  27
ATOM     27  O   UNL     1       3.493  -5.513   9.040  1.00  0.00    -0.507 OA
ATOM     28  H   UNL     1       3.359  -5.580  10.039  1.00  0.00     0.293 HD
ENDBRANCH   7  27
TORSDOF 7
ENDMDL
MODEL 2
REMARK VINA RESULT:    -5.378     17.528     19.390
REMARK INTER + INTRA:          -7.021
REMARK INTER:                  -6.653
REMARK INTRA:                  -0.368
REMARK UNBOUND:                -0.385
REMARK SMILES Oc1cc(O)c2cc(O)c(-c3cc(O)c(O)c(O)c3)[o+]c2c1
REMARK SMILES IDX 10 1 20 2 21 3 22 4 2 5 3 6 4 7 6 8 7 9 8 10 11 11 12 12
REMARK SMILES IDX 13 13 19 14 15 15 17 16 14 17 16 19 18 21 9 23 1 25 5 27
REMARK H PARENT 14 18 16 20 18 22 9 24 1 26 5 28
REMARK Flexibility Score: inf
ROOT
ATOM      1  C   UNL     1       2.593   7.333  -2.764  1.00  0.00     0.402 A 
ATOM      2  O   UNL     1       3.110   8.085  -3.732  1.00  0.00    -0.202 OA
ATOM      3  C   UNL     1       3.173   7.700  -5.002  1.00  0.00     0.368 A 
ATOM      4  C   UNL     1       3.737   8.561  -5.947  1.00  0.00     0.162 A 
ATOM      5  C   UNL     1       3.820   8.181  -7.286  1.00  0.00     0.128 A 
ATOM      6  C   UNL     1       3.335   6.931  -7.688  1.00  0.00     0.093 A 
ATOM      7  C   UNL     1       2.766   6.049  -6.760  1.00  0.00     0.136 A 
ATOM      8  C   UNL     1       2.678   6.433  -5.397  1.00  0.00     0.125 A 
ATOM      9  C   UNL     1       2.112   5.622  -4.401  1.00  0.00     0.078 A 
ATOM     10  C   UNL     1       2.056   6.070  -3.078  1.00  0.00     0.223 A 
ENDROOT
BRANCH   1  11
ATOM     11  C   UNL     1       2.589   7.870  -1.385  1.00  0.00     0.091 A 
ATOM     12  C   UNL     1       3.719   7.768  -0.556  1.00  0.00     0.068 A 
ATOM     13  C   UNL     1       3.703   8.303   0.740  1.00  0.00     0.162 A 
ATOM     14  C   UNL     1       1.454   8.544  -0.911  1.00  0.00     0.068 A 
ATOM     15  C   UNL     1       2.553   8.957   1.214  1.00  0.00     0.200 A 
ATOM     16  C   UNL     1       1.428   9.079   0.381  1.00  0.00     0.162 A 
BRANCH  13  17
ATOM     17  O   UNL     1       4.828   8.192   1.556  1.00  0.00    -0.504 OA
ATOM     18  H   UNL     1       5.017   8.859   2.294  1.00  0.00     0.293 HD
ENDBRANCH  13  17
BRANCH  15  19
ATOM     19  O   UNL     1       2.518   9.491   2.503  1.00  0.00    -0.502 OA
ATOM     20  H   UNL     1       3.251   9.316   3.180  1.00  0.00     0.293 HD
ENDBRANCH  15  19
BRANCH  16  21
ATOM     21  O   UNL     1       0.275   9.729   0.819  1.00  0.00    -0.504 OA
ATOM     22  H   UNL     1      -0.142  10.495   0.301  1.00  0.00     0.293 HD
ENDBRANCH  16  21
ENDBRANCH   1  11
BRANCH  10  23
ATOM     23  O   UNL     1       1.449   5.285  -2.098  1.00  0.00    -0.500 OA
ATOM     24  H   UNL     1       0.625   4.728  -2.295  1.00  0.00     0.294 HD
ENDBRANCH  10  23
BRANCH   5  25
ATOM     25  O   UNL     1       4.385   9.054  -8.214  1.00  0.00    -0.507 OA
ATOM     26  H   UNL     1       5.224   8.810  -8.729  1.00  0.00     0.293 HD
ENDBRANCH   5  25
BRANCH   7  27
ATOM     27  O   UNL     1       2.310   4.818  -7.239  1.00  0.00    -0.507 OA
ATOM     28  H   UNL     1       2.038   4.644  -8.196  1.00  0.00     0.293 HD
ENDBRANCH   7  27
TORSDOF 7
ENDMDL
MODEL 3
REMARK VINA RESULT:    -5.262     17.752     18.891
REMARK INTER + INTRA:          -6.878
REMARK INTER:                  -6.519
REMARK INTRA:                  -0.358
REMARK UNBOUND:                -0.385
REMARK SMILES Oc1cc(O)c2cc(O)c(-c3cc(O)c(O)c(O)c3)[o+]c2c1
REMARK SMILES IDX 10 1 20 2 21 3 22 4 2 5 3 6 4 7 6 8 7 9 8 10 11 11 12 12
REMARK SMILES IDX 13 13 19 14 15 15 17 16 14 17 16 19 18 21 9 23 1 25 5 27
REMARK H PARENT 14 18 16 20 18 22 9 24 1 26 5 28
REMARK Flexibility Score: inf
ROOT
ATOM      1  C   UNL     1       3.392   7.738  -2.008  1.00  0.00     0.402 A 
ATOM      2  O   UNL     1       2.890   8.100  -0.831  1.00  0.00    -0.202 OA
ATOM      3  C   UNL     1       3.642   8.432   0.213  1.00  0.00     0.368 A 
ATOM      4  C   UNL     1       3.021   8.797   1.410  1.00  0.00     0.162 A 
ATOM      5  C   UNL     1       3.785   9.146   2.524  1.00  0.00     0.128 A 
ATOM      6  C   UNL     1       5.182   9.131   2.443  1.00  0.00     0.093 A 
ATOM      7  C   UNL     1       5.829   8.768   1.254  1.00  0.00     0.136 A 
ATOM      8  C   UNL     1       5.055   8.416   0.119  1.00  0.00     0.125 A 
ATOM      9  C   UNL     1       5.616   8.053  -1.116  1.00  0.00     0.078 A 
ATOM     10  C   UNL     1       4.787   7.721  -2.192  1.00  0.00     0.223 A 
ENDROOT
BRANCH   1  11
ATOM     11  C   UNL     1       2.450   7.382  -3.092  1.00  0.00     0.091 A 
ATOM     12  C   UNL     1       2.201   6.042  -3.435  1.00  0.00     0.068 A 
ATOM     13  C   UNL     1       1.288   5.724  -4.451  1.00  0.00     0.162 A 
ATOM     14  C   UNL     1       1.747   8.398  -3.756  1.00  0.00     0.068 A 
ATOM     15  C   UNL     1       0.605   6.750  -5.126  1.00  0.00     0.200 A 
ATOM     16  C   UNL     1       0.836   8.090  -4.772  1.00  0.00     0.162 A 
BRANCH  13  17
ATOM     17  O   UNL     1       1.053   4.391  -4.787  1.00  0.00    -0.504 OA
ATOM     18  H   UNL     1       0.827   3.698  -4.084  1.00  0.00     0.293 HD
ENDBRANCH  13  17
BRANCH  15  19
ATOM     19  O   UNL     1      -0.303   6.452  -6.142  1.00  0.00    -0.502 OA
ATOM     20  H   UNL     1      -0.645   5.512  -6.302  1.00  0.00     0.293 HD
ENDBRANCH  15  19
BRANCH  16  21
ATOM     21  O   UNL     1       0.168   9.131  -5.417  1.00  0.00    -0.504 OA
ATOM     22  H   UNL     1      -0.369   9.824  -4.909  1.00  0.00     0.293 HD
ENDBRANCH  16  21
ENDBRANCH   1  11
BRANCH  10  23
ATOM     23  O   UNL     1       5.344   7.409  -3.433  1.00  0.00    -0.500 OA
ATOM     24  H   UNL     1       6.059   7.988  -3.858  1.00  0.00     0.294 HD
ENDBRANCH  10  23
BRANCH   5  25
ATOM     25  O   UNL     1       3.147   9.507   3.709  1.00  0.00    -0.507 OA
ATOM     26  H   UNL     1       3.670   9.831   4.515  1.00  0.00     0.293 HD
ENDBRANCH   5  25
BRANCH   7  27
ATOM     27  O   UNL     1       7.227   8.775   1.255  1.00  0.00    -0.507 OA
ATOM     28  H   UNL     1       7.801   8.003   1.562  1.00  0.00     0.293 HD
ENDBRANCH   7  27
TORSDOF 7
ENDMDL
MODEL 4
REMARK VINA RESULT:    -5.240     17.827     19.172
REMARK INTER + INTRA:          -6.850
REMARK INTER:                  -7.157
REMARK INTRA:                   0.306
REMARK UNBOUND:                -0.385
REMARK SMILES Oc1cc(O)c2cc(O)c(-c3cc(O)c(O)c(O)c3)[o+]c2c1
REMARK SMILES IDX 10 1 20 2 21 3 22 4 2 5 3 6 4 7 6 8 7 9 8 10 11 11 12 12
REMARK SMILES IDX 13 13 19 14 15 15 17 16 14 17 16 19 18 21 9 23 1 25 5 27
REMARK H PARENT 14 18 16 20 18 22 9 24 1 26 5 28
REMARK Flexibility Score: inf
ROOT
ATOM      1  C   UNL     1       3.161   7.349  -2.419  1.00  0.00     0.402 A 
ATOM      2  O   UNL     1       2.212   7.646  -3.303  1.00  0.00    -0.202 OA
ATOM      3  C   UNL     1       2.236   7.232  -4.566  1.00  0.00     0.368 A 
ATOM      4  C   UNL     1       1.193   7.598  -5.421  1.00  0.00     0.162 A 
ATOM      5  C   UNL     1       1.193   7.182  -6.752  1.00  0.00     0.128 A 
ATOM      6  C   UNL     1       2.243   6.393  -7.236  1.00  0.00     0.093 A 
ATOM      7  C   UNL     1       3.300   6.013  -6.399  1.00  0.00     0.136 A 
ATOM      8  C   UNL     1       3.302   6.432  -5.044  1.00  0.00     0.125 A 
ATOM      9  C   UNL     1       4.311   6.088  -4.130  1.00  0.00     0.078 A 
ATOM     10  C   UNL     1       4.242   6.536  -2.808  1.00  0.00     0.223 A 
ENDROOT
BRANCH   1  11
ATOM     11  C   UNL     1       3.027   7.877  -1.043  1.00  0.00     0.091 A 
ATOM     12  C   UNL     1       4.120   7.908  -0.161  1.00  0.00     0.068 A 
ATOM     13  C   UNL     1       3.979   8.434   1.131  1.00  0.00     0.162 A 
ATOM     14  C   UNL     1       1.798   8.412  -0.627  1.00  0.00     0.068 A 
ATOM     15  C   UNL     1       2.738   8.946   1.548  1.00  0.00     0.200 A 
ATOM     16  C   UNL     1       1.647   8.937   0.661  1.00  0.00     0.162 A 
BRANCH  13  17
ATOM     17  O   UNL     1       5.068   8.453   2.001  1.00  0.00    -0.504 OA
ATOM     18  H   UNL     1       5.834   9.106   1.878  1.00  0.00     0.293 HD
ENDBRANCH  13  17
BRANCH  15  19
ATOM     19  O   UNL     1       2.578   9.469   2.831  1.00  0.00    -0.502 OA
ATOM     20  H   UNL     1       1.804   9.205   3.429  1.00  0.00     0.293 HD
ENDBRANCH  15  19
BRANCH  16  21
ATOM     21  O   UNL     1       0.406   9.445   1.041  1.00  0.00    -0.504 OA
ATOM     22  H   UNL     1      -0.026  10.226   0.561  1.00  0.00     0.293 HD
ENDBRANCH  16  21
ENDBRANCH   1  11
BRANCH  10  23
ATOM     23  O   UNL     1       5.219   6.153  -1.888  1.00  0.00    -0.500 OA
ATOM     24  H   UNL     1       5.339   5.186  -1.608  1.00  0.00     0.294 HD
ENDBRANCH  10  23
BRANCH   5  25
ATOM     25  O   UNL     1       0.144   7.557  -7.589  1.00  0.00    -0.507 OA
ATOM     26  H   UNL     1      -0.329   6.883  -8.181  1.00  0.00     0.293 HD
ENDBRANCH   5  25
BRANCH   7  27
ATOM     27  O   UNL     1       4.312   5.227  -6.958  1.00  0.00    -0.507 OA
ATOM     28  H   UNL     1       5.028   4.754  -6.425  1.00  0.00     0.293 HD
ENDBRANCH   7  27
TORSDOF 7
ENDMDL
MODEL 5
REMARK VINA RESULT:    -5.138     17.794     18.763
REMARK INTER + INTRA:          -6.724
REMARK INTER:                  -6.395
REMARK INTRA:                  -0.329
REMARK UNBOUND:                -0.385
REMARK SMILES Oc1cc(O)c2cc(O)c(-c3cc(O)c(O)c(O)c3)[o+]c2c1
REMARK SMILES IDX 10 1 20 2 21 3 22 4 2 5 3 6 4 7 6 8 7 9 8 10 11 11 12 12
REMARK SMILES IDX 13 13 19 14 15 15 17 16 14 17 16 19 18 21 9 23 1 25 5 27
REMARK H PARENT 14 18 16 20 18 22 9 24 1 26 5 28
REMARK Flexibility Score: inf
ROOT
ATOM      1  C   UNL     1       2.706   8.547  -0.569  1.00  0.00     0.402 A 
ATOM      2  O   UNL     1       4.013   8.517  -0.329  1.00  0.00    -0.202 OA
ATOM      3  C   UNL     1       4.541   8.746   0.869  1.00  0.00     0.368 A 
ATOM      4  C   UNL     1       5.929   8.694   1.022  1.00  0.00     0.162 A 
ATOM      5  C   UNL     1       6.511   8.935   2.266  1.00  0.00     0.128 A 
ATOM      6  C   UNL     1       5.702   9.231   3.369  1.00  0.00     0.093 A 
ATOM      7  C   UNL     1       4.308   9.290   3.242  1.00  0.00     0.136 A 
ATOM      8  C   UNL     1       3.712   9.043   1.978  1.00  0.00     0.125 A 
ATOM      9  C   UNL     1       2.325   9.067   1.760  1.00  0.00     0.078 A 
ATOM     10  C   UNL     1       1.812   8.809   0.486  1.00  0.00     0.223 A 
ENDROOT
BRANCH   1  11
ATOM     11  C   UNL     1       2.240   8.283  -1.949  1.00  0.00     0.091 A 
ATOM     12  C   UNL     1       1.749   9.316  -2.766  1.00  0.00     0.068 A 
ATOM     13  C   UNL     1       1.334   9.049  -4.079  1.00  0.00     0.162 A 
ATOM     14  C   UNL     1       2.342   6.987  -2.475  1.00  0.00     0.068 A 
ATOM     15  C   UNL     1       1.418   7.743  -4.590  1.00  0.00     0.200 A 
ATOM     16  C   UNL     1       1.928   6.711  -3.783  1.00  0.00     0.162 A 
BRANCH  13  17
ATOM     17  O   UNL     1       0.842  10.080  -4.879  1.00  0.00    -0.504 OA
ATOM     18  H   UNL     1       1.143  11.039  -4.753  1.00  0.00     0.293 HD
ENDBRANCH  13  17
BRANCH  15  19
ATOM     19  O   UNL     1       1.005   7.459  -5.892  1.00  0.00    -0.502 OA
ATOM     20  H   UNL     1       0.432   8.100  -6.428  1.00  0.00     0.293 HD
ENDBRANCH  15  19
BRANCH  16  21
ATOM     21  O   UNL     1       2.033   5.406  -4.262  1.00  0.00    -0.504 OA
ATOM     22  H   UNL     1       2.048   5.196  -5.253  1.00  0.00     0.293 HD
ENDBRANCH  16  21
ENDBRANCH   1  11
BRANCH  10  23
ATOM     23  O   UNL     1       0.431   8.785   0.280  1.00  0.00    -0.500 OA
ATOM     24  H   UNL     1      -0.207   8.435   0.986  1.00  0.00     0.294 HD
ENDBRANCH  10  23
BRANCH   5  25
ATOM     25  O   UNL     1       7.897   8.877   2.399  1.00  0.00    -0.507 OA
ATOM     26  H   UNL     1       8.338   8.315   3.118  1.00  0.00     0.293 HD
ENDBRANCH   5  25
BRANCH   7  27
ATOM     27  O   UNL     1       3.570   9.596   4.389  1.00  0.00    -0.507 OA
ATOM     28  H   UNL     1       3.211  10.514   4.608  1.00  0.00     0.293 HD
ENDBRANCH   7  27
TORSDOF 7
ENDMDL
MODEL 6
REMARK VINA RESULT:    -5.101     18.018     19.592
REMARK INTER + INTRA:          -6.679
REMARK INTER:                  -6.308
REMARK INTRA:                  -0.371
REMARK UNBOUND:                -0.385
REMARK SMILES Oc1cc(O)c2cc(O)c(-c3cc(O)c(O)c(O)c3)[o+]c2c1
REMARK SMILES IDX 10 1 20 2 21 3 22 4 2 5 3 6 4 7 6 8 7 9 8 10 11 11 12 12
REMARK SMILES IDX 13 13 19 14 15 15 17 16 14 17 16 19 18 21 9 23 1 25 5 27
REMARK H PARENT 14 18 16 20 18 22 9 24 1 26 5 28
REMARK Flexibility Score: inf
ROOT
ATOM      1  C   UNL     1       3.348   7.200  -3.205  1.00  0.00     0.402 A 
ATOM      2  O   UNL     1       2.362   7.873  -2.618  1.00  0.00    -0.202 OA
ATOM      3  C   UNL     1       2.410   8.287  -1.357  1.00  0.00     0.368 A 
ATOM      4  C   UNL     1       1.322   8.986  -0.828  1.00  0.00     0.162 A 
ATOM      5  C   UNL     1       1.343   9.429   0.494  1.00  0.00     0.128 A 
ATOM      6  C   UNL     1       2.460   9.173   1.298  1.00  0.00     0.093 A 
ATOM      7  C   UNL     1       3.563   8.473   0.792  1.00  0.00     0.136 A 
ATOM      8  C   UNL     1       3.547   8.024  -0.554  1.00  0.00     0.125 A 
ATOM      9  C   UNL     1       4.611   7.328  -1.149  1.00  0.00     0.078 A 
ATOM     10  C   UNL     1       4.524   6.920  -2.483  1.00  0.00     0.223 A 
ENDROOT
BRANCH   1  11
ATOM     11  C   UNL     1       3.172   6.784  -4.614  1.00  0.00     0.091 A 
ATOM     12  C   UNL     1       2.791   5.474  -4.950  1.00  0.00     0.068 A 
ATOM     13  C   UNL     1       2.607   5.106  -6.290  1.00  0.00     0.162 A 
ATOM     14  C   UNL     1       3.333   7.731  -5.637  1.00  0.00     0.068 A 
ATOM     15  C   UNL     1       2.793   6.055  -7.310  1.00  0.00     0.200 A 
ATOM     16  C   UNL     1       3.154   7.372  -6.978  1.00  0.00     0.162 A 
BRANCH  13  17
ATOM     17  O   UNL     1       2.234   3.801  -6.612  1.00  0.00    -0.504 OA
ATOM     18  H   UNL     1       2.898   3.139  -6.995  1.00  0.00     0.293 HD
ENDBRANCH  13  17
BRANCH  15  19
ATOM     19  O   UNL     1       2.619   5.705  -8.649  1.00  0.00    -0.502 OA
ATOM     20  H   UNL     1       1.965   6.189  -9.253  1.00  0.00     0.293 HD
ENDBRANCH  15  19
BRANCH  16  21
ATOM     21  O   UNL     1       3.338   8.339  -7.965  1.00  0.00    -0.504 OA
ATOM     22  H   UNL     1       3.781   8.127  -8.852  1.00  0.00     0.293 HD
ENDBRANCH  16  21
ENDBRANCH   1  11
BRANCH  10  23
ATOM     23  O   UNL     1       5.601   6.273  -3.089  1.00  0.00    -0.500 OA
ATOM     24  H   UNL     1       5.744   6.299  -4.092  1.00  0.00     0.294 HD
ENDBRANCH  10  23
BRANCH   5  25
ATOM     25  O   UNL     1       0.248  10.125   1.003  1.00  0.00    -0.507 OA
ATOM     26  H   UNL     1      -0.118   9.934   1.929  1.00  0.00     0.293 HD
ENDBRANCH   5  25
BRANCH   7  27
ATOM     27  O   UNL     1       4.638   8.254   1.659  1.00  0.00    -0.507 OA
ATOM     28  H   UNL     1       5.608   8.264   1.378  1.00  0.00     0.293 HD
ENDBRANCH   7  27
TORSDOF 7
ENDMDL
MODEL 7
REMARK VINA RESULT:    -5.039     17.962     19.214
REMARK INTER + INTRA:          -6.603
REMARK INTER:                  -6.919
REMARK INTRA:                   0.317
REMARK UNBOUND:                -0.385
REMARK SMILES Oc1cc(O)c2cc(O)c(-c3cc(O)c(O)c(O)c3)[o+]c2c1
REMARK SMILES IDX 10 1 20 2 21 3 22 4 2 5 3 6 4 7 6 8 7 9 8 10 11 11 12 12
REMARK SMILES IDX 13 13 19 14 15 15 17 16 14 17 16 19 18 21 9 23 1 25 5 27
REMARK H PARENT 14 18 16 20 18 22 9 24 1 26 5 28
REMARK Flexibility Score: inf
ROOT
ATOM      1  C   UNL     1       2.464   7.730  -2.884  1.00  0.00     0.402 A 
ATOM      2  O   UNL     1       3.307   6.783  -3.284  1.00  0.00    -0.202 OA
ATOM      3  C   UNL     1       3.364   6.336  -4.534  1.00  0.00     0.368 A 
ATOM      4  C   UNL     1       4.283   5.335  -4.858  1.00  0.00     0.162 A 
ATOM      5  C   UNL     1       4.362   4.844  -6.161  1.00  0.00     0.128 A 
ATOM      6  C   UNL     1       3.516   5.356  -7.152  1.00  0.00     0.093 A 
ATOM      7  C   UNL     1       2.586   6.359  -6.853  1.00  0.00     0.136 A 
ATOM      8  C   UNL     1       2.505   6.863  -5.529  1.00  0.00     0.125 A 
ATOM      9  C   UNL     1       1.613   7.876  -5.141  1.00  0.00     0.078 A 
ATOM     10  C   UNL     1       1.594   8.325  -3.817  1.00  0.00     0.223 A 
ENDROOT
BRANCH   1  11
ATOM     11  C   UNL     1       2.489   8.137  -1.461  1.00  0.00     0.091 A 
ATOM     12  C   UNL     1       3.639   7.967  -0.672  1.00  0.00     0.068 A 
ATOM     13  C   UNL     1       3.651   8.379   0.669  1.00  0.00     0.162 A 
ATOM     14  C   UNL     1       1.362   8.756  -0.901  1.00  0.00     0.068 A 
ATOM     15  C   UNL     1       2.509   8.978   1.228  1.00  0.00     0.200 A 
ATOM     16  C   UNL     1       1.364   9.168   0.436  1.00  0.00     0.162 A 
BRANCH  13  17
ATOM     17  O   UNL     1       4.795   8.200   1.444  1.00  0.00    -0.504 OA
ATOM     18  H   UNL     1       5.495   8.928   1.535  1.00  0.00     0.293 HD
ENDBRANCH  13  17
BRANCH  15  19
ATOM     19  O   UNL     1       2.501   9.390   2.561  1.00  0.00    -0.502 OA
ATOM     20  H   UNL     1       2.402  10.363   2.824  1.00  0.00     0.293 HD
ENDBRANCH  15  19
BRANCH  16  21
ATOM     21  O   UNL     1       0.218   9.767   0.958  1.00  0.00    -0.504 OA
ATOM     22  H   UNL     1      -0.693   9.327   0.903  1.00  0.00     0.293 HD
ENDBRANCH  16  21
ENDBRANCH   1  11
BRANCH  10  23
ATOM     23  O   UNL     1       0.743   9.366  -3.444  1.00  0.00    -0.500 OA
ATOM     24  H   UNL     1       0.345   9.421  -2.513  1.00  0.00     0.294 HD
ENDBRANCH  10  23
BRANCH   5  25
ATOM     25  O   UNL     1       5.286   3.845  -6.464  1.00  0.00    -0.507 OA
ATOM     26  H   UNL     1       5.016   2.869  -6.509  1.00  0.00     0.293 HD
ENDBRANCH   5  25
BRANCH   7  27
ATOM     27  O   UNL     1       1.774   6.815  -7.896  1.00  0.00    -0.507 OA
ATOM     28  H   UNL     1       1.906   6.574  -8.868  1.00  0.00     0.293 HD
ENDBRANCH   7  27
TORSDOF 7
ENDMDL
MODEL 8
REMARK VINA RESULT:    -4.977      3.457      8.666
REMARK INTER + INTRA:          -6.526
REMARK INTER:                  -6.144
REMARK INTRA:                  -0.382
REMARK UNBOUND:                -0.385
REMARK SMILES Oc1cc(O)c2cc(O)c(-c3cc(O)c(O)c(O)c3)[o+]c2c1
REMARK SMILES IDX 10 1 20 2 21 3 22 4 2 5 3 6 4 7 6 8 7 9 8 10 11 11 12 12
REMARK SMILES IDX 13 13 19 14 15 15 17 16 14 17 16 19 18 21 9 23 1 25 5 27
REMARK H PARENT 14 18 16 20 18 22 9 24 1 26 5 28
REMARK Flexibility Score: inf
ROOT
ATOM      1  C   UNL     1       3.506  -4.641   8.694  1.00  0.00     0.402 A 
ATOM      2  O   UNL     1       3.358  -5.783   8.029  1.00  0.00    -0.202 OA
ATOM      3  C   UNL     1       2.185  -6.388   7.870  1.00  0.00     0.368 A 
ATOM      4  C   UNL     1       2.130  -7.587   7.156  1.00  0.00     0.162 A 
ATOM      5  C   UNL     1       0.914  -8.246   6.978  1.00  0.00     0.128 A 
ATOM      6  C   UNL     1      -0.259  -7.704   7.516  1.00  0.00     0.093 A 
ATOM      7  C   UNL     1      -0.230  -6.504   8.237  1.00  0.00     0.136 A 
ATOM      8  C   UNL     1       1.005  -5.829   8.418  1.00  0.00     0.125 A 
ATOM      9  C   UNL     1       1.127  -4.615   9.113  1.00  0.00     0.078 A 
ATOM     10  C   UNL     1       2.378  -4.007   9.248  1.00  0.00     0.223 A 
ENDROOT
BRANCH   1  11
ATOM     11  C   UNL     1       4.867  -4.070   8.811  1.00  0.00     0.091 A 
ATOM     12  C   UNL     1       5.678  -4.331   9.928  1.00  0.00     0.068 A 
ATOM     13  C   UNL     1       6.973  -3.799  10.009  1.00  0.00     0.162 A 
ATOM     14  C   UNL     1       5.382  -3.296   7.759  1.00  0.00     0.068 A 
ATOM     15  C   UNL     1       7.472  -3.006   8.961  1.00  0.00     0.200 A 
ATOM     16  C   UNL     1       6.672  -2.759   7.832  1.00  0.00     0.162 A 
BRANCH  13  17
ATOM     17  O   UNL     1       7.767  -4.060  11.125  1.00  0.00    -0.504 OA
ATOM     18  H   UNL     1       8.777  -4.002  11.083  1.00  0.00     0.293 HD
ENDBRANCH  13  17
BRANCH  15  19
ATOM     19  O   UNL     1       8.756  -2.465   9.027  1.00  0.00    -0.502 OA
ATOM     20  H   UNL     1       9.409  -2.529   8.256  1.00  0.00     0.293 HD
ENDBRANCH  15  19
BRANCH  16  21
ATOM     21  O   UNL     1       7.141  -1.984   6.772  1.00  0.00    -0.504 OA
ATOM     22  H   UNL     1       7.830  -2.330   6.115  1.00  0.00     0.293 HD
ENDBRANCH  16  21
ENDBRANCH   1  11
BRANCH  10  23
ATOM     23  O   UNL     1       2.492  -2.776   9.895  1.00  0.00    -0.500 OA
ATOM     24  H   UNL     1       2.238  -2.661  10.870  1.00  0.00     0.294 HD
ENDBRANCH  10  23
BRANCH   5  25
ATOM     25  O   UNL     1       0.879  -9.442   6.262  1.00  0.00    -0.507 OA
ATOM     26  H   UNL     1       1.344  -9.537   5.366  1.00  0.00     0.293 HD
ENDBRANCH   5  25
BRANCH   7  27
ATOM     27  O   UNL     1      -1.443  -6.030   8.746  1.00  0.00    -0.507 OA
ATOM     28  H   UNL     1      -1.527  -5.260   9.394  1.00  0.00     0.293 HD
ENDBRANCH   7  27
TORSDOF 7
ENDMDL
MODEL 9
REMARK VINA RESULT:    -4.874      1.436      3.114
REMARK INTER + INTRA:          -6.398
REMARK INTER:                  -6.032
REMARK INTRA:                  -0.366
REMARK UNBOUND:                -0.385
REMARK SMILES Oc1cc(O)c2cc(O)c(-c3cc(O)c(O)c(O)c3)[o+]c2c1
REMARK SMILES IDX 10 1 20 2 21 3 22 4 2 5 3 6 4 7 6 8 7 9 8 10 11 11 12 12
REMARK SMILES IDX 13 13 19 14 15 15 17 16 14 17 16 19 18 21 9 23 1 25 5 27
REMARK H PARENT 14 18 16 20 18 22 9 24 1 26 5 28
REMARK Flexibility Score: inf
ROOT
ATOM      1  C   UNL     1      -1.454  -6.740   8.614  1.00  0.00     0.402 A 
ATOM      2  O   UNL     1      -0.806  -5.667   9.060  1.00  0.00    -0.202 OA
ATOM      3  C   UNL     1       0.503  -5.492   8.913  1.00  0.00     0.368 A 
ATOM      4  C   UNL     1       1.094  -4.331   9.418  1.00  0.00     0.162 A 
ATOM      5  C   UNL     1       2.467  -4.123   9.282  1.00  0.00     0.128 A 
ATOM      6  C   UNL     1       3.257  -5.080   8.636  1.00  0.00     0.093 A 
ATOM      7  C   UNL     1       2.688  -6.252   8.122  1.00  0.00     0.136 A 
ATOM      8  C   UNL     1       1.292  -6.467   8.256  1.00  0.00     0.125 A 
ATOM      9  C   UNL     1       0.634  -7.604   7.760  1.00  0.00     0.078 A 
ATOM     10  C   UNL     1      -0.746  -7.743   7.927  1.00  0.00     0.223 A 
ENDROOT
BRANCH   1  11
ATOM     11  C   UNL     1      -2.914  -6.824   8.847  1.00  0.00     0.091 A 
ATOM     12  C   UNL     1      -3.446  -7.614   9.881  1.00  0.00     0.068 A 
ATOM     13  C   UNL     1      -4.830  -7.663  10.100  1.00  0.00     0.162 A 
ATOM     14  C   UNL     1      -3.783  -6.057   8.058  1.00  0.00     0.068 A 
ATOM     15  C   UNL     1      -5.695  -6.909   9.289  1.00  0.00     0.200 A 
ATOM     16  C   UNL     1      -5.166  -6.101   8.268  1.00  0.00     0.162 A 
BRANCH  13  17
ATOM     17  O   UNL     1      -5.347  -8.454  11.124  1.00  0.00    -0.504 OA
ATOM     18  H   UNL     1      -5.101  -9.433  11.216  1.00  0.00     0.293 HD
ENDBRANCH  13  17
BRANCH  15  19
ATOM     19  O   UNL     1      -7.075  -6.949   9.490  1.00  0.00    -0.502 OA
ATOM     20  H   UNL     1      -7.730  -7.035   8.722  1.00  0.00     0.293 HD
ENDBRANCH  15  19
BRANCH  16  21
ATOM     21  O   UNL     1      -5.997  -5.335   7.451  1.00  0.00    -0.504 OA
ATOM     22  H   UNL     1      -5.766  -5.132   6.486  1.00  0.00     0.293 HD
ENDBRANCH  16  21
ENDBRANCH   1  11
BRANCH  10  23
ATOM     23  O   UNL     1      -1.408  -8.849   7.390  1.00  0.00    -0.500 OA
ATOM     24  H   UNL     1      -2.363  -8.789   7.057  1.00  0.00     0.294 HD
ENDBRANCH  10  23
BRANCH   5  25
ATOM     25  O   UNL     1       3.038  -2.958   9.792  1.00  0.00    -0.507 OA
ATOM     26  H   UNL     1       2.474  -2.238  10.229  1.00  0.00     0.293 HD
ENDBRANCH   5  25
BRANCH   7  27
ATOM     27  O   UNL     1       3.545  -7.161   7.494  1.00  0.00    -0.507 OA
ATOM     28  H   UNL     1       3.982  -7.946   7.956  1.00  0.00     0.293 HD
ENDBRANCH   7  27
TORSDOF 7
ENDMDL
