MODEL 1
REMARK VINA RESULT:    -4.142      0.000      0.000
REMARK INTER + INTRA:          -6.169
REMARK INTER:                  -5.838
REMARK INTRA:                  -0.332
REMARK UNBOUND:                -0.332
REMARK SMILES CCCCCCCCC(=O)[O-]
REMARK SMILES IDX 6 1 7 2 8 3 9 4 10 5 11 6 5 7 4 8 3 9 2 10 1 11
REMARK H PARENT
REMARK Flexibility Score: inf
ROOT
ATOM      1  C   UNL     1      16.200  12.606 -20.987  1.00  0.00     0.000 C 
ENDROOT
BRANCH   1   2
ATOM      2  C   UNL     1      17.117  13.150 -19.876  1.00  0.00     0.006 C 
BRANCH   2   3
ATOM      3  C   UNL     1      16.490  14.315 -19.099  1.00  0.00     0.053 C 
BRANCH   3   4
ATOM      4  C   UNL     1      17.103  14.426 -17.739  1.00  0.00     0.041 C 
ATOM      5  O   UNL     1      17.084  15.524 -17.122  1.00  0.00    -0.550 OA
ATOM      6  O   UNL     1      17.740  13.329 -17.172  1.00  0.00    -0.550 OA
ENDBRANCH   3   4
ENDBRANCH   2   3
ENDBRANCH   1   2
BRANCH   1   7
ATOM      7  C   UNL     1      14.735  13.076 -20.915  1.00  0.00     0.000 C 
BRANCH   7   8
ATOM      8  C   UNL     1      13.887  12.573 -22.096  1.00  0.00    -0.000 C 
BRANCH   8   9
ATOM      9  C   UNL     1      13.082  11.312 -21.748  1.00  0.00    -0.000 C 
BRANCH   9  10
ATOM     10  C   UNL     1      12.556  11.323 -20.305  1.00  0.00    -0.003 C 
ATOM     11  C   UNL     1      11.032  11.405 -20.276  1.00  0.00     0.004 C 
ENDBRANCH   9  10
ENDBRANCH   8   9
ENDBRANCH   7   8
ENDBRANCH   1   7
TORSDOF 7
ENDMDL
MODEL 2
REMARK VINA RESULT:    -4.130      1.323      1.968
REMARK INTER + INTRA:          -6.152
REMARK INTER:                  -5.912
REMARK INTRA:                  -0.240
REMARK UNBOUND:                -0.332
REMARK SMILES CCCCCCCCC(=O)[O-]
REMARK SMILES IDX 6 1 7 2 8 3 9 4 10 5 11 6 5 7 4 8 3 9 2 10 1 11
REMARK H PARENT
REMARK Flexibility Score: inf
ROOT
ATOM      1  C   UNL     1      17.137  13.795 -19.669  1.00  0.00     0.000 C 
ENDROOT
BRANCH   1   2
ATOM      2  C   UNL     1      17.483  13.351 -18.236  1.00  0.00     0.006 C 
BRANCH   2   3
ATOM      3  C   UNL     1      17.123  14.403 -17.179  1.00  0.00     0.053 C 
BRANCH   3   4
ATOM      4  C   UNL     1      16.096  13.864 -16.234  1.00  0.00     0.041 C 
ATOM      5  O   UNL     1      14.942  14.367 -16.199  1.00  0.00    -0.550 OA
ATOM      6  O   UNL     1      16.427  12.840 -15.357  1.00  0.00    -0.550 OA
ENDBRANCH   3   4
ENDBRANCH   2   3
ENDBRANCH   1   2
BRANCH   1   7
ATOM      7  C   UNL     1      16.553  12.692 -20.571  1.00  0.00     0.000 C 
BRANCH   7   8
ATOM      8  C   UNL     1      15.040  12.849 -20.805  1.00  0.00    -0.000 C 
BRANCH   8   9
ATOM      9  C   UNL     1      14.563  12.134 -22.078  1.00  0.00    -0.000 C 
BRANCH   9  10
ATOM     10  C   UNL     1      13.166  11.514 -21.922  1.00  0.00    -0.003 C 
ATOM     11  C   UNL     1      12.842  11.253 -20.454  1.00  0.00     0.004 C 
ENDBRANCH   9  10
ENDBRANCH   8   9
ENDBRANCH   7   8
ENDBRANCH   1   7
TORSDOF 7
ENDMDL
MODEL 3
REMARK VINA RESULT:    -4.066      1.236      1.980
REMARK INTER + INTRA:          -6.061
REMARK INTER:                  -5.507
REMARK INTRA:                  -0.554
REMARK UNBOUND:                -0.332
REMARK SMILES CCCCCCCCC(=O)[O-]
REMARK SMILES IDX 6 1 7 2 8 3 9 4 10 5 11 6 5 7 4 8 3 9 2 10 1 11
REMARK H PARENT
REMARK Flexibility Score: inf
ROOT
ATOM      1  C   UNL     1      14.687  14.669 -19.497  1.00  0.00     0.000 C 
ENDROOT
BRANCH   1   2
ATOM      2  C   UNL     1      16.071  13.994 -19.506  1.00  0.00     0.006 C 
BRANCH   2   3
ATOM      3  C   UNL     1      17.129  14.784 -18.726  1.00  0.00     0.053 C 
BRANCH   3   4
ATOM      4  C   UNL     1      17.135  14.371 -17.288  1.00  0.00     0.041 C 
ATOM      5  O   UNL     1      16.403  14.966 -16.454  1.00  0.00    -0.550 OA
ATOM      6  O   UNL     1      17.988  13.363 -16.859  1.00  0.00    -0.550 OA
ENDBRANCH   3   4
ENDBRANCH   2   3
ENDBRANCH   1   2
BRANCH   1   7
ATOM      7  C   UNL     1      13.519  13.761 -19.068  1.00  0.00     0.000 C 
BRANCH   7   8
ATOM      8  C   UNL     1      12.653  13.300 -20.253  1.00  0.00    -0.000 C 
BRANCH   8   9
ATOM      9  C   UNL     1      12.632  11.772 -20.408  1.00  0.00    -0.000 C 
BRANCH   9  10
ATOM     10  C   UNL     1      13.779  11.250 -21.287  1.00  0.00    -0.003 C 
ATOM     11  C   UNL     1      14.075  12.214 -22.433  1.00  0.00     0.004 C 
ENDBRANCH   9  10
ENDBRANCH   8   9
ENDBRANCH   7   8
ENDBRANCH   1   7
TORSDOF 7
ENDMDL
MODEL 4
REMARK VINA RESULT:    -4.009      1.599      2.626
REMARK INTER + INTRA:          -5.981
REMARK INTER:                  -5.487
REMARK INTRA:                  -0.494
REMARK UNBOUND:                -0.332
REMARK SMILES CCCCCCCCC(=O)[O-]
REMARK SMILES IDX 6 1 7 2 8 3 9 4 10 5 11 6 5 7 4 8 3 9 2 10 1 11
REMARK H PARENT
REMARK Flexibility Score: inf
ROOT
ATOM      1  C   UNL     1      14.033  14.114 -17.650  1.00  0.00     0.000 C 
ENDROOT
BRANCH   1   2
ATOM      2  C   UNL     1      15.002  14.841 -16.700  1.00  0.00     0.006 C 
BRANCH   2   3
ATOM      3  C   UNL     1      16.155  13.949 -16.222  1.00  0.00     0.053 C 
BRANCH   3   4
ATOM      4  C   UNL     1      17.235  13.892 -17.256  1.00  0.00     0.041 C 
ATOM      5  O   UNL     1      17.970  12.875 -17.349  1.00  0.00    -0.550 OA
ATOM      6  O   UNL     1      17.463  14.984 -18.083  1.00  0.00    -0.550 OA
ENDBRANCH   3   4
ENDBRANCH   2   3
ENDBRANCH   1   2
BRANCH   1   7
ATOM      7  C   UNL     1      14.052  14.611 -19.108  1.00  0.00     0.000 C 
BRANCH   7   8
ATOM      8  C   UNL     1      14.693  13.601 -20.076  1.00  0.00    -0.000 C 
BRANCH   8   9
ATOM      9  C   UNL     1      13.756  13.213 -21.229  1.00  0.00    -0.000 C 
BRANCH   9  10
ATOM     10  C   UNL     1      13.462  11.706 -21.273  1.00  0.00    -0.003 C 
ATOM     11  C   UNL     1      12.306  11.344 -20.345  1.00  0.00     0.004 C 
ENDBRANCH   9  10
ENDBRANCH   8   9
ENDBRANCH   7   8
ENDBRANCH   1   7
TORSDOF 7
ENDMDL
MODEL 5
REMARK VINA RESULT:    -4.004      4.372      5.806
REMARK INTER + INTRA:          -5.974
REMARK INTER:                  -5.378
REMARK INTRA:                  -0.596
REMARK UNBOUND:                -0.332
REMARK SMILES CCCCCCCCC(=O)[O-]
REMARK SMILES IDX 6 1 7 2 8 3 9 4 10 5 11 6 5 7 4 8 3 9 2 10 1 11
REMARK H PARENT
REMARK Flexibility Score: inf
ROOT
ATOM      1  C   UNL     1      16.080  17.362 -16.948  1.00  0.00     0.000 C 
ENDROOT
BRANCH   1   2
ATOM      2  C   UNL     1      15.197  16.928 -15.764  1.00  0.00     0.006 C 
BRANCH   2   3
ATOM      3  C   UNL     1      13.785  17.525 -15.819  1.00  0.00     0.053 C 
BRANCH   3   4
ATOM      4  C   UNL     1      12.763  16.439 -15.929  1.00  0.00     0.041 C 
ATOM      5  O   UNL     1      11.624  16.586 -15.412  1.00  0.00    -0.550 OA
ATOM      6  O   UNL     1      13.084  15.242 -16.557  1.00  0.00    -0.550 OA
ENDBRANCH   3   4
ENDBRANCH   2   3
ENDBRANCH   1   2
BRANCH   1   7
ATOM      7  C   UNL     1      15.742  16.694 -18.294  1.00  0.00     0.000 C 
BRANCH   7   8
ATOM      8  C   UNL     1      15.934  15.168 -18.270  1.00  0.00    -0.000 C 
BRANCH   8   9
ATOM      9  C   UNL     1      17.397  14.762 -18.030  1.00  0.00    -0.000 C 
BRANCH   9  10
ATOM     10  C   UNL     1      17.534  13.616 -17.017  1.00  0.00    -0.003 C 
ATOM     11  C   UNL     1      16.360  13.601 -16.041  1.00  0.00     0.004 C 
ENDBRANCH   9  10
ENDBRANCH   8   9
ENDBRANCH   7   8
ENDBRANCH   1   7
TORSDOF 7
ENDMDL
MODEL 6
REMARK VINA RESULT:    -3.996      1.577      2.406
REMARK INTER + INTRA:          -5.963
REMARK INTER:                  -5.311
REMARK INTRA:                  -0.652
REMARK UNBOUND:                -0.332
REMARK SMILES CCCCCCCCC(=O)[O-]
REMARK SMILES IDX 6 1 7 2 8 3 9 4 10 5 11 6 5 7 4 8 3 9 2 10 1 11
REMARK H PARENT
REMARK Flexibility Score: inf
ROOT
ATOM      1  C   UNL     1      13.399  13.958 -21.607  1.00  0.00     0.000 C 
ENDROOT
BRANCH   1   2
ATOM      2  C   UNL     1      13.744  14.666 -20.284  1.00  0.00     0.006 C 
BRANCH   2   3
ATOM      3  C   UNL     1      14.973  14.070 -19.587  1.00  0.00     0.053 C 
BRANCH   3   4
ATOM      4  C   UNL     1      15.951  15.147 -19.239  1.00  0.00     0.041 C 
ATOM      5  O   UNL     1      17.153  14.859 -18.999  1.00  0.00    -0.550 OA
ATOM      6  O   UNL     1      15.524  16.465 -19.131  1.00  0.00    -0.550 OA
ENDBRANCH   3   4
ENDBRANCH   2   3
ENDBRANCH   1   2
BRANCH   1   7
ATOM      7  C   UNL     1      14.096  12.602 -21.823  1.00  0.00     0.000 C 
BRANCH   7   8
ATOM      8  C   UNL     1      13.126  11.410 -21.741  1.00  0.00    -0.000 C 
BRANCH   8   9
ATOM      9  C   UNL     1      12.554  11.212 -20.329  1.00  0.00    -0.000 C 
BRANCH   9  10
ATOM     10  C   UNL     1      11.034  11.424 -20.269  1.00  0.00    -0.003 C 
ATOM     11  C   UNL     1      10.671  12.511 -19.262  1.00  0.00     0.004 C 
ENDBRANCH   9  10
ENDBRANCH   8   9
ENDBRANCH   7   8
ENDBRANCH   1   7
TORSDOF 7
ENDMDL
MODEL 7
REMARK VINA RESULT:    -3.975      3.804      5.356
REMARK INTER + INTRA:          -5.933
REMARK INTER:                  -5.317
REMARK INTRA:                  -0.616
REMARK UNBOUND:                -0.332
REMARK SMILES CCCCCCCCC(=O)[O-]
REMARK SMILES IDX 6 1 7 2 8 3 9 4 10 5 11 6 5 7 4 8 3 9 2 10 1 11
REMARK H PARENT
REMARK Flexibility Score: inf
ROOT
ATOM      1  C   UNL     1      11.019  11.375 -20.076  1.00  0.00     0.000 C 
ENDROOT
BRANCH   1   2
ATOM      2  C   UNL     1      10.185  12.557 -19.550  1.00  0.00     0.006 C 
BRANCH   2   3
ATOM      3  C   UNL     1      10.713  13.120 -18.224  1.00  0.00     0.053 C 
BRANCH   3   4
ATOM      4  C   UNL     1      10.292  14.546 -18.057  1.00  0.00     0.041 C 
ATOM      5  O   UNL     1      10.375  15.104 -16.931  1.00  0.00    -0.550 OA
ATOM      6  O   UNL     1       9.761  15.245 -19.134  1.00  0.00    -0.550 OA
ENDBRANCH   3   4
ENDBRANCH   2   3
ENDBRANCH   1   2
BRANCH   1   7
ATOM      7  C   UNL     1      12.545  11.580 -20.033  1.00  0.00     0.000 C 
BRANCH   7   8
ATOM      8  C   UNL     1      13.213  11.389 -21.406  1.00  0.00    -0.000 C 
BRANCH   8   9
ATOM      9  C   UNL     1      13.707  12.713 -22.010  1.00  0.00    -0.000 C 
BRANCH   9  10
ATOM     10  C   UNL     1      13.715  13.863 -20.992  1.00  0.00    -0.003 C 
ATOM     11  C   UNL     1      12.936  15.066 -21.517  1.00  0.00     0.004 C 
ENDBRANCH   9  10
ENDBRANCH   8   9
ENDBRANCH   7   8
ENDBRANCH   1   7
TORSDOF 7
ENDMDL
MODEL 8
REMARK VINA RESULT:    -3.967      4.261      5.565
REMARK INTER + INTRA:          -5.921
REMARK INTER:                  -5.515
REMARK INTRA:                  -0.406
REMARK UNBOUND:                -0.332
REMARK SMILES CCCCCCCCC(=O)[O-]
REMARK SMILES IDX 6 1 7 2 8 3 9 4 10 5 11 6 5 7 4 8 3 9 2 10 1 11
REMARK H PARENT
REMARK Flexibility Score: inf
ROOT
ATOM      1  C   UNL     1      15.814  17.648 -17.188  1.00  0.00     0.000 C 
ENDROOT
BRANCH   1   2
ATOM      2  C   UNL     1      16.275  16.406 -16.405  1.00  0.00     0.006 C 
BRANCH   2   3
ATOM      3  C   UNL     1      15.880  15.088 -17.084  1.00  0.00     0.053 C 
BRANCH   3   4
ATOM      4  C   UNL     1      17.075  14.443 -17.709  1.00  0.00     0.041 C 
ATOM      5  O   UNL     1      17.801  13.664 -17.037  1.00  0.00    -0.550 OA
ATOM      6  O   UNL     1      17.419  14.741 -19.022  1.00  0.00    -0.550 OA
ENDBRANCH   3   4
ENDBRANCH   2   3
ENDBRANCH   1   2
BRANCH   1   7
ATOM      7  C   UNL     1      14.310  17.965 -17.086  1.00  0.00     0.000 C 
BRANCH   7   8
ATOM      8  C   UNL     1      13.744  17.732 -15.674  1.00  0.00    -0.000 C 
BRANCH   8   9
ATOM      9  C   UNL     1      12.661  16.642 -15.645  1.00  0.00    -0.000 C 
BRANCH   9  10
ATOM     10  C   UNL     1      11.494  16.941 -16.598  1.00  0.00    -0.003 C 
ATOM     11  C   UNL     1      10.176  16.416 -16.033  1.00  0.00     0.004 C 
ENDBRANCH   9  10
ENDBRANCH   8   9
ENDBRANCH   7   8
ENDBRANCH   1   7
TORSDOF 7
ENDMDL
MODEL 9
REMARK VINA RESULT:    -3.911      2.923      4.547
REMARK INTER + INTRA:          -5.842
REMARK INTER:                  -5.023
REMARK INTRA:                  -0.819
REMARK UNBOUND:                -0.332
REMARK SMILES CCCCCCCCC(=O)[O-]
REMARK SMILES IDX 6 1 7 2 8 3 9 4 10 5 11 6 5 7 4 8 3 9 2 10 1 11
REMARK H PARENT
REMARK Flexibility Score: inf
ROOT
ATOM      1  C   UNL     1      15.937  17.404 -17.194  1.00  0.00     0.000 C 
ENDROOT
BRANCH   1   2
ATOM      2  C   UNL     1      16.553  16.170 -16.512  1.00  0.00     0.006 C 
BRANCH   2   3
ATOM      3  C   UNL     1      17.121  15.153 -17.510  1.00  0.00     0.053 C 
BRANCH   3   4
ATOM      4  C   UNL     1      17.203  13.796 -16.886  1.00  0.00     0.041 C 
ATOM      5  O   UNL     1      17.928  12.905 -17.401  1.00  0.00    -0.550 OA
ATOM      6  O   UNL     1      16.439  13.500 -15.765  1.00  0.00    -0.550 OA
ENDBRANCH   3   4
ENDBRANCH   2   3
ENDBRANCH   1   2
BRANCH   1   7
ATOM      7  C   UNL     1      14.399  17.472 -17.159  1.00  0.00     0.000 C 
BRANCH   7   8
ATOM      8  C   UNL     1      13.770  16.345 -16.320  1.00  0.00    -0.000 C 
BRANCH   8   9
ATOM      9  C   UNL     1      12.828  15.452 -17.144  1.00  0.00    -0.000 C 
BRANCH   9  10
ATOM     10  C   UNL     1      13.473  14.115 -17.537  1.00  0.00    -0.003 C 
ATOM     11  C   UNL     1      13.910  14.125 -19.000  1.00  0.00     0.004 C 
ENDBRANCH   9  10
ENDBRANCH   8   9
ENDBRANCH   7   8
ENDBRANCH   1   7
TORSDOF 7
ENDMDL
