MODEL 1
REMARK VINA RESULT:    -5.131      0.000      0.000
REMARK INTER + INTRA:          -5.676
REMARK INTER:                  -5.581
REMARK INTRA:                  -0.095
REMARK UNBOUND:                -0.095
REMARK SMILES C=C(C)[C@H]1CC[C@@H](C)[C@H](O)C1
REMARK SMILES IDX 8 1 7 2 6 3 5 4 4 5 11 6 9 7 10 8 2 10 1 11 3 12
REMARK H PARENT 10 9
REMARK Flexibility Score: inf
ROOT
ATOM      1  C   UNL     1      14.124 -13.218  27.477  1.00  0.00     0.010 C 
ATOM      2  C   UNL     1      13.074 -14.313  27.223  1.00  0.00     0.015 C 
ATOM      3  C   UNL     1      11.743 -14.010  27.946  1.00  0.00     0.006 C 
ATOM      4  C   UNL     1      11.833 -14.229  29.463  1.00  0.00     0.008 C 
ATOM      5  C   UNL     1      12.325 -15.651  29.787  1.00  0.00     0.017 C 
ATOM      6  C   UNL     1      13.678 -15.939  29.107  1.00  0.00     0.040 C 
ATOM      7  C   UNL     1      13.607 -15.724  27.584  1.00  0.00     0.117 C 
ENDROOT
BRANCH   7   8
ATOM      8  O   UNL     1      12.781 -16.710  27.018  1.00  0.00    -0.393 OA
ATOM      9  H   UNL     1      12.198 -16.254  26.358  1.00  0.00     0.210 HD
ENDBRANCH   7   8
BRANCH   5  10
ATOM     10  C   UNL     1      12.408 -15.873  31.291  1.00  0.00    -0.077 C 
ATOM     11  C   UNL     1      13.602 -16.017  31.887  1.00  0.00     0.008 C 
ATOM     12  C   UNL     1      11.165 -15.935  32.145  1.00  0.00     0.039 C 
ENDBRANCH   5  10
TORSDOF 2
ENDMDL
MODEL 2
REMARK VINA RESULT:    -4.935      1.627      2.286
REMARK INTER + INTRA:          -5.463
REMARK INTER:                  -5.371
REMARK INTRA:                  -0.092
REMARK UNBOUND:                -0.095
REMARK SMILES C=C(C)[C@H]1CC[C@@H](C)[C@H](O)C1
REMARK SMILES IDX 8 1 7 2 6 3 5 4 4 5 11 6 9 7 10 8 2 10 1 11 3 12
REMARK H PARENT 10 9
REMARK Flexibility Score: inf
ROOT
ATOM      1  C   UNL     1      13.016 -15.331  26.498  1.00  0.00     0.010 C 
ATOM      2  C   UNL     1      13.292 -14.161  27.458  1.00  0.00     0.015 C 
ATOM      3  C   UNL     1      14.481 -14.459  28.398  1.00  0.00     0.006 C 
ATOM      4  C   UNL     1      14.128 -15.478  29.490  1.00  0.00     0.008 C 
ATOM      5  C   UNL     1      12.894 -15.023  30.291  1.00  0.00     0.017 C 
ATOM      6  C   UNL     1      11.690 -14.774  29.360  1.00  0.00     0.040 C 
ATOM      7  C   UNL     1      12.026 -13.754  28.256  1.00  0.00     0.117 C 
ENDROOT
BRANCH   7   8
ATOM      8  O   UNL     1      12.211 -12.489  28.839  1.00  0.00    -0.393 OA
ATOM      9  H   UNL     1      12.911 -12.591  29.535  1.00  0.00     0.210 HD
ENDBRANCH   7   8
BRANCH   5  10
ATOM     10  C   UNL     1      12.546 -16.029  31.380  1.00  0.00    -0.077 C 
ATOM     11  C   UNL     1      13.349 -17.079  31.609  1.00  0.00     0.008 C 
ATOM     12  C   UNL     1      11.304 -15.874  32.224  1.00  0.00     0.039 C 
ENDBRANCH   5  10
TORSDOF 2
ENDMDL
MODEL 3
REMARK VINA RESULT:    -4.935      2.089      4.383
REMARK INTER + INTRA:          -5.463
REMARK INTER:                  -5.365
REMARK INTRA:                  -0.098
REMARK UNBOUND:                -0.095
REMARK SMILES C=C(C)[C@H]1CC[C@@H](C)[C@H](O)C1
REMARK SMILES IDX 8 1 7 2 6 3 5 4 4 5 11 6 9 7 10 8 2 10 1 11 3 12
REMARK H PARENT 10 9
REMARK Flexibility Score: inf
ROOT
ATOM      1  C   UNL     1      11.086 -18.249  31.553  1.00  0.00     0.010 C 
ATOM      2  C   UNL     1      11.856 -17.078  32.187  1.00  0.00     0.015 C 
ATOM      3  C   UNL     1      11.053 -15.761  32.121  1.00  0.00     0.006 C 
ATOM      4  C   UNL     1      11.007 -15.169  30.705  1.00  0.00     0.008 C 
ATOM      5  C   UNL     1      12.427 -14.978  30.141  1.00  0.00     0.017 C 
ATOM      6  C   UNL     1      13.214 -16.304  30.159  1.00  0.00     0.040 C 
ATOM      7  C   UNL     1      13.270 -16.913  31.572  1.00  0.00     0.117 C 
ENDROOT
BRANCH   7   8
ATOM      8  O   UNL     1      14.060 -16.093  32.396  1.00  0.00    -0.393 OA
ATOM      9  H   UNL     1      14.043 -16.493  33.303  1.00  0.00     0.210 HD
ENDBRANCH   7   8
BRANCH   5  10
ATOM     10  C   UNL     1      12.384 -14.384  28.739  1.00  0.00    -0.077 C 
ATOM     11  C   UNL     1      12.509 -15.180  27.666  1.00  0.00     0.008 C 
ATOM     12  C   UNL     1      12.201 -12.902  28.520  1.00  0.00     0.039 C 
ENDBRANCH   5  10
TORSDOF 2
ENDMDL
MODEL 4
REMARK VINA RESULT:    -4.893      1.311      1.830
REMARK INTER + INTRA:          -5.417
REMARK INTER:                  -5.327
REMARK INTRA:                  -0.090
REMARK UNBOUND:                -0.095
REMARK SMILES C=C(C)[C@H]1CC[C@@H](C)[C@H](O)C1
REMARK SMILES IDX 8 1 7 2 6 3 5 4 4 5 11 6 9 7 10 8 2 10 1 11 3 12
REMARK H PARENT 10 9
REMARK Flexibility Score: inf
ROOT
ATOM      1  C   UNL     1      14.134 -13.190  26.069  1.00  0.00     0.010 C 
ATOM      2  C   UNL     1      12.664 -13.644  26.098  1.00  0.00     0.015 C 
ATOM      3  C   UNL     1      11.841 -12.856  27.140  1.00  0.00     0.006 C 
ATOM      4  C   UNL     1      12.162 -13.274  28.582  1.00  0.00     0.008 C 
ATOM      5  C   UNL     1      11.981 -14.791  28.770  1.00  0.00     0.017 C 
ATOM      6  C   UNL     1      12.841 -15.581  27.764  1.00  0.00     0.040 C 
ATOM      7  C   UNL     1      12.534 -15.175  26.310  1.00  0.00     0.117 C 
ENDROOT
BRANCH   7   8
ATOM      8  O   UNL     1      11.235 -15.598  25.979  1.00  0.00    -0.393 OA
ATOM      9  H   UNL     1      10.826 -15.951  26.812  1.00  0.00     0.210 HD
ENDBRANCH   7   8
BRANCH   5  10
ATOM     10  C   UNL     1      12.292 -15.207  30.202  1.00  0.00    -0.077 C 
ATOM     11  C   UNL     1      11.296 -15.540  31.039  1.00  0.00     0.008 C 
ATOM     12  C   UNL     1      13.710 -15.257  30.715  1.00  0.00     0.039 C 
ENDBRANCH   5  10
TORSDOF 2
ENDMDL
MODEL 5
REMARK VINA RESULT:    -4.882      1.711      4.156
REMARK INTER + INTRA:          -5.404
REMARK INTER:                  -5.304
REMARK INTRA:                  -0.101
REMARK UNBOUND:                -0.095
REMARK SMILES C=C(C)[C@H]1CC[C@@H](C)[C@H](O)C1
REMARK SMILES IDX 8 1 7 2 6 3 5 4 4 5 11 6 9 7 10 8 2 10 1 11 3 12
REMARK H PARENT 10 9
REMARK Flexibility Score: inf
ROOT
ATOM      1  C   UNL     1      13.749 -15.627  32.610  1.00  0.00     0.010 C 
ATOM      2  C   UNL     1      13.193 -16.660  31.615  1.00  0.00     0.015 C 
ATOM      3  C   UNL     1      14.037 -16.724  30.323  1.00  0.00     0.006 C 
ATOM      4  C   UNL     1      13.820 -15.503  29.418  1.00  0.00     0.008 C 
ATOM      5  C   UNL     1      12.327 -15.315  29.093  1.00  0.00     0.017 C 
ATOM      6  C   UNL     1      11.488 -15.201  30.382  1.00  0.00     0.040 C 
ATOM      7  C   UNL     1      11.694 -16.418  31.303  1.00  0.00     0.117 C 
ENDROOT
BRANCH   7   8
ATOM      8  O   UNL     1      11.138 -17.556  30.694  1.00  0.00    -0.393 OA
ATOM      9  H   UNL     1      10.161 -17.398  30.627  1.00  0.00     0.210 HD
ENDBRANCH   7   8
BRANCH   5  10
ATOM     10  C   UNL     1      12.110 -14.109  28.189  1.00  0.00    -0.077 C 
ATOM     11  C   UNL     1      12.371 -12.872  28.640  1.00  0.00     0.008 C 
ATOM     12  C   UNL     1      11.603 -14.268  26.776  1.00  0.00     0.039 C 
ENDBRANCH   5  10
TORSDOF 2
ENDMDL
MODEL 6
REMARK VINA RESULT:    -4.752      9.586     10.707
REMARK INTER + INTRA:          -5.264
REMARK INTER:                  -5.163
REMARK INTRA:                  -0.100
REMARK UNBOUND:                -0.095
REMARK SMILES C=C(C)[C@H]1CC[C@@H](C)[C@H](O)C1
REMARK SMILES IDX 8 1 7 2 6 3 5 4 4 5 11 6 9 7 10 8 2 10 1 11 3 12
REMARK H PARENT 10 9
REMARK Flexibility Score: inf
ROOT
ATOM      1  C   UNL     1       4.020 -16.866  21.617  1.00  0.00     0.010 C 
ATOM      2  C   UNL     1       5.394 -16.561  22.237  1.00  0.00     0.015 C 
ATOM      3  C   UNL     1       6.494 -16.432  21.161  1.00  0.00     0.006 C 
ATOM      4  C   UNL     1       6.891 -17.788  20.561  1.00  0.00     0.008 C 
ATOM      5  C   UNL     1       7.312 -18.778  21.663  1.00  0.00     0.017 C 
ATOM      6  C   UNL     1       6.195 -18.946  22.713  1.00  0.00     0.040 C 
ATOM      7  C   UNL     1       5.782 -17.595  23.326  1.00  0.00     0.117 C 
ENDROOT
BRANCH   7   8
ATOM      8  O   UNL     1       6.842 -17.100  24.105  1.00  0.00    -0.393 OA
ATOM      9  H   UNL     1       7.682 -17.362  23.647  1.00  0.00     0.210 HD
ENDBRANCH   7   8
BRANCH   5  10
ATOM     10  C   UNL     1       7.713 -20.122  21.070  1.00  0.00    -0.077 C 
ATOM     11  C   UNL     1       6.772 -21.003  20.697  1.00  0.00     0.008 C 
ATOM     12  C   UNL     1       9.164 -20.495  20.884  1.00  0.00     0.039 C 
ENDBRANCH   5  10
TORSDOF 2
ENDMDL
MODEL 7
REMARK VINA RESULT:    -4.701      5.128      7.440
REMARK INTER + INTRA:          -5.208
REMARK INTER:                  -5.107
REMARK INTRA:                  -0.101
REMARK UNBOUND:                -0.095
REMARK SMILES C=C(C)[C@H]1CC[C@@H](C)[C@H](O)C1
REMARK SMILES IDX 8 1 7 2 6 3 5 4 4 5 11 6 9 7 10 8 2 10 1 11 3 12
REMARK H PARENT 10 9
REMARK Flexibility Score: inf
ROOT
ATOM      1  C   UNL     1       7.353 -21.820  32.905  1.00  0.00     0.010 C 
ATOM      2  C   UNL     1       8.603 -22.149  32.071  1.00  0.00     0.015 C 
ATOM      3  C   UNL     1       9.897 -22.031  32.905  1.00  0.00     0.006 C 
ATOM      4  C   UNL     1      10.281 -20.574  33.195  1.00  0.00     0.008 C 
ATOM      5  C   UNL     1      10.391 -19.762  31.891  1.00  0.00     0.017 C 
ATOM      6  C   UNL     1       9.082 -19.836  31.079  1.00  0.00     0.040 C 
ATOM      7  C   UNL     1       8.681 -21.293  30.780  1.00  0.00     0.117 C 
ENDROOT
BRANCH   7   8
ATOM      8  O   UNL     1       9.610 -21.852  29.886  1.00  0.00    -0.393 OA
ATOM      9  H   UNL     1       9.569 -22.836  30.006  1.00  0.00     0.210 HD
ENDBRANCH   7   8
BRANCH   5  10
ATOM     10  C   UNL     1      10.779 -18.317  32.176  1.00  0.00    -0.077 C 
ATOM     11  C   UNL     1       9.947 -17.518  32.861  1.00  0.00     0.008 C 
ATOM     12  C   UNL     1      12.095 -17.750  31.702  1.00  0.00     0.039 C 
ENDBRANCH   5  10
TORSDOF 2
ENDMDL
MODEL 8
REMARK VINA RESULT:    -4.590      9.079     10.434
REMARK INTER + INTRA:          -5.087
REMARK INTER:                  -4.990
REMARK INTRA:                  -0.098
REMARK UNBOUND:                -0.095
REMARK SMILES C=C(C)[C@H]1CC[C@@H](C)[C@H](O)C1
REMARK SMILES IDX 8 1 7 2 6 3 5 4 4 5 11 6 9 7 10 8 2 10 1 11 3 12
REMARK H PARENT 10 9
REMARK Flexibility Score: inf
ROOT
ATOM      1  C   UNL     1       3.355 -16.737  20.434  1.00  0.00     0.010 C 
ATOM      2  C   UNL     1       4.030 -15.663  21.305  1.00  0.00     0.015 C 
ATOM      3  C   UNL     1       5.493 -15.413  20.879  1.00  0.00     0.006 C 
ATOM      4  C   UNL     1       6.429 -16.559  21.290  1.00  0.00     0.008 C 
ATOM      5  C   UNL     1       6.335 -16.833  22.802  1.00  0.00     0.017 C 
ATOM      6  C   UNL     1       4.881 -17.132  23.222  1.00  0.00     0.040 C 
ATOM      7  C   UNL     1       3.927 -15.993  22.817  1.00  0.00     0.117 C 
ENDROOT
BRANCH   7   8
ATOM      8  O   UNL     1       4.222 -14.851  23.581  1.00  0.00    -0.393 OA
ATOM      9  H   UNL     1       4.863 -14.309  23.052  1.00  0.00     0.210 HD
ENDBRANCH   7   8
BRANCH   5  10
ATOM     10  C   UNL     1       7.268 -17.964  23.214  1.00  0.00    -0.077 C 
ATOM     11  C   UNL     1       7.607 -18.914  22.329  1.00  0.00     0.008 C 
ATOM     12  C   UNL     1       7.832 -18.046  24.612  1.00  0.00     0.039 C 
ENDBRANCH   5  10
TORSDOF 2
ENDMDL
MODEL 9
REMARK VINA RESULT:    -4.422     10.466     11.954
REMARK INTER + INTRA:          -4.905
REMARK INTER:                  -4.804
REMARK INTRA:                  -0.100
REMARK UNBOUND:                -0.095
REMARK SMILES C=C(C)[C@H]1CC[C@@H](C)[C@H](O)C1
REMARK SMILES IDX 8 1 7 2 6 3 5 4 4 5 11 6 9 7 10 8 2 10 1 11 3 12
REMARK H PARENT 10 9
REMARK Flexibility Score: inf
ROOT
ATOM      1  C   UNL     1       6.821 -17.173  23.177  1.00  0.00     0.010 C 
ATOM      2  C   UNL     1       6.861 -17.075  21.643  1.00  0.00     0.015 C 
ATOM      3  C   UNL     1       6.265 -15.743  21.137  1.00  0.00     0.006 C 
ATOM      4  C   UNL     1       4.735 -15.699  21.257  1.00  0.00     0.008 C 
ATOM      5  C   UNL     1       4.091 -16.899  20.539  1.00  0.00     0.017 C 
ATOM      6  C   UNL     1       4.648 -18.232  21.077  1.00  0.00     0.040 C 
ATOM      7  C   UNL     1       6.182 -18.294  20.966  1.00  0.00     0.117 C 
ENDROOT
BRANCH   7   8
ATOM      8  O   UNL     1       6.543 -18.354  19.609  1.00  0.00    -0.393 OA
ATOM      9  H   UNL     1       7.131 -17.574  19.432  1.00  0.00     0.210 HD
ENDBRANCH   7   8
BRANCH   5  10
ATOM     10  C   UNL     1       2.573 -16.854  20.650  1.00  0.00    -0.077 C 
ATOM     11  C   UNL     1       1.989 -16.662  21.843  1.00  0.00     0.008 C 
ATOM     12  C   UNL     1       1.691 -17.021  19.436  1.00  0.00     0.039 C 
ENDBRANCH   5  10
TORSDOF 2
ENDMDL
