MODEL 1
REMARK VINA RESULT:    -4.692      0.000      0.000
REMARK INTER + INTRA:         -10.797
REMARK INTER:                  -8.532
REMARK INTRA:                  -2.266
REMARK UNBOUND:                -2.266
REMARK SMILES CCCCCCCCCCCCCC[C@@H](C)C(=O)[O-]
REMARK SMILES IDX 9 1 10 2 11 3 12 4 13 5 14 6 15 7 16 8 17 9 18 10 19 11 8 12
REMARK SMILES IDX 7 13 6 14 5 15 4 16 3 17 2 18 1 19
REMARK H PARENT
REMARK Flexibility Score: inf
ROOT
ATOM      1  C   UNL     1      62.965 -28.359  -1.895  1.00  0.00     0.000 C 
ENDROOT
BRANCH   1   2
ATOM      2  C   UNL     1      63.693 -27.009  -2.071  1.00  0.00     0.000 C 
BRANCH   2   3
ATOM      3  C   UNL     1      62.893 -25.900  -2.787  1.00  0.00     0.000 C 
BRANCH   3   4
ATOM      4  C   UNL     1      61.432 -26.253  -3.119  1.00  0.00     0.000 C 
BRANCH   4   5
ATOM      5  C   UNL     1      60.452 -25.125  -2.764  1.00  0.00     0.001 C 
BRANCH   5   6
ATOM      6  C   UNL     1      59.727 -24.616  -4.024  1.00  0.00     0.009 C 
BRANCH   6   7
ATOM      7  C   UNL     1      59.688 -25.629  -5.189  1.00  0.00     0.032 C 
ATOM      8  C   UNL     1      58.270 -26.143  -5.482  1.00  0.00     0.014 C 
BRANCH   7   9
ATOM      9  C   UNL     1      60.347 -25.081  -6.428  1.00  0.00     0.044 C 
ATOM     10  O   UNL     1      60.686 -23.868  -6.471  1.00  0.00    -0.550 OA
ATOM     11  O   UNL     1      60.545 -25.886  -7.547  1.00  0.00    -0.550 OA
ENDBRANCH   7   9
ENDBRANCH   6   7
ENDBRANCH   5   6
ENDBRANCH   4   5
ENDBRANCH   3   4
ENDBRANCH   2   3
ENDBRANCH   1   2
BRANCH   1  12
ATOM     12  C   UNL     1      62.790 -28.825  -0.432  1.00  0.00     0.000 C 
BRANCH  12  13
ATOM     13  C   UNL     1      61.326 -29.025  -0.006  1.00  0.00    -0.000 C 
BRANCH  13  14
ATOM     14  C   UNL     1      60.357 -29.128  -1.195  1.00  0.00    -0.000 C 
BRANCH  14  15
ATOM     15  C   UNL     1      59.028 -28.383  -0.941  1.00  0.00    -0.000 C 
BRANCH  15  16
ATOM     16  C   UNL     1      58.268 -28.018  -2.232  1.00  0.00    -0.000 C 
BRANCH  16  17
ATOM     17  C   UNL     1      57.069 -27.073  -2.034  1.00  0.00    -0.000 C 
BRANCH  17  18
ATOM     18  C   UNL     1      57.278 -25.986  -0.963  1.00  0.00    -0.003 C 
ATOM     19  C   UNL     1      56.654 -24.643  -1.348  1.00  0.00     0.004 C 
ENDBRANCH  17  18
ENDBRANCH  16  17
ENDBRANCH  15  16
ENDBRANCH  14  15
ENDBRANCH  13  14
ENDBRANCH  12  13
ENDBRANCH   1  12
TORSDOF 14
ENDMDL
MODEL 2
REMARK VINA RESULT:    -4.684      2.830      5.267
REMARK INTER + INTRA:         -10.783
REMARK INTER:                  -8.745
REMARK INTRA:                  -2.038
REMARK UNBOUND:                -2.266
REMARK SMILES CCCCCCCCCCCCCC[C@@H](C)C(=O)[O-]
REMARK SMILES IDX 9 1 10 2 11 3 12 4 13 5 14 6 15 7 16 8 17 9 18 10 19 11 8 12
REMARK SMILES IDX 7 13 6 14 5 15 4 16 3 17 2 18 1 19
REMARK H PARENT
REMARK Flexibility Score: inf
ROOT
ATOM      1  C   UNL     1      62.635 -25.876  -2.820  1.00  0.00     0.000 C 
ENDROOT
BRANCH   1   2
ATOM      2  C   UNL     1      63.533 -26.989  -2.239  1.00  0.00     0.000 C 
BRANCH   2   3
ATOM      3  C   UNL     1      62.847 -28.350  -1.992  1.00  0.00     0.000 C 
BRANCH   3   4
ATOM      4  C   UNL     1      63.017 -28.925  -0.574  1.00  0.00     0.000 C 
BRANCH   4   5
ATOM      5  C   UNL     1      61.691 -29.008   0.197  1.00  0.00     0.001 C 
BRANCH   5   6
ATOM      6  C   UNL     1      60.498 -29.056  -0.776  1.00  0.00     0.009 C 
BRANCH   6   7
ATOM      7  C   UNL     1      59.207 -29.650  -0.173  1.00  0.00     0.032 C 
ATOM      8  C   UNL     1      59.345 -29.976   1.322  1.00  0.00     0.014 C 
BRANCH   7   9
ATOM      9  C   UNL     1      58.011 -28.774  -0.442  1.00  0.00     0.044 C 
ATOM     10  O   UNL     1      57.749 -27.817   0.335  1.00  0.00    -0.550 OA
ATOM     11  O   UNL     1      57.162 -29.036  -1.514  1.00  0.00    -0.550 OA
ENDBRANCH   7   9
ENDBRANCH   6   7
ENDBRANCH   5   6
ENDBRANCH   4   5
ENDBRANCH   3   4
ENDBRANCH   2   3
ENDBRANCH   1   2
BRANCH   1  12
ATOM     12  C   UNL     1      61.195 -26.311  -3.170  1.00  0.00     0.000 C 
BRANCH  12  13
ATOM     13  C   UNL     1      60.104 -25.578  -2.370  1.00  0.00    -0.000 C 
BRANCH  13  14
ATOM     14  C   UNL     1      58.684 -26.075  -2.685  1.00  0.00    -0.000 C 
BRANCH  14  15
ATOM     15  C   UNL     1      58.602 -26.807  -4.043  1.00  0.00    -0.000 C 
BRANCH  15  16
ATOM     16  C   UNL     1      57.924 -25.978  -5.152  1.00  0.00    -0.000 C 
BRANCH  16  17
ATOM     17  C   UNL     1      58.854 -25.544  -6.300  1.00  0.00    -0.000 C 
BRANCH  17  18
ATOM     18  C   UNL     1      59.791 -24.371  -5.957  1.00  0.00    -0.003 C 
ATOM     19  C   UNL     1      59.127 -23.320  -5.063  1.00  0.00     0.004 C 
ENDBRANCH  17  18
ENDBRANCH  16  17
ENDBRANCH  15  16
ENDBRANCH  14  15
ENDBRANCH  13  14
ENDBRANCH  12  13
ENDBRANCH   1  12
TORSDOF 14
ENDMDL
MODEL 3
REMARK VINA RESULT:    -4.451      1.851      2.979
REMARK INTER + INTRA:         -10.360
REMARK INTER:                  -8.922
REMARK INTRA:                  -1.438
REMARK UNBOUND:                -2.266
REMARK SMILES CCCCCCCCCCCCCC[C@@H](C)C(=O)[O-]
REMARK SMILES IDX 9 1 10 2 11 3 12 4 13 5 14 6 15 7 16 8 17 9 18 10 19 11 8 12
REMARK SMILES IDX 7 13 6 14 5 15 4 16 3 17 2 18 1 19
REMARK H PARENT
REMARK Flexibility Score: inf
ROOT
ATOM      1  C   UNL     1      62.875 -28.792  -1.607  1.00  0.00     0.000 C 
ENDROOT
BRANCH   1   2
ATOM      2  C   UNL     1      63.657 -27.460  -1.634  1.00  0.00     0.000 C 
BRANCH   2   3
ATOM      3  C   UNL     1      63.594 -26.668  -2.958  1.00  0.00     0.000 C 
BRANCH   3   4
ATOM      4  C   UNL     1      62.550 -25.538  -3.000  1.00  0.00     0.000 C 
BRANCH   4   5
ATOM      5  C   UNL     1      61.176 -26.015  -3.491  1.00  0.00     0.001 C 
BRANCH   5   6
ATOM      6  C   UNL     1      60.823 -25.361  -4.840  1.00  0.00     0.009 C 
BRANCH   6   7
ATOM      7  C   UNL     1      59.361 -25.575  -5.289  1.00  0.00     0.032 C 
ATOM      8  C   UNL     1      58.532 -26.359  -4.260  1.00  0.00     0.014 C 
BRANCH   7   9
ATOM      9  C   UNL     1      58.696 -24.275  -5.664  1.00  0.00     0.044 C 
ATOM     10  O   UNL     1      58.842 -23.264  -4.927  1.00  0.00    -0.550 OA
ATOM     11  O   UNL     1      57.883 -24.189  -6.791  1.00  0.00    -0.550 OA
ENDBRANCH   7   9
ENDBRANCH   6   7
ENDBRANCH   5   6
ENDBRANCH   4   5
ENDBRANCH   3   4
ENDBRANCH   2   3
ENDBRANCH   1   2
BRANCH   1  12
ATOM     12  C   UNL     1      61.780 -28.888  -0.522  1.00  0.00     0.000 C 
BRANCH  12  13
ATOM     13  C   UNL     1      60.390 -29.266  -1.063  1.00  0.00    -0.000 C 
BRANCH  13  14
ATOM     14  C   UNL     1      59.396 -28.093  -1.051  1.00  0.00    -0.000 C 
BRANCH  14  15
ATOM     15  C   UNL     1      58.131 -28.399  -0.218  1.00  0.00    -0.000 C 
BRANCH  15  16
ATOM     16  C   UNL     1      58.356 -29.458   0.880  1.00  0.00    -0.000 C 
BRANCH  16  17
ATOM     17  C   UNL     1      58.834 -28.899   2.233  1.00  0.00    -0.000 C 
BRANCH  17  18
ATOM     18  C   UNL     1      60.203 -29.430   2.698  1.00  0.00    -0.003 C 
ATOM     19  C   UNL     1      60.694 -28.764   3.985  1.00  0.00     0.004 C 
ENDBRANCH  17  18
ENDBRANCH  16  17
ENDBRANCH  15  16
ENDBRANCH  14  15
ENDBRANCH  13  14
ENDBRANCH  12  13
ENDBRANCH   1  12
TORSDOF 14
ENDMDL
MODEL 4
REMARK VINA RESULT:    -4.437      2.984      5.393
REMARK INTER + INTRA:         -10.333
REMARK INTER:                  -8.810
REMARK INTRA:                  -1.524
REMARK UNBOUND:                -2.266
REMARK SMILES CCCCCCCCCCCCCC[C@@H](C)C(=O)[O-]
REMARK SMILES IDX 9 1 10 2 11 3 12 4 13 5 14 6 15 7 16 8 17 9 18 10 19 11 8 12
REMARK SMILES IDX 7 13 6 14 5 15 4 16 3 17 2 18 1 19
REMARK H PARENT
REMARK Flexibility Score: inf
ROOT
ATOM      1  C   UNL     1      62.433 -25.563  -3.277  1.00  0.00     0.000 C 
ENDROOT
BRANCH   1   2
ATOM      2  C   UNL     1      63.515 -26.643  -3.064  1.00  0.00     0.000 C 
BRANCH   2   3
ATOM      3  C   UNL     1      63.602 -27.240  -1.643  1.00  0.00     0.000 C 
BRANCH   3   4
ATOM      4  C   UNL     1      63.308 -28.748  -1.544  1.00  0.00     0.000 C 
BRANCH   4   5
ATOM      5  C   UNL     1      62.334 -29.091  -0.407  1.00  0.00     0.001 C 
BRANCH   5   6
ATOM      6  C   UNL     1      60.876 -28.991  -0.892  1.00  0.00     0.009 C 
BRANCH   6   7
ATOM      7  C   UNL     1      59.836 -29.571   0.092  1.00  0.00     0.032 C 
ATOM      8  C   UNL     1      60.182 -29.280   1.560  1.00  0.00     0.014 C 
BRANCH   7   9
ATOM      9  C   UNL     1      58.437 -29.126  -0.248  1.00  0.00     0.044 C 
ATOM     10  O   UNL     1      57.450 -29.747   0.229  1.00  0.00    -0.550 OA
ATOM     11  O   UNL     1      58.219 -28.065  -1.123  1.00  0.00    -0.550 OA
ENDBRANCH   7   9
ENDBRANCH   6   7
ENDBRANCH   5   6
ENDBRANCH   4   5
ENDBRANCH   3   4
ENDBRANCH   2   3
ENDBRANCH   1   2
BRANCH   1  12
ATOM     12  C   UNL     1      61.039 -25.911  -2.711  1.00  0.00     0.000 C 
BRANCH  12  13
ATOM     13  C   UNL     1      59.985 -26.233  -3.785  1.00  0.00    -0.000 C 
BRANCH  13  14
ATOM     14  C   UNL     1      60.023 -25.267  -4.980  1.00  0.00    -0.000 C 
BRANCH  14  15
ATOM     15  C   UNL     1      59.538 -23.848  -4.608  1.00  0.00    -0.000 C 
BRANCH  15  16
ATOM     16  C   UNL     1      58.228 -23.439  -5.310  1.00  0.00    -0.000 C 
BRANCH  16  17
ATOM     17  C   UNL     1      57.010 -24.321  -4.977  1.00  0.00    -0.000 C 
BRANCH  17  18
ATOM     18  C   UNL     1      56.609 -24.326  -3.490  1.00  0.00    -0.003 C 
ATOM     19  C   UNL     1      56.274 -25.725  -2.968  1.00  0.00     0.004 C 
ENDBRANCH  17  18
ENDBRANCH  16  17
ENDBRANCH  15  16
ENDBRANCH  14  15
ENDBRANCH  13  14
ENDBRANCH  12  13
ENDBRANCH   1  12
TORSDOF 14
ENDMDL
MODEL 5
REMARK VINA RESULT:    -4.408      1.764      2.218
REMARK INTER + INTRA:         -10.281
REMARK INTER:                  -8.890
REMARK INTRA:                  -1.391
REMARK UNBOUND:                -2.266
REMARK SMILES CCCCCCCCCCCCCC[C@@H](C)C(=O)[O-]
REMARK SMILES IDX 9 1 10 2 11 3 12 4 13 5 14 6 15 7 16 8 17 9 18 10 19 11 8 12
REMARK SMILES IDX 7 13 6 14 5 15 4 16 3 17 2 18 1 19
REMARK H PARENT
REMARK Flexibility Score: inf
ROOT
ATOM      1  C   UNL     1      63.243 -28.543  -1.833  1.00  0.00     0.000 C 
ENDROOT
BRANCH   1   2
ATOM      2  C   UNL     1      63.764 -27.097  -1.971  1.00  0.00     0.000 C 
BRANCH   2   3
ATOM      3  C   UNL     1      62.943 -26.169  -2.893  1.00  0.00     0.000 C 
BRANCH   3   4
ATOM      4  C   UNL     1      61.416 -26.245  -2.710  1.00  0.00     0.000 C 
BRANCH   4   5
ATOM      5  C   UNL     1      60.645 -25.802  -3.962  1.00  0.00     0.001 C 
BRANCH   5   6
ATOM      6  C   UNL     1      59.866 -24.501  -3.689  1.00  0.00     0.009 C 
BRANCH   6   7
ATOM      7  C   UNL     1      59.392 -23.763  -4.960  1.00  0.00     0.032 C 
ATOM      8  C   UNL     1      59.959 -24.377  -6.249  1.00  0.00     0.014 C 
BRANCH   7   9
ATOM      9  C   UNL     1      57.890 -23.649  -5.012  1.00  0.00     0.044 C 
ATOM     10  O   UNL     1      57.205 -23.955  -4.001  1.00  0.00    -0.550 OA
ATOM     11  O   UNL     1      57.245 -23.254  -6.181  1.00  0.00    -0.550 OA
ENDBRANCH   7   9
ENDBRANCH   6   7
ENDBRANCH   5   6
ENDBRANCH   4   5
ENDBRANCH   3   4
ENDBRANCH   2   3
ENDBRANCH   1   2
BRANCH   1  12
ATOM     12  C   UNL     1      62.714 -28.918  -0.430  1.00  0.00     0.000 C 
BRANCH  12  13
ATOM     13  C   UNL     1      61.193 -29.140  -0.370  1.00  0.00    -0.000 C 
BRANCH  13  14
ATOM     14  C   UNL     1      60.655 -29.256   1.066  1.00  0.00    -0.000 C 
BRANCH  14  15
ATOM     15  C   UNL     1      59.111 -29.244   1.121  1.00  0.00    -0.000 C 
BRANCH  15  16
ATOM     16  C   UNL     1      58.444 -29.880  -0.115  1.00  0.00    -0.000 C 
BRANCH  16  17
ATOM     17  C   UNL     1      57.278 -29.071  -0.712  1.00  0.00    -0.000 C 
BRANCH  17  18
ATOM     18  C   UNL     1      57.294 -27.570  -0.363  1.00  0.00    -0.003 C 
ATOM     19  C   UNL     1      57.891 -26.707  -1.476  1.00  0.00     0.004 C 
ENDBRANCH  17  18
ENDBRANCH  16  17
ENDBRANCH  15  16
ENDBRANCH  14  15
ENDBRANCH  13  14
ENDBRANCH  12  13
ENDBRANCH   1  12
TORSDOF 14
ENDMDL
MODEL 6
REMARK VINA RESULT:    -4.384      1.709      2.967
REMARK INTER + INTRA:         -10.238
REMARK INTER:                  -8.788
REMARK INTRA:                  -1.451
REMARK UNBOUND:                -2.266
REMARK SMILES CCCCCCCCCCCCCC[C@@H](C)C(=O)[O-]
REMARK SMILES IDX 9 1 10 2 11 3 12 4 13 5 14 6 15 7 16 8 17 9 18 10 19 11 8 12
REMARK SMILES IDX 7 13 6 14 5 15 4 16 3 17 2 18 1 19
REMARK H PARENT
REMARK Flexibility Score: inf
ROOT
ATOM      1  C   UNL     1      63.594 -26.589  -2.586  1.00  0.00     0.000 C 
ENDROOT
BRANCH   1   2
ATOM      2  C   UNL     1      62.493 -25.639  -3.104  1.00  0.00     0.000 C 
BRANCH   2   3
ATOM      3  C   UNL     1      61.062 -26.217  -3.131  1.00  0.00     0.000 C 
BRANCH   3   4
ATOM      4  C   UNL     1      59.948 -25.237  -2.720  1.00  0.00     0.000 C 
BRANCH   4   5
ATOM      5  C   UNL     1      58.712 -25.327  -3.626  1.00  0.00     0.001 C 
BRANCH   5   6
ATOM      6  C   UNL     1      59.083 -25.930  -4.994  1.00  0.00     0.009 C 
BRANCH   6   7
ATOM      7  C   UNL     1      59.310 -24.887  -6.110  1.00  0.00     0.032 C 
ATOM      8  C   UNL     1      60.792 -24.729  -6.483  1.00  0.00     0.014 C 
BRANCH   7   9
ATOM      9  C   UNL     1      58.459 -25.171  -7.321  1.00  0.00     0.044 C 
ATOM     10  O   UNL     1      57.566 -24.351  -7.664  1.00  0.00    -0.550 OA
ATOM     11  O   UNL     1      58.616 -26.352  -8.041  1.00  0.00    -0.550 OA
ENDBRANCH   7   9
ENDBRANCH   6   7
ENDBRANCH   5   6
ENDBRANCH   4   5
ENDBRANCH   3   4
ENDBRANCH   2   3
ENDBRANCH   1   2
BRANCH   1  12
ATOM     12  C   UNL     1      63.128 -28.030  -2.282  1.00  0.00     0.000 C 
BRANCH  12  13
ATOM     13  C   UNL     1      63.299 -28.451  -0.812  1.00  0.00    -0.000 C 
BRANCH  13  14
ATOM     14  C   UNL     1      62.049 -29.126  -0.225  1.00  0.00    -0.000 C 
BRANCH  14  15
ATOM     15  C   UNL     1      60.829 -29.030  -1.167  1.00  0.00    -0.000 C 
BRANCH  15  16
ATOM     16  C   UNL     1      59.506 -28.724  -0.436  1.00  0.00    -0.000 C 
BRANCH  16  17
ATOM     17  C   UNL     1      59.028 -29.826   0.528  1.00  0.00    -0.000 C 
BRANCH  17  18
ATOM     18  C   UNL     1      58.815 -29.358   1.980  1.00  0.00    -0.003 C 
ATOM     19  C   UNL     1      60.094 -29.414   2.818  1.00  0.00     0.004 C 
ENDBRANCH  17  18
ENDBRANCH  16  17
ENDBRANCH  15  16
ENDBRANCH  14  15
ENDBRANCH  13  14
ENDBRANCH  12  13
ENDBRANCH   1  12
TORSDOF 14
ENDMDL
MODEL 7
REMARK VINA RESULT:    -4.383      4.460      6.639
REMARK INTER + INTRA:         -10.237
REMARK INTER:                  -8.359
REMARK INTRA:                  -1.878
REMARK UNBOUND:                -2.266
REMARK SMILES CCCCCCCCCCCCCC[C@@H](C)C(=O)[O-]
REMARK SMILES IDX 9 1 10 2 11 3 12 4 13 5 14 6 15 7 16 8 17 9 18 10 19 11 8 12
REMARK SMILES IDX 7 13 6 14 5 15 4 16 3 17 2 18 1 19
REMARK H PARENT
REMARK Flexibility Score: inf
ROOT
ATOM      1  C   UNL     1      62.578 -29.180  -0.580  1.00  0.00     0.000 C 
ENDROOT
BRANCH   1   2
ATOM      2  C   UNL     1      61.073 -29.079  -0.909  1.00  0.00     0.000 C 
BRANCH   2   3
ATOM      3  C   UNL     1      60.109 -29.273   0.281  1.00  0.00     0.000 C 
BRANCH   3   4
ATOM      4  C   UNL     1      58.876 -30.149  -0.007  1.00  0.00     0.000 C 
BRANCH   4   5
ATOM      5  C   UNL     1      57.613 -29.652   0.712  1.00  0.00     0.001 C 
BRANCH   5   6
ATOM      6  C   UNL     1      57.879 -28.307   1.413  1.00  0.00     0.009 C 
BRANCH   6   7
ATOM      7  C   UNL     1      57.439 -28.261   2.893  1.00  0.00     0.032 C 
ATOM      8  C   UNL     1      56.198 -29.123   3.170  1.00  0.00     0.014 C 
BRANCH   7   9
ATOM      9  C   UNL     1      58.573 -28.603   3.824  1.00  0.00     0.044 C 
ATOM     10  O   UNL     1      59.731 -28.172   3.582  1.00  0.00    -0.550 OA
ATOM     11  O   UNL     1      58.367 -29.430   4.925  1.00  0.00    -0.550 OA
ENDBRANCH   7   9
ENDBRANCH   6   7
ENDBRANCH   5   6
ENDBRANCH   4   5
ENDBRANCH   3   4
ENDBRANCH   2   3
ENDBRANCH   1   2
BRANCH   1  12
ATOM     12  C   UNL     1      63.522 -28.540  -1.623  1.00  0.00     0.000 C 
BRANCH  12  13
ATOM     13  C   UNL     1      63.458 -27.004  -1.671  1.00  0.00    -0.000 C 
BRANCH  13  14
ATOM     14  C   UNL     1      63.381 -26.446  -3.101  1.00  0.00    -0.000 C 
BRANCH  14  15
ATOM     15  C   UNL     1      62.155 -25.530  -3.313  1.00  0.00    -0.000 C 
BRANCH  15  16
ATOM     16  C   UNL     1      60.810 -26.285  -3.301  1.00  0.00    -0.000 C 
BRANCH  16  17
ATOM     17  C   UNL     1      59.739 -25.688  -2.370  1.00  0.00    -0.000 C 
BRANCH  17  18
ATOM     18  C   UNL     1      58.568 -26.636  -2.049  1.00  0.00    -0.003 C 
ATOM     19  C   UNL     1      58.420 -27.766  -3.070  1.00  0.00     0.004 C 
ENDBRANCH  17  18
ENDBRANCH  16  17
ENDBRANCH  15  16
ENDBRANCH  14  15
ENDBRANCH  13  14
ENDBRANCH  12  13
ENDBRANCH   1  12
TORSDOF 14
ENDMDL
MODEL 8
REMARK VINA RESULT:    -4.358      1.888      2.493
REMARK INTER + INTRA:         -10.190
REMARK INTER:                  -8.283
REMARK INTRA:                  -1.907
REMARK UNBOUND:                -2.266
REMARK SMILES CCCCCCCCCCCCCC[C@@H](C)C(=O)[O-]
REMARK SMILES IDX 9 1 10 2 11 3 12 4 13 5 14 6 15 7 16 8 17 9 18 10 19 11 8 12
REMARK SMILES IDX 7 13 6 14 5 15 4 16 3 17 2 18 1 19
REMARK H PARENT
REMARK Flexibility Score: inf
ROOT
ATOM      1  C   UNL     1      63.636 -27.911  -1.303  1.00  0.00     0.000 C 
ENDROOT
BRANCH   1   2
ATOM      2  C   UNL     1      63.109 -27.400  -2.661  1.00  0.00     0.000 C 
BRANCH   2   3
ATOM      3  C   UNL     1      62.735 -25.903  -2.719  1.00  0.00     0.000 C 
BRANCH   3   4
ATOM      4  C   UNL     1      61.428 -25.580  -3.465  1.00  0.00     0.000 C 
BRANCH   4   5
ATOM      5  C   UNL     1      60.180 -25.785  -2.593  1.00  0.00     0.001 C 
BRANCH   5   6
ATOM      6  C   UNL     1      59.241 -26.831  -3.223  1.00  0.00     0.009 C 
BRANCH   6   7
ATOM      7  C   UNL     1      57.836 -26.296  -3.576  1.00  0.00     0.032 C 
ATOM      8  C   UNL     1      57.302 -25.298  -2.537  1.00  0.00     0.014 C 
BRANCH   7   9
ATOM      9  C   UNL     1      57.791 -25.725  -4.970  1.00  0.00     0.044 C 
ATOM     10  O   UNL     1      58.081 -26.455  -5.954  1.00  0.00    -0.550 OA
ATOM     11  O   UNL     1      57.476 -24.385  -5.182  1.00  0.00    -0.550 OA
ENDBRANCH   7   9
ENDBRANCH   6   7
ENDBRANCH   5   6
ENDBRANCH   4   5
ENDBRANCH   3   4
ENDBRANCH   2   3
ENDBRANCH   1   2
BRANCH   1  12
ATOM     12  C   UNL     1      62.770 -28.999  -0.631  1.00  0.00     0.000 C 
BRANCH  12  13
ATOM     13  C   UNL     1      61.294 -28.985  -1.063  1.00  0.00    -0.000 C 
BRANCH  13  14
ATOM     14  C   UNL     1      60.315 -28.995   0.122  1.00  0.00    -0.000 C 
BRANCH  14  15
ATOM     15  C   UNL     1      59.188 -30.036  -0.051  1.00  0.00    -0.000 C 
BRANCH  15  16
ATOM     16  C   UNL     1      57.795 -29.410  -0.260  1.00  0.00    -0.000 C 
BRANCH  16  17
ATOM     17  C   UNL     1      57.710 -27.901   0.037  1.00  0.00    -0.000 C 
BRANCH  17  18
ATOM     18  C   UNL     1      56.927 -27.542   1.314  1.00  0.00    -0.003 C 
ATOM     19  C   UNL     1      57.717 -27.823   2.594  1.00  0.00     0.004 C 
ENDBRANCH  17  18
ENDBRANCH  16  17
ENDBRANCH  15  16
ENDBRANCH  14  15
ENDBRANCH  13  14
ENDBRANCH  12  13
ENDBRANCH   1  12
TORSDOF 14
ENDMDL
MODEL 9
REMARK VINA RESULT:    -4.346      2.187      3.668
REMARK INTER + INTRA:         -10.168
REMARK INTER:                  -8.504
REMARK INTRA:                  -1.664
REMARK UNBOUND:                -2.266
REMARK SMILES CCCCCCCCCCCCCC[C@@H](C)C(=O)[O-]
REMARK SMILES IDX 9 1 10 2 11 3 12 4 13 5 14 6 15 7 16 8 17 9 18 10 19 11 8 12
REMARK SMILES IDX 7 13 6 14 5 15 4 16 3 17 2 18 1 19
REMARK H PARENT
REMARK Flexibility Score: inf
ROOT
ATOM      1  C   UNL     1      60.809 -28.860  -1.181  1.00  0.00     0.000 C 
ENDROOT
BRANCH   1   2
ATOM      2  C   UNL     1      62.227 -29.134  -0.635  1.00  0.00     0.000 C 
BRANCH   2   3
ATOM      3  C   UNL     1      63.394 -28.764  -1.576  1.00  0.00     0.000 C 
BRANCH   3   4
ATOM      4  C   UNL     1      63.676 -27.257  -1.713  1.00  0.00     0.000 C 
BRANCH   4   5
ATOM      5  C   UNL     1      63.339 -26.714  -3.110  1.00  0.00     0.001 C 
BRANCH   5   6
ATOM      6  C   UNL     1      62.288 -25.592  -3.018  1.00  0.00     0.009 C 
BRANCH   6   7
ATOM      7  C   UNL     1      60.903 -25.967  -3.589  1.00  0.00     0.032 C 
ATOM      8  C   UNL     1      59.763 -25.725  -2.588  1.00  0.00     0.014 C 
BRANCH   7   9
ATOM      9  C   UNL     1      60.639 -25.285  -4.907  1.00  0.00     0.044 C 
ATOM     10  O   UNL     1      61.543 -25.250  -5.783  1.00  0.00    -0.550 OA
ATOM     11  O   UNL     1      59.423 -24.652  -5.151  1.00  0.00    -0.550 OA
ENDBRANCH   7   9
ENDBRANCH   6   7
ENDBRANCH   5   6
ENDBRANCH   4   5
ENDBRANCH   3   4
ENDBRANCH   2   3
ENDBRANCH   1   2
BRANCH   1  12
ATOM     12  C   UNL     1      59.654 -29.250  -0.232  1.00  0.00     0.000 C 
BRANCH  12  13
ATOM     13  C   UNL     1      58.256 -28.881  -0.758  1.00  0.00    -0.000 C 
BRANCH  13  14
ATOM     14  C   UNL     1      57.666 -27.631  -0.084  1.00  0.00    -0.000 C 
BRANCH  14  15
ATOM     15  C   UNL     1      56.990 -27.952   1.267  1.00  0.00    -0.000 C 
BRANCH  15  16
ATOM     16  C   UNL     1      57.256 -26.896   2.358  1.00  0.00    -0.000 C 
BRANCH  16  17
ATOM     17  C   UNL     1      58.086 -27.394   3.556  1.00  0.00    -0.000 C 
BRANCH  17  18
ATOM     18  C   UNL     1      58.703 -28.793   3.370  1.00  0.00    -0.003 C 
ATOM     19  C   UNL     1      60.226 -28.759   3.227  1.00  0.00     0.004 C 
ENDBRANCH  17  18
ENDBRANCH  16  17
ENDBRANCH  15  16
ENDBRANCH  14  15
ENDBRANCH  13  14
ENDBRANCH  12  13
ENDBRANCH   1  12
TORSDOF 14
ENDMDL
