MODEL 1
REMARK VINA RESULT:    -6.460      0.000      0.000
REMARK INTER + INTRA:          -7.710
REMARK INTER:                  -7.404
REMARK INTRA:                  -0.306
REMARK UNBOUND:                -0.306
REMARK SMILES O=C1C[C@@H](c2ccc(O)cc2)Oc2cc(O)cc(O)c21
REMARK SMILES IDX 3 1 4 2 12 3 13 4 14 5 15 6 17 7 18 8 20 9 2 10 1 11 5 12
REMARK SMILES IDX 6 13 11 14 7 15 10 16 8 17 9 18 19 20 16 22
REMARK H PARENT 9 19 19 21 16 23
REMARK Flexibility Score: inf
ROOT
ATOM      1  C   UNL     1       6.395   7.480  20.237  1.00  0.00     0.131 C 
ATOM      2  C   UNL     1       6.835   7.694  21.693  1.00  0.00     0.211 C 
ATOM      3  O   UNL     1       6.032   6.911  22.581  1.00  0.00    -0.484 OA
ATOM      4  C   UNL     1       5.616   5.608  22.275  1.00  0.00     0.138 A 
ATOM      5  C   UNL     1       5.080   4.812  23.289  1.00  0.00     0.093 A 
ATOM      6  C   UNL     1       4.671   3.506  23.020  1.00  0.00     0.123 A 
ATOM      7  C   UNL     1       4.772   3.000  21.719  1.00  0.00     0.093 A 
ATOM      8  C   UNL     1       5.270   3.793  20.678  1.00  0.00     0.133 A 
ATOM      9  C   UNL     1       5.731   5.106  20.959  1.00  0.00     0.102 A 
ATOM     10  C   UNL     1       6.341   6.009  19.952  1.00  0.00     0.174 C 
ATOM     11  O   UNL     1       6.860   5.566  18.893  1.00  0.00    -0.294 OA
ENDROOT
BRANCH   2  12
ATOM     12  C   UNL     1       6.749   9.153  22.068  1.00  0.00    -0.007 A 
ATOM     13  C   UNL     1       5.639   9.636  22.780  1.00  0.00     0.011 A 
ATOM     14  C   UNL     1       7.802  10.034  21.760  1.00  0.00     0.011 A 
ATOM     15  C   UNL     1       5.570  10.982  23.155  1.00  0.00     0.046 A 
ATOM     16  C   UNL     1       7.731  11.378  22.137  1.00  0.00     0.046 A 
ATOM     17  C   UNL     1       6.617  11.856  22.833  1.00  0.00     0.115 A 
BRANCH  17  18
ATOM     18  O   UNL     1       6.559  13.199  23.202  1.00  0.00    -0.508 OA
ATOM     19  H   UNL     1       5.885  13.832  22.789  1.00  0.00     0.293 HD
ENDBRANCH  17  18
ENDBRANCH   2  12
BRANCH   8  20
ATOM     20  O   UNL     1       5.252   3.250  19.391  1.00  0.00    -0.507 OA
ATOM     21  H   UNL     1       5.658   3.699  18.583  1.00  0.00     0.293 HD
ENDBRANCH   8  20
BRANCH   6  22
ATOM     22  O   UNL     1       4.159   2.720  24.050  1.00  0.00    -0.508 OA
ATOM     23  H   UNL     1       3.683   1.845  23.862  1.00  0.00     0.293 HD
ENDBRANCH   6  22
TORSDOF 4
ENDMDL
MODEL 2
REMARK VINA RESULT:    -6.035      1.480      3.308
REMARK INTER + INTRA:          -7.223
REMARK INTER:                  -6.914
REMARK INTRA:                  -0.309
REMARK UNBOUND:                -0.306
REMARK SMILES O=C1C[C@@H](c2ccc(O)cc2)Oc2cc(O)cc(O)c21
REMARK SMILES IDX 3 1 4 2 12 3 13 4 14 5 15 6 17 7 18 8 20 9 2 10 1 11 5 12
REMARK SMILES IDX 6 13 11 14 7 15 10 16 8 17 9 18 19 20 16 22
REMARK H PARENT 9 19 19 21 16 23
REMARK Flexibility Score: inf
ROOT
ATOM      1  C   UNL     1       5.978   6.857  22.723  1.00  0.00     0.131 C 
ATOM      2  C   UNL     1       5.767   8.063  21.796  1.00  0.00     0.211 C 
ATOM      3  O   UNL     1       6.323   7.807  20.503  1.00  0.00    -0.484 OA
ATOM      4  C   UNL     1       6.233   6.557  19.875  1.00  0.00     0.138 A 
ATOM      5  C   UNL     1       6.546   6.457  18.518  1.00  0.00     0.093 A 
ATOM      6  C   UNL     1       6.452   5.230  17.861  1.00  0.00     0.123 A 
ATOM      7  C   UNL     1       6.071   4.087  18.573  1.00  0.00     0.093 A 
ATOM      8  C   UNL     1       5.791   4.157  19.943  1.00  0.00     0.133 A 
ATOM      9  C   UNL     1       5.839   5.413  20.603  1.00  0.00     0.102 A 
ATOM     10  C   UNL     1       5.495   5.617  22.032  1.00  0.00     0.174 C 
ATOM     11  O   UNL     1       4.765   4.805  22.661  1.00  0.00    -0.294 OA
ENDROOT
BRANCH   2  12
ATOM     12  C   UNL     1       6.385   9.306  22.388  1.00  0.00    -0.007 A 
ATOM     13  C   UNL     1       7.562   9.841  21.839  1.00  0.00     0.011 A 
ATOM     14  C   UNL     1       5.761   9.975  23.457  1.00  0.00     0.011 A 
ATOM     15  C   UNL     1       8.120  11.010  22.366  1.00  0.00     0.046 A 
ATOM     16  C   UNL     1       6.321  11.144  23.982  1.00  0.00     0.046 A 
ATOM     17  C   UNL     1       7.501  11.663  23.440  1.00  0.00     0.115 A 
BRANCH  17  18
ATOM     18  O   UNL     1       8.048  12.829  23.973  1.00  0.00    -0.508 OA
ATOM     19  H   UNL     1       8.470  13.535  23.381  1.00  0.00     0.293 HD
ENDBRANCH  17  18
ENDBRANCH   2  12
BRANCH   8  20
ATOM     20  O   UNL     1       5.508   2.958  20.603  1.00  0.00    -0.507 OA
ATOM     21  H   UNL     1       5.677   2.044  20.209  1.00  0.00     0.293 HD
ENDBRANCH   8  20
BRANCH   6  22
ATOM     22  O   UNL     1       6.747   5.154  16.502  1.00  0.00    -0.508 OA
ATOM     23  H   UNL     1       7.183   5.926  16.010  1.00  0.00     0.293 HD
ENDBRANCH   6  22
TORSDOF 4
ENDMDL
MODEL 3
REMARK VINA RESULT:    -5.797      4.147      7.210
REMARK INTER + INTRA:          -6.950
REMARK INTER:                  -6.637
REMARK INTRA:                  -0.313
REMARK UNBOUND:                -0.306
REMARK SMILES O=C1C[C@@H](c2ccc(O)cc2)Oc2cc(O)cc(O)c21
REMARK SMILES IDX 3 1 4 2 12 3 13 4 14 5 15 6 17 7 18 8 20 9 2 10 1 11 5 12
REMARK SMILES IDX 6 13 11 14 7 15 10 16 8 17 9 18 19 20 16 22
REMARK H PARENT 9 19 19 21 16 23
REMARK Flexibility Score: inf
ROOT
ATOM      1  C   UNL     1       3.501  13.006  23.437  1.00  0.00     0.131 C 
ATOM      2  C   UNL     1       3.157  12.028  24.570  1.00  0.00     0.211 C 
ATOM      3  O   UNL     1       3.645  10.718  24.269  1.00  0.00    -0.484 OA
ATOM      4  C   UNL     1       4.884  10.494  23.652  1.00  0.00     0.138 A 
ATOM      5  C   UNL     1       5.413   9.202  23.642  1.00  0.00     0.093 A 
ATOM      6  C   UNL     1       6.650   8.950  23.050  1.00  0.00     0.123 A 
ATOM      7  C   UNL     1       7.351   9.994  22.435  1.00  0.00     0.093 A 
ATOM      8  C   UNL     1       6.822  11.290  22.397  1.00  0.00     0.133 A 
ATOM      9  C   UNL     1       5.585  11.558  23.042  1.00  0.00     0.102 A 
ATOM     10  C   UNL     1       4.964  12.903  23.126  1.00  0.00     0.174 C 
ATOM     11  O   UNL     1       5.644  13.956  22.999  1.00  0.00    -0.294 OA
ENDROOT
BRANCH   2  12
ATOM     12  C   UNL     1       1.667  11.985  24.804  1.00  0.00    -0.007 A 
ATOM     13  C   UNL     1       0.997  13.112  25.307  1.00  0.00     0.011 A 
ATOM     14  C   UNL     1       0.924  10.838  24.471  1.00  0.00     0.011 A 
ATOM     15  C   UNL     1      -0.389  13.085  25.497  1.00  0.00     0.046 A 
ATOM     16  C   UNL     1      -0.461  10.814  24.661  1.00  0.00     0.046 A 
ATOM     17  C   UNL     1      -1.120  11.934  25.175  1.00  0.00     0.115 A 
BRANCH  17  18
ATOM     18  O   UNL     1      -2.501  11.896  25.359  1.00  0.00    -0.508 OA
ATOM     19  H   UNL     1      -2.917  12.045  26.271  1.00  0.00     0.293 HD
ENDBRANCH  17  18
ENDBRANCH   2  12
BRANCH   8  20
ATOM     20  O   UNL     1       7.536  12.256  21.685  1.00  0.00    -0.507 OA
ATOM     21  H   UNL     1       7.106  13.007  21.166  1.00  0.00     0.293 HD
ENDBRANCH   8  20
BRANCH   6  22
ATOM     22  O   UNL     1       7.172   7.660  23.070  1.00  0.00    -0.508 OA
ATOM     23  H   UNL     1       7.100   7.071  23.892  1.00  0.00     0.293 HD
ENDBRANCH   6  22
TORSDOF 4
ENDMDL
MODEL 4
REMARK VINA RESULT:    -5.789      1.903      6.963
REMARK INTER + INTRA:          -6.941
REMARK INTER:                  -6.653
REMARK INTRA:                  -0.288
REMARK UNBOUND:                -0.306
REMARK SMILES O=C1C[C@@H](c2ccc(O)cc2)Oc2cc(O)cc(O)c21
REMARK SMILES IDX 3 1 4 2 12 3 13 4 14 5 15 6 17 7 18 8 20 9 2 10 1 11 5 12
REMARK SMILES IDX 6 13 11 14 7 15 10 16 8 17 9 18 19 20 16 22
REMARK H PARENT 9 19 19 21 16 23
REMARK Flexibility Score: inf
ROOT
ATOM      1  C   UNL     1       7.820   7.831  22.489  1.00  0.00     0.131 C 
ATOM      2  C   UNL     1       6.357   7.839  22.025  1.00  0.00     0.211 C 
ATOM      3  O   UNL     1       5.616   8.852  22.712  1.00  0.00    -0.484 OA
ATOM      4  C   UNL     1       6.151  10.115  23.001  1.00  0.00     0.138 A 
ATOM      5  C   UNL     1       5.293  11.135  23.418  1.00  0.00     0.093 A 
ATOM      6  C   UNL     1       5.792  12.407  23.698  1.00  0.00     0.123 A 
ATOM      7  C   UNL     1       7.166  12.654  23.589  1.00  0.00     0.093 A 
ATOM      8  C   UNL     1       8.050  11.636  23.212  1.00  0.00     0.133 A 
ATOM      9  C   UNL     1       7.538  10.354  22.880  1.00  0.00     0.102 A 
ATOM     10  C   UNL     1       8.371   9.223  22.401  1.00  0.00     0.174 C 
ATOM     11  O   UNL     1       9.501   9.407  21.875  1.00  0.00    -0.294 OA
ENDROOT
BRANCH   2  12
ATOM     12  C   UNL     1       5.718   6.490  22.248  1.00  0.00    -0.007 A 
ATOM     13  C   UNL     1       5.923   5.802  23.456  1.00  0.00     0.011 A 
ATOM     14  C   UNL     1       4.866   5.932  21.278  1.00  0.00     0.011 A 
ATOM     15  C   UNL     1       5.309   4.565  23.678  1.00  0.00     0.046 A 
ATOM     16  C   UNL     1       4.253   4.696  21.503  1.00  0.00     0.046 A 
ATOM     17  C   UNL     1       4.472   4.010  22.701  1.00  0.00     0.115 A 
BRANCH  17  18
ATOM     18  O   UNL     1       3.854   2.778  22.911  1.00  0.00    -0.508 OA
ATOM     19  H   UNL     1       2.924   2.714  23.309  1.00  0.00     0.293 HD
ENDBRANCH  17  18
ENDBRANCH   2  12
BRANCH   8  20
ATOM     20  O   UNL     1       9.414  11.935  23.217  1.00  0.00    -0.507 OA
ATOM     21  H   UNL     1      10.109  11.411  22.706  1.00  0.00     0.293 HD
ENDBRANCH   8  20
BRANCH   6  22
ATOM     22  O   UNL     1       4.918  13.417  24.090  1.00  0.00    -0.508 OA
ATOM     23  H   UNL     1       5.254  14.276  24.510  1.00  0.00     0.293 HD
ENDBRANCH   6  22
TORSDOF 4
ENDMDL
MODEL 5
REMARK VINA RESULT:    -5.739      2.934      7.349
REMARK INTER + INTRA:          -6.883
REMARK INTER:                  -6.592
REMARK INTRA:                  -0.291
REMARK UNBOUND:                -0.306
REMARK SMILES O=C1C[C@@H](c2ccc(O)cc2)Oc2cc(O)cc(O)c21
REMARK SMILES IDX 3 1 4 2 12 3 13 4 14 5 15 6 17 7 18 8 20 9 2 10 1 11 5 12
REMARK SMILES IDX 6 13 11 14 7 15 10 16 8 17 9 18 19 20 16 22
REMARK H PARENT 9 19 19 21 16 23
REMARK Flexibility Score: inf
ROOT
ATOM      1  C   UNL     1       5.683   8.656  23.483  1.00  0.00     0.131 C 
ATOM      2  C   UNL     1       6.953   9.032  22.706  1.00  0.00     0.211 C 
ATOM      3  O   UNL     1       6.784  10.289  22.045  1.00  0.00    -0.484 OA
ATOM      4  C   UNL     1       6.111  11.369  22.634  1.00  0.00     0.138 A 
ATOM      5  C   UNL     1       6.226  12.635  22.057  1.00  0.00     0.093 A 
ATOM      6  C   UNL     1       5.581  13.732  22.628  1.00  0.00     0.123 A 
ATOM      7  C   UNL     1       4.790  13.557  23.770  1.00  0.00     0.093 A 
ATOM      8  C   UNL     1       4.629  12.289  24.342  1.00  0.00     0.133 A 
ATOM      9  C   UNL     1       5.323  11.180  23.791  1.00  0.00     0.102 A 
ATOM     10  C   UNL     1       5.282   9.808  24.355  1.00  0.00     0.174 C 
ATOM     11  O   UNL     1       4.974   9.594  25.558  1.00  0.00    -0.294 OA
ENDROOT
BRANCH   2  12
ATOM     12  C   UNL     1       7.299   7.962  21.700  1.00  0.00    -0.007 A 
ATOM     13  C   UNL     1       8.491   7.230  21.827  1.00  0.00     0.011 A 
ATOM     14  C   UNL     1       6.409   7.645  20.657  1.00  0.00     0.011 A 
ATOM     15  C   UNL     1       8.801   6.217  20.913  1.00  0.00     0.046 A 
ATOM     16  C   UNL     1       6.720   6.632  19.746  1.00  0.00     0.046 A 
ATOM     17  C   UNL     1       7.915   5.917  19.870  1.00  0.00     0.115 A 
BRANCH  17  18
ATOM     18  O   UNL     1       8.213   4.910  18.954  1.00  0.00    -0.508 OA
ATOM     19  H   UNL     1       9.128   4.839  18.524  1.00  0.00     0.293 HD
ENDBRANCH  17  18
ENDBRANCH   2  12
BRANCH   8  20
ATOM     20  O   UNL     1       3.750  12.180  25.423  1.00  0.00    -0.507 OA
ATOM     21  H   UNL     1       3.913  11.589  26.225  1.00  0.00     0.293 HD
ENDBRANCH   8  20
BRANCH   6  22
ATOM     22  O   UNL     1       5.725  14.991  22.051  1.00  0.00    -0.508 OA
ATOM     23  H   UNL     1       6.627  15.328  21.732  1.00  0.00     0.293 HD
ENDBRANCH   6  22
TORSDOF 4
ENDMDL
MODEL 6
REMARK VINA RESULT:    -5.706      2.214      6.588
REMARK INTER + INTRA:          -6.846
REMARK INTER:                  -6.525
REMARK INTRA:                  -0.321
REMARK UNBOUND:                -0.306
REMARK SMILES O=C1C[C@@H](c2ccc(O)cc2)Oc2cc(O)cc(O)c21
REMARK SMILES IDX 3 1 4 2 12 3 13 4 14 5 15 6 17 7 18 8 20 9 2 10 1 11 5 12
REMARK SMILES IDX 6 13 11 14 7 15 10 16 8 17 9 18 19 20 16 22
REMARK H PARENT 9 19 19 21 16 23
REMARK Flexibility Score: inf
ROOT
ATOM      1  C   UNL     1       5.778   6.408  21.721  1.00  0.00     0.131 C 
ATOM      2  C   UNL     1       6.858   6.883  20.738  1.00  0.00     0.211 C 
ATOM      3  O   UNL     1       6.954   8.311  20.750  1.00  0.00    -0.484 OA
ATOM      4  C   UNL     1       6.851   9.066  21.926  1.00  0.00     0.138 A 
ATOM      5  C   UNL     1       7.229  10.410  21.903  1.00  0.00     0.093 A 
ATOM      6  C   UNL     1       7.152  11.185  23.061  1.00  0.00     0.123 A 
ATOM      7  C   UNL     1       6.666  10.619  24.245  1.00  0.00     0.093 A 
ATOM      8  C   UNL     1       6.245   9.284  24.282  1.00  0.00     0.133 A 
ATOM      9  C   UNL     1       6.367   8.481  23.117  1.00  0.00     0.102 A 
ATOM     10  C   UNL     1       6.018   7.040  23.059  1.00  0.00     0.174 C 
ATOM     11  O   UNL     1       5.973   6.326  24.096  1.00  0.00    -0.294 OA
ENDROOT
BRANCH   2  12
ATOM     12  C   UNL     1       6.561   6.397  19.341  1.00  0.00    -0.007 A 
ATOM     13  C   UNL     1       6.290   5.038  19.108  1.00  0.00     0.011 A 
ATOM     14  C   UNL     1       6.495   7.303  18.267  1.00  0.00     0.011 A 
ATOM     15  C   UNL     1       5.985   4.589  17.819  1.00  0.00     0.046 A 
ATOM     16  C   UNL     1       6.189   6.851  16.979  1.00  0.00     0.046 A 
ATOM     17  C   UNL     1       5.935   5.495  16.752  1.00  0.00     0.115 A 
BRANCH  17  18
ATOM     18  O   UNL     1       5.632   5.059  15.463  1.00  0.00    -0.508 OA
ATOM     19  H   UNL     1       4.841   5.432  14.951  1.00  0.00     0.293 HD
ENDBRANCH  17  18
ENDBRANCH   2  12
BRANCH   8  20
ATOM     20  O   UNL     1       5.685   8.819  25.474  1.00  0.00    -0.507 OA
ATOM     21  H   UNL     1       4.804   9.142  25.848  1.00  0.00     0.293 HD
ENDBRANCH   8  20
BRANCH   6  22
ATOM     22  O   UNL     1       7.555  12.518  23.024  1.00  0.00    -0.508 OA
ATOM     23  H   UNL     1       7.560  13.046  22.158  1.00  0.00     0.293 HD
ENDBRANCH   6  22
TORSDOF 4
ENDMDL
MODEL 7
REMARK VINA RESULT:    -5.644      2.693      5.634
REMARK INTER + INTRA:          -6.774
REMARK INTER:                  -6.487
REMARK INTRA:                  -0.287
REMARK UNBOUND:                -0.306
REMARK SMILES O=C1C[C@@H](c2ccc(O)cc2)Oc2cc(O)cc(O)c21
REMARK SMILES IDX 3 1 4 2 12 3 13 4 14 5 15 6 17 7 18 8 20 9 2 10 1 11 5 12
REMARK SMILES IDX 6 13 11 14 7 15 10 16 8 17 9 18 19 20 16 22
REMARK H PARENT 9 19 19 21 16 23
REMARK Flexibility Score: inf
ROOT
ATOM      1  C   UNL     1       6.849   6.681  20.203  1.00  0.00     0.131 C 
ATOM      2  C   UNL     1       6.006   5.779  19.291  1.00  0.00     0.211 C 
ATOM      3  O   UNL     1       5.746   4.524  19.927  1.00  0.00    -0.484 OA
ATOM      4  C   UNL     1       5.460   4.414  21.295  1.00  0.00     0.138 A 
ATOM      5  C   UNL     1       4.948   3.211  21.785  1.00  0.00     0.093 A 
ATOM      6  C   UNL     1       4.640   3.075  23.139  1.00  0.00     0.123 A 
ATOM      7  C   UNL     1       4.872   4.141  24.016  1.00  0.00     0.093 A 
ATOM      8  C   UNL     1       5.422   5.343  23.553  1.00  0.00     0.133 A 
ATOM      9  C   UNL     1       5.692   5.500  22.167  1.00  0.00     0.102 A 
ATOM     10  C   UNL     1       6.207   6.750  21.556  1.00  0.00     0.174 C 
ATOM     11  O   UNL     1       6.071   7.869  22.118  1.00  0.00    -0.294 OA
ENDROOT
BRANCH   2  12
ATOM     12  C   UNL     1       6.700   5.555  17.970  1.00  0.00    -0.007 A 
ATOM     13  C   UNL     1       5.968   5.584  16.772  1.00  0.00     0.011 A 
ATOM     14  C   UNL     1       8.094   5.372  17.917  1.00  0.00     0.011 A 
ATOM     15  C   UNL     1       6.614   5.406  15.544  1.00  0.00     0.046 A 
ATOM     16  C   UNL     1       8.737   5.195  16.688  1.00  0.00     0.046 A 
ATOM     17  C   UNL     1       8.001   5.211  15.500  1.00  0.00     0.115 A 
BRANCH  17  18
ATOM     18  O   UNL     1       8.655   5.034  14.282  1.00  0.00    -0.508 OA
ATOM     19  H   UNL     1       8.686   5.770  13.586  1.00  0.00     0.293 HD
ENDBRANCH  17  18
ENDBRANCH   2  12
BRANCH   8  20
ATOM     20  O   UNL     1       5.711   6.325  24.503  1.00  0.00    -0.507 OA
ATOM     21  H   UNL     1       5.065   6.627  25.217  1.00  0.00     0.293 HD
ENDBRANCH   8  20
BRANCH   6  22
ATOM     22  O   UNL     1       4.109   1.875  23.606  1.00  0.00    -0.508 OA
ATOM     23  H   UNL     1       4.224   1.009  23.091  1.00  0.00     0.293 HD
ENDBRANCH   6  22
TORSDOF 4
ENDMDL
MODEL 8
REMARK VINA RESULT:    -5.601      5.534      8.454
REMARK INTER + INTRA:          -6.726
REMARK INTER:                  -6.443
REMARK INTRA:                  -0.282
REMARK UNBOUND:                -0.306
REMARK SMILES O=C1C[C@@H](c2ccc(O)cc2)Oc2cc(O)cc(O)c21
REMARK SMILES IDX 3 1 4 2 12 3 13 4 14 5 15 6 17 7 18 8 20 9 2 10 1 11 5 12
REMARK SMILES IDX 6 13 11 14 7 15 10 16 8 17 9 18 19 20 16 22
REMARK H PARENT 9 19 19 21 16 23
REMARK Flexibility Score: inf
ROOT
ATOM      1  C   UNL     1       8.980   6.539  16.609  1.00  0.00     0.131 C 
ATOM      2  C   UNL     1       8.719   5.045  16.851  1.00  0.00     0.211 C 
ATOM      3  O   UNL     1       8.172   4.434  15.679  1.00  0.00    -0.484 OA
ATOM      4  C   UNL     1       8.606   4.755  14.385  1.00  0.00     0.138 A 
ATOM      5  C   UNL     1       8.233   3.931  13.322  1.00  0.00     0.093 A 
ATOM      6  C   UNL     1       8.661   4.216  12.025  1.00  0.00     0.123 A 
ATOM      7  C   UNL     1       9.445   5.351  11.785  1.00  0.00     0.093 A 
ATOM      8  C   UNL     1       9.797   6.213  12.830  1.00  0.00     0.133 A 
ATOM      9  C   UNL     1       9.403   5.899  14.158  1.00  0.00     0.102 A 
ATOM     10  C   UNL     1       9.777   6.700  15.349  1.00  0.00     0.174 C 
ATOM     11  O   UNL     1      10.777   7.467  15.346  1.00  0.00    -0.294 OA
ENDROOT
BRANCH   2  12
ATOM     12  C   UNL     1       7.785   4.849  18.021  1.00  0.00    -0.007 A 
ATOM     13  C   UNL     1       7.882   3.696  18.817  1.00  0.00     0.011 A 
ATOM     14  C   UNL     1       6.848   5.841  18.362  1.00  0.00     0.011 A 
ATOM     15  C   UNL     1       7.038   3.525  19.919  1.00  0.00     0.046 A 
ATOM     16  C   UNL     1       6.006   5.668  19.464  1.00  0.00     0.046 A 
ATOM     17  C   UNL     1       6.097   4.512  20.244  1.00  0.00     0.115 A 
BRANCH  17  18
ATOM     18  O   UNL     1       5.252   4.353  21.341  1.00  0.00    -0.508 OA
ATOM     19  H   UNL     1       5.608   4.076  22.248  1.00  0.00     0.293 HD
ENDBRANCH  17  18
ENDBRANCH   2  12
BRANCH   8  20
ATOM     20  O   UNL     1      10.500   7.372  12.497  1.00  0.00    -0.507 OA
ATOM     21  H   UNL     1      11.484   7.391  12.270  1.00  0.00     0.293 HD
ENDBRANCH   8  20
BRANCH   6  22
ATOM     22  O   UNL     1       8.298   3.370  10.980  1.00  0.00    -0.508 OA
ATOM     23  H   UNL     1       8.888   3.251  10.164  1.00  0.00     0.293 HD
ENDBRANCH   6  22
TORSDOF 4
ENDMDL
MODEL 9
REMARK VINA RESULT:    -5.532      1.554      2.127
REMARK INTER + INTRA:          -6.646
REMARK INTER:                  -6.349
REMARK INTRA:                  -0.297
REMARK UNBOUND:                -0.306
REMARK SMILES O=C1C[C@@H](c2ccc(O)cc2)Oc2cc(O)cc(O)c21
REMARK SMILES IDX 3 1 4 2 12 3 13 4 14 5 15 6 17 7 18 8 20 9 2 10 1 11 5 12
REMARK SMILES IDX 6 13 11 14 7 15 10 16 8 17 9 18 19 20 16 22
REMARK H PARENT 9 19 19 21 16 23
REMARK Flexibility Score: inf
ROOT
ATOM      1  C   UNL     1       7.865   8.620  21.682  1.00  0.00     0.131 C 
ATOM      2  C   UNL     1       6.823   8.599  22.810  1.00  0.00     0.211 C 
ATOM      3  O   UNL     1       5.735   7.734  22.472  1.00  0.00    -0.484 OA
ATOM      4  C   UNL     1       5.917   6.510  21.813  1.00  0.00     0.138 A 
ATOM      5  C   UNL     1       4.859   5.601  21.767  1.00  0.00     0.093 A 
ATOM      6  C   UNL     1       5.014   4.368  21.132  1.00  0.00     0.123 A 
ATOM      7  C   UNL     1       6.229   4.054  20.512  1.00  0.00     0.093 A 
ATOM      8  C   UNL     1       7.291   4.966  20.513  1.00  0.00     0.133 A 
ATOM      9  C   UNL     1       7.151   6.201  21.200  1.00  0.00     0.102 A 
ATOM     10  C   UNL     1       8.231   7.211  21.325  1.00  0.00     0.174 C 
ATOM     11  O   UNL     1       9.446   6.904  21.193  1.00  0.00    -0.294 OA
ENDROOT
BRANCH   2  12
ATOM     12  C   UNL     1       6.309   9.990  23.090  1.00  0.00    -0.007 A 
ATOM     13  C   UNL     1       5.310  10.194  24.055  1.00  0.00     0.011 A 
ATOM     14  C   UNL     1       6.863  11.103  22.430  1.00  0.00     0.011 A 
ATOM     15  C   UNL     1       4.854  11.486  24.338  1.00  0.00     0.046 A 
ATOM     16  C   UNL     1       6.405  12.393  22.715  1.00  0.00     0.046 A 
ATOM     17  C   UNL     1       5.400  12.588  23.667  1.00  0.00     0.115 A 
BRANCH  17  18
ATOM     18  O   UNL     1       4.954  13.879  23.941  1.00  0.00    -0.508 OA
ATOM     19  H   UNL     1       5.081  14.635  23.278  1.00  0.00     0.293 HD
ENDBRANCH  17  18
ENDBRANCH   2  12
BRANCH   8  20
ATOM     20  O   UNL     1       8.437   4.618  19.794  1.00  0.00    -0.507 OA
ATOM     21  H   UNL     1       8.746   5.093  18.958  1.00  0.00     0.293 HD
ENDBRANCH   8  20
BRANCH   6  22
ATOM     22  O   UNL     1       3.954   3.466  21.115  1.00  0.00    -0.508 OA
ATOM     23  H   UNL     1       3.965   2.624  21.680  1.00  0.00     0.293 HD
ENDBRANCH   6  22
TORSDOF 4
ENDMDL
