MODEL 1
REMARK VINA RESULT:    -3.982      0.000      0.000
REMARK INTER + INTRA:          -9.449
REMARK INTER:                  -7.473
REMARK INTRA:                  -1.976
REMARK UNBOUND:                -1.976
REMARK SMILES CCCCCCCCC=CCCCCCCCC(=O)[O-]
REMARK SMILES IDX 10 1 9 2 11 3 12 4 13 5 14 6 15 7 16 8 17 9 18 10 19 11
REMARK SMILES IDX 20 12 8 13 7 14 6 15 5 16 4 17 3 18 2 19 1 20
REMARK H PARENT
REMARK Flexibility Score: inf
ROOT
ATOM      1  C   UNL     1      32.039 167.817 159.017  1.00  0.00    -0.031 C 
ATOM      2  C   UNL     1      32.781 166.966 158.281  1.00  0.00    -0.031 C 
ENDROOT
BRANCH   1   3
ATOM      3  C   UNL     1      31.423 169.097 158.509  1.00  0.00     0.027 C 
BRANCH   3   4
ATOM      4  C   UNL     1      29.964 169.201 158.972  1.00  0.00     0.004 C 
BRANCH   4   5
ATOM      5  C   UNL     1      29.816 169.989 160.284  1.00  0.00     0.000 C 
BRANCH   5   6
ATOM      6  C   UNL     1      28.743 171.089 160.188  1.00  0.00     0.000 C 
BRANCH   6   7
ATOM      7  C   UNL     1      29.182 172.400 160.859  1.00  0.00     0.000 C 
BRANCH   7   8
ATOM      8  C   UNL     1      27.997 173.200 161.429  1.00  0.00     0.006 C 
BRANCH   8   9
ATOM      9  C   UNL     1      28.179 173.522 162.918  1.00  0.00     0.053 C 
BRANCH   9  10
ATOM     10  C   UNL     1      28.189 172.281 163.756  1.00  0.00     0.041 C 
ATOM     11  O   UNL     1      27.287 171.414 163.616  1.00  0.00    -0.550 OA
ATOM     12  O   UNL     1      29.216 172.066 164.668  1.00  0.00    -0.550 OA
ENDBRANCH   9  10
ENDBRANCH   8   9
ENDBRANCH   7   8
ENDBRANCH   6   7
ENDBRANCH   5   6
ENDBRANCH   4   5
ENDBRANCH   3   4
ENDBRANCH   1   3
BRANCH   2  13
ATOM     13  C   UNL     1      33.087 167.129 156.814  1.00  0.00     0.027 C 
BRANCH  13  14
ATOM     14  C   UNL     1      34.331 168.002 156.589  1.00  0.00     0.004 C 
BRANCH  14  15
ATOM     15  C   UNL     1      34.157 169.005 155.436  1.00  0.00     0.000 C 
BRANCH  15  16
ATOM     16  C   UNL     1      32.877 168.776 154.605  1.00  0.00     0.000 C 
BRANCH  16  17
ATOM     17  C   UNL     1      31.905 169.965 154.697  1.00  0.00    -0.000 C 
BRANCH  17  18
ATOM     18  C   UNL     1      30.459 169.527 154.975  1.00  0.00    -0.000 C 
BRANCH  18  19
ATOM     19  C   UNL     1      30.213 168.052 154.618  1.00  0.00    -0.003 C 
ATOM     20  C   UNL     1      29.515 167.320 155.761  1.00  0.00     0.004 C 
ENDBRANCH  18  19
ENDBRANCH  17  18
ENDBRANCH  16  17
ENDBRANCH  15  16
ENDBRANCH  14  15
ENDBRANCH  13  14
ENDBRANCH   2  13
TORSDOF 15
ENDMDL
MODEL 2
REMARK VINA RESULT:    -3.948      1.609      3.316
REMARK INTER + INTRA:          -9.386
REMARK INTER:                  -7.305
REMARK INTRA:                  -2.080
REMARK UNBOUND:                -1.976
REMARK SMILES CCCCCCCCC=CCCCCCCCC(=O)[O-]
REMARK SMILES IDX 10 1 9 2 11 3 12 4 13 5 14 6 15 7 16 8 17 9 18 10 19 11
REMARK SMILES IDX 20 12 8 13 7 14 6 15 5 16 4 17 3 18 2 19 1 20
REMARK H PARENT
REMARK Flexibility Score: inf
ROOT
ATOM      1  C   UNL     1      29.615 169.257 158.525  1.00  0.00    -0.031 C 
ATOM      2  C   UNL     1      28.866 169.158 157.409  1.00  0.00    -0.031 C 
ENDROOT
BRANCH   1   3
ATOM      3  C   UNL     1      31.087 168.936 158.616  1.00  0.00     0.027 C 
BRANCH   3   4
ATOM      4  C   UNL     1      31.410 168.324 159.985  1.00  0.00     0.004 C 
BRANCH   4   5
ATOM      5  C   UNL     1      30.154 168.104 160.844  1.00  0.00     0.000 C 
BRANCH   5   6
ATOM      6  C   UNL     1      30.189 168.917 162.151  1.00  0.00     0.000 C 
BRANCH   6   7
ATOM      7  C   UNL     1      29.133 170.033 162.179  1.00  0.00     0.000 C 
BRANCH   7   8
ATOM      8  C   UNL     1      29.731 171.424 161.902  1.00  0.00     0.006 C 
BRANCH   8   9
ATOM      9  C   UNL     1      28.982 172.164 160.787  1.00  0.00     0.053 C 
BRANCH   9  10
ATOM     10  C   UNL     1      28.034 173.184 161.340  1.00  0.00     0.041 C 
ATOM     11  O   UNL     1      28.220 173.666 162.489  1.00  0.00    -0.550 OA
ATOM     12  O   UNL     1      26.966 173.629 160.571  1.00  0.00    -0.550 OA
ENDBRANCH   9  10
ENDBRANCH   8   9
ENDBRANCH   7   8
ENDBRANCH   6   7
ENDBRANCH   5   6
ENDBRANCH   4   5
ENDBRANCH   3   4
ENDBRANCH   1   3
BRANCH   2  13
ATOM     13  C   UNL     1      29.381 168.748 156.052  1.00  0.00     0.027 C 
BRANCH  13  14
ATOM     14  C   UNL     1      29.341 169.916 155.056  1.00  0.00     0.004 C 
BRANCH  14  15
ATOM     15  C   UNL     1      30.687 170.143 154.346  1.00  0.00     0.000 C 
BRANCH  15  16
ATOM     16  C   UNL     1      31.365 168.839 153.876  1.00  0.00     0.000 C 
BRANCH  16  17
ATOM     17  C   UNL     1      32.840 168.765 154.304  1.00  0.00    -0.000 C 
BRANCH  17  18
ATOM     18  C   UNL     1      33.110 169.497 155.629  1.00  0.00    -0.000 C 
BRANCH  18  19
ATOM     19  C   UNL     1      34.092 168.734 156.532  1.00  0.00    -0.003 C 
ATOM     20  C   UNL     1      33.803 167.236 156.514  1.00  0.00     0.004 C 
ENDBRANCH  18  19
ENDBRANCH  17  18
ENDBRANCH  16  17
ENDBRANCH  15  16
ENDBRANCH  14  15
ENDBRANCH  13  14
ENDBRANCH   2  13
TORSDOF 15
ENDMDL
MODEL 3
REMARK VINA RESULT:    -3.894      1.430      2.019
REMARK INTER + INTRA:          -9.284
REMARK INTER:                  -6.710
REMARK INTRA:                  -2.574
REMARK UNBOUND:                -1.976
REMARK SMILES CCCCCCCCC=CCCCCCCCC(=O)[O-]
REMARK SMILES IDX 10 1 9 2 11 3 12 4 13 5 14 6 15 7 16 8 17 9 18 10 19 11
REMARK SMILES IDX 20 12 8 13 7 14 6 15 5 16 4 17 3 18 2 19 1 20
REMARK H PARENT
REMARK Flexibility Score: inf
ROOT
ATOM      1  C   UNL     1      31.121 168.334 158.365  1.00  0.00    -0.031 C 
ATOM      2  C   UNL     1      32.446 168.146 158.206  1.00  0.00    -0.031 C 
ENDROOT
BRANCH   1   3
ATOM      3  C   UNL     1      30.047 167.365 157.935  1.00  0.00     0.027 C 
BRANCH   3   4
ATOM      4  C   UNL     1      28.753 168.122 157.608  1.00  0.00     0.004 C 
BRANCH   4   5
ATOM      5  C   UNL     1      28.750 169.554 158.168  1.00  0.00     0.000 C 
BRANCH   5   6
ATOM      6  C   UNL     1      27.515 169.838 159.041  1.00  0.00     0.000 C 
BRANCH   6   7
ATOM      7  C   UNL     1      27.871 170.019 160.525  1.00  0.00     0.000 C 
BRANCH   7   8
ATOM      8  C   UNL     1      29.307 170.533 160.732  1.00  0.00     0.006 C 
BRANCH   8   9
ATOM      9  C   UNL     1      29.389 172.063 160.660  1.00  0.00     0.053 C 
BRANCH   9  10
ATOM     10  C   UNL     1      28.462 172.714 161.640  1.00  0.00     0.041 C 
ATOM     11  O   UNL     1      28.574 172.479 162.872  1.00  0.00    -0.550 OA
ATOM     12  O   UNL     1      27.495 173.608 161.195  1.00  0.00    -0.550 OA
ENDBRANCH   9  10
ENDBRANCH   8   9
ENDBRANCH   7   8
ENDBRANCH   6   7
ENDBRANCH   5   6
ENDBRANCH   4   5
ENDBRANCH   3   4
ENDBRANCH   1   3
BRANCH   2  13
ATOM     13  C   UNL     1      33.082 166.916 157.608  1.00  0.00     0.027 C 
BRANCH  13  14
ATOM     14  C   UNL     1      34.243 167.279 156.672  1.00  0.00     0.004 C 
BRANCH  14  15
ATOM     15  C   UNL     1      34.244 168.764 156.266  1.00  0.00     0.000 C 
BRANCH  15  16
ATOM     16  C   UNL     1      33.548 169.034 154.915  1.00  0.00     0.000 C 
BRANCH  16  17
ATOM     17  C   UNL     1      32.282 169.893 155.076  1.00  0.00    -0.000 C 
BRANCH  17  18
ATOM     18  C   UNL     1      31.011 169.166 154.610  1.00  0.00    -0.000 C 
BRANCH  18  19
ATOM     19  C   UNL     1      31.270 167.690 154.268  1.00  0.00    -0.003 C 
ATOM     20  C   UNL     1      29.965 166.900 154.224  1.00  0.00     0.004 C 
ENDBRANCH  18  19
ENDBRANCH  17  18
ENDBRANCH  16  17
ENDBRANCH  15  16
ENDBRANCH  14  15
ENDBRANCH  13  14
ENDBRANCH   2  13
TORSDOF 15
ENDMDL
MODEL 4
REMARK VINA RESULT:    -3.839      1.506      2.115
REMARK INTER + INTRA:          -9.182
REMARK INTER:                  -7.223
REMARK INTRA:                  -1.959
REMARK UNBOUND:                -1.976
REMARK SMILES CCCCCCCCC=CCCCCCCCC(=O)[O-]
REMARK SMILES IDX 10 1 9 2 11 3 12 4 13 5 14 6 15 7 16 8 17 9 18 10 19 11
REMARK SMILES IDX 20 12 8 13 7 14 6 15 5 16 4 17 3 18 2 19 1 20
REMARK H PARENT
REMARK Flexibility Score: inf
ROOT
ATOM      1  C   UNL     1      32.330 167.153 157.744  1.00  0.00    -0.031 C 
ATOM      2  C   UNL     1      33.437 167.152 156.975  1.00  0.00    -0.031 C 
ENDROOT
BRANCH   1   3
ATOM      3  C   UNL     1      31.820 168.333 158.533  1.00  0.00     0.027 C 
BRANCH   3   4
ATOM      4  C   UNL     1      30.685 167.894 159.466  1.00  0.00     0.004 C 
BRANCH   4   5
ATOM      5  C   UNL     1      30.538 168.812 160.691  1.00  0.00     0.000 C 
BRANCH   5   6
ATOM      6  C   UNL     1      29.207 168.593 161.431  1.00  0.00     0.000 C 
BRANCH   6   7
ATOM      7  C   UNL     1      28.473 169.910 161.728  1.00  0.00     0.000 C 
BRANCH   7   8
ATOM      8  C   UNL     1      28.492 170.881 160.534  1.00  0.00     0.006 C 
BRANCH   8   9
ATOM      9  C   UNL     1      29.160 172.217 160.886  1.00  0.00     0.053 C 
BRANCH   9  10
ATOM     10  C   UNL     1      28.171 173.208 161.416  1.00  0.00     0.041 C 
ATOM     11  O   UNL     1      27.212 173.594 160.697  1.00  0.00    -0.550 OA
ATOM     12  O   UNL     1      28.289 173.679 162.718  1.00  0.00    -0.550 OA
ENDBRANCH   9  10
ENDBRANCH   8   9
ENDBRANCH   7   8
ENDBRANCH   6   7
ENDBRANCH   5   6
ENDBRANCH   4   5
ENDBRANCH   3   4
ENDBRANCH   1   3
BRANCH   2  13
ATOM     13  C   UNL     1      34.331 168.344 156.741  1.00  0.00     0.027 C 
BRANCH  13  14
ATOM     14  C   UNL     1      34.346 168.758 155.263  1.00  0.00     0.004 C 
BRANCH  14  15
ATOM     15  C   UNL     1      33.049 169.462 154.826  1.00  0.00     0.000 C 
BRANCH  15  16
ATOM     16  C   UNL     1      32.156 168.599 153.910  1.00  0.00     0.000 C 
BRANCH  16  17
ATOM     17  C   UNL     1      30.745 168.404 154.492  1.00  0.00    -0.000 C 
BRANCH  17  18
ATOM     18  C   UNL     1      30.305 169.577 155.382  1.00  0.00    -0.000 C 
BRANCH  18  19
ATOM     19  C   UNL     1      28.780 169.633 155.566  1.00  0.00    -0.003 C 
ATOM     20  C   UNL     1      28.388 169.286 157.000  1.00  0.00     0.004 C 
ENDBRANCH  18  19
ENDBRANCH  17  18
ENDBRANCH  16  17
ENDBRANCH  15  16
ENDBRANCH  14  15
ENDBRANCH  13  14
ENDBRANCH   2  13
TORSDOF 15
ENDMDL
MODEL 5
REMARK VINA RESULT:    -3.806      1.780      2.627
REMARK INTER + INTRA:          -9.119
REMARK INTER:                  -7.501
REMARK INTRA:                  -1.618
REMARK UNBOUND:                -1.976
REMARK SMILES CCCCCCCCC=CCCCCCCCC(=O)[O-]
REMARK SMILES IDX 10 1 9 2 11 3 12 4 13 5 14 6 15 7 16 8 17 9 18 10 19 11
REMARK SMILES IDX 20 12 8 13 7 14 6 15 5 16 4 17 3 18 2 19 1 20
REMARK H PARENT
REMARK Flexibility Score: inf
ROOT
ATOM      1  C   UNL     1      30.871 169.164 159.474  1.00  0.00    -0.031 C 
ATOM      2  C   UNL     1      31.077 168.744 158.210  1.00  0.00    -0.031 C 
ENDROOT
BRANCH   1   3
ATOM      3  C   UNL     1      30.871 168.277 160.695  1.00  0.00     0.027 C 
BRANCH   3   4
ATOM      4  C   UNL     1      29.740 168.689 161.646  1.00  0.00     0.004 C 
BRANCH   4   5
ATOM      5  C   UNL     1      30.249 169.496 162.853  1.00  0.00     0.000 C 
BRANCH   5   6
ATOM      6  C   UNL     1      29.632 170.905 162.917  1.00  0.00     0.000 C 
BRANCH   6   7
ATOM      7  C   UNL     1      28.816 171.248 161.660  1.00  0.00     0.000 C 
BRANCH   7   8
ATOM      8  C   UNL     1      28.875 172.745 161.307  1.00  0.00     0.006 C 
BRANCH   8   9
ATOM      9  C   UNL     1      27.911 173.579 162.160  1.00  0.00     0.053 C 
BRANCH   9  10
ATOM     10  C   UNL     1      26.646 173.892 161.422  1.00  0.00     0.041 C 
ATOM     11  O   UNL     1      26.540 173.612 160.198  1.00  0.00    -0.550 OA
ATOM     12  O   UNL     1      25.571 174.462 162.094  1.00  0.00    -0.550 OA
ENDBRANCH   9  10
ENDBRANCH   8   9
ENDBRANCH   7   8
ENDBRANCH   6   7
ENDBRANCH   5   6
ENDBRANCH   4   5
ENDBRANCH   3   4
ENDBRANCH   1   3
BRANCH   2  13
ATOM     13  C   UNL     1      31.382 167.324 157.806  1.00  0.00     0.027 C 
BRANCH  13  14
ATOM     14  C   UNL     1      32.875 167.002 157.958  1.00  0.00     0.004 C 
BRANCH  14  15
ATOM     15  C   UNL     1      33.663 167.183 156.649  1.00  0.00     0.000 C 
BRANCH  15  16
ATOM     16  C   UNL     1      34.282 168.587 156.490  1.00  0.00     0.000 C 
BRANCH  16  17
ATOM     17  C   UNL     1      34.133 169.128 155.058  1.00  0.00    -0.000 C 
BRANCH  17  18
ATOM     18  C   UNL     1      32.762 168.807 154.443  1.00  0.00    -0.000 C 
BRANCH  18  19
ATOM     19  C   UNL     1      31.724 169.907 154.716  1.00  0.00    -0.003 C 
ATOM     20  C   UNL     1      30.304 169.352 154.643  1.00  0.00     0.004 C 
ENDBRANCH  18  19
ENDBRANCH  17  18
ENDBRANCH  16  17
ENDBRANCH  15  16
ENDBRANCH  14  15
ENDBRANCH  13  14
ENDBRANCH   2  13
TORSDOF 15
ENDMDL
MODEL 6
REMARK VINA RESULT:    -3.728      1.454      2.113
REMARK INTER + INTRA:          -8.973
REMARK INTER:                  -6.989
REMARK INTRA:                  -1.984
REMARK UNBOUND:                -1.976
REMARK SMILES CCCCCCCCC=CCCCCCCCC(=O)[O-]
REMARK SMILES IDX 10 1 9 2 11 3 12 4 13 5 14 6 15 7 16 8 17 9 18 10 19 11
REMARK SMILES IDX 20 12 8 13 7 14 6 15 5 16 4 17 3 18 2 19 1 20
REMARK H PARENT
REMARK Flexibility Score: inf
ROOT
ATOM      1  C   UNL     1      31.108 169.251 159.163  1.00  0.00    -0.031 C 
ATOM      2  C   UNL     1      31.874 168.717 158.191  1.00  0.00    -0.031 C 
ENDROOT
BRANCH   1   3
ATOM      3  C   UNL     1      30.406 168.469 160.246  1.00  0.00     0.027 C 
BRANCH   3   4
ATOM      4  C   UNL     1      28.947 168.929 160.367  1.00  0.00     0.004 C 
BRANCH   4   5
ATOM      5  C   UNL     1      28.662 170.205 159.559  1.00  0.00     0.000 C 
BRANCH   5   6
ATOM      6  C   UNL     1      28.192 171.369 160.450  1.00  0.00     0.000 C 
BRANCH   6   7
ATOM      7  C   UNL     1      29.363 172.132 161.089  1.00  0.00     0.000 C 
BRANCH   7   8
ATOM      8  C   UNL     1      29.299 172.136 162.627  1.00  0.00     0.006 C 
BRANCH   8   9
ATOM      9  C   UNL     1      30.110 170.988 163.242  1.00  0.00     0.053 C 
BRANCH   9  10
ATOM     10  C   UNL     1      29.227 169.994 163.931  1.00  0.00     0.041 C 
ATOM     11  O   UNL     1      28.141 170.363 164.451  1.00  0.00    -0.550 OA
ATOM     12  O   UNL     1      29.588 168.653 163.968  1.00  0.00    -0.550 OA
ENDBRANCH   9  10
ENDBRANCH   8   9
ENDBRANCH   7   8
ENDBRANCH   6   7
ENDBRANCH   5   6
ENDBRANCH   4   5
ENDBRANCH   3   4
ENDBRANCH   1   3
BRANCH   2  13
ATOM     13  C   UNL     1      32.190 167.250 158.044  1.00  0.00     0.027 C 
BRANCH  13  14
ATOM     14  C   UNL     1      33.488 167.028 157.254  1.00  0.00     0.004 C 
BRANCH  14  15
ATOM     15  C   UNL     1      34.192 168.344 156.878  1.00  0.00     0.000 C 
BRANCH  15  16
ATOM     16  C   UNL     1      34.417 168.512 155.361  1.00  0.00     0.000 C 
BRANCH  16  17
ATOM     17  C   UNL     1      33.408 169.487 154.730  1.00  0.00    -0.000 C 
BRANCH  17  18
ATOM     18  C   UNL     1      32.117 168.789 154.274  1.00  0.00    -0.000 C 
BRANCH  18  19
ATOM     19  C   UNL     1      30.855 169.578 154.659  1.00  0.00    -0.003 C 
ATOM     20  C   UNL     1      30.765 170.885 153.875  1.00  0.00     0.004 C 
ENDBRANCH  18  19
ENDBRANCH  17  18
ENDBRANCH  16  17
ENDBRANCH  15  16
ENDBRANCH  14  15
ENDBRANCH  13  14
ENDBRANCH   2  13
TORSDOF 15
ENDMDL
MODEL 7
REMARK VINA RESULT:    -3.727      1.387      2.878
REMARK INTER + INTRA:          -8.971
REMARK INTER:                  -7.346
REMARK INTRA:                  -1.625
REMARK UNBOUND:                -1.976
REMARK SMILES CCCCCCCCC=CCCCCCCCC(=O)[O-]
REMARK SMILES IDX 10 1 9 2 11 3 12 4 13 5 14 6 15 7 16 8 17 9 18 10 19 11
REMARK SMILES IDX 20 12 8 13 7 14 6 15 5 16 4 17 3 18 2 19 1 20
REMARK H PARENT
REMARK Flexibility Score: inf
ROOT
ATOM      1  C   UNL     1      30.678 169.472 159.329  1.00  0.00    -0.031 C 
ATOM      2  C   UNL     1      31.272 168.785 158.333  1.00  0.00    -0.031 C 
ENDROOT
BRANCH   1   3
ATOM      3  C   UNL     1      29.248 169.293 159.778  1.00  0.00     0.027 C 
BRANCH   3   4
ATOM      4  C   UNL     1      28.561 170.658 159.908  1.00  0.00     0.004 C 
BRANCH   4   5
ATOM      5  C   UNL     1      29.459 171.709 160.581  1.00  0.00     0.000 C 
BRANCH   5   6
ATOM      6  C   UNL     1      28.647 172.766 161.351  1.00  0.00     0.000 C 
BRANCH   6   7
ATOM      7  C   UNL     1      28.004 172.199 162.627  1.00  0.00     0.000 C 
BRANCH   7   8
ATOM      8  C   UNL     1      29.016 172.018 163.772  1.00  0.00     0.006 C 
BRANCH   8   9
ATOM      9  C   UNL     1      29.162 173.287 164.621  1.00  0.00     0.053 C 
BRANCH   9  10
ATOM     10  C   UNL     1      28.299 173.236 165.845  1.00  0.00     0.041 C 
ATOM     11  O   UNL     1      27.460 174.149 166.067  1.00  0.00    -0.550 OA
ATOM     12  O   UNL     1      28.398 172.162 166.721  1.00  0.00    -0.550 OA
ENDBRANCH   9  10
ENDBRANCH   8   9
ENDBRANCH   7   8
ENDBRANCH   6   7
ENDBRANCH   5   6
ENDBRANCH   4   5
ENDBRANCH   3   4
ENDBRANCH   1   3
BRANCH   2  13
ATOM     13  C   UNL     1      30.620 167.693 157.524  1.00  0.00     0.027 C 
BRANCH  13  14
ATOM     14  C   UNL     1      30.190 168.195 156.138  1.00  0.00     0.004 C 
BRANCH  14  15
ATOM     15  C   UNL     1      31.006 167.569 154.995  1.00  0.00     0.000 C 
BRANCH  15  16
ATOM     16  C   UNL     1      31.683 168.609 154.077  1.00  0.00     0.000 C 
BRANCH  16  17
ATOM     17  C   UNL     1      32.605 169.560 154.860  1.00  0.00    -0.000 C 
BRANCH  17  18
ATOM     18  C   UNL     1      34.023 168.995 155.038  1.00  0.00    -0.000 C 
BRANCH  18  19
ATOM     19  C   UNL     1      34.320 168.602 156.494  1.00  0.00    -0.003 C 
ATOM     20  C   UNL     1      34.323 167.085 156.662  1.00  0.00     0.004 C 
ENDBRANCH  18  19
ENDBRANCH  17  18
ENDBRANCH  16  17
ENDBRANCH  15  16
ENDBRANCH  14  15
ENDBRANCH  13  14
ENDBRANCH   2  13
TORSDOF 15
ENDMDL
MODEL 8
REMARK VINA RESULT:    -3.688      1.665      4.318
REMARK INTER + INTRA:          -8.898
REMARK INTER:                  -7.293
REMARK INTRA:                  -1.604
REMARK UNBOUND:                -1.976
REMARK SMILES CCCCCCCCC=CCCCCCCCC(=O)[O-]
REMARK SMILES IDX 10 1 9 2 11 3 12 4 13 5 14 6 15 7 16 8 17 9 18 10 19 11
REMARK SMILES IDX 20 12 8 13 7 14 6 15 5 16 4 17 3 18 2 19 1 20
REMARK H PARENT
REMARK Flexibility Score: inf
ROOT
ATOM      1  C   UNL     1      29.312 172.047 160.860  1.00  0.00    -0.031 C 
ATOM      2  C   UNL     1      29.764 170.943 160.232  1.00  0.00    -0.031 C 
ENDROOT
BRANCH   1   3
ATOM      3  C   UNL     1      27.871 172.494 160.906  1.00  0.00     0.027 C 
BRANCH   3   4
ATOM      4  C   UNL     1      27.717 173.680 161.866  1.00  0.00     0.004 C 
BRANCH   4   5
ATOM      5  C   UNL     1      26.633 173.440 162.930  1.00  0.00     0.000 C 
BRANCH   5   6
ATOM      6  C   UNL     1      27.226 173.245 164.337  1.00  0.00     0.000 C 
BRANCH   6   7
ATOM      7  C   UNL     1      28.763 173.238 164.332  1.00  0.00     0.000 C 
BRANCH   7   8
ATOM      8  C   UNL     1      29.353 171.939 164.908  1.00  0.00     0.006 C 
BRANCH   8   9
ATOM      9  C   UNL     1      28.654 170.691 164.353  1.00  0.00     0.053 C 
BRANCH   9  10
ATOM     10  C   UNL     1      29.629 169.742 163.728  1.00  0.00     0.041 C 
ATOM     11  O   UNL     1      30.866 169.888 163.915  1.00  0.00    -0.550 OA
ATOM     12  O   UNL     1      29.169 168.674 162.966  1.00  0.00    -0.550 OA
ENDBRANCH   9  10
ENDBRANCH   8   9
ENDBRANCH   7   8
ENDBRANCH   6   7
ENDBRANCH   5   6
ENDBRANCH   4   5
ENDBRANCH   3   4
ENDBRANCH   1   3
BRANCH   2  13
ATOM     13  C   UNL     1      28.899 169.946 159.503  1.00  0.00     0.027 C 
BRANCH  13  14
ATOM     14  C   UNL     1      29.704 169.158 158.459  1.00  0.00     0.004 C 
BRANCH  14  15
ATOM     15  C   UNL     1      31.208 169.104 158.779  1.00  0.00     0.000 C 
BRANCH  15  16
ATOM     16  C   UNL     1      32.052 168.440 157.671  1.00  0.00     0.000 C 
BRANCH  16  17
ATOM     17  C   UNL     1      32.643 169.471 156.695  1.00  0.00    -0.000 C 
BRANCH  17  18
ATOM     18  C   UNL     1      33.269 168.819 155.452  1.00  0.00    -0.000 C 
BRANCH  18  19
ATOM     19  C   UNL     1      32.744 169.427 154.142  1.00  0.00    -0.003 C 
ATOM     20  C   UNL     1      31.244 169.696 154.226  1.00  0.00     0.004 C 
ENDBRANCH  18  19
ENDBRANCH  17  18
ENDBRANCH  16  17
ENDBRANCH  15  16
ENDBRANCH  14  15
ENDBRANCH  13  14
ENDBRANCH   2  13
TORSDOF 15
ENDMDL
MODEL 9
REMARK VINA RESULT:    -3.672      1.881      3.437
REMARK INTER + INTRA:          -8.868
REMARK INTER:                  -7.118
REMARK INTRA:                  -1.750
REMARK UNBOUND:                -1.976
REMARK SMILES CCCCCCCCC=CCCCCCCCC(=O)[O-]
REMARK SMILES IDX 10 1 9 2 11 3 12 4 13 5 14 6 15 7 16 8 17 9 18 10 19 11
REMARK SMILES IDX 20 12 8 13 7 14 6 15 5 16 4 17 3 18 2 19 1 20
REMARK H PARENT
REMARK Flexibility Score: inf
ROOT
ATOM      1  C   UNL     1      30.180 169.498 159.335  1.00  0.00    -0.031 C 
ATOM      2  C   UNL     1      30.730 168.994 158.212  1.00  0.00    -0.031 C 
ENDROOT
BRANCH   1   3
ATOM      3  C   UNL     1      28.709 169.477 159.668  1.00  0.00     0.027 C 
BRANCH   3   4
ATOM      4  C   UNL     1      28.233 170.886 160.045  1.00  0.00     0.004 C 
BRANCH   4   5
ATOM      5  C   UNL     1      29.369 171.766 160.591  1.00  0.00     0.000 C 
BRANCH   5   6
ATOM      6  C   UNL     1      28.859 172.842 161.567  1.00  0.00     0.000 C 
BRANCH   6   7
ATOM      7  C   UNL     1      28.539 172.272 162.958  1.00  0.00     0.000 C 
BRANCH   7   8
ATOM      8  C   UNL     1      29.721 171.495 163.566  1.00  0.00     0.006 C 
BRANCH   8   9
ATOM      9  C   UNL     1      29.486 169.980 163.551  1.00  0.00     0.053 C 
BRANCH   9  10
ATOM     10  C   UNL     1      30.775 169.219 163.623  1.00  0.00     0.041 C 
ATOM     11  O   UNL     1      31.453 169.219 164.684  1.00  0.00    -0.550 OA
ATOM     12  O   UNL     1      31.209 168.481 162.528  1.00  0.00    -0.550 OA
ENDBRANCH   9  10
ENDBRANCH   8   9
ENDBRANCH   7   8
ENDBRANCH   6   7
ENDBRANCH   5   6
ENDBRANCH   4   5
ENDBRANCH   3   4
ENDBRANCH   1   3
BRANCH   2  13
ATOM     13  C   UNL     1      29.972 168.287 157.118  1.00  0.00     0.027 C 
BRANCH  13  14
ATOM     14  C   UNL     1      29.418 169.277 156.083  1.00  0.00     0.004 C 
BRANCH  14  15
ATOM     15  C   UNL     1      30.026 169.083 154.683  1.00  0.00     0.000 C 
BRANCH  15  16
ATOM     16  C   UNL     1      30.902 170.266 154.221  1.00  0.00     0.000 C 
BRANCH  16  17
ATOM     17  C   UNL     1      32.341 169.831 153.895  1.00  0.00    -0.000 C 
BRANCH  17  18
ATOM     18  C   UNL     1      32.794 168.619 154.723  1.00  0.00    -0.000 C 
BRANCH  18  19
ATOM     19  C   UNL     1      33.714 169.014 155.889  1.00  0.00    -0.003 C 
ATOM     20  C   UNL     1      34.268 167.779 156.594  1.00  0.00     0.004 C 
ENDBRANCH  18  19
ENDBRANCH  17  18
ENDBRANCH  16  17
ENDBRANCH  15  16
ENDBRANCH  14  15
ENDBRANCH  13  14
ENDBRANCH   2  13
TORSDOF 15
ENDMDL
