MODEL 1
REMARK VINA RESULT:    -6.081      0.000      0.000
REMARK INTER + INTRA:          -9.581
REMARK INTER:                  -8.036
REMARK INTRA:                  -1.545
REMARK UNBOUND:                -1.545
REMARK SMILES CC[C@H](C=C[C@@H](C)[C@@H]1CC[C@@H]2[C@@H]3CC=C4C[C@@H](O)CC[C@]4(C)[C@@H]3CC[C@@]21C)C(C)C
REMARK SMILES IDX 6 1 7 2 5 3 4 4 3 5 2 6 1 7 28 8 29 9 30 10 8 11 9 12 26 13
REMARK SMILES IDX 10 14 11 15 25 16 27 17 12 18 24 19 23 20 13 21 21 22 14 23
REMARK SMILES IDX 15 24 20 25 22 26 16 27 19 28 17 29 18 30
REMARK H PARENT 18 31
REMARK Flexibility Score: inf
ROOT
ATOM      1  C   UNL     1      10.997   9.926  -8.999  1.00  0.00     0.012 C 
ATOM      2  C   UNL     1      11.863  10.184  -7.761  1.00  0.00     0.012 C 
ENDROOT
BRANCH   1   3
ATOM      3  C   UNL     1      11.694   8.911  -9.889  1.00  0.00    -0.028 C 
ATOM      4  C   UNL     1      12.759   9.149 -10.684  1.00  0.00    -0.027 C 
BRANCH   4   5
ATOM      5  C   UNL     1      13.430  10.502 -10.882  1.00  0.00     0.014 C 
BRANCH   5   6
ATOM      6  C   UNL     1      14.785  10.627 -10.119  1.00  0.00     0.004 C 
ATOM      7  C   UNL     1      14.962  11.864  -9.231  1.00  0.00     0.004 C 
ENDBRANCH   5   6
BRANCH   5   8
ATOM      8  C   UNL     1      13.486  10.866 -12.399  1.00  0.00    -0.011 C 
ATOM      9  C   UNL     1      13.374   9.624 -13.299  1.00  0.00     0.008 C 
ATOM     10  C   UNL     1      12.460  11.926 -12.822  1.00  0.00     0.008 C 
ENDBRANCH   5   8
ENDBRANCH   4   5
ENDBRANCH   1   3
BRANCH   1  11
ATOM     11  C   UNL     1      10.525  11.247  -9.711  1.00  0.00     0.002 C 
ATOM     12  C   UNL     1      11.339  12.491  -9.314  1.00  0.00     0.005 C 
ATOM     13  C   UNL     1       9.038  11.732  -9.672  1.00  0.00    -0.026 C 
ATOM     14  C   UNL     1      10.473  13.704  -9.666  1.00  0.00     0.005 C 
ATOM     15  C   UNL     1       9.181  13.141 -10.285  1.00  0.00    -0.001 C 
ATOM     16  C   UNL     1       8.487  11.818  -8.213  1.00  0.00     0.007 C 
ATOM     17  C   UNL     1       8.115  10.870 -10.575  1.00  0.00     0.012 C 
ATOM     18  C   UNL     1       7.894  14.035 -10.209  1.00  0.00     0.000 C 
ATOM     19  C   UNL     1       7.710  13.095  -7.840  1.00  0.00     0.005 C 
ATOM     20  C   UNL     1       6.921  13.718  -9.012  1.00  0.00     0.003 C 
ATOM     21  C   UNL     1       8.211  15.542 -10.425  1.00  0.00     0.031 C 
ATOM     22  C   UNL     1       6.017  14.963  -8.616  1.00  0.00    -0.008 C 
ATOM     23  C   UNL     1       7.958  16.401  -9.224  1.00  0.00    -0.027 C 
ATOM     24  C   UNL     1       6.893  16.205  -8.425  1.00  0.00    -0.065 C 
ATOM     25  C   UNL     1       5.187  14.690  -7.316  1.00  0.00     0.014 C 
ATOM     26  C   UNL     1       5.004  15.230  -9.765  1.00  0.00     0.016 C 
ATOM     27  C   UNL     1       6.419  17.383  -7.589  1.00  0.00     0.063 C 
ATOM     28  C   UNL     1       4.502  15.942  -6.760  1.00  0.00     0.033 C 
ATOM     29  C   UNL     1       5.569  16.974  -6.377  1.00  0.00     0.118 C 
BRANCH  29  30
ATOM     30  O   UNL     1       4.977  18.103  -5.782  1.00  0.00    -0.393 OA
ATOM     31  H   UNL     1       5.324  18.907  -6.250  1.00  0.00     0.210 HD
ENDBRANCH  29  30
ENDBRANCH   1  11
TORSDOF 6
ENDMDL
MODEL 2
REMARK VINA RESULT:    -5.759      3.661      7.796
REMARK INTER + INTRA:          -9.155
REMARK INTER:                  -8.070
REMARK INTRA:                  -1.084
REMARK UNBOUND:                -1.545
REMARK SMILES CC[C@H](C=C[C@@H](C)[C@@H]1CC[C@@H]2[C@@H]3CC=C4C[C@@H](O)CC[C@]4(C)[C@@H]3CC[C@@]21C)C(C)C
REMARK SMILES IDX 6 1 7 2 5 3 4 4 3 5 2 6 1 7 28 8 29 9 30 10 8 11 9 12 26 13
REMARK SMILES IDX 10 14 11 15 25 16 27 17 12 18 24 19 23 20 13 21 21 22 14 23
REMARK SMILES IDX 15 24 20 25 22 26 16 27 19 28 17 29 18 30
REMARK H PARENT 18 31
REMARK Flexibility Score: inf
ROOT
ATOM      1  C   UNL     1       9.353  11.841 -10.114  1.00  0.00     0.012 C 
ATOM      2  C   UNL     1       9.840  11.012 -11.308  1.00  0.00     0.012 C 
ENDROOT
BRANCH   1   3
ATOM      3  C   UNL     1       9.790  13.285 -10.303  1.00  0.00    -0.028 C 
ATOM      4  C   UNL     1       9.022  14.378 -10.114  1.00  0.00    -0.027 C 
BRANCH   4   5
ATOM      5  C   UNL     1       7.548  14.369  -9.728  1.00  0.00     0.014 C 
BRANCH   5   6
ATOM      6  C   UNL     1       7.221  15.339  -8.551  1.00  0.00     0.004 C 
ATOM      7  C   UNL     1       8.009  16.653  -8.503  1.00  0.00     0.004 C 
ENDBRANCH   5   6
BRANCH   5   8
ATOM      8  C   UNL     1       6.652  14.536 -10.996  1.00  0.00    -0.011 C 
ATOM      9  C   UNL     1       7.369  15.308 -12.116  1.00  0.00     0.008 C 
ATOM     10  C   UNL     1       6.086  13.216 -11.534  1.00  0.00     0.008 C 
ENDBRANCH   5   8
ENDBRANCH   4   5
ENDBRANCH   1   3
BRANCH   1  11
ATOM     11  C   UNL     1       9.709  11.196  -8.725  1.00  0.00     0.002 C 
ATOM     12  C   UNL     1       9.075  11.918  -7.523  1.00  0.00     0.005 C 
ATOM     13  C   UNL     1      11.186  10.931  -8.280  1.00  0.00    -0.026 C 
ATOM     14  C   UNL     1       9.894  11.511  -6.295  1.00  0.00     0.005 C 
ATOM     15  C   UNL     1      10.972  10.538  -6.803  1.00  0.00    -0.001 C 
ATOM     16  C   UNL     1      12.069  12.215  -8.388  1.00  0.00     0.007 C 
ATOM     17  C   UNL     1      11.824   9.739  -9.041  1.00  0.00     0.012 C 
ATOM     18  C   UNL     1      12.284  10.406  -5.952  1.00  0.00     0.000 C 
ATOM     19  C   UNL     1      12.976  12.535  -7.183  1.00  0.00     0.005 C 
ATOM     20  C   UNL     1      13.495  11.288  -6.436  1.00  0.00     0.003 C 
ATOM     21  C   UNL     1      12.001  10.449  -4.424  1.00  0.00     0.031 C 
ATOM     22  C   UNL     1      14.529  11.597  -5.270  1.00  0.00    -0.008 C 
ATOM     23  C   UNL     1      12.573  11.645  -3.726  1.00  0.00    -0.027 C 
ATOM     24  C   UNL     1      13.785  12.135  -4.043  1.00  0.00    -0.065 C 
ATOM     25  C   UNL     1      15.627  12.618  -5.719  1.00  0.00     0.014 C 
ATOM     26  C   UNL     1      15.253  10.277  -4.882  1.00  0.00     0.016 C 
ATOM     27  C   UNL     1      14.502  12.964  -2.988  1.00  0.00     0.063 C 
ATOM     28  C   UNL     1      16.486  13.134  -4.561  1.00  0.00     0.033 C 
ATOM     29  C   UNL     1      15.593  13.880  -3.562  1.00  0.00     0.118 C 
BRANCH  29  30
ATOM     30  O   UNL     1      16.365  14.441  -2.530  1.00  0.00    -0.393 OA
ATOM     31  H   UNL     1      16.298  15.429  -2.605  1.00  0.00     0.210 HD
ENDBRANCH  29  30
ENDBRANCH   1  11
TORSDOF 6
ENDMDL
MODEL 3
REMARK VINA RESULT:    -5.706      4.765      8.210
REMARK INTER + INTRA:          -9.085
REMARK INTER:                  -7.356
REMARK INTRA:                  -1.729
REMARK UNBOUND:                -1.545
REMARK SMILES CC[C@H](C=C[C@@H](C)[C@@H]1CC[C@@H]2[C@@H]3CC=C4C[C@@H](O)CC[C@]4(C)[C@@H]3CC[C@@]21C)C(C)C
REMARK SMILES IDX 6 1 7 2 5 3 4 4 3 5 2 6 1 7 28 8 29 9 30 10 8 11 9 12 26 13
REMARK SMILES IDX 10 14 11 15 25 16 27 17 12 18 24 19 23 20 13 21 21 22 14 23
REMARK SMILES IDX 15 24 20 25 22 26 16 27 19 28 17 29 18 30
REMARK H PARENT 18 31
REMARK Flexibility Score: inf
ROOT
ATOM      1  C   UNL     1      17.330  12.534  -4.675  1.00  0.00     0.012 C 
ATOM      2  C   UNL     1      18.516  13.492  -4.835  1.00  0.00     0.012 C 
ENDROOT
BRANCH   1   3
ATOM      3  C   UNL     1      17.608  11.590  -3.518  1.00  0.00    -0.028 C 
ATOM      4  C   UNL     1      16.898  11.504  -2.374  1.00  0.00    -0.027 C 
BRANCH   4   5
ATOM      5  C   UNL     1      15.710  12.382  -2.002  1.00  0.00     0.014 C 
BRANCH   5   6
ATOM      6  C   UNL     1      14.338  11.668  -2.204  1.00  0.00     0.004 C 
ATOM      7  C   UNL     1      13.122  12.570  -2.445  1.00  0.00     0.004 C 
ENDBRANCH   5   6
BRANCH   5   8
ATOM      8  C   UNL     1      15.925  13.021  -0.594  1.00  0.00    -0.011 C 
ATOM      9  C   UNL     1      15.365  12.142   0.536  1.00  0.00     0.008 C 
ATOM     10  C   UNL     1      17.382  13.402  -0.301  1.00  0.00     0.008 C 
ENDBRANCH   5   8
ENDBRANCH   4   5
ENDBRANCH   1   3
BRANCH   1  11
ATOM     11  C   UNL     1      16.898  11.853  -6.025  1.00  0.00     0.002 C 
ATOM     12  C   UNL     1      17.216  12.692  -7.275  1.00  0.00     0.005 C 
ATOM     13  C   UNL     1      15.443  11.332  -6.271  1.00  0.00    -0.026 C 
ATOM     14  C   UNL     1      16.314  12.160  -8.392  1.00  0.00     0.005 C 
ATOM     15  C   UNL     1      15.508  11.002  -7.777  1.00  0.00    -0.001 C 
ATOM     16  C   UNL     1      14.371  12.434  -5.993  1.00  0.00     0.007 C 
ATOM     17  C   UNL     1      15.140  10.034  -5.474  1.00  0.00     0.012 C 
ATOM     18  C   UNL     1      14.133  10.646  -8.442  1.00  0.00     0.000 C 
ATOM     19  C   UNL     1      13.260  12.601  -7.047  1.00  0.00     0.005 C 
ATOM     20  C   UNL     1      12.867  11.290  -7.761  1.00  0.00     0.003 C 
ATOM     21  C   UNL     1      14.182  10.758  -9.992  1.00  0.00     0.031 C 
ATOM     22  C   UNL     1      11.638  11.422  -8.761  1.00  0.00    -0.008 C 
ATOM     23  C   UNL     1      13.314  11.840 -10.557  1.00  0.00    -0.027 C 
ATOM     24  C   UNL     1      12.092  12.101 -10.058  1.00  0.00    -0.065 C 
ATOM     25  C   UNL     1      10.453  12.223  -8.125  1.00  0.00     0.014 C 
ATOM     26  C   UNL     1      11.111   9.998  -9.094  1.00  0.00     0.016 C 
ATOM     27  C   UNL     1      11.097  12.800 -10.971  1.00  0.00     0.063 C 
ATOM     28  C   UNL     1       9.360  12.590  -9.132  1.00  0.00     0.033 C 
ATOM     29  C   UNL     1       9.955  13.498 -10.216  1.00  0.00     0.118 C 
BRANCH  29  30
ATOM     30  O   UNL     1       8.956  13.923 -11.110  1.00  0.00    -0.393 OA
ATOM     31  H   UNL     1       9.234  14.804 -11.476  1.00  0.00     0.210 HD
ENDBRANCH  29  30
ENDBRANCH   1  11
TORSDOF 6
ENDMDL
MODEL 4
REMARK VINA RESULT:    -5.599      9.983     13.514
REMARK INTER + INTRA:          -8.945
REMARK INTER:                  -7.288
REMARK INTRA:                  -1.656
REMARK UNBOUND:                -1.545
REMARK SMILES CC[C@H](C=C[C@@H](C)[C@@H]1CC[C@@H]2[C@@H]3CC=C4C[C@@H](O)CC[C@]4(C)[C@@H]3CC[C@@]21C)C(C)C
REMARK SMILES IDX 6 1 7 2 5 3 4 4 3 5 2 6 1 7 28 8 29 9 30 10 8 11 9 12 26 13
REMARK SMILES IDX 10 14 11 15 25 16 27 17 12 18 24 19 23 20 13 21 21 22 14 23
REMARK SMILES IDX 15 24 20 25 22 26 16 27 19 28 17 29 18 30
REMARK H PARENT 18 31
REMARK Flexibility Score: inf
ROOT
ATOM      1  C   UNL     1      14.400  12.114  -2.203  1.00  0.00     0.012 C 
ATOM      2  C   UNL     1      12.960  12.592  -1.980  1.00  0.00     0.012 C 
ENDROOT
BRANCH   1   3
ATOM      3  C   UNL     1      14.408  11.058  -3.296  1.00  0.00    -0.028 C 
ATOM      4  C   UNL     1      15.009  11.165  -4.499  1.00  0.00    -0.027 C 
BRANCH   4   5
ATOM      5  C   UNL     1      15.750  12.393  -5.013  1.00  0.00     0.014 C 
BRANCH   5   6
ATOM      6  C   UNL     1      17.296  12.198  -5.055  1.00  0.00     0.004 C 
ATOM      7  C   UNL     1      18.153  13.450  -4.837  1.00  0.00     0.004 C 
ENDBRANCH   5   6
BRANCH   5   8
ATOM      8  C   UNL     1      15.107  12.899  -6.343  1.00  0.00    -0.011 C 
ATOM      9  C   UNL     1      15.807  12.322  -7.584  1.00  0.00     0.008 C 
ATOM     10  C   UNL     1      13.593  12.668  -6.428  1.00  0.00     0.008 C 
ENDBRANCH   5   8
ENDBRANCH   4   5
ENDBRANCH   1   3
BRANCH   1  11
ATOM     11  C   UNL     1      15.136  11.723  -0.870  1.00  0.00     0.002 C 
ATOM     12  C   UNL     1      14.768  12.616   0.328  1.00  0.00     0.005 C 
ATOM     13  C   UNL     1      16.693  11.586  -0.784  1.00  0.00    -0.026 C 
ATOM     14  C   UNL     1      15.894  12.448   1.353  1.00  0.00     0.005 C 
ATOM     15  C   UNL     1      16.882  11.440   0.741  1.00  0.00    -0.001 C 
ATOM     16  C   UNL     1      17.424  12.862  -1.311  1.00  0.00     0.007 C 
ATOM     17  C   UNL     1      17.210  10.304  -1.491  1.00  0.00     0.012 C 
ATOM     18  C   UNL     1      18.370  11.495   1.236  1.00  0.00     0.000 C 
ATOM     19  C   UNL     1      18.574  13.409  -0.444  1.00  0.00     0.005 C 
ATOM     20  C   UNL     1      19.354  12.323   0.327  1.00  0.00     0.003 C 
ATOM     21  C   UNL     1      18.473  11.784   2.761  1.00  0.00     0.031 C 
ATOM     22  C   UNL     1      20.619  12.857   1.127  1.00  0.00    -0.008 C 
ATOM     23  C   UNL     1      19.109  13.099   3.095  1.00  0.00    -0.027 C 
ATOM     24  C   UNL     1      20.165  13.569   2.406  1.00  0.00    -0.065 C 
ATOM     25  C   UNL     1      21.492  13.824   0.259  1.00  0.00     0.014 C 
ATOM     26  C   UNL     1      21.513  11.645   1.515  1.00  0.00     0.016 C 
ATOM     27  C   UNL     1      21.057  14.586   3.101  1.00  0.00     0.063 C 
ATOM     28  C   UNL     1      22.570  14.555   1.064  1.00  0.00     0.033 C 
ATOM     29  C   UNL     1      21.900  15.429   2.131  1.00  0.00     0.118 C 
BRANCH  29  30
ATOM     30  O   UNL     1      22.859  16.180   2.832  1.00  0.00    -0.393 OA
ATOM     31  H   UNL     1      22.972  15.766   3.728  1.00  0.00     0.210 HD
ENDBRANCH  29  30
ENDBRANCH   1  11
TORSDOF 6
ENDMDL
MODEL 5
REMARK VINA RESULT:    -5.515     10.150     13.782
REMARK INTER + INTRA:          -8.833
REMARK INTER:                  -7.144
REMARK INTRA:                  -1.689
REMARK UNBOUND:                -1.545
REMARK SMILES CC[C@H](C=C[C@@H](C)[C@@H]1CC[C@@H]2[C@@H]3CC=C4C[C@@H](O)CC[C@]4(C)[C@@H]3CC[C@@]21C)C(C)C
REMARK SMILES IDX 6 1 7 2 5 3 4 4 3 5 2 6 1 7 28 8 29 9 30 10 8 11 9 12 26 13
REMARK SMILES IDX 10 14 11 15 25 16 27 17 12 18 24 19 23 20 13 21 21 22 14 23
REMARK SMILES IDX 15 24 20 25 22 26 16 27 19 28 17 29 18 30
REMARK H PARENT 18 31
REMARK Flexibility Score: inf
ROOT
ATOM      1  C   UNL     1      14.852  11.909  -2.324  1.00  0.00     0.012 C 
ATOM      2  C   UNL     1      13.522  12.664  -2.209  1.00  0.00     0.012 C 
ENDROOT
BRANCH   1   3
ATOM      3  C   UNL     1      14.657  10.696  -3.218  1.00  0.00    -0.028 C 
ATOM      4  C   UNL     1      15.092  10.568  -4.489  1.00  0.00    -0.027 C 
BRANCH   4   5
ATOM      5  C   UNL     1      15.817  11.643  -5.289  1.00  0.00     0.014 C 
BRANCH   5   6
ATOM      6  C   UNL     1      14.933  12.899  -5.561  1.00  0.00     0.004 C 
ATOM      7  C   UNL     1      13.570  12.651  -6.217  1.00  0.00     0.004 C 
ENDBRANCH   5   6
BRANCH   5   8
ATOM      8  C   UNL     1      17.216  11.937  -4.662  1.00  0.00    -0.011 C 
ATOM      9  C   UNL     1      18.251  10.856  -5.015  1.00  0.00     0.008 C 
ATOM     10  C   UNL     1      17.766  13.330  -4.997  1.00  0.00     0.008 C 
ENDBRANCH   5   8
ENDBRANCH   4   5
ENDBRANCH   1   3
BRANCH   1  11
ATOM     11  C   UNL     1      15.527  11.630  -0.931  1.00  0.00     0.002 C 
ATOM     12  C   UNL     1      15.093  12.605   0.177  1.00  0.00     0.005 C 
ATOM     13  C   UNL     1      17.079  11.520  -0.762  1.00  0.00    -0.026 C 
ATOM     14  C   UNL     1      16.170  12.530   1.263  1.00  0.00     0.005 C 
ATOM     15  C   UNL     1      17.197  11.492   0.776  1.00  0.00    -0.001 C 
ATOM     16  C   UNL     1      17.822  12.762  -1.350  1.00  0.00     0.007 C 
ATOM     17  C   UNL     1      17.642  10.196  -1.345  1.00  0.00     0.012 C 
ATOM     18  C   UNL     1      18.658  11.605   1.335  1.00  0.00     0.000 C 
ATOM     19  C   UNL     1      18.924  13.389  -0.474  1.00  0.00     0.005 C 
ATOM     20  C   UNL     1      19.676  12.375   0.413  1.00  0.00     0.003 C 
ATOM     21  C   UNL     1      18.685  12.010   2.836  1.00  0.00     0.031 C 
ATOM     22  C   UNL     1      20.896  12.985   1.229  1.00  0.00    -0.008 C 
ATOM     23  C   UNL     1      19.292  13.354   3.099  1.00  0.00    -0.027 C 
ATOM     24  C   UNL     1      20.375  13.785   2.427  1.00  0.00    -0.065 C 
ATOM     25  C   UNL     1      21.800  13.896   0.332  1.00  0.00     0.014 C 
ATOM     26  C   UNL     1      21.783  11.818   1.749  1.00  0.00     0.016 C 
ATOM     27  C   UNL     1      21.222  14.864   3.084  1.00  0.00     0.063 C 
ATOM     28  C   UNL     1      22.831  14.700   1.128  1.00  0.00     0.033 C 
ATOM     29  C   UNL     1      22.102  15.642   2.094  1.00  0.00     0.118 C 
BRANCH  29  30
ATOM     30  O   UNL     1      23.019  16.457   2.780  1.00  0.00    -0.393 OA
ATOM     31  H   UNL     1      23.283  17.195   2.169  1.00  0.00     0.210 HD
ENDBRANCH  29  30
ENDBRANCH   1  11
TORSDOF 6
ENDMDL
MODEL 6
REMARK VINA RESULT:    -5.503      7.395     10.120
REMARK INTER + INTRA:          -8.817
REMARK INTER:                  -7.093
REMARK INTRA:                  -1.724
REMARK UNBOUND:                -1.545
REMARK SMILES CC[C@H](C=C[C@@H](C)[C@@H]1CC[C@@H]2[C@@H]3CC=C4C[C@@H](O)CC[C@]4(C)[C@@H]3CC[C@@]21C)C(C)C
REMARK SMILES IDX 6 1 7 2 5 3 4 4 3 5 2 6 1 7 28 8 29 9 30 10 8 11 9 12 26 13
REMARK SMILES IDX 10 14 11 15 25 16 27 17 12 18 24 19 23 20 13 21 21 22 14 23
REMARK SMILES IDX 15 24 20 25 22 26 16 27 19 28 17 29 18 30
REMARK H PARENT 18 31
REMARK Flexibility Score: inf
ROOT
ATOM      1  C   UNL     1      19.635  13.068  -9.462  1.00  0.00     0.012 C 
ATOM      2  C   UNL     1      19.235  13.671 -10.814  1.00  0.00     0.012 C 
ENDROOT
BRANCH   1   3
ATOM      3  C   UNL     1      21.074  12.585  -9.541  1.00  0.00    -0.028 C 
ATOM      4  C   UNL     1      22.137  13.156  -8.938  1.00  0.00    -0.027 C 
BRANCH   4   5
ATOM      5  C   UNL     1      22.104  14.432  -8.106  1.00  0.00     0.014 C 
BRANCH   5   6
ATOM      6  C   UNL     1      22.740  14.254  -6.693  1.00  0.00     0.004 C 
ATOM      7  C   UNL     1      21.990  13.347  -5.711  1.00  0.00     0.004 C 
ENDBRANCH   5   6
BRANCH   5   8
ATOM      8  C   UNL     1      22.651  15.637  -8.935  1.00  0.00    -0.011 C 
ATOM      9  C   UNL     1      23.748  15.211  -9.925  1.00  0.00     0.008 C 
ATOM     10  C   UNL     1      21.561  16.439  -9.659  1.00  0.00     0.008 C 
ENDBRANCH   5   8
ENDBRANCH   4   5
ENDBRANCH   1   3
BRANCH   1  11
ATOM     11  C   UNL     1      18.593  12.024  -8.918  1.00  0.00     0.002 C 
ATOM     12  C   UNL     1      17.147  12.294  -9.371  1.00  0.00     0.005 C 
ATOM     13  C   UNL     1      18.463  11.689  -7.395  1.00  0.00    -0.026 C 
ATOM     14  C   UNL     1      16.241  11.546  -8.389  1.00  0.00     0.005 C 
ATOM     15  C   UNL     1      17.179  10.833  -7.400  1.00  0.00    -0.001 C 
ATOM     16  C   UNL     1      18.267  12.973  -6.527  1.00  0.00     0.007 C 
ATOM     17  C   UNL     1      19.649  10.832  -6.878  1.00  0.00     0.012 C 
ATOM     18  C   UNL     1      16.604  10.485  -5.982  1.00  0.00     0.000 C 
ATOM     19  C   UNL     1      17.158  12.924  -5.457  1.00  0.00     0.005 C 
ATOM     20  C   UNL     1      16.935  11.524  -4.846  1.00  0.00     0.003 C 
ATOM     21  C   UNL     1      15.121  10.022  -6.046  1.00  0.00     0.031 C 
ATOM     22  C   UNL     1      15.883  11.481  -3.655  1.00  0.00    -0.008 C 
ATOM     23  C   UNL     1      14.157  10.951  -5.373  1.00  0.00    -0.027 C 
ATOM     24  C   UNL     1      14.459  11.565  -4.214  1.00  0.00    -0.065 C 
ATOM     25  C   UNL     1      16.121  12.636  -2.625  1.00  0.00     0.014 C 
ATOM     26  C   UNL     1      16.047  10.137  -2.892  1.00  0.00     0.016 C 
ATOM     27  C   UNL     1      13.299  12.038  -3.351  1.00  0.00     0.063 C 
ATOM     28  C   UNL     1      14.986  12.785  -1.608  1.00  0.00     0.033 C 
ATOM     29  C   UNL     1      13.687  13.133  -2.346  1.00  0.00     0.118 C 
BRANCH  29  30
ATOM     30  O   UNL     1      12.643  13.361  -1.432  1.00  0.00    -0.393 OA
ATOM     31  H   UNL     1      11.801  13.039  -1.850  1.00  0.00     0.210 HD
ENDBRANCH  29  30
ENDBRANCH   1  11
TORSDOF 6
ENDMDL
MODEL 7
REMARK VINA RESULT:    -5.486      4.808      8.422
REMARK INTER + INTRA:          -8.794
REMARK INTER:                  -7.131
REMARK INTRA:                  -1.663
REMARK UNBOUND:                -1.545
REMARK SMILES CC[C@H](C=C[C@@H](C)[C@@H]1CC[C@@H]2[C@@H]3CC=C4C[C@@H](O)CC[C@]4(C)[C@@H]3CC[C@@]21C)C(C)C
REMARK SMILES IDX 6 1 7 2 5 3 4 4 3 5 2 6 1 7 28 8 29 9 30 10 8 11 9 12 26 13
REMARK SMILES IDX 10 14 11 15 25 16 27 17 12 18 24 19 23 20 13 21 21 22 14 23
REMARK SMILES IDX 15 24 20 25 22 26 16 27 19 28 17 29 18 30
REMARK H PARENT 18 31
REMARK Flexibility Score: inf
ROOT
ATOM      1  C   UNL     1       9.583  11.324  -7.378  1.00  0.00     0.012 C 
ATOM      2  C   UNL     1       8.129  11.617  -6.991  1.00  0.00     0.012 C 
ENDROOT
BRANCH   1   3
ATOM      3  C   UNL     1       9.613  10.722  -8.773  1.00  0.00    -0.028 C 
ATOM      4  C   UNL     1      10.003  11.351  -9.901  1.00  0.00    -0.027 C 
BRANCH   4   5
ATOM      5  C   UNL     1      10.435  12.808  -9.998  1.00  0.00     0.014 C 
BRANCH   5   6
ATOM      6  C   UNL     1      11.831  12.986 -10.670  1.00  0.00     0.004 C 
ATOM      7  C   UNL     1      12.939  12.027 -10.218  1.00  0.00     0.004 C 
ENDBRANCH   5   6
BRANCH   5   8
ATOM      8  C   UNL     1       9.289  13.677 -10.606  1.00  0.00    -0.011 C 
ATOM      9  C   UNL     1       8.383  12.867 -11.547  1.00  0.00     0.008 C 
ATOM     10  C   UNL     1       8.447  14.416  -9.558  1.00  0.00     0.008 C 
ENDBRANCH   5   8
ENDBRANCH   4   5
ENDBRANCH   1   3
BRANCH   1  11
ATOM     11  C   UNL     1      10.370  10.528  -6.273  1.00  0.00     0.002 C 
ATOM     12  C   UNL     1       9.877  10.800  -4.841  1.00  0.00     0.005 C 
ATOM     13  C   UNL     1      11.930  10.576  -6.159  1.00  0.00    -0.026 C 
ATOM     14  C   UNL     1      11.016  10.383  -3.907  1.00  0.00     0.005 C 
ATOM     15  C   UNL     1      12.140   9.852  -4.813  1.00  0.00    -0.001 C 
ATOM     16  C   UNL     1      12.467  12.042  -6.087  1.00  0.00     0.007 C 
ATOM     17  C   UNL     1      12.628   9.773  -7.290  1.00  0.00     0.012 C 
ATOM     18  C   UNL     1      13.604   9.899  -4.252  1.00  0.00     0.000 C 
ATOM     19  C   UNL     1      13.526  12.339  -5.007  1.00  0.00     0.005 C 
ATOM     20  C   UNL     1      14.457  11.148  -4.693  1.00  0.00     0.003 C 
ATOM     21  C   UNL     1      13.665   9.556  -2.736  1.00  0.00     0.031 C 
ATOM     22  C   UNL     1      15.631  11.475  -3.674  1.00  0.00    -0.008 C 
ATOM     23  C   UNL     1      14.104  10.695  -1.866  1.00  0.00    -0.027 C 
ATOM     24  C   UNL     1      15.079  11.540  -2.245  1.00  0.00    -0.065 C 
ATOM     25  C   UNL     1      16.353  12.819  -4.028  1.00  0.00     0.014 C 
ATOM     26  C   UNL     1      16.692  10.342  -3.754  1.00  0.00     0.016 C 
ATOM     27  C   UNL     1      15.814  12.297  -1.150  1.00  0.00     0.063 C 
ATOM     28  C   UNL     1      17.314  13.297  -2.936  1.00  0.00     0.033 C 
ATOM     29  C   UNL     1      16.525  13.565  -1.649  1.00  0.00     0.118 C 
BRANCH  29  30
ATOM     30  O   UNL     1      17.365  14.088  -0.651  1.00  0.00    -0.393 OA
ATOM     31  H   UNL     1      17.078  13.703   0.218  1.00  0.00     0.210 HD
ENDBRANCH  29  30
ENDBRANCH   1  11
TORSDOF 6
ENDMDL
MODEL 8
REMARK VINA RESULT:    -5.380      4.467      7.721
REMARK INTER + INTRA:          -8.655
REMARK INTER:                  -6.955
REMARK INTRA:                  -1.699
REMARK UNBOUND:                -1.545
REMARK SMILES CC[C@H](C=C[C@@H](C)[C@@H]1CC[C@@H]2[C@@H]3CC=C4C[C@@H](O)CC[C@]4(C)[C@@H]3CC[C@@]21C)C(C)C
REMARK SMILES IDX 6 1 7 2 5 3 4 4 3 5 2 6 1 7 28 8 29 9 30 10 8 11 9 12 26 13
REMARK SMILES IDX 10 14 11 15 25 16 27 17 12 18 24 19 23 20 13 21 21 22 14 23
REMARK SMILES IDX 15 24 20 25 22 26 16 27 19 28 17 29 18 30
REMARK H PARENT 18 31
REMARK Flexibility Score: inf
ROOT
ATOM      1  C   UNL     1      17.272  12.241  -4.920  1.00  0.00     0.012 C 
ATOM      2  C   UNL     1      18.249  13.417  -5.037  1.00  0.00     0.012 C 
ENDROOT
BRANCH   1   3
ATOM      3  C   UNL     1      17.856  11.203  -3.977  1.00  0.00    -0.028 C 
ATOM      4  C   UNL     1      17.503  11.012  -2.688  1.00  0.00    -0.027 C 
BRANCH   4   5
ATOM      5  C   UNL     1      16.485  11.842  -1.917  1.00  0.00     0.014 C 
BRANCH   5   6
ATOM      6  C   UNL     1      17.021  13.254  -1.529  1.00  0.00     0.004 C 
ATOM      7  C   UNL     1      18.373  13.302  -0.808  1.00  0.00     0.004 C 
ENDBRANCH   5   6
BRANCH   5   8
ATOM      8  C   UNL     1      15.107  11.833  -2.651  1.00  0.00    -0.011 C 
ATOM      9  C   UNL     1      14.288  10.571  -2.335  1.00  0.00     0.008 C 
ATOM     10  C   UNL     1      14.264  13.092  -2.405  1.00  0.00     0.008 C 
ENDBRANCH   5   8
ENDBRANCH   4   5
ENDBRANCH   1   3
BRANCH   1  11
ATOM     11  C   UNL     1      16.785  11.700  -6.314  1.00  0.00     0.002 C 
ATOM     12  C   UNL     1      17.007  12.685  -7.475  1.00  0.00     0.005 C 
ATOM     13  C   UNL     1      15.335  11.158  -6.541  1.00  0.00    -0.026 C 
ATOM     14  C   UNL     1      16.061  12.249  -8.597  1.00  0.00     0.005 C 
ATOM     15  C   UNL     1      15.325  11.002  -8.076  1.00  0.00    -0.001 C 
ATOM     16  C   UNL     1      14.248  12.184  -6.083  1.00  0.00     0.007 C 
ATOM     17  C   UNL     1      15.115   9.770  -5.882  1.00  0.00     0.012 C 
ATOM     18  C   UNL     1      13.925  10.674  -8.704  1.00  0.00     0.000 C 
ATOM     19  C   UNL     1      13.075  12.428  -7.052  1.00  0.00     0.005 C 
ATOM     20  C   UNL     1      12.681  11.193  -7.889  1.00  0.00     0.003 C 
ATOM     21  C   UNL     1      13.884  10.961 -10.232  1.00  0.00     0.031 C 
ATOM     22  C   UNL     1      11.395  11.392  -8.801  1.00  0.00    -0.008 C 
ATOM     23  C   UNL     1      12.954  12.068 -10.624  1.00  0.00    -0.027 C 
ATOM     24  C   UNL     1      11.755  12.228 -10.034  1.00  0.00    -0.065 C 
ATOM     25  C   UNL     1      10.224  12.074  -8.017  1.00  0.00     0.014 C 
ATOM     26  C   UNL     1      10.892   9.996  -9.266  1.00  0.00     0.016 C 
ATOM     27  C   UNL     1      10.690  12.989 -10.809  1.00  0.00     0.063 C 
ATOM     28  C   UNL     1       9.066  12.513  -8.917  1.00  0.00     0.033 C 
ATOM     29  C   UNL     1       9.572  13.557  -9.921  1.00  0.00     0.118 C 
BRANCH  29  30
ATOM     30  O   UNL     1       8.513  14.044 -10.707  1.00  0.00    -0.393 OA
ATOM     31  H   UNL     1       8.663  13.737 -11.639  1.00  0.00     0.210 HD
ENDBRANCH  29  30
ENDBRANCH   1  11
TORSDOF 6
ENDMDL
MODEL 9
REMARK VINA RESULT:    -5.377      8.064     10.313
REMARK INTER + INTRA:          -8.650
REMARK INTER:                  -7.204
REMARK INTRA:                  -1.446
REMARK UNBOUND:                -1.545
REMARK SMILES CC[C@H](C=C[C@@H](C)[C@@H]1CC[C@@H]2[C@@H]3CC=C4C[C@@H](O)CC[C@]4(C)[C@@H]3CC[C@@]21C)C(C)C
REMARK SMILES IDX 6 1 7 2 5 3 4 4 3 5 2 6 1 7 28 8 29 9 30 10 8 11 9 12 26 13
REMARK SMILES IDX 10 14 11 15 25 16 27 17 12 18 24 19 23 20 13 21 21 22 14 23
REMARK SMILES IDX 15 24 20 25 22 26 16 27 19 28 17 29 18 30
REMARK H PARENT 18 31
REMARK Flexibility Score: inf
ROOT
ATOM      1  C   UNL     1      15.046  12.134  -4.329  1.00  0.00     0.012 C 
ATOM      2  C   UNL     1      14.704  12.881  -5.623  1.00  0.00     0.012 C 
ENDROOT
BRANCH   1   3
ATOM      3  C   UNL     1      16.236  11.224  -4.581  1.00  0.00    -0.028 C 
ATOM      4  C   UNL     1      17.517  11.478  -4.239  1.00  0.00    -0.027 C 
BRANCH   4   5
ATOM      5  C   UNL     1      18.021  12.757  -3.581  1.00  0.00     0.014 C 
BRANCH   5   6
ATOM      6  C   UNL     1      18.375  12.567  -2.074  1.00  0.00     0.004 C 
ATOM      7  C   UNL     1      17.551  13.378  -1.067  1.00  0.00     0.004 C 
ENDBRANCH   5   6
BRANCH   5   8
ATOM      8  C   UNL     1      19.141  13.411  -4.450  1.00  0.00    -0.011 C 
ATOM      9  C   UNL     1      20.548  13.097  -3.917  1.00  0.00     0.008 C 
ATOM     10  C   UNL     1      19.047  13.070  -5.943  1.00  0.00     0.008 C 
ENDBRANCH   5   8
ENDBRANCH   4   5
ENDBRANCH   1   3
BRANCH   1  11
ATOM     11  C   UNL     1      13.797  11.455  -3.657  1.00  0.00     0.002 C 
ATOM     12  C   UNL     1      12.492  12.253  -3.820  1.00  0.00     0.005 C 
ATOM     13  C   UNL     1      13.792  11.012  -2.156  1.00  0.00    -0.026 C 
ATOM     14  C   UNL     1      11.541  11.753  -2.730  1.00  0.00     0.005 C 
ATOM     15  C   UNL     1      12.303  10.654  -1.969  1.00  0.00    -0.001 C 
ATOM     16  C   UNL     1      14.203  12.178  -1.200  1.00  0.00     0.007 C 
ATOM     17  C   UNL     1      14.659   9.748  -1.913  1.00  0.00     0.012 C 
ATOM     18  C   UNL     1      11.867  10.364  -0.490  1.00  0.00     0.000 C 
ATOM     19  C   UNL     1      13.329  12.388   0.051  1.00  0.00     0.005 C 
ATOM     20  C   UNL     1      12.718  11.090   0.619  1.00  0.00     0.003 C 
ATOM     21  C   UNL     1      10.326  10.446  -0.304  1.00  0.00     0.031 C 
ATOM     22  C   UNL     1      11.917  11.273   1.979  1.00  0.00    -0.008 C 
ATOM     23  C   UNL     1       9.873  11.565   0.584  1.00  0.00    -0.027 C 
ATOM     24  C   UNL     1      10.549  11.902   1.697  1.00  0.00    -0.065 C 
ATOM     25  C   UNL     1      12.707  12.150   3.007  1.00  0.00     0.014 C 
ATOM     26  C   UNL     1      11.706   9.875   2.627  1.00  0.00     0.016 C 
ATOM     27  C   UNL     1       9.782  12.641   2.784  1.00  0.00     0.063 C 
ATOM     28  C   UNL     1      11.871  12.561   4.223  1.00  0.00     0.033 C 
ATOM     29  C   UNL     1      10.685  13.414   3.756  1.00  0.00     0.118 C 
BRANCH  29  30
ATOM     30  O   UNL     1       9.945  13.880   4.858  1.00  0.00    -0.393 OA
ATOM     31  H   UNL     1      10.202  13.333   5.646  1.00  0.00     0.210 HD
ENDBRANCH  29  30
ENDBRANCH   1  11
TORSDOF 6
ENDMDL
