MODEL 1
REMARK VINA RESULT:    -2.198      0.000      0.000
REMARK INTER + INTRA:          -2.711
REMARK INTER:                  -3.355
REMARK INTRA:                   0.644
REMARK UNBOUND:                 0.644
REMARK SMILES CC1=CCC[C@H](C)C(=O)C[C@@H](C(C)C)C(=O)C1
REMARK SMILES IDX 8 1 9 2 6 3 7 4 5 5 4 6 3 7 2 8 1 9 10 11 11 12 15 13 16 14
REMARK SMILES IDX 17 15 12 17 13 18 14 19
REMARK H PARENT
REMARK Flexibility Score: 70.00
ROOT
ATOM      1  C   UNL     1      77.651  14.370   2.323  1.00  0.00     0.136 C 
ATOM      2  O   UNL     1      76.471  14.049   2.272  1.00  0.00    -0.299 OA
ENDROOT
BRANCH   1   3
ATOM      3  C   UNL     1      78.348  14.943   1.099  1.00  0.00     0.053 C 
ATOM      4  C   UNL     1      78.525  13.923  -0.037  1.00  0.00     0.016 C 
BRANCH   3   5
ATOM      5  C   UNL     1      77.728  16.279   0.615  1.00  0.00     0.015 C 
BRANCH   5   6
ATOM      6  C   UNL     1      77.808  17.507   1.548  1.00  0.00     0.028 C 
BRANCH   6   7
ATOM      7  C   UNL     1      79.086  18.313   1.545  1.00  0.00    -0.028 C 
ATOM      8  C   UNL     1      80.048  18.303   2.493  1.00  0.00    -0.070 CG0
ATOM      9  C   UNL     1      81.374  18.934   2.137  1.00  0.00     0.039 C 
ATOM     10  G   UNL     1      79.874  17.698   3.877  1.00  0.00     0.000 G0
ENDBRANCH   6   7
ENDBRANCH   5   6
ENDBRANCH   3   5
ENDBRANCH   1   3
BRANCH   1  11
ATOM     11  C   UNL     1      78.447  14.089   3.581  1.00  0.00     0.087 C 
BRANCH  11  12
ATOM     12  C   UNL     1      78.822  15.329   4.444  1.00  0.00     0.066 C 
BRANCH  12  13
ATOM     13  C   UNL     1      79.903  16.207   3.830  1.00  0.00     0.140 C 
ATOM     14  O   UNL     1      80.794  15.657   3.198  1.00  0.00    -0.299 OA
BRANCH  13  15
ATOM     15  C   UNL     1      79.877  17.719   3.888  1.00  0.00     0.106 CG0
ATOM     16  G   UNL     1      80.048  18.305   2.497  1.00  0.00     0.000 G0
ENDBRANCH  13  15
ENDBRANCH  12  13
BRANCH  12  17
ATOM     17  C   UNL     1      79.191  14.927   5.907  1.00  0.00    -0.006 C 
ATOM     18  C   UNL     1      79.385  16.162   6.806  1.00  0.00     0.008 C 
ATOM     19  C   UNL     1      80.470  14.070   5.962  1.00  0.00     0.008 C 
ENDBRANCH  12  17
ENDBRANCH  11  12
ENDBRANCH   1  11
TORSDOF 1
ENDMDL
MODEL 2
REMARK VINA RESULT:    -0.444      2.017      4.984
REMARK INTER + INTRA:          -0.033
REMARK INTER:                  -2.586
REMARK INTRA:                   2.553
REMARK UNBOUND:                 0.644
REMARK SMILES CC1=CCC[C@H](C)C(=O)C[C@@H](C(C)C)C(=O)C1
REMARK SMILES IDX 8 1 9 2 6 3 7 4 5 5 4 6 3 7 2 8 1 9 10 11 11 12 15 13 16 14
REMARK SMILES IDX 17 15 12 17 13 18 14 19
REMARK H PARENT
REMARK Flexibility Score: 70.00
ROOT
ATOM      1  C   UNL     1      79.502  16.379   5.130  1.00  0.00     0.136 C 
ATOM      2  O   UNL     1      78.877  17.248   5.724  1.00  0.00    -0.299 OA
ENDROOT
BRANCH   1   3
ATOM      3  C   UNL     1      79.878  15.083   5.830  1.00  0.00     0.053 C 
ATOM      4  C   UNL     1      78.897  14.683   6.944  1.00  0.00     0.016 C 
BRANCH   3   5
ATOM      5  C   UNL     1      80.173  13.923   4.845  1.00  0.00     0.015 C 
BRANCH   5   6
ATOM      6  C   UNL     1      79.457  13.920   3.477  1.00  0.00     0.028 C 
BRANCH   6   7
ATOM      7  C   UNL     1      77.947  13.892   3.471  1.00  0.00    -0.028 C 
ATOM      8  C   UNL     1      77.136  14.306   2.472  1.00  0.00    -0.070 CG0
ATOM      9  C   UNL     1      75.685  13.892   2.546  1.00  0.00     0.039 C 
ATOM     10  G   UNL     1      77.598  15.149   1.295  1.00  0.00     0.000 G0
ENDBRANCH   6   7
ENDBRANCH   5   6
ENDBRANCH   3   5
ENDBRANCH   1   3
BRANCH   1  11
ATOM     11  C   UNL     1      79.999  16.648   3.723  1.00  0.00     0.087 C 
BRANCH  11  12
ATOM     12  C   UNL     1      78.907  16.982   2.665  1.00  0.00     0.066 C 
BRANCH  12  13
ATOM     13  C   UNL     1      78.799  15.960   1.543  1.00  0.00     0.140 C 
ATOM     14  O   UNL     1      79.802  15.730   0.881  1.00  0.00    -0.299 OA
BRANCH  13  15
ATOM     15  C   UNL     1      77.546  15.156   1.269  1.00  0.00     0.106 CG0
ATOM     16  G   UNL     1      77.166  14.336   2.491  1.00  0.00     0.000 G0
ENDBRANCH  13  15
ENDBRANCH  12  13
BRANCH  12  17
ATOM     17  C   UNL     1      79.077  18.425   2.093  1.00  0.00    -0.006 C 
ATOM     18  C   UNL     1      78.066  18.714   0.968  1.00  0.00     0.008 C 
ATOM     19  C   UNL     1      80.500  18.666   1.555  1.00  0.00     0.008 C 
ENDBRANCH  12  17
ENDBRANCH  11  12
ENDBRANCH   1  11
TORSDOF 1
ENDMDL
