MODEL 1
REMARK VINA RESULT:    -4.248      0.000      0.000
REMARK INTER + INTRA:          -7.370
REMARK INTER:                  -6.731
REMARK INTRA:                  -0.638
REMARK UNBOUND:                -0.638
REMARK SMILES CCCCCCCCCCCC(=O)[O-]
REMARK SMILES IDX 7 1 8 2 9 3 10 4 11 5 12 6 13 7 14 8 6 9 5 10 4 11 3 12 2 13
REMARK SMILES IDX 1 14
REMARK H PARENT
REMARK Flexibility Score: inf
ROOT
ATOM      1  C   UNL     1      18.669  -4.420  43.278  1.00  0.00     0.000 C 
ENDROOT
BRANCH   1   2
ATOM      2  C   UNL     1      20.052  -3.778  43.464  1.00  0.00     0.000 C 
BRANCH   2   3
ATOM      3  C   UNL     1      20.323  -3.475  44.945  1.00  0.00     0.000 C 
BRANCH   3   4
ATOM      4  C   UNL     1      21.727  -2.894  45.189  1.00  0.00     0.006 C 
BRANCH   4   5
ATOM      5  C   UNL     1      22.294  -2.083  44.012  1.00  0.00     0.053 C 
BRANCH   5   6
ATOM      6  C   UNL     1      22.825  -0.753  44.449  1.00  0.00     0.041 C 
ATOM      7  O   UNL     1      23.749  -0.689  45.304  1.00  0.00    -0.550 OA
ATOM      8  O   UNL     1      22.326   0.414  43.888  1.00  0.00    -0.550 OA
ENDBRANCH   5   6
ENDBRANCH   4   5
ENDBRANCH   3   4
ENDBRANCH   2   3
ENDBRANCH   1   2
BRANCH   1   9
ATOM      9  C   UNL     1      18.735  -5.948  43.095  1.00  0.00     0.000 C 
BRANCH   9  10
ATOM     10  C   UNL     1      18.500  -6.767  44.377  1.00  0.00    -0.000 C 
BRANCH  10  11
ATOM     11  C   UNL     1      19.733  -7.581  44.804  1.00  0.00    -0.000 C 
BRANCH  11  12
ATOM     12  C   UNL     1      20.618  -7.977  43.612  1.00  0.00    -0.000 C 
BRANCH  12  13
ATOM     13  C   UNL     1      20.553  -9.481  43.306  1.00  0.00    -0.003 C 
ATOM     14  C   UNL     1      21.951 -10.088  43.229  1.00  0.00     0.004 C 
ENDBRANCH  12  13
ENDBRANCH  11  12
ENDBRANCH  10  11
ENDBRANCH   9  10
ENDBRANCH   1   9
TORSDOF 10
ENDMDL
MODEL 2
REMARK VINA RESULT:    -4.161      1.579      3.213
REMARK INTER + INTRA:          -7.233
REMARK INTER:                  -5.828
REMARK INTRA:                  -1.404
REMARK UNBOUND:                -0.638
REMARK SMILES CCCCCCCCCCCC(=O)[O-]
REMARK SMILES IDX 7 1 8 2 9 3 10 4 11 5 12 6 13 7 14 8 6 9 5 10 4 11 3 12 2 13
REMARK SMILES IDX 1 14
REMARK H PARENT
REMARK Flexibility Score: inf
ROOT
ATOM      1  C   UNL     1      19.537  -6.622  47.069  1.00  0.00     0.000 C 
ENDROOT
BRANCH   1   2
ATOM      2  C   UNL     1      20.872  -5.882  46.899  1.00  0.00     0.000 C 
BRANCH   2   3
ATOM      3  C   UNL     1      20.643  -4.435  46.440  1.00  0.00     0.000 C 
BRANCH   3   4
ATOM      4  C   UNL     1      21.896  -3.806  45.803  1.00  0.00     0.006 C 
BRANCH   4   5
ATOM      5  C   UNL     1      21.602  -2.660  44.819  1.00  0.00     0.053 C 
BRANCH   5   6
ATOM      6  C   UNL     1      22.406  -1.435  45.127  1.00  0.00     0.041 C 
ATOM      7  O   UNL     1      22.444  -0.479  44.308  1.00  0.00    -0.550 OA
ATOM      8  O   UNL     1      23.087  -1.334  46.333  1.00  0.00    -0.550 OA
ENDBRANCH   5   6
ENDBRANCH   4   5
ENDBRANCH   3   4
ENDBRANCH   2   3
ENDBRANCH   1   2
BRANCH   1   9
ATOM      9  C   UNL     1      18.885  -7.003  45.727  1.00  0.00     0.000 C 
BRANCH   9  10
ATOM     10  C   UNL     1      19.831  -7.667  44.710  1.00  0.00    -0.000 C 
BRANCH  10  11
ATOM     11  C   UNL     1      19.645  -7.131  43.280  1.00  0.00    -0.000 C 
BRANCH  11  12
ATOM     12  C   UNL     1      20.451  -5.849  43.022  1.00  0.00    -0.000 C 
BRANCH  12  13
ATOM     13  C   UNL     1      19.620  -4.764  42.322  1.00  0.00    -0.003 C 
ATOM     14  C   UNL     1      18.508  -4.250  43.231  1.00  0.00     0.004 C 
ENDBRANCH  12  13
ENDBRANCH  11  12
ENDBRANCH  10  11
ENDBRANCH   9  10
ENDBRANCH   1   9
TORSDOF 10
ENDMDL
MODEL 3
REMARK VINA RESULT:    -4.142      1.283      2.030
REMARK INTER + INTRA:          -7.202
REMARK INTER:                  -5.821
REMARK INTRA:                  -1.381
REMARK UNBOUND:                -0.638
REMARK SMILES CCCCCCCCCCCC(=O)[O-]
REMARK SMILES IDX 7 1 8 2 9 3 10 4 11 5 12 6 13 7 14 8 6 9 5 10 4 11 3 12 2 13
REMARK SMILES IDX 1 14
REMARK H PARENT
REMARK Flexibility Score: inf
ROOT
ATOM      1  C   UNL     1      19.020  -4.192  43.330  1.00  0.00     0.000 C 
ENDROOT
BRANCH   1   2
ATOM      2  C   UNL     1      20.362  -3.502  43.615  1.00  0.00     0.000 C 
BRANCH   2   3
ATOM      3  C   UNL     1      20.605  -3.377  45.127  1.00  0.00     0.000 C 
BRANCH   3   4
ATOM      4  C   UNL     1      22.100  -3.312  45.488  1.00  0.00     0.006 C 
BRANCH   4   5
ATOM      5  C   UNL     1      22.976  -2.596  44.446  1.00  0.00     0.053 C 
BRANCH   5   6
ATOM      6  C   UNL     1      23.138  -1.139  44.753  1.00  0.00     0.041 C 
ATOM      7  O   UNL     1      23.936  -0.766  45.654  1.00  0.00    -0.550 OA
ATOM      8  O   UNL     1      22.432  -0.191  44.024  1.00  0.00    -0.550 OA
ENDBRANCH   5   6
ENDBRANCH   4   5
ENDBRANCH   3   4
ENDBRANCH   2   3
ENDBRANCH   1   2
BRANCH   1   9
ATOM      9  C   UNL     1      19.178  -5.666  42.912  1.00  0.00     0.000 C 
BRANCH   9  10
ATOM     10  C   UNL     1      20.631  -6.177  42.865  1.00  0.00    -0.000 C 
BRANCH  10  11
ATOM     11  C   UNL     1      20.867  -7.396  43.773  1.00  0.00    -0.000 C 
BRANCH  11  12
ATOM     12  C   UNL     1      21.597  -7.029  45.074  1.00  0.00    -0.000 C 
BRANCH  12  13
ATOM     13  C   UNL     1      20.829  -7.477  46.326  1.00  0.00    -0.003 C 
ATOM     14  C   UNL     1      19.524  -6.699  46.478  1.00  0.00     0.004 C 
ENDBRANCH  12  13
ENDBRANCH  11  12
ENDBRANCH  10  11
ENDBRANCH   9  10
ENDBRANCH   1   9
TORSDOF 10
ENDMDL
MODEL 4
REMARK VINA RESULT:    -4.122      3.873      5.683
REMARK INTER + INTRA:          -7.170
REMARK INTER:                  -5.676
REMARK INTRA:                  -1.494
REMARK UNBOUND:                -0.638
REMARK SMILES CCCCCCCCCCCC(=O)[O-]
REMARK SMILES IDX 7 1 8 2 9 3 10 4 11 5 12 6 13 7 14 8 6 9 5 10 4 11 3 12 2 13
REMARK SMILES IDX 1 14
REMARK H PARENT
REMARK Flexibility Score: inf
ROOT
ATOM      1  C   UNL     1      19.655  -7.751  43.936  1.00  0.00     0.000 C 
ENDROOT
BRANCH   1   2
ATOM      2  C   UNL     1      20.132  -7.751  45.396  1.00  0.00     0.000 C 
BRANCH   2   3
ATOM      3  C   UNL     1      19.198  -6.910  46.279  1.00  0.00     0.000 C 
BRANCH   3   4
ATOM      4  C   UNL     1      19.909  -6.324  47.512  1.00  0.00     0.006 C 
BRANCH   4   5
ATOM      5  C   UNL     1      21.106  -7.152  48.009  1.00  0.00     0.053 C 
BRANCH   5   6
ATOM      6  C   UNL     1      21.162  -7.218  49.504  1.00  0.00     0.041 C 
ATOM      7  O   UNL     1      22.273  -7.220  50.098  1.00  0.00    -0.550 OA
ATOM      8  O   UNL     1      19.987  -7.243  50.244  1.00  0.00    -0.550 OA
ENDBRANCH   5   6
ENDBRANCH   4   5
ENDBRANCH   3   4
ENDBRANCH   2   3
ENDBRANCH   1   2
BRANCH   1   9
ATOM      9  C   UNL     1      18.620  -6.648  43.641  1.00  0.00     0.000 C 
BRANCH   9  10
ATOM     10  C   UNL     1      19.187  -5.392  42.953  1.00  0.00    -0.000 C 
BRANCH  10  11
ATOM     11  C   UNL     1      18.946  -4.107  43.762  1.00  0.00    -0.000 C 
BRANCH  11  12
ATOM     12  C   UNL     1      20.146  -3.733  44.647  1.00  0.00    -0.000 C 
BRANCH  12  13
ATOM     13  C   UNL     1      21.441  -4.433  44.206  1.00  0.00    -0.003 C 
ATOM     14  C   UNL     1      22.360  -4.690  45.397  1.00  0.00     0.004 C 
ENDBRANCH  12  13
ENDBRANCH  11  12
ENDBRANCH  10  11
ENDBRANCH   9  10
ENDBRANCH   1   9
TORSDOF 10
ENDMDL
MODEL 5
REMARK VINA RESULT:    -4.113      4.856      6.155
REMARK INTER + INTRA:          -7.155
REMARK INTER:                  -6.145
REMARK INTRA:                  -1.011
REMARK UNBOUND:                -0.638
REMARK SMILES CCCCCCCCCCCC(=O)[O-]
REMARK SMILES IDX 7 1 8 2 9 3 10 4 11 5 12 6 13 7 14 8 6 9 5 10 4 11 3 12 2 13
REMARK SMILES IDX 1 14
REMARK H PARENT
REMARK Flexibility Score: inf
ROOT
ATOM      1  C   UNL     1      20.762  -5.348  46.850  1.00  0.00     0.000 C 
ENDROOT
BRANCH   1   2
ATOM      2  C   UNL     1      22.128  -5.908  46.428  1.00  0.00     0.000 C 
BRANCH   2   3
ATOM      3  C   UNL     1      22.437  -5.557  44.965  1.00  0.00     0.000 C 
BRANCH   3   4
ATOM      4  C   UNL     1      22.028  -6.671  43.985  1.00  0.00     0.006 C 
BRANCH   4   5
ATOM      5  C   UNL     1      20.841  -6.313  43.074  1.00  0.00     0.053 C 
BRANCH   5   6
ATOM      6  C   UNL     1      19.545  -6.841  43.606  1.00  0.00     0.041 C 
ATOM      7  O   UNL     1      19.492  -7.988  44.125  1.00  0.00    -0.550 OA
ATOM      8  O   UNL     1      18.401  -6.054  43.559  1.00  0.00    -0.550 OA
ENDBRANCH   5   6
ENDBRANCH   4   5
ENDBRANCH   3   4
ENDBRANCH   2   3
ENDBRANCH   1   2
BRANCH   1   9
ATOM      9  C   UNL     1      19.813  -6.429  47.402  1.00  0.00     0.000 C 
BRANCH   9  10
ATOM     10  C   UNL     1      20.462  -7.424  48.382  1.00  0.00    -0.000 C 
BRANCH  10  11
ATOM     11  C   UNL     1      20.130  -7.120  49.852  1.00  0.00    -0.000 C 
BRANCH  11  12
ATOM     12  C   UNL     1      21.374  -7.141  50.754  1.00  0.00    -0.000 C 
BRANCH  12  13
ATOM     13  C   UNL     1      22.490  -6.221  50.236  1.00  0.00    -0.003 C 
ATOM     14  C   UNL     1      22.819  -5.130  51.252  1.00  0.00     0.004 C 
ENDBRANCH  12  13
ENDBRANCH  11  12
ENDBRANCH  10  11
ENDBRANCH   9  10
ENDBRANCH   1   9
TORSDOF 10
ENDMDL
MODEL 6
REMARK VINA RESULT:    -4.098      4.395      6.123
REMARK INTER + INTRA:          -7.133
REMARK INTER:                  -6.239
REMARK INTRA:                  -0.894
REMARK UNBOUND:                -0.638
REMARK SMILES CCCCCCCCCCCC(=O)[O-]
REMARK SMILES IDX 7 1 8 2 9 3 10 4 11 5 12 6 13 7 14 8 6 9 5 10 4 11 3 12 2 13
REMARK SMILES IDX 1 14
REMARK H PARENT
REMARK Flexibility Score: inf
ROOT
ATOM      1  C   UNL     1      19.417  -6.772  46.193  1.00  0.00     0.000 C 
ENDROOT
BRANCH   1   2
ATOM      2  C   UNL     1      20.161  -6.127  47.371  1.00  0.00     0.000 C 
BRANCH   2   3
ATOM      3  C   UNL     1      20.748  -7.198  48.303  1.00  0.00     0.000 C 
BRANCH   3   4
ATOM      4  C   UNL     1      20.125  -7.172  49.710  1.00  0.00     0.006 C 
BRANCH   4   5
ATOM      5  C   UNL     1      21.081  -7.596  50.837  1.00  0.00     0.053 C 
BRANCH   5   6
ATOM      6  C   UNL     1      22.381  -6.856  50.781  1.00  0.00     0.041 C 
ATOM      7  O   UNL     1      22.424  -5.626  51.054  1.00  0.00    -0.550 OA
ATOM      8  O   UNL     1      23.552  -7.529  50.458  1.00  0.00    -0.550 OA
ENDBRANCH   5   6
ENDBRANCH   4   5
ENDBRANCH   3   4
ENDBRANCH   2   3
ENDBRANCH   1   2
BRANCH   1   9
ATOM      9  C   UNL     1      20.332  -7.637  45.304  1.00  0.00     0.000 C 
BRANCH   9  10
ATOM     10  C   UNL     1      20.050  -7.541  43.794  1.00  0.00    -0.000 C 
BRANCH  10  11
ATOM     11  C   UNL     1      20.710  -6.316  43.138  1.00  0.00    -0.000 C 
BRANCH  11  12
ATOM     12  C   UNL     1      19.682  -5.279  42.659  1.00  0.00    -0.000 C 
BRANCH  12  13
ATOM     13  C   UNL     1      19.630  -4.041  43.567  1.00  0.00    -0.003 C 
ATOM     14  C   UNL     1      20.969  -3.812  44.262  1.00  0.00     0.004 C 
ENDBRANCH  12  13
ENDBRANCH  11  12
ENDBRANCH  10  11
ENDBRANCH   9  10
ENDBRANCH   1   9
TORSDOF 10
ENDMDL
MODEL 7
REMARK VINA RESULT:    -4.072      2.327      3.418
REMARK INTER + INTRA:          -7.090
REMARK INTER:                  -6.062
REMARK INTRA:                  -1.028
REMARK UNBOUND:                -0.638
REMARK SMILES CCCCCCCCCCCC(=O)[O-]
REMARK SMILES IDX 7 1 8 2 9 3 10 4 11 5 12 6 13 7 14 8 6 9 5 10 4 11 3 12 2 13
REMARK SMILES IDX 1 14
REMARK H PARENT
REMARK Flexibility Score: inf
ROOT
ATOM      1  C   UNL     1      18.487  -5.945  43.230  1.00  0.00     0.000 C 
ENDROOT
BRANCH   1   2
ATOM      2  C   UNL     1      19.831  -5.277  42.903  1.00  0.00     0.000 C 
BRANCH   2   3
ATOM      3  C   UNL     1      19.866  -3.832  43.422  1.00  0.00     0.000 C 
BRANCH   3   4
ATOM      4  C   UNL     1      20.469  -3.719  44.834  1.00  0.00     0.006 C 
BRANCH   4   5
ATOM      5  C   UNL     1      21.890  -4.292  44.966  1.00  0.00     0.053 C 
BRANCH   5   6
ATOM      6  C   UNL     1      22.941  -3.260  44.694  1.00  0.00     0.041 C 
ATOM      7  O   UNL     1      22.621  -2.049  44.562  1.00  0.00    -0.550 OA
ATOM      8  O   UNL     1      24.277  -3.630  44.618  1.00  0.00    -0.550 OA
ENDBRANCH   5   6
ENDBRANCH   4   5
ENDBRANCH   3   4
ENDBRANCH   2   3
ENDBRANCH   1   2
BRANCH   1   9
ATOM      9  C   UNL     1      18.645  -7.252  44.031  1.00  0.00     0.000 C 
BRANCH   9  10
ATOM     10  C   UNL     1      18.504  -7.100  45.557  1.00  0.00    -0.000 C 
BRANCH  10  11
ATOM     11  C   UNL     1      19.854  -7.152  46.292  1.00  0.00    -0.000 C 
BRANCH  11  12
ATOM     12  C   UNL     1      19.825  -6.403  47.633  1.00  0.00    -0.000 C 
BRANCH  12  13
ATOM     13  C   UNL     1      20.860  -6.944  48.631  1.00  0.00    -0.003 C 
ATOM     14  C   UNL     1      20.207  -7.291  49.966  1.00  0.00     0.004 C 
ENDBRANCH  12  13
ENDBRANCH  11  12
ENDBRANCH  10  11
ENDBRANCH   9  10
ENDBRANCH   1   9
TORSDOF 10
ENDMDL
MODEL 8
REMARK VINA RESULT:    -4.065      3.949      5.392
REMARK INTER + INTRA:          -7.081
REMARK INTER:                  -5.636
REMARK INTRA:                  -1.444
REMARK UNBOUND:                -0.638
REMARK SMILES CCCCCCCCCCCC(=O)[O-]
REMARK SMILES IDX 7 1 8 2 9 3 10 4 11 5 12 6 13 7 14 8 6 9 5 10 4 11 3 12 2 13
REMARK SMILES IDX 1 14
REMARK H PARENT
REMARK Flexibility Score: inf
ROOT
ATOM      1  C   UNL     1      22.032  -5.457  44.681  1.00  0.00     0.000 C 
ENDROOT
BRANCH   1   2
ATOM      2  C   UNL     1      21.862  -5.884  46.146  1.00  0.00     0.000 C 
BRANCH   2   3
ATOM      3  C   UNL     1      20.530  -5.375  46.716  1.00  0.00     0.000 C 
BRANCH   3   4
ATOM      4  C   UNL     1      19.864  -6.383  47.670  1.00  0.00     0.006 C 
BRANCH   4   5
ATOM      5  C   UNL     1      20.824  -7.429  48.262  1.00  0.00     0.053 C 
BRANCH   5   6
ATOM      6  C   UNL     1      21.189  -7.118  49.680  1.00  0.00     0.041 C 
ATOM      7  O   UNL     1      20.581  -7.679  50.630  1.00  0.00    -0.550 OA
ATOM      8  O   UNL     1      22.224  -6.233  49.954  1.00  0.00    -0.550 OA
ENDBRANCH   5   6
ENDBRANCH   4   5
ENDBRANCH   3   4
ENDBRANCH   2   3
ENDBRANCH   1   2
BRANCH   1   9
ATOM      9  C   UNL     1      21.382  -4.095  44.372  1.00  0.00     0.000 C 
BRANCH   9  10
ATOM     10  C   UNL     1      20.199  -4.147  43.388  1.00  0.00    -0.000 C 
BRANCH  10  11
ATOM     11  C   UNL     1      19.847  -5.578  42.950  1.00  0.00    -0.000 C 
BRANCH  11  12
ATOM     12  C   UNL     1      18.403  -5.965  43.306  1.00  0.00    -0.000 C 
BRANCH  12  13
ATOM     13  C   UNL     1      18.336  -7.128  44.307  1.00  0.00    -0.003 C 
ATOM     14  C   UNL     1      19.494  -8.100  44.099  1.00  0.00     0.004 C 
ENDBRANCH  12  13
ENDBRANCH  11  12
ENDBRANCH  10  11
ENDBRANCH   9  10
ENDBRANCH   1   9
TORSDOF 10
ENDMDL
MODEL 9
REMARK VINA RESULT:    -4.059      5.298      7.337
REMARK INTER + INTRA:          -7.070
REMARK INTER:                  -6.042
REMARK INTRA:                  -1.028
REMARK UNBOUND:                -0.638
REMARK SMILES CCCCCCCCCCCC(=O)[O-]
REMARK SMILES IDX 7 1 8 2 9 3 10 4 11 5 12 6 13 7 14 8 6 9 5 10 4 11 3 12 2 13
REMARK SMILES IDX 1 14
REMARK H PARENT
REMARK Flexibility Score: inf
ROOT
ATOM      1  C   UNL     1      20.319  -7.333  50.229  1.00  0.00     0.000 C 
ENDROOT
BRANCH   1   2
ATOM      2  C   UNL     1      20.619  -7.449  48.727  1.00  0.00     0.000 C 
BRANCH   2   3
ATOM      3  C   UNL     1      19.860  -6.377  47.931  1.00  0.00     0.000 C 
BRANCH   3   4
ATOM      4  C   UNL     1      20.245  -6.356  46.441  1.00  0.00     0.006 C 
BRANCH   4   5
ATOM      5  C   UNL     1      19.147  -6.865  45.492  1.00  0.00     0.053 C 
BRANCH   5   6
ATOM      6  C   UNL     1      19.713  -7.614  44.326  1.00  0.00     0.041 C 
ATOM      7  O   UNL     1      20.106  -6.991  43.303  1.00  0.00    -0.550 OA
ATOM      8  O   UNL     1      19.840  -8.996  44.380  1.00  0.00    -0.550 OA
ENDBRANCH   5   6
ENDBRANCH   4   5
ENDBRANCH   3   4
ENDBRANCH   2   3
ENDBRANCH   1   2
BRANCH   1   9
ATOM      9  C   UNL     1      21.571  -7.507  51.108  1.00  0.00     0.000 C 
BRANCH   9  10
ATOM     10  C   UNL     1      22.814  -6.735  50.628  1.00  0.00    -0.000 C 
BRANCH  10  11
ATOM     11  C   UNL     1      22.932  -5.337  51.259  1.00  0.00    -0.000 C 
BRANCH  11  12
ATOM     12  C   UNL     1      23.226  -4.245  50.219  1.00  0.00    -0.000 C 
BRANCH  12  13
ATOM     13  C   UNL     1      23.115  -4.762  48.776  1.00  0.00    -0.003 C 
ATOM     14  C   UNL     1      22.690  -3.647  47.824  1.00  0.00     0.004 C 
ENDBRANCH  12  13
ENDBRANCH  11  12
ENDBRANCH  10  11
ENDBRANCH   9  10
ENDBRANCH   1   9
TORSDOF 10
ENDMDL
