MODEL 1
REMARK VINA RESULT:    -4.338      0.000      0.000
REMARK INTER + INTRA:          -5.655
REMARK INTER:                  -5.352
REMARK INTRA:                  -0.303
REMARK UNBOUND:                -0.303
REMARK SMILES CCCCCC(C)=O
REMARK SMILES IDX 4 1 3 2 2 3 1 4 5 5 6 6 8 7 7 8
REMARK H PARENT
REMARK Flexibility Score: inf
ROOT
ATOM      1  C   UNL     1      12.979 -30.009 -22.137  1.00  0.00     0.008 C 
ENDROOT
BRANCH   1   2
ATOM      2  C   UNL     1      12.203 -28.774 -22.618  1.00  0.00     0.000 C 
BRANCH   2   3
ATOM      3  C   UNL     1      10.785 -29.117 -23.098  1.00  0.00    -0.003 C 
ATOM      4  C   UNL     1      10.770 -30.229 -24.147  1.00  0.00     0.004 C 
ENDBRANCH   2   3
ENDBRANCH   1   2
BRANCH   1   5
ATOM      5  C   UNL     1      12.686 -30.300 -20.660  1.00  0.00     0.075 C 
BRANCH   5   6
ATOM      6  C   UNL     1      12.358 -31.756 -20.458  1.00  0.00     0.129 C 
ATOM      7  O   UNL     1      12.552 -32.270 -19.366  1.00  0.00    -0.300 OA
ATOM      8  C   UNL     1      11.806 -32.595 -21.572  1.00  0.00     0.087 C 
ENDBRANCH   5   6
ENDBRANCH   1   5
TORSDOF 4
ENDMDL
MODEL 2
REMARK VINA RESULT:    -4.299      2.316      4.137
REMARK INTER + INTRA:          -5.608
REMARK INTER:                  -5.416
REMARK INTRA:                  -0.192
REMARK UNBOUND:                -0.303
REMARK SMILES CCCCCC(C)=O
REMARK SMILES IDX 4 1 3 2 2 3 1 4 5 5 6 6 8 7 7 8
REMARK H PARENT
REMARK Flexibility Score: inf
ROOT
ATOM      1  C   UNL     1      12.637 -29.920 -21.960  1.00  0.00     0.008 C 
ENDROOT
BRANCH   1   2
ATOM      2  C   UNL     1      12.678 -30.520 -20.548  1.00  0.00     0.000 C 
BRANCH   2   3
ATOM      3  C   UNL     1      12.268 -32.001 -20.524  1.00  0.00    -0.003 C 
ATOM      4  C   UNL     1      12.161 -32.561 -19.106  1.00  0.00     0.004 C 
ENDBRANCH   2   3
ENDBRANCH   1   2
BRANCH   1   5
ATOM      5  C   UNL     1      11.855 -30.824 -22.920  1.00  0.00     0.075 C 
BRANCH   5   6
ATOM      6  C   UNL     1      10.871 -30.020 -23.728  1.00  0.00     0.129 C 
ATOM      7  O   UNL     1      10.437 -30.478 -24.776  1.00  0.00    -0.300 OA
ATOM      8  C   UNL     1      10.418 -28.661 -23.284  1.00  0.00     0.087 C 
ENDBRANCH   5   6
ENDBRANCH   1   5
TORSDOF 4
ENDMDL
MODEL 3
REMARK VINA RESULT:    -4.167      2.469      4.111
REMARK INTER + INTRA:          -5.445
REMARK INTER:                  -5.296
REMARK INTRA:                  -0.149
REMARK UNBOUND:                -0.303
REMARK SMILES CCCCCC(C)=O
REMARK SMILES IDX 4 1 3 2 2 3 1 4 5 5 6 6 8 7 7 8
REMARK H PARENT
REMARK Flexibility Score: inf
ROOT
ATOM      1  C   UNL     1      12.730 -29.680 -21.812  1.00  0.00     0.008 C 
ENDROOT
BRANCH   1   2
ATOM      2  C   UNL     1      12.934 -30.154 -20.366  1.00  0.00     0.000 C 
BRANCH   2   3
ATOM      3  C   UNL     1      13.733 -29.149 -19.522  1.00  0.00    -0.003 C 
ATOM      4  C   UNL     1      14.559 -28.187 -20.374  1.00  0.00     0.004 C 
ENDBRANCH   2   3
ENDBRANCH   1   2
BRANCH   1   5
ATOM      5  C   UNL     1      11.941 -30.715 -22.623  1.00  0.00     0.075 C 
BRANCH   5   6
ATOM      6  C   UNL     1      10.995 -30.035 -23.577  1.00  0.00     0.129 C 
ATOM      7  O   UNL     1      10.706 -30.584 -24.631  1.00  0.00    -0.300 OA
ATOM      8  C   UNL     1      10.405 -28.691 -23.270  1.00  0.00     0.087 C 
ENDBRANCH   5   6
ENDBRANCH   1   5
TORSDOF 4
ENDMDL
MODEL 4
REMARK VINA RESULT:    -4.146      1.979      4.098
REMARK INTER + INTRA:          -5.419
REMARK INTER:                  -5.222
REMARK INTRA:                  -0.197
REMARK UNBOUND:                -0.303
REMARK SMILES CCCCCC(C)=O
REMARK SMILES IDX 4 1 3 2 2 3 1 4 5 5 6 6 8 7 7 8
REMARK H PARENT
REMARK Flexibility Score: inf
ROOT
ATOM      1  C   UNL     1      12.438 -31.655 -21.802  1.00  0.00     0.008 C 
ENDROOT
BRANCH   1   2
ATOM      2  C   UNL     1      11.919 -32.394 -20.560  1.00  0.00     0.000 C 
BRANCH   2   3
ATOM      3  C   UNL     1      12.680 -32.009 -19.282  1.00  0.00    -0.003 C 
ATOM      4  C   UNL     1      13.100 -30.540 -19.265  1.00  0.00     0.004 C 
ENDBRANCH   2   3
ENDBRANCH   1   2
BRANCH   1   5
ATOM      5  C   UNL     1      11.278 -31.103 -22.638  1.00  0.00     0.075 C 
BRANCH   5   6
ATOM      6  C   UNL     1      11.427 -29.619 -22.843  1.00  0.00     0.129 C 
ATOM      7  O   UNL     1      12.463 -29.066 -22.503  1.00  0.00    -0.300 OA
ATOM      8  C   UNL     1      10.327 -28.797 -23.446  1.00  0.00     0.087 C 
ENDBRANCH   5   6
ENDBRANCH   1   5
TORSDOF 4
ENDMDL
MODEL 5
REMARK VINA RESULT:    -4.027      2.053      2.981
REMARK INTER + INTRA:          -5.272
REMARK INTER:                  -5.179
REMARK INTRA:                  -0.094
REMARK UNBOUND:                -0.303
REMARK SMILES CCCCCC(C)=O
REMARK SMILES IDX 4 1 3 2 2 3 1 4 5 5 6 6 8 7 7 8
REMARK H PARENT
REMARK Flexibility Score: inf
ROOT
ATOM      1  C   UNL     1      12.602 -30.422 -21.247  1.00  0.00     0.008 C 
ENDROOT
BRANCH   1   2
ATOM      2  C   UNL     1      11.921 -30.927 -22.527  1.00  0.00     0.000 C 
BRANCH   2   3
ATOM      3  C   UNL     1      11.166 -29.817 -23.273  1.00  0.00    -0.003 C 
ATOM      4  C   UNL     1      10.469 -30.322 -24.535  1.00  0.00     0.004 C 
ENDBRANCH   2   3
ENDBRANCH   1   2
BRANCH   1   5
ATOM      5  C   UNL     1      13.379 -29.127 -21.513  1.00  0.00     0.075 C 
BRANCH   5   6
ATOM      6  C   UNL     1      14.067 -28.650 -20.260  1.00  0.00     0.129 C 
ATOM      7  O   UNL     1      13.989 -29.320 -19.240  1.00  0.00    -0.300 OA
ATOM      8  C   UNL     1      14.838 -27.364 -20.232  1.00  0.00     0.087 C 
ENDBRANCH   5   6
ENDBRANCH   1   5
TORSDOF 4
ENDMDL
MODEL 6
REMARK VINA RESULT:    -3.923     13.201     14.761
REMARK INTER + INTRA:          -5.144
REMARK INTER:                  -4.854
REMARK INTRA:                  -0.290
REMARK UNBOUND:                -0.303
REMARK SMILES CCCCCC(C)=O
REMARK SMILES IDX 4 1 3 2 2 3 1 4 5 5 6 6 8 7 7 8
REMARK H PARENT
REMARK Flexibility Score: inf
ROOT
ATOM      1  C   UNL     1      10.747 -30.244 -34.999  1.00  0.00     0.008 C 
ENDROOT
BRANCH   1   2
ATOM      2  C   UNL     1      11.961 -30.531 -34.103  1.00  0.00     0.000 C 
BRANCH   2   3
ATOM      3  C   UNL     1      13.256 -29.910 -34.646  1.00  0.00    -0.003 C 
ATOM      4  C   UNL     1      13.075 -28.458 -35.088  1.00  0.00     0.004 C 
ENDBRANCH   2   3
ENDBRANCH   1   2
BRANCH   1   5
ATOM      5  C   UNL     1      10.550 -31.361 -36.030  1.00  0.00     0.075 C 
BRANCH   5   6
ATOM      6  C   UNL     1      10.095 -30.795 -37.349  1.00  0.00     0.129 C 
ATOM      7  O   UNL     1       9.255 -31.396 -38.004  1.00  0.00    -0.300 OA
ATOM      8  C   UNL     1      10.657 -29.513 -37.887  1.00  0.00     0.087 C 
ENDBRANCH   5   6
ENDBRANCH   1   5
TORSDOF 4
ENDMDL
MODEL 7
REMARK VINA RESULT:    -3.908     13.288     15.103
REMARK INTER + INTRA:          -5.126
REMARK INTER:                  -4.868
REMARK INTRA:                  -0.258
REMARK UNBOUND:                -0.303
REMARK SMILES CCCCCC(C)=O
REMARK SMILES IDX 4 1 3 2 2 3 1 4 5 5 6 6 8 7 7 8
REMARK H PARENT
REMARK Flexibility Score: inf
ROOT
ATOM      1  C   UNL     1      10.361 -31.378 -36.899  1.00  0.00     0.008 C 
ENDROOT
BRANCH   1   2
ATOM      2  C   UNL     1       9.623 -30.914 -38.163  1.00  0.00     0.000 C 
BRANCH   2   3
ATOM      3  C   UNL     1      10.047 -29.507 -38.611  1.00  0.00    -0.003 C 
ATOM      4  C   UNL     1       8.874 -28.673 -39.125  1.00  0.00     0.004 C 
ENDBRANCH   2   3
ENDBRANCH   1   2
BRANCH   1   5
ATOM      5  C   UNL     1       9.989 -30.507 -35.694  1.00  0.00     0.075 C 
BRANCH   5   6
ATOM      6  C   UNL     1      11.225 -30.018 -34.986  1.00  0.00     0.129 C 
ATOM      7  O   UNL     1      11.681 -30.667 -34.055  1.00  0.00    -0.300 OA
ATOM      8  C   UNL     1      11.907 -28.745 -35.390  1.00  0.00     0.087 C 
ENDBRANCH   5   6
ENDBRANCH   1   5
TORSDOF 4
ENDMDL
MODEL 8
REMARK VINA RESULT:    -3.869     13.681     15.680
REMARK INTER + INTRA:          -5.077
REMARK INTER:                  -4.823
REMARK INTRA:                  -0.254
REMARK UNBOUND:                -0.303
REMARK SMILES CCCCCC(C)=O
REMARK SMILES IDX 4 1 3 2 2 3 1 4 5 5 6 6 8 7 7 8
REMARK H PARENT
REMARK Flexibility Score: inf
ROOT
ATOM      1  C   UNL     1       9.778 -30.524 -36.077  1.00  0.00     0.008 C 
ENDROOT
BRANCH   1   2
ATOM      2  C   UNL     1      10.840 -31.346 -35.332  1.00  0.00     0.000 C 
BRANCH   2   3
ATOM      3  C   UNL     1      11.846 -30.465 -34.575  1.00  0.00    -0.003 C 
ATOM      4  C   UNL     1      12.002 -29.078 -35.198  1.00  0.00     0.004 C 
ENDBRANCH   2   3
ENDBRANCH   1   2
BRANCH   1   5
ATOM      5  C   UNL     1       9.685 -30.951 -37.546  1.00  0.00     0.075 C 
BRANCH   5   6
ATOM      6  C   UNL     1      10.244 -29.882 -38.448  1.00  0.00     0.129 C 
ATOM      7  O   UNL     1      11.451 -29.819 -38.629  1.00  0.00    -0.300 OA
ATOM      8  C   UNL     1       9.352 -28.883 -39.124  1.00  0.00     0.087 C 
ENDBRANCH   5   6
ENDBRANCH   1   5
TORSDOF 4
ENDMDL
MODEL 9
REMARK VINA RESULT:    -3.866     13.044     14.785
REMARK INTER + INTRA:          -5.073
REMARK INTER:                  -4.785
REMARK INTRA:                  -0.289
REMARK UNBOUND:                -0.303
REMARK SMILES CCCCCC(C)=O
REMARK SMILES IDX 4 1 3 2 2 3 1 4 5 5 6 6 8 7 7 8
REMARK H PARENT
REMARK Flexibility Score: inf
ROOT
ATOM      1  C   UNL     1      11.629 -28.749 -35.622  1.00  0.00     0.008 C 
ENDROOT
BRANCH   1   2
ATOM      2  C   UNL     1      13.008 -28.834 -34.953  1.00  0.00     0.000 C 
BRANCH   2   3
ATOM      3  C   UNL     1      13.347 -30.254 -34.476  1.00  0.00    -0.003 C 
ATOM      4  C   UNL     1      12.159 -30.954 -33.815  1.00  0.00     0.004 C 
ENDBRANCH   2   3
ENDBRANCH   1   2
BRANCH   1   5
ATOM      5  C   UNL     1      11.696 -29.218 -37.080  1.00  0.00     0.075 C 
BRANCH   5   6
ATOM      6  C   UNL     1      10.456 -29.989 -37.450  1.00  0.00     0.129 C 
ATOM      7  O   UNL     1       9.645 -29.491 -38.217  1.00  0.00    -0.300 OA
ATOM      8  C   UNL     1      10.186 -31.353 -36.889  1.00  0.00     0.087 C 
ENDBRANCH   5   6
ENDBRANCH   1   5
TORSDOF 4
ENDMDL
