MODEL 1
REMARK VINA RESULT:    -3.797      0.000      0.000
REMARK INTER + INTRA:          -4.487
REMARK INTER:                  -4.463
REMARK INTRA:                  -0.024
REMARK UNBOUND:                -0.024
REMARK SMILES CCCCC(=O)[O-]
REMARK SMILES IDX 4 1 5 2 6 3 7 4 3 5 2 6 1 7
REMARK H PARENT
REMARK Flexibility Score: inf
ROOT
ATOM      1  C   UNL     1      31.266  18.858  25.654  1.00  0.00     0.053 C 
ENDROOT
BRANCH   1   2
ATOM      2  C   UNL     1      31.271  18.157  26.978  1.00  0.00     0.041 C 
ATOM      3  O   UNL     1      30.610  18.623  27.943  1.00  0.00    -0.550 OA
ATOM      4  O   UNL     1      32.032  17.008  27.154  1.00  0.00    -0.550 OA
ENDBRANCH   1   2
BRANCH   1   5
ATOM      5  C   UNL     1      32.040  18.072  24.584  1.00  0.00     0.006 C 
BRANCH   5   6
ATOM      6  C   UNL     1      32.810  18.955  23.586  1.00  0.00    -0.003 C 
ATOM      7  C   UNL     1      34.073  18.282  23.048  1.00  0.00     0.004 C 
ENDBRANCH   5   6
ENDBRANCH   1   5
TORSDOF 3
ENDMDL
MODEL 2
REMARK VINA RESULT:    -3.465      2.800      4.115
REMARK INTER + INTRA:          -4.098
REMARK INTER:                  -4.079
REMARK INTRA:                  -0.019
REMARK UNBOUND:                -0.024
REMARK SMILES CCCCC(=O)[O-]
REMARK SMILES IDX 4 1 5 2 6 3 7 4 3 5 2 6 1 7
REMARK H PARENT
REMARK Flexibility Score: inf
ROOT
ATOM      1  C   UNL     1      31.881  18.963  24.253  1.00  0.00     0.053 C 
ENDROOT
BRANCH   1   2
ATOM      2  C   UNL     1      33.073  18.900  23.349  1.00  0.00     0.041 C 
ATOM      3  O   UNL     1      33.330  19.857  22.572  1.00  0.00    -0.550 OA
ATOM      4  O   UNL     1      33.881  17.769  23.340  1.00  0.00    -0.550 OA
ENDBRANCH   1   2
BRANCH   1   5
ATOM      5  C   UNL     1      31.953  17.915  25.375  1.00  0.00     0.006 C 
BRANCH   5   6
ATOM      6  C   UNL     1      31.166  18.292  26.642  1.00  0.00    -0.003 C 
ATOM      7  C   UNL     1      31.662  17.560  27.889  1.00  0.00     0.004 C 
ENDBRANCH   5   6
ENDBRANCH   1   5
TORSDOF 3
ENDMDL
MODEL 3
REMARK VINA RESULT:    -3.045      9.945     10.460
REMARK INTER + INTRA:          -3.603
REMARK INTER:                  -3.552
REMARK INTRA:                  -0.052
REMARK UNBOUND:                -0.024
REMARK SMILES CCCCC(=O)[O-]
REMARK SMILES IDX 4 1 5 2 6 3 7 4 3 5 2 6 1 7
REMARK H PARENT
REMARK Flexibility Score: inf
ROOT
ATOM      1  C   UNL     1      28.732   9.158  20.876  1.00  0.00     0.053 C 
ENDROOT
BRANCH   1   2
ATOM      2  C   UNL     1      28.871   9.870  22.187  1.00  0.00     0.041 C 
ATOM      3  O   UNL     1      29.697  10.813  22.310  1.00  0.00    -0.550 OA
ATOM      4  O   UNL     1      28.113   9.471  23.280  1.00  0.00    -0.550 OA
ENDBRANCH   1   2
BRANCH   1   5
ATOM      5  C   UNL     1      30.073   9.048  20.136  1.00  0.00     0.006 C 
BRANCH   5   6
ATOM      6  C   UNL     1      29.956   9.130  18.604  1.00  0.00    -0.003 C 
ATOM      7  C   UNL     1      28.576   9.591  18.137  1.00  0.00     0.004 C 
ENDBRANCH   5   6
ENDBRANCH   1   5
TORSDOF 3
ENDMDL
MODEL 4
REMARK VINA RESULT:    -2.897      9.880     10.352
REMARK INTER + INTRA:          -3.430
REMARK INTER:                  -3.381
REMARK INTRA:                  -0.048
REMARK UNBOUND:                -0.024
REMARK SMILES CCCCC(=O)[O-]
REMARK SMILES IDX 4 1 5 2 6 3 7 4 3 5 2 6 1 7
REMARK H PARENT
REMARK Flexibility Score: inf
ROOT
ATOM      1  C   UNL     1      29.356  10.108  21.845  1.00  0.00     0.053 C 
ENDROOT
BRANCH   1   2
ATOM      2  C   UNL     1      28.013   9.957  22.492  1.00  0.00     0.041 C 
ATOM      3  O   UNL     1      27.897   9.310  23.566  1.00  0.00    -0.550 OA
ATOM      4  O   UNL     1      26.885  10.502  21.892  1.00  0.00    -0.550 OA
ENDBRANCH   1   2
BRANCH   1   5
ATOM      5  C   UNL     1      29.731   8.877  21.006  1.00  0.00     0.006 C 
BRANCH   5   6
ATOM      6  C   UNL     1      30.204   9.207  19.579  1.00  0.00    -0.003 C 
ATOM      7  C   UNL     1      29.060   9.236  18.566  1.00  0.00     0.004 C 
ENDBRANCH   5   6
ENDBRANCH   1   5
TORSDOF 3
ENDMDL
MODEL 5
REMARK VINA RESULT:    -2.820     10.368     11.115
REMARK INTER + INTRA:          -3.339
REMARK INTER:                  -3.268
REMARK INTRA:                  -0.071
REMARK UNBOUND:                -0.024
REMARK SMILES CCCCC(=O)[O-]
REMARK SMILES IDX 4 1 5 2 6 3 7 4 3 5 2 6 1 7
REMARK H PARENT
REMARK Flexibility Score: inf
ROOT
ATOM      1  C   UNL     1      29.920   8.896  21.118  1.00  0.00     0.053 C 
ENDROOT
BRANCH   1   2
ATOM      2  C   UNL     1      29.960   9.270  19.668  1.00  0.00     0.041 C 
ATOM      3  O   UNL     1      28.928   9.153  18.956  1.00  0.00    -0.550 OA
ATOM      4  O   UNL     1      31.145   9.716  19.097  1.00  0.00    -0.550 OA
ENDBRANCH   1   2
BRANCH   1   5
ATOM      5  C   UNL     1      28.487   8.891  21.672  1.00  0.00     0.006 C 
BRANCH   5   6
ATOM      6  C   UNL     1      28.119  10.145  22.484  1.00  0.00    -0.003 C 
ATOM      7  C   UNL     1      26.788  10.762  22.054  1.00  0.00     0.004 C 
ENDBRANCH   5   6
ENDBRANCH   1   5
TORSDOF 3
ENDMDL
MODEL 6
REMARK VINA RESULT:    -2.794     11.039     11.432
REMARK INTER + INTRA:          -3.308
REMARK INTER:                  -3.289
REMARK INTRA:                  -0.019
REMARK UNBOUND:                -0.024
REMARK SMILES CCCCC(=O)[O-]
REMARK SMILES IDX 4 1 5 2 6 3 7 4 3 5 2 6 1 7
REMARK H PARENT
REMARK Flexibility Score: inf
ROOT
ATOM      1  C   UNL     1      28.640  28.400  23.777  1.00  0.00     0.053 C 
ENDROOT
BRANCH   1   2
ATOM      2  C   UNL     1      28.820  28.336  22.291  1.00  0.00     0.041 C 
ATOM      3  O   UNL     1      28.013  27.678  21.583  1.00  0.00    -0.550 OA
ATOM      4  O   UNL     1      29.899  28.975  21.693  1.00  0.00    -0.550 OA
ENDBRANCH   1   2
BRANCH   1   5
ATOM      5  C   UNL     1      29.860  29.017  24.478  1.00  0.00     0.006 C 
BRANCH   5   6
ATOM      6  C   UNL     1      29.721  29.125  26.007  1.00  0.00    -0.003 C 
ATOM      7  C   UNL     1      30.985  28.695  26.750  1.00  0.00     0.004 C 
ENDBRANCH   5   6
ENDBRANCH   1   5
TORSDOF 3
ENDMDL
MODEL 7
REMARK VINA RESULT:    -2.737     10.926     11.984
REMARK INTER + INTRA:          -3.242
REMARK INTER:                  -3.101
REMARK INTRA:                  -0.141
REMARK UNBOUND:                -0.024
REMARK SMILES CCCCC(=O)[O-]
REMARK SMILES IDX 4 1 5 2 6 3 7 4 3 5 2 6 1 7
REMARK H PARENT
REMARK Flexibility Score: inf
ROOT
ATOM      1  C   UNL     1      24.850  26.083  25.134  1.00  0.00     0.053 C 
ENDROOT
BRANCH   1   2
ATOM      2  C   UNL     1      25.416  26.160  23.749  1.00  0.00     0.041 C 
ATOM      3  O   UNL     1      26.326  26.988  23.482  1.00  0.00    -0.550 OA
ATOM      4  O   UNL     1      24.915  25.341  22.746  1.00  0.00    -0.550 OA
ENDBRANCH   1   2
BRANCH   1   5
ATOM      5  C   UNL     1      23.348  26.402  25.160  1.00  0.00     0.006 C 
BRANCH   5   6
ATOM      6  C   UNL     1      22.978  27.752  24.520  1.00  0.00    -0.003 C 
ATOM      7  C   UNL     1      21.925  27.619  23.420  1.00  0.00     0.004 C 
ENDBRANCH   5   6
ENDBRANCH   1   5
TORSDOF 3
ENDMDL
MODEL 8
REMARK VINA RESULT:    -2.697     10.632     11.320
REMARK INTER + INTRA:          -3.194
REMARK INTER:                  -3.077
REMARK INTRA:                  -0.117
REMARK UNBOUND:                -0.024
REMARK SMILES CCCCC(=O)[O-]
REMARK SMILES IDX 4 1 5 2 6 3 7 4 3 5 2 6 1 7
REMARK H PARENT
REMARK Flexibility Score: inf
ROOT
ATOM      1  C   UNL     1      25.578  11.571  20.615  1.00  0.00     0.053 C 
ENDROOT
BRANCH   1   2
ATOM      2  C   UNL     1      26.229  11.145  21.896  1.00  0.00     0.041 C 
ATOM      3  O   UNL     1      27.244  10.400  21.873  1.00  0.00    -0.550 OA
ATOM      4  O   UNL     1      25.694  11.543  23.114  1.00  0.00    -0.550 OA
ENDBRANCH   1   2
BRANCH   1   5
ATOM      5  C   UNL     1      24.093  11.910  20.810  1.00  0.00     0.006 C 
BRANCH   5   6
ATOM      6  C   UNL     1      23.148  10.702  20.683  1.00  0.00    -0.003 C 
ATOM      7  C   UNL     1      22.527  10.290  22.017  1.00  0.00     0.004 C 
ENDBRANCH   5   6
ENDBRANCH   1   5
TORSDOF 3
ENDMDL
MODEL 9
REMARK VINA RESULT:    -2.689     10.822     11.434
REMARK INTER + INTRA:          -3.185
REMARK INTER:                  -3.054
REMARK INTRA:                  -0.131
REMARK UNBOUND:                -0.024
REMARK SMILES CCCCC(=O)[O-]
REMARK SMILES IDX 4 1 5 2 6 3 7 4 3 5 2 6 1 7
REMARK H PARENT
REMARK Flexibility Score: inf
ROOT
ATOM      1  C   UNL     1      25.014  11.835  20.362  1.00  0.00     0.053 C 
ENDROOT
BRANCH   1   2
ATOM      2  C   UNL     1      25.728  11.696  21.671  1.00  0.00     0.041 C 
ATOM      3  O   UNL     1      25.493  12.503  22.609  1.00  0.00    -0.550 OA
ATOM      4  O   UNL     1      26.678  10.697  21.844  1.00  0.00    -0.550 OA
ENDBRANCH   1   2
BRANCH   1   5
ATOM      5  C   UNL     1      23.492  11.692  20.519  1.00  0.00     0.006 C 
BRANCH   5   6
ATOM      6  C   UNL     1      23.034  10.296  20.978  1.00  0.00    -0.003 C 
ATOM      7  C   UNL     1      22.336  10.318  22.338  1.00  0.00     0.004 C 
ENDBRANCH   5   6
ENDBRANCH   1   5
TORSDOF 3
ENDMDL
