MODEL 1
REMARK VINA RESULT:    -2.794      0.000      0.000
REMARK INTER + INTRA:          -3.539
REMARK INTER:                  -3.448
REMARK INTRA:                  -0.091
REMARK UNBOUND:                -0.091
REMARK SMILES CCCCCC(=O)[O-]
REMARK SMILES IDX 4 1 5 2 6 3 7 4 8 5 3 6 2 7 1 8
REMARK H PARENT
REMARK Flexibility Score: inf
ROOT
ATOM      1  C   UNL     1       8.996 -21.554  14.972  1.00  0.00     0.006 C 
ENDROOT
BRANCH   1   2
ATOM      2  C   UNL     1       8.949 -20.143  14.371  1.00  0.00     0.053 C 
BRANCH   2   3
ATOM      3  C   UNL     1       8.809 -20.214  12.883  1.00  0.00     0.041 C 
ATOM      4  O   UNL     1       9.113 -21.269  12.268  1.00  0.00    -0.550 OA
ATOM      5  O   UNL     1       8.389 -19.098  12.170  1.00  0.00    -0.550 OA
ENDBRANCH   2   3
ENDBRANCH   1   2
BRANCH   1   6
ATOM      6  C   UNL     1       7.661 -21.971  15.607  1.00  0.00     0.000 C 
BRANCH   6   7
ATOM      7  C   UNL     1       7.563 -21.577  17.088  1.00  0.00    -0.003 C 
ATOM      8  C   UNL     1       6.161 -21.835  17.633  1.00  0.00     0.004 C 
ENDBRANCH   6   7
ENDBRANCH   1   6
TORSDOF 4
ENDMDL
MODEL 2
REMARK VINA RESULT:    -2.755      1.810      2.994
REMARK INTER + INTRA:          -3.490
REMARK INTER:                  -3.367
REMARK INTRA:                  -0.123
REMARK UNBOUND:                -0.091
REMARK SMILES CCCCCC(=O)[O-]
REMARK SMILES IDX 4 1 5 2 6 3 7 4 8 5 3 6 2 7 1 8
REMARK H PARENT
REMARK Flexibility Score: inf
ROOT
ATOM      1  C   UNL     1       8.854 -19.400  12.670  1.00  0.00     0.006 C 
ENDROOT
BRANCH   1   2
ATOM      2  C   UNL     1       8.203 -20.527  11.859  1.00  0.00     0.053 C 
BRANCH   2   3
ATOM      3  C   UNL     1       7.401 -19.962  10.730  1.00  0.00     0.041 C 
ATOM      4  O   UNL     1       6.866 -18.828  10.839  1.00  0.00    -0.550 OA
ATOM      5  O   UNL     1       7.202 -20.710   9.576  1.00  0.00    -0.550 OA
ENDBRANCH   2   3
ENDBRANCH   1   2
BRANCH   1   6
ATOM      6  C   UNL     1       9.124 -19.800  14.129  1.00  0.00     0.000 C 
BRANCH   6   7
ATOM      7  C   UNL     1       8.659 -21.229  14.445  1.00  0.00    -0.003 C 
ATOM      8  C   UNL     1       7.986 -21.298  15.813  1.00  0.00     0.004 C 
ENDBRANCH   6   7
ENDBRANCH   1   6
TORSDOF 4
ENDMDL
MODEL 3
REMARK VINA RESULT:    -2.648      2.610      5.028
REMARK INTER + INTRA:          -3.358
REMARK INTER:                  -3.262
REMARK INTRA:                  -0.096
REMARK UNBOUND:                -0.091
REMARK SMILES CCCCCC(=O)[O-]
REMARK SMILES IDX 4 1 5 2 6 3 7 4 8 5 3 6 2 7 1 8
REMARK H PARENT
REMARK Flexibility Score: inf
ROOT
ATOM      1  C   UNL     1       8.647 -20.073  11.592  1.00  0.00     0.006 C 
ENDROOT
BRANCH   1   2
ATOM      2  C   UNL     1       8.948 -19.669  13.040  1.00  0.00     0.053 C 
BRANCH   2   3
ATOM      3  C   UNL     1       8.818 -20.850  13.950  1.00  0.00     0.041 C 
ATOM      4  O   UNL     1       9.125 -22.001  13.541  1.00  0.00    -0.550 OA
ATOM      5  O   UNL     1       8.310 -20.687  15.233  1.00  0.00    -0.550 OA
ENDBRANCH   2   3
ENDBRANCH   1   2
BRANCH   1   6
ATOM      6  C   UNL     1       7.375 -19.407  11.044  1.00  0.00     0.000 C 
BRANCH   6   7
ATOM      7  C   UNL     1       7.098 -19.778   9.580  1.00  0.00    -0.003 C 
ATOM      8  C   UNL     1       8.363 -20.287   8.894  1.00  0.00     0.004 C 
ENDBRANCH   6   7
ENDBRANCH   1   6
TORSDOF 4
ENDMDL
MODEL 4
REMARK VINA RESULT:    -2.627     17.960     19.380
REMARK INTER + INTRA:          -3.332
REMARK INTER:                  -3.231
REMARK INTRA:                  -0.101
REMARK UNBOUND:                -0.091
REMARK SMILES CCCCCC(=O)[O-]
REMARK SMILES IDX 4 1 5 2 6 3 7 4 8 5 3 6 2 7 1 8
REMARK H PARENT
REMARK Flexibility Score: inf
ROOT
ATOM      1  C   UNL     1     -11.015 -19.743  17.037  1.00  0.00     0.006 C 
ENDROOT
BRANCH   1   2
ATOM      2  C   UNL     1     -10.487 -20.404  18.316  1.00  0.00     0.053 C 
BRANCH   2   3
ATOM      3  C   UNL     1     -10.590 -19.459  19.472  1.00  0.00     0.041 C 
ATOM      4  O   UNL     1     -10.983 -18.277  19.291  1.00  0.00    -0.550 OA
ATOM      5  O   UNL     1     -10.203 -19.869  20.742  1.00  0.00    -0.550 OA
ENDBRANCH   2   3
ENDBRANCH   1   2
BRANCH   1   6
ATOM      6  C   UNL     1     -11.025 -20.703  15.837  1.00  0.00     0.000 C 
BRANCH   6   7
ATOM      7  C   UNL     1     -10.096 -20.243  14.705  1.00  0.00    -0.003 C 
ATOM      8  C   UNL     1      -8.739 -20.937  14.793  1.00  0.00     0.004 C 
ENDBRANCH   6   7
ENDBRANCH   1   6
TORSDOF 4
ENDMDL
MODEL 5
REMARK VINA RESULT:    -2.573      3.071      5.249
REMARK INTER + INTRA:          -3.265
REMARK INTER:                  -3.047
REMARK INTRA:                  -0.218
REMARK UNBOUND:                -0.091
REMARK SMILES CCCCCC(=O)[O-]
REMARK SMILES IDX 4 1 5 2 6 3 7 4 8 5 3 6 2 7 1 8
REMARK H PARENT
REMARK Flexibility Score: inf
ROOT
ATOM      1  C   UNL     1       7.398 -19.265  11.081  1.00  0.00     0.006 C 
ENDROOT
BRANCH   1   2
ATOM      2  C   UNL     1       8.637 -19.997  11.612  1.00  0.00     0.053 C 
BRANCH   2   3
ATOM      3  C   UNL     1       8.295 -20.779  12.841  1.00  0.00     0.041 C 
ATOM      4  O   UNL     1       8.932 -20.588  13.910  1.00  0.00    -0.550 OA
ATOM      5  O   UNL     1       7.306 -21.753  12.793  1.00  0.00    -0.550 OA
ENDBRANCH   2   3
ENDBRANCH   1   2
BRANCH   1   6
ATOM      6  C   UNL     1       6.994 -19.731   9.673  1.00  0.00     0.000 C 
BRANCH   6   7
ATOM      7  C   UNL     1       7.809 -20.941   9.195  1.00  0.00    -0.003 C 
ATOM      8  C   UNL     1       6.929 -22.183   9.076  1.00  0.00     0.004 C 
ENDBRANCH   6   7
ENDBRANCH   1   6
TORSDOF 4
ENDMDL
MODEL 6
REMARK VINA RESULT:    -2.567      2.566      4.637
REMARK INTER + INTRA:          -3.259
REMARK INTER:                  -3.200
REMARK INTRA:                  -0.058
REMARK UNBOUND:                -0.091
REMARK SMILES CCCCCC(=O)[O-]
REMARK SMILES IDX 4 1 5 2 6 3 7 4 8 5 3 6 2 7 1 8
REMARK H PARENT
REMARK Flexibility Score: inf
ROOT
ATOM      1  C   UNL     1       8.387 -21.036  13.371  1.00  0.00     0.006 C 
ENDROOT
BRANCH   1   2
ATOM      2  C   UNL     1       8.699 -20.818  14.857  1.00  0.00     0.053 C 
BRANCH   2   3
ATOM      3  C   UNL     1       7.776 -21.631  15.709  1.00  0.00     0.041 C 
ATOM      4  O   UNL     1       7.618 -21.344  16.924  1.00  0.00    -0.550 OA
ATOM      5  O   UNL     1       7.128 -22.737  15.172  1.00  0.00    -0.550 OA
ENDBRANCH   2   3
ENDBRANCH   1   2
BRANCH   1   6
ATOM      6  C   UNL     1       8.805 -19.844  12.497  1.00  0.00     0.000 C 
BRANCH   6   7
ATOM      7  C   UNL     1       8.353 -19.994  11.037  1.00  0.00    -0.003 C 
ATOM      8  C   UNL     1       7.025 -19.281  10.798  1.00  0.00     0.004 C 
ENDBRANCH   6   7
ENDBRANCH   1   6
TORSDOF 4
ENDMDL
MODEL 7
REMARK VINA RESULT:    -2.553     16.696     18.057
REMARK INTER + INTRA:          -3.241
REMARK INTER:                  -3.061
REMARK INTRA:                  -0.180
REMARK UNBOUND:                -0.091
REMARK SMILES CCCCCC(=O)[O-]
REMARK SMILES IDX 4 1 5 2 6 3 7 4 8 5 3 6 2 7 1 8
REMARK H PARENT
REMARK Flexibility Score: inf
ROOT
ATOM      1  C   UNL     1     -10.399 -21.420  17.494  1.00  0.00     0.006 C 
ENDROOT
BRANCH   1   2
ATOM      2  C   UNL     1      -9.296 -21.196  18.536  1.00  0.00     0.053 C 
BRANCH   2   3
ATOM      3  C   UNL     1      -8.086 -22.010  18.199  1.00  0.00     0.041 C 
ATOM      4  O   UNL     1      -7.714 -22.126  17.002  1.00  0.00    -0.550 OA
ATOM      5  O   UNL     1      -7.398 -22.681  19.202  1.00  0.00    -0.550 OA
ENDBRANCH   2   3
ENDBRANCH   1   2
BRANCH   1   6
ATOM      6  C   UNL     1     -10.675 -20.169  16.646  1.00  0.00     0.000 C 
BRANCH   6   7
ATOM      7  C   UNL     1     -10.821 -20.488  15.152  1.00  0.00    -0.003 C 
ATOM      8  C   UNL     1      -9.466 -20.454  14.449  1.00  0.00     0.004 C 
ENDBRANCH   6   7
ENDBRANCH   1   6
TORSDOF 4
ENDMDL
MODEL 8
REMARK VINA RESULT:    -2.440      2.963      4.605
REMARK INTER + INTRA:          -3.101
REMARK INTER:                  -2.948
REMARK INTRA:                  -0.153
REMARK UNBOUND:                -0.091
REMARK SMILES CCCCCC(=O)[O-]
REMARK SMILES IDX 4 1 5 2 6 3 7 4 8 5 3 6 2 7 1 8
REMARK H PARENT
REMARK Flexibility Score: inf
ROOT
ATOM      1  C   UNL     1       7.209 -19.436  10.648  1.00  0.00     0.006 C 
ENDROOT
BRANCH   1   2
ATOM      2  C   UNL     1       7.107 -20.568   9.618  1.00  0.00     0.053 C 
BRANCH   2   3
ATOM      3  C   UNL     1       8.418 -20.760   8.922  1.00  0.00     0.041 C 
ATOM      4  O   UNL     1       8.866 -19.866   8.158  1.00  0.00    -0.550 OA
ATOM      5  O   UNL     1       9.120 -21.948   9.078  1.00  0.00    -0.550 OA
ENDBRANCH   2   3
ENDBRANCH   1   2
BRANCH   1   6
ATOM      6  C   UNL     1       8.297 -19.692  11.703  1.00  0.00     0.000 C 
BRANCH   6   7
ATOM      7  C   UNL     1       8.039 -20.966  12.519  1.00  0.00    -0.003 C 
ATOM      8  C   UNL     1       8.721 -20.892  13.882  1.00  0.00     0.004 C 
ENDBRANCH   6   7
ENDBRANCH   1   6
TORSDOF 4
ENDMDL
MODEL 9
REMARK VINA RESULT:    -2.269     18.107     18.742
REMARK INTER + INTRA:          -2.891
REMARK INTER:                  -2.715
REMARK INTRA:                  -0.176
REMARK UNBOUND:                -0.091
REMARK SMILES CCCCCC(=O)[O-]
REMARK SMILES IDX 4 1 5 2 6 3 7 4 8 5 3 6 2 7 1 8
REMARK H PARENT
REMARK Flexibility Score: inf
ROOT
ATOM      1  C   UNL     1     -10.186 -20.828  21.428  1.00  0.00     0.006 C 
ENDROOT
BRANCH   1   2
ATOM      2  C   UNL     1      -9.943 -19.823  20.295  1.00  0.00     0.053 C 
BRANCH   2   3
ATOM      3  C   UNL     1      -9.752 -20.538  18.995  1.00  0.00     0.041 C 
ATOM      4  O   UNL     1      -8.786 -21.331  18.844  1.00  0.00    -0.550 OA
ATOM      5  O   UNL     1     -10.612 -20.291  17.932  1.00  0.00    -0.550 OA
ENDBRANCH   2   3
ENDBRANCH   1   2
BRANCH   1   6
ATOM      6  C   UNL     1      -9.450 -20.450  22.723  1.00  0.00     0.000 C 
BRANCH   6   7
ATOM      7  C   UNL     1      -8.342 -21.449  23.084  1.00  0.00    -0.003 C 
ATOM      8  C   UNL     1      -8.361 -22.653  22.147  1.00  0.00     0.004 C 
ENDBRANCH   6   7
ENDBRANCH   1   6
TORSDOF 4
ENDMDL
