MODEL 1
REMARK VINA RESULT:    -1.424      0.000      0.000
REMARK INTER + INTRA:          -1.619
REMARK INTER:                  -1.591
REMARK INTRA:                  -0.028
REMARK UNBOUND:                -0.028
REMARK SMILES CCCC(=O)[O-]
REMARK SMILES IDX 3 1 4 2 5 3 6 4 2 5 1 6
REMARK H PARENT
REMARK Flexibility Score: inf
ROOT
ATOM      1  C   UNL     1     103.729 104.234 101.843  1.00  0.00     0.052 C 
ENDROOT
BRANCH   1   2
ATOM      2  C   UNL     1     104.640 105.291 102.388  1.00  0.00     0.041 C 
ATOM      3  O   UNL     1     105.837 105.014 102.664  1.00  0.00    -0.550 OA
ATOM      4  O   UNL     1     104.159 106.573 102.622  1.00  0.00    -0.550 OA
ENDBRANCH   1   2
BRANCH   1   5
ATOM      5  C   UNL     1     103.368 103.191 102.908  1.00  0.00     0.003 C 
ATOM      6  C   UNL     1     103.683 101.765 102.457  1.00  0.00     0.004 C 
ENDBRANCH   1   5
TORSDOF 2
ENDMDL
MODEL 2
REMARK VINA RESULT:    -1.416      2.321      3.552
REMARK INTER + INTRA:          -1.609
REMARK INTER:                  -1.581
REMARK INTRA:                  -0.028
REMARK UNBOUND:                -0.028
REMARK SMILES CCCC(=O)[O-]
REMARK SMILES IDX 3 1 4 2 5 3 6 4 2 5 1 6
REMARK H PARENT
REMARK Flexibility Score: inf
ROOT
ATOM      1  C   UNL     1     104.274 104.050 101.834  1.00  0.00     0.052 C 
ENDROOT
BRANCH   1   2
ATOM      2  C   UNL     1     103.360 102.996 102.381  1.00  0.00     0.041 C 
ATOM      3  O   UNL     1     102.164 103.277 102.658  1.00  0.00    -0.550 OA
ATOM      4  O   UNL     1     103.838 101.713 102.617  1.00  0.00    -0.550 OA
ENDBRANCH   1   2
BRANCH   1   5
ATOM      5  C   UNL     1     104.642 105.091 102.898  1.00  0.00     0.003 C 
ATOM      6  C   UNL     1     104.317 106.517 102.454  1.00  0.00     0.004 C 
ENDBRANCH   1   5
TORSDOF 2
ENDMDL
MODEL 3
REMARK VINA RESULT:    -1.392      4.598      4.774
REMARK INTER + INTRA:          -1.583
REMARK INTER:                  -1.556
REMARK INTRA:                  -0.027
REMARK UNBOUND:                -0.028
REMARK SMILES CCCC(=O)[O-]
REMARK SMILES IDX 3 1 4 2 5 3 6 4 2 5 1 6
REMARK H PARENT
REMARK Flexibility Score: inf
ROOT
ATOM      1  C   UNL     1     103.664 104.253 106.710  1.00  0.00     0.052 C 
ENDROOT
BRANCH   1   2
ATOM      2  C   UNL     1     104.636 105.302 107.155  1.00  0.00     0.041 C 
ATOM      3  O   UNL     1     105.840 105.000 107.370  1.00  0.00    -0.550 OA
ATOM      4  O   UNL     1     104.207 106.607 107.363  1.00  0.00    -0.550 OA
ENDBRANCH   1   2
BRANCH   1   5
ATOM      5  C   UNL     1     103.501 103.148 107.761  1.00  0.00     0.003 C 
ATOM      6  C   UNL     1     103.644 101.749 107.162  1.00  0.00     0.004 C 
ENDBRANCH   1   5
TORSDOF 2
ENDMDL
MODEL 4
REMARK VINA RESULT:    -1.383      5.189      5.952
REMARK INTER + INTRA:          -1.572
REMARK INTER:                  -1.546
REMARK INTRA:                  -0.027
REMARK UNBOUND:                -0.028
REMARK SMILES CCCC(=O)[O-]
REMARK SMILES IDX 3 1 4 2 5 3 6 4 2 5 1 6
REMARK H PARENT
REMARK Flexibility Score: inf
ROOT
ATOM      1  C   UNL     1     104.329 104.037 106.697  1.00  0.00     0.052 C 
ENDROOT
BRANCH   1   2
ATOM      2  C   UNL     1     103.365 102.980 107.144  1.00  0.00     0.041 C 
ATOM      3  O   UNL     1     102.164 103.276 107.377  1.00  0.00    -0.550 OA
ATOM      4  O   UNL     1     103.802 101.675 107.334  1.00  0.00    -0.550 OA
ENDBRANCH   1   2
BRANCH   1   5
ATOM      5  C   UNL     1     104.496 105.136 107.754  1.00  0.00     0.003 C 
ATOM      6  C   UNL     1     104.342 106.538 107.166  1.00  0.00     0.004 C 
ENDBRANCH   1   5
TORSDOF 2
ENDMDL
MODEL 5
REMARK VINA RESULT:    -1.322      5.181      5.927
REMARK INTER + INTRA:          -1.505
REMARK INTER:                  -1.476
REMARK INTRA:                  -0.029
REMARK UNBOUND:                -0.028
REMARK SMILES CCCC(=O)[O-]
REMARK SMILES IDX 3 1 4 2 5 3 6 4 2 5 1 6
REMARK H PARENT
REMARK Flexibility Score: inf
ROOT
ATOM      1  C   UNL     1     104.261 104.061  97.071  1.00  0.00     0.052 C 
ENDROOT
BRANCH   1   2
ATOM      2  C   UNL     1     103.373 102.991  97.628  1.00  0.00     0.041 C 
ATOM      3  O   UNL     1     102.174 103.249  97.917  1.00  0.00    -0.550 OA
ATOM      4  O   UNL     1     103.878 101.718  97.861  1.00  0.00    -0.550 OA
ENDBRANCH   1   2
BRANCH   1   5
ATOM      5  C   UNL     1     104.672 105.075  98.145  1.00  0.00     0.003 C 
ATOM      6  C   UNL     1     104.294 106.507  97.770  1.00  0.00     0.004 C 
ENDBRANCH   1   5
TORSDOF 2
ENDMDL
MODEL 6
REMARK VINA RESULT:    -1.321      4.578      4.748
REMARK INTER + INTRA:          -1.504
REMARK INTER:                  -1.476
REMARK INTRA:                  -0.028
REMARK UNBOUND:                -0.028
REMARK SMILES CCCC(=O)[O-]
REMARK SMILES IDX 3 1 4 2 5 3 6 4 2 5 1 6
REMARK H PARENT
REMARK Flexibility Score: inf
ROOT
ATOM      1  C   UNL     1     103.744 104.250  97.085  1.00  0.00     0.052 C 
ENDROOT
BRANCH   1   2
ATOM      2  C   UNL     1     104.639 105.315  97.642  1.00  0.00     0.041 C 
ATOM      3  O   UNL     1     105.834 105.048  97.938  1.00  0.00    -0.550 OA
ATOM      4  O   UNL     1     104.144 106.594  97.864  1.00  0.00    -0.550 OA
ENDBRANCH   1   2
BRANCH   1   5
ATOM      5  C   UNL     1     103.367 103.212  98.149  1.00  0.00     0.003 C 
ATOM      6  C   UNL     1     103.704 101.786  97.716  1.00  0.00     0.004 C 
ENDBRANCH   1   5
TORSDOF 2
ENDMDL
MODEL 7
REMARK VINA RESULT:    -1.168      9.237      9.576
REMARK INTER + INTRA:          -1.333
REMARK INTER:                  -1.304
REMARK INTRA:                  -0.029
REMARK UNBOUND:                -0.028
REMARK SMILES CCCC(=O)[O-]
REMARK SMILES IDX 3 1 4 2 5 3 6 4 2 5 1 6
REMARK H PARENT
REMARK Flexibility Score: inf
ROOT
ATOM      1  C   UNL     1     103.656 104.286 111.335  1.00  0.00     0.052 C 
ENDROOT
BRANCH   1   2
ATOM      2  C   UNL     1     104.611 105.299 111.889  1.00  0.00     0.041 C 
ATOM      3  O   UNL     1     104.226 106.478 112.111  1.00  0.00    -0.550 OA
ATOM      4  O   UNL     1     105.934 104.951 112.128  1.00  0.00    -0.550 OA
ENDBRANCH   1   2
BRANCH   1   5
ATOM      5  C   UNL     1     103.278 103.231 112.382  1.00  0.00     0.003 C 
ATOM      6  C   UNL     1     103.645 101.814 111.941  1.00  0.00     0.004 C 
ENDBRANCH   1   5
TORSDOF 2
ENDMDL
