MODEL 1
REMARK VINA RESULT:    -4.617      0.000      0.000
REMARK INTER + INTRA:         -11.900
REMARK INTER:                  -8.935
REMARK INTRA:                  -2.965
REMARK UNBOUND:                -2.965
REMARK SMILES CCCCCCCCCCCCCCCCCC(=O)[O-]
REMARK SMILES IDX 10 1 11 2 12 3 13 4 14 5 15 6 16 7 17 8 18 9 19 10 20 11
REMARK SMILES IDX 9 12 8 13 7 14 6 15 5 16 4 17 3 18 2 19 1 20
REMARK H PARENT
REMARK Flexibility Score: inf
ROOT
ATOM      1  C   UNL     1      23.247   7.630   9.808  1.00  0.00     0.000 C 
ENDROOT
BRANCH   1   2
ATOM      2  C   UNL     1      24.747   7.841  10.082  1.00  0.00     0.000 C 
BRANCH   2   3
ATOM      3  C   UNL     1      25.042   9.244  10.652  1.00  0.00     0.000 C 
BRANCH   3   4
ATOM      4  C   UNL     1      25.431   9.231  12.141  1.00  0.00     0.000 C 
BRANCH   4   5
ATOM      5  C   UNL     1      24.270   9.639  13.063  1.00  0.00     0.000 C 
BRANCH   5   6
ATOM      6  C   UNL     1      23.441   8.436  13.541  1.00  0.00     0.000 C 
BRANCH   6   7
ATOM      7  C   UNL     1      24.315   7.215  13.879  1.00  0.00     0.006 C 
BRANCH   7   8
ATOM      8  C   UNL     1      23.792   5.930  13.222  1.00  0.00     0.053 C 
BRANCH   8   9
ATOM      9  C   UNL     1      24.898   4.961  12.935  1.00  0.00     0.041 C 
ATOM     10  O   UNL     1      24.782   3.752  13.267  1.00  0.00    -0.550 OA
ATOM     11  O   UNL     1      26.046   5.388  12.278  1.00  0.00    -0.550 OA
ENDBRANCH   8   9
ENDBRANCH   7   8
ENDBRANCH   6   7
ENDBRANCH   5   6
ENDBRANCH   4   5
ENDBRANCH   3   4
ENDBRANCH   2   3
ENDBRANCH   1   2
BRANCH   1  12
ATOM     12  C   UNL     1      22.496   8.949   9.567  1.00  0.00     0.000 C 
BRANCH  12  13
ATOM     13  C   UNL     1      21.231   9.077  10.430  1.00  0.00    -0.000 C 
BRANCH  13  14
ATOM     14  C   UNL     1      20.931   7.764  11.163  1.00  0.00    -0.000 C 
BRANCH  14  15
ATOM     15  C   UNL     1      19.418   7.561  11.330  1.00  0.00    -0.000 C 
BRANCH  15  16
ATOM     16  C   UNL     1      18.963   6.150  10.926  1.00  0.00    -0.000 C 
BRANCH  16  17
ATOM     17  C   UNL     1      19.601   5.677   9.609  1.00  0.00    -0.000 C 
BRANCH  17  18
ATOM     18  C   UNL     1      18.943   6.309   8.372  1.00  0.00    -0.000 C 
BRANCH  18  19
ATOM     19  C   UNL     1      19.927   7.145   7.542  1.00  0.00    -0.003 C 
ATOM     20  C   UNL     1      19.304   8.474   7.125  1.00  0.00     0.004 C 
ENDBRANCH  18  19
ENDBRANCH  17  18
ENDBRANCH  16  17
ENDBRANCH  15  16
ENDBRANCH  14  15
ENDBRANCH  13  14
ENDBRANCH  12  13
ENDBRANCH   1  12
TORSDOF 16
ENDMDL
MODEL 2
REMARK VINA RESULT:    -4.511      1.833      2.738
REMARK INTER + INTRA:         -11.695
REMARK INTER:                  -9.154
REMARK INTRA:                  -2.541
REMARK UNBOUND:                -2.965
REMARK SMILES CCCCCCCCCCCCCCCCCC(=O)[O-]
REMARK SMILES IDX 10 1 11 2 12 3 13 4 14 5 15 6 16 7 17 8 18 9 19 10 20 11
REMARK SMILES IDX 9 12 8 13 7 14 6 15 5 16 4 17 3 18 2 19 1 20
REMARK H PARENT
REMARK Flexibility Score: inf
ROOT
ATOM      1  C   UNL     1      23.375   7.571   9.926  1.00  0.00     0.000 C 
ENDROOT
BRANCH   1   2
ATOM      2  C   UNL     1      24.890   7.526   9.658  1.00  0.00     0.000 C 
BRANCH   2   3
ATOM      3  C   UNL     1      25.538   6.234  10.201  1.00  0.00     0.000 C 
BRANCH   3   4
ATOM      4  C   UNL     1      25.858   6.294  11.705  1.00  0.00     0.000 C 
BRANCH   4   5
ATOM      5  C   UNL     1      24.958   5.370  12.542  1.00  0.00     0.000 C 
BRANCH   5   6
ATOM      6  C   UNL     1      23.830   6.131  13.257  1.00  0.00     0.000 C 
BRANCH   6   7
ATOM      7  C   UNL     1      24.350   7.333  14.066  1.00  0.00     0.006 C 
BRANCH   7   8
ATOM      8  C   UNL     1      23.457   8.570  13.903  1.00  0.00     0.053 C 
BRANCH   8   9
ATOM      9  C   UNL     1      24.243   9.773  13.479  1.00  0.00     0.041 C 
ATOM     10  O   UNL     1      24.840   9.781  12.371  1.00  0.00    -0.550 OA
ATOM     11  O   UNL     1      24.293  10.896  14.296  1.00  0.00    -0.550 OA
ENDBRANCH   8   9
ENDBRANCH   7   8
ENDBRANCH   6   7
ENDBRANCH   5   6
ENDBRANCH   4   5
ENDBRANCH   3   4
ENDBRANCH   2   3
ENDBRANCH   1   2
BRANCH   1  12
ATOM     12  C   UNL     1      22.764   8.953   9.646  1.00  0.00     0.000 C 
BRANCH  12  13
ATOM     13  C   UNL     1      21.458   9.192  10.419  1.00  0.00    -0.000 C 
BRANCH  13  14
ATOM     14  C   UNL     1      21.075   7.957  11.243  1.00  0.00    -0.000 C 
BRANCH  14  15
ATOM     15  C   UNL     1      19.559   7.714  11.198  1.00  0.00    -0.000 C 
BRANCH  15  16
ATOM     16  C   UNL     1      19.203   6.228  11.032  1.00  0.00    -0.000 C 
BRANCH  16  17
ATOM     17  C   UNL     1      19.586   5.679   9.647  1.00  0.00    -0.000 C 
BRANCH  17  18
ATOM     18  C   UNL     1      18.935   6.465   8.498  1.00  0.00    -0.000 C 
BRANCH  18  19
ATOM     19  C   UNL     1      19.962   7.215   7.638  1.00  0.00    -0.003 C 
ATOM     20  C   UNL     1      19.321   8.404   6.927  1.00  0.00     0.004 C 
ENDBRANCH  18  19
ENDBRANCH  17  18
ENDBRANCH  16  17
ENDBRANCH  15  16
ENDBRANCH  14  15
ENDBRANCH  13  14
ENDBRANCH  12  13
ENDBRANCH   1  12
TORSDOF 16
ENDMDL
MODEL 3
REMARK VINA RESULT:    -4.382      3.060      6.375
REMARK INTER + INTRA:         -11.446
REMARK INTER:                  -9.199
REMARK INTRA:                  -2.247
REMARK UNBOUND:                -2.965
REMARK SMILES CCCCCCCCCCCCCCCCCC(=O)[O-]
REMARK SMILES IDX 10 1 11 2 12 3 13 4 14 5 15 6 16 7 17 8 18 9 19 10 20 11
REMARK SMILES IDX 9 12 8 13 7 14 6 15 5 16 4 17 3 18 2 19 1 20
REMARK H PARENT
REMARK Flexibility Score: inf
ROOT
ATOM      1  C   UNL     1      22.298   8.361  12.853  1.00  0.00     0.000 C 
ENDROOT
BRANCH   1   2
ATOM      2  C   UNL     1      21.442   7.599  11.826  1.00  0.00     0.000 C 
BRANCH   2   3
ATOM      3  C   UNL     1      20.151   8.362  11.463  1.00  0.00     0.000 C 
BRANCH   3   4
ATOM      4  C   UNL     1      18.972   7.440  11.108  1.00  0.00     0.000 C 
BRANCH   4   5
ATOM      5  C   UNL     1      19.377   5.958  11.035  1.00  0.00     0.000 C 
BRANCH   5   6
ATOM      6  C   UNL     1      19.342   5.405   9.601  1.00  0.00     0.000 C 
BRANCH   6   7
ATOM      7  C   UNL     1      18.977   6.479   8.562  1.00  0.00     0.006 C 
BRANCH   7   8
ATOM      8  C   UNL     1      20.220   7.129   7.940  1.00  0.00     0.053 C 
BRANCH   8   9
ATOM      9  C   UNL     1      19.867   8.318   7.100  1.00  0.00     0.041 C 
ATOM     10  O   UNL     1      20.773   8.986   6.535  1.00  0.00    -0.550 OA
ATOM     11  O   UNL     1      18.536   8.672   6.918  1.00  0.00    -0.550 OA
ENDBRANCH   8   9
ENDBRANCH   7   8
ENDBRANCH   6   7
ENDBRANCH   5   6
ENDBRANCH   4   5
ENDBRANCH   3   4
ENDBRANCH   2   3
ENDBRANCH   1   2
BRANCH   1  12
ATOM     12  C   UNL     1      23.529   7.561  13.311  1.00  0.00     0.000 C 
BRANCH  12  13
ATOM     13  C   UNL     1      23.435   6.071  12.950  1.00  0.00    -0.000 C 
BRANCH  13  14
ATOM     14  C   UNL     1      24.732   5.336  13.310  1.00  0.00    -0.000 C 
BRANCH  14  15
ATOM     15  C   UNL     1      25.913   5.872  12.487  1.00  0.00    -0.000 C 
BRANCH  15  16
ATOM     16  C   UNL     1      25.744   5.624  10.980  1.00  0.00    -0.000 C 
BRANCH  16  17
ATOM     17  C   UNL     1      25.895   6.910  10.149  1.00  0.00    -0.000 C 
BRANCH  17  18
ATOM     18  C   UNL     1      24.549   7.443   9.635  1.00  0.00    -0.000 C 
BRANCH  18  19
ATOM     19  C   UNL     1      24.370   8.946   9.895  1.00  0.00    -0.003 C 
ATOM     20  C   UNL     1      23.057   9.454   9.306  1.00  0.00     0.004 C 
ENDBRANCH  18  19
ENDBRANCH  17  18
ENDBRANCH  16  17
ENDBRANCH  15  16
ENDBRANCH  14  15
ENDBRANCH  13  14
ENDBRANCH  12  13
ENDBRANCH   1  12
TORSDOF 16
ENDMDL
MODEL 4
REMARK VINA RESULT:    -4.294      3.017      6.486
REMARK INTER + INTRA:         -11.275
REMARK INTER:                  -8.846
REMARK INTRA:                  -2.429
REMARK UNBOUND:                -2.965
REMARK SMILES CCCCCCCCCCCCCCCCCC(=O)[O-]
REMARK SMILES IDX 10 1 11 2 12 3 13 4 14 5 15 6 16 7 17 8 18 9 19 10 20 11
REMARK SMILES IDX 9 12 8 13 7 14 6 15 5 16 4 17 3 18 2 19 1 20
REMARK H PARENT
REMARK Flexibility Score: inf
ROOT
ATOM      1  C   UNL     1      22.721   9.799   9.861  1.00  0.00     0.000 C 
ENDROOT
BRANCH   1   2
ATOM      2  C   UNL     1      21.333   9.229  10.204  1.00  0.00     0.000 C 
BRANCH   2   3
ATOM      3  C   UNL     1      21.320   8.508  11.569  1.00  0.00     0.000 C 
BRANCH   3   4
ATOM      4  C   UNL     1      21.057   6.996  11.460  1.00  0.00     0.000 C 
BRANCH   4   5
ATOM      5  C   UNL     1      19.598   6.670  11.098  1.00  0.00     0.000 C 
BRANCH   5   6
ATOM      6  C   UNL     1      19.483   5.768   9.859  1.00  0.00     0.000 C 
BRANCH   6   7
ATOM      7  C   UNL     1      19.014   6.537   8.611  1.00  0.00     0.006 C 
BRANCH   7   8
ATOM      8  C   UNL     1      20.191   7.101   7.803  1.00  0.00     0.053 C 
BRANCH   8   9
ATOM      9  C   UNL     1      19.790   8.298   6.997  1.00  0.00     0.041 C 
ATOM     10  O   UNL     1      18.573   8.542   6.787  1.00  0.00    -0.550 OA
ATOM     11  O   UNL     1      20.761   9.160   6.499  1.00  0.00    -0.550 OA
ENDBRANCH   8   9
ENDBRANCH   7   8
ENDBRANCH   6   7
ENDBRANCH   5   6
ENDBRANCH   4   5
ENDBRANCH   3   4
ENDBRANCH   2   3
ENDBRANCH   1   2
BRANCH   1  12
ATOM     12  C   UNL     1      23.756   8.703   9.565  1.00  0.00     0.000 C 
BRANCH  12  13
ATOM     13  C   UNL     1      24.997   8.800  10.466  1.00  0.00    -0.000 C 
BRANCH  13  14
ATOM     14  C   UNL     1      24.928  10.041  11.364  1.00  0.00    -0.000 C 
BRANCH  14  15
ATOM     15  C   UNL     1      25.272   9.687  12.818  1.00  0.00    -0.000 C 
BRANCH  15  16
ATOM     16  C   UNL     1      24.034   9.651  13.727  1.00  0.00    -0.000 C 
BRANCH  16  17
ATOM     17  C   UNL     1      23.765   8.251  14.306  1.00  0.00    -0.000 C 
BRANCH  17  18
ATOM     18  C   UNL     1      24.804   7.214  13.851  1.00  0.00    -0.000 C 
BRANCH  18  19
ATOM     19  C   UNL     1      24.204   6.143  12.927  1.00  0.00    -0.003 C 
ATOM     20  C   UNL     1      23.868   4.873  13.704  1.00  0.00     0.004 C 
ENDBRANCH  18  19
ENDBRANCH  17  18
ENDBRANCH  16  17
ENDBRANCH  15  16
ENDBRANCH  14  15
ENDBRANCH  13  14
ENDBRANCH  12  13
ENDBRANCH   1  12
TORSDOF 16
ENDMDL
MODEL 5
REMARK VINA RESULT:    -4.232      3.056      6.633
REMARK INTER + INTRA:         -11.154
REMARK INTER:                  -8.679
REMARK INTRA:                  -2.476
REMARK UNBOUND:                -2.965
REMARK SMILES CCCCCCCCCCCCCCCCCC(=O)[O-]
REMARK SMILES IDX 10 1 11 2 12 3 13 4 14 5 15 6 16 7 17 8 18 9 19 10 20 11
REMARK SMILES IDX 9 12 8 13 7 14 6 15 5 16 4 17 3 18 2 19 1 20
REMARK H PARENT
REMARK Flexibility Score: inf
ROOT
ATOM      1  C   UNL     1      21.796   9.233  10.230  1.00  0.00     0.000 C 
ENDROOT
BRANCH   1   2
ATOM      2  C   UNL     1      21.781   8.633  11.648  1.00  0.00     0.000 C 
BRANCH   2   3
ATOM      3  C   UNL     1      21.055   7.272  11.697  1.00  0.00     0.000 C 
BRANCH   3   4
ATOM      4  C   UNL     1      19.555   7.365  11.364  1.00  0.00     0.000 C 
BRANCH   4   5
ATOM      5  C   UNL     1      18.938   6.001  11.013  1.00  0.00     0.000 C 
BRANCH   5   6
ATOM      6  C   UNL     1      19.362   5.499   9.623  1.00  0.00     0.000 C 
BRANCH   6   7
ATOM      7  C   UNL     1      18.995   6.487   8.501  1.00  0.00     0.006 C 
BRANCH   7   8
ATOM      8  C   UNL     1      20.235   7.129   7.867  1.00  0.00     0.053 C 
BRANCH   8   9
ATOM      9  C   UNL     1      19.879   8.313   7.020  1.00  0.00     0.041 C 
ATOM     10  O   UNL     1      20.783   9.066   6.572  1.00  0.00    -0.550 OA
ATOM     11  O   UNL     1      18.550   8.569   6.704  1.00  0.00    -0.550 OA
ENDBRANCH   8   9
ENDBRANCH   7   8
ENDBRANCH   6   7
ENDBRANCH   5   6
ENDBRANCH   4   5
ENDBRANCH   3   4
ENDBRANCH   2   3
ENDBRANCH   1   2
BRANCH   1  12
ATOM     12  C   UNL     1      23.218   9.513   9.720  1.00  0.00     0.000 C 
BRANCH  12  13
ATOM     13  C   UNL     1      24.159   8.311   9.896  1.00  0.00    -0.000 C 
BRANCH  13  14
ATOM     14  C   UNL     1      25.443   8.722  10.626  1.00  0.00    -0.000 C 
BRANCH  14  15
ATOM     15  C   UNL     1      25.914   7.612  11.577  1.00  0.00    -0.000 C 
BRANCH  15  16
ATOM     16  C   UNL     1      24.849   6.525  11.790  1.00  0.00    -0.000 C 
BRANCH  16  17
ATOM     17  C   UNL     1      24.344   6.467  13.242  1.00  0.00    -0.000 C 
BRANCH  17  18
ATOM     18  C   UNL     1      24.936   7.583  14.118  1.00  0.00    -0.000 C 
BRANCH  18  19
ATOM     19  C   UNL     1      23.884   8.613  14.554  1.00  0.00    -0.003 C 
ATOM     20  C   UNL     1      24.259  10.015  14.084  1.00  0.00     0.004 C 
ENDBRANCH  18  19
ENDBRANCH  17  18
ENDBRANCH  16  17
ENDBRANCH  15  16
ENDBRANCH  14  15
ENDBRANCH  13  14
ENDBRANCH  12  13
ENDBRANCH   1  12
TORSDOF 16
ENDMDL
MODEL 6
REMARK VINA RESULT:    -4.179      0.862      1.978
REMARK INTER + INTRA:         -11.053
REMARK INTER:                  -8.495
REMARK INTRA:                  -2.558
REMARK UNBOUND:                -2.965
REMARK SMILES CCCCCCCCCCCCCCCCCC(=O)[O-]
REMARK SMILES IDX 10 1 11 2 12 3 13 4 14 5 15 6 16 7 17 8 18 9 19 10 20 11
REMARK SMILES IDX 9 12 8 13 7 14 6 15 5 16 4 17 3 18 2 19 1 20
REMARK H PARENT
REMARK Flexibility Score: inf
ROOT
ATOM      1  C   UNL     1      25.863   9.234  11.059  1.00  0.00     0.000 C 
ENDROOT
BRANCH   1   2
ATOM      2  C   UNL     1      25.324  10.571  11.599  1.00  0.00     0.000 C 
BRANCH   2   3
ATOM      3  C   UNL     1      24.704  10.423  13.005  1.00  0.00     0.000 C 
BRANCH   3   4
ATOM      4  C   UNL     1      25.274   9.239  13.805  1.00  0.00     0.000 C 
BRANCH   4   5
ATOM      5  C   UNL     1      24.178   8.329  14.384  1.00  0.00     0.000 C 
BRANCH   5   6
ATOM      6  C   UNL     1      23.070   8.014  13.366  1.00  0.00     0.000 C 
BRANCH   6   7
ATOM      7  C   UNL     1      23.184   6.592  12.790  1.00  0.00     0.006 C 
BRANCH   7   8
ATOM      8  C   UNL     1      24.130   5.708  13.614  1.00  0.00     0.053 C 
BRANCH   8   9
ATOM      9  C   UNL     1      25.134   5.008  12.749  1.00  0.00     0.041 C 
ATOM     10  O   UNL     1      25.757   5.645  11.860  1.00  0.00    -0.550 OA
ATOM     11  O   UNL     1      25.400   3.658  12.945  1.00  0.00    -0.550 OA
ENDBRANCH   8   9
ENDBRANCH   7   8
ENDBRANCH   6   7
ENDBRANCH   5   6
ENDBRANCH   4   5
ENDBRANCH   3   4
ENDBRANCH   2   3
ENDBRANCH   1   2
BRANCH   1  12
ATOM     12  C   UNL     1      24.901   8.564  10.065  1.00  0.00     0.000 C 
BRANCH  12  13
ATOM     13  C   UNL     1      23.605   9.364   9.862  1.00  0.00    -0.000 C 
BRANCH  13  14
ATOM     14  C   UNL     1      22.397   8.429   9.733  1.00  0.00    -0.000 C 
BRANCH  14  15
ATOM     15  C   UNL     1      21.145   9.060  10.361  1.00  0.00    -0.000 C 
BRANCH  15  16
ATOM     16  C   UNL     1      20.123   8.009  10.823  1.00  0.00    -0.000 C 
BRANCH  16  17
ATOM     17  C   UNL     1      20.227   6.694  10.031  1.00  0.00    -0.000 C 
BRANCH  17  18
ATOM     18  C   UNL     1      19.228   6.626   8.865  1.00  0.00    -0.000 C 
BRANCH  18  19
ATOM     19  C   UNL     1      19.835   7.105   7.538  1.00  0.00    -0.003 C 
ATOM     20  C   UNL     1      19.180   8.400   7.069  1.00  0.00     0.004 C 
ENDBRANCH  18  19
ENDBRANCH  17  18
ENDBRANCH  16  17
ENDBRANCH  15  16
ENDBRANCH  14  15
ENDBRANCH  13  14
ENDBRANCH  12  13
ENDBRANCH   1  12
TORSDOF 16
ENDMDL
MODEL 7
REMARK VINA RESULT:    -4.114      0.946      1.630
REMARK INTER + INTRA:         -10.927
REMARK INTER:                  -9.106
REMARK INTRA:                  -1.820
REMARK UNBOUND:                -2.965
REMARK SMILES CCCCCCCCCCCCCCCCCC(=O)[O-]
REMARK SMILES IDX 10 1 11 2 12 3 13 4 14 5 15 6 16 7 17 8 18 9 19 10 20 11
REMARK SMILES IDX 9 12 8 13 7 14 6 15 5 16 4 17 3 18 2 19 1 20
REMARK H PARENT
REMARK Flexibility Score: inf
ROOT
ATOM      1  C   UNL     1      23.875   8.235  10.344  1.00  0.00     0.000 C 
ENDROOT
BRANCH   1   2
ATOM      2  C   UNL     1      25.041   8.623  11.270  1.00  0.00     0.000 C 
BRANCH   2   3
ATOM      3  C   UNL     1      24.555   9.328  12.554  1.00  0.00     0.000 C 
BRANCH   3   4
ATOM      4  C   UNL     1      23.674   8.437  13.446  1.00  0.00     0.000 C 
BRANCH   4   5
ATOM      5  C   UNL     1      24.395   7.972  14.722  1.00  0.00     0.000 C 
BRANCH   5   6
ATOM      6  C   UNL     1      24.901   6.524  14.623  1.00  0.00     0.000 C 
BRANCH   6   7
ATOM      7  C   UNL     1      24.179   5.720  13.526  1.00  0.00     0.006 C 
BRANCH   7   8
ATOM      8  C   UNL     1      23.833   4.298  13.984  1.00  0.00     0.053 C 
BRANCH   8   9
ATOM      9  C   UNL     1      24.728   3.275  13.354  1.00  0.00     0.041 C 
ATOM     10  O   UNL     1      25.681   3.637  12.615  1.00  0.00    -0.550 OA
ATOM     11  O   UNL     1      24.527   1.923  13.606  1.00  0.00    -0.550 OA
ENDBRANCH   8   9
ENDBRANCH   7   8
ENDBRANCH   6   7
ENDBRANCH   5   6
ENDBRANCH   4   5
ENDBRANCH   3   4
ENDBRANCH   2   3
ENDBRANCH   1   2
BRANCH   1  12
ATOM     12  C   UNL     1      23.122   9.457   9.794  1.00  0.00     0.000 C 
BRANCH  12  13
ATOM     13  C   UNL     1      21.607   9.379  10.038  1.00  0.00    -0.000 C 
BRANCH  13  14
ATOM     14  C   UNL     1      21.252   8.159  10.896  1.00  0.00    -0.000 C 
BRANCH  14  15
ATOM     15  C   UNL     1      19.729   8.006  11.031  1.00  0.00    -0.000 C 
BRANCH  15  16
ATOM     16  C   UNL     1      19.278   6.538  11.009  1.00  0.00    -0.000 C 
BRANCH  16  17
ATOM     17  C   UNL     1      19.657   5.821   9.702  1.00  0.00    -0.000 C 
BRANCH  17  18
ATOM     18  C   UNL     1      18.967   6.432   8.472  1.00  0.00    -0.000 C 
BRANCH  18  19
ATOM     19  C   UNL     1      19.932   7.243   7.594  1.00  0.00    -0.003 C 
ATOM     20  C   UNL     1      19.201   8.370   6.871  1.00  0.00     0.004 C 
ENDBRANCH  18  19
ENDBRANCH  17  18
ENDBRANCH  16  17
ENDBRANCH  15  16
ENDBRANCH  14  15
ENDBRANCH  13  14
ENDBRANCH  12  13
ENDBRANCH   1  12
TORSDOF 16
ENDMDL
MODEL 8
REMARK VINA RESULT:    -4.075      1.059      4.244
REMARK INTER + INTRA:         -10.852
REMARK INTER:                  -8.528
REMARK INTRA:                  -2.324
REMARK UNBOUND:                -2.965
REMARK SMILES CCCCCCCCCCCCCCCCCC(=O)[O-]
REMARK SMILES IDX 10 1 11 2 12 3 13 4 14 5 15 6 16 7 17 8 18 9 19 10 20 11
REMARK SMILES IDX 9 12 8 13 7 14 6 15 5 16 4 17 3 18 2 19 1 20
REMARK H PARENT
REMARK Flexibility Score: inf
ROOT
ATOM      1  C   UNL     1      18.976   5.864   9.683  1.00  0.00     0.000 C 
ENDROOT
BRANCH   1   2
ATOM      2  C   UNL     1      19.186   6.549  11.046  1.00  0.00     0.000 C 
BRANCH   2   3
ATOM      3  C   UNL     1      20.677   6.831  11.332  1.00  0.00     0.000 C 
BRANCH   3   4
ATOM      4  C   UNL     1      20.917   8.157  12.075  1.00  0.00     0.000 C 
BRANCH   4   5
ATOM      5  C   UNL     1      22.259   8.184  12.825  1.00  0.00     0.000 C 
BRANCH   5   6
ATOM      6  C   UNL     1      23.019   6.851  12.728  1.00  0.00     0.000 C 
BRANCH   6   7
ATOM      7  C   UNL     1      24.379   6.893  13.448  1.00  0.00     0.006 C 
BRANCH   7   8
ATOM      8  C   UNL     1      24.672   5.593  14.207  1.00  0.00     0.053 C 
BRANCH   8   9
ATOM      9  C   UNL     1      24.902   4.443  13.275  1.00  0.00     0.041 C 
ATOM     10  O   UNL     1      24.334   3.338  13.481  1.00  0.00    -0.550 OA
ATOM     11  O   UNL     1      25.723   4.599  12.165  1.00  0.00    -0.550 OA
ENDBRANCH   8   9
ENDBRANCH   7   8
ENDBRANCH   6   7
ENDBRANCH   5   6
ENDBRANCH   4   5
ENDBRANCH   3   4
ENDBRANCH   2   3
ENDBRANCH   1   2
BRANCH   1  12
ATOM     12  C   UNL     1      19.966   6.354   8.614  1.00  0.00     0.000 C 
BRANCH  12  13
ATOM     13  C   UNL     1      19.301   7.248   7.556  1.00  0.00    -0.000 C 
BRANCH  13  14
ATOM     14  C   UNL     1      20.147   8.497   7.283  1.00  0.00    -0.000 C 
BRANCH  14  15
ATOM     15  C   UNL     1      20.856   8.970   8.561  1.00  0.00    -0.000 C 
BRANCH  15  16
ATOM     16  C   UNL     1      22.269   9.508   8.288  1.00  0.00    -0.000 C 
BRANCH  16  17
ATOM     17  C   UNL     1      23.106   9.651   9.571  1.00  0.00    -0.000 C 
BRANCH  17  18
ATOM     18  C   UNL     1      24.166   8.547   9.710  1.00  0.00    -0.000 C 
BRANCH  18  19
ATOM     19  C   UNL     1      25.394   9.004  10.511  1.00  0.00    -0.003 C 
ATOM     20  C   UNL     1      25.040  10.151  11.454  1.00  0.00     0.004 C 
ENDBRANCH  18  19
ENDBRANCH  17  18
ENDBRANCH  16  17
ENDBRANCH  15  16
ENDBRANCH  14  15
ENDBRANCH  13  14
ENDBRANCH  12  13
ENDBRANCH   1  12
TORSDOF 16
ENDMDL
MODEL 9
REMARK VINA RESULT:    -4.060      2.136      3.665
REMARK INTER + INTRA:         -10.823
REMARK INTER:                  -9.246
REMARK INTRA:                  -1.577
REMARK UNBOUND:                -2.965
REMARK SMILES CCCCCCCCCCCCCCCCCC(=O)[O-]
REMARK SMILES IDX 10 1 11 2 12 3 13 4 14 5 15 6 16 7 17 8 18 9 19 10 20 11
REMARK SMILES IDX 9 12 8 13 7 14 6 15 5 16 4 17 3 18 2 19 1 20
REMARK H PARENT
REMARK Flexibility Score: inf
ROOT
ATOM      1  C   UNL     1      24.271   8.019  14.312  1.00  0.00     0.000 C 
ENDROOT
BRANCH   1   2
ATOM      2  C   UNL     1      23.468   9.250  14.769  1.00  0.00     0.000 C 
BRANCH   2   3
ATOM      3  C   UNL     1      24.354  10.505  14.909  1.00  0.00     0.000 C 
BRANCH   3   4
ATOM      4  C   UNL     1      25.690  10.399  14.152  1.00  0.00     0.000 C 
BRANCH   4   5
ATOM      5  C   UNL     1      26.021  11.666  13.348  1.00  0.00     0.000 C 
BRANCH   5   6
ATOM      6  C   UNL     1      26.059  11.413  11.832  1.00  0.00     0.000 C 
BRANCH   6   7
ATOM      7  C   UNL     1      25.506  10.028  11.451  1.00  0.00     0.006 C 
BRANCH   7   8
ATOM      8  C   UNL     1      24.058  10.102  10.947  1.00  0.00     0.053 C 
BRANCH   8   9
ATOM      9  C   UNL     1      23.842   9.236   9.744  1.00  0.00     0.041 C 
ATOM     10  O   UNL     1      22.857   9.440   8.986  1.00  0.00    -0.550 OA
ATOM     11  O   UNL     1      24.743   8.222   9.444  1.00  0.00    -0.550 OA
ENDBRANCH   8   9
ENDBRANCH   7   8
ENDBRANCH   6   7
ENDBRANCH   5   6
ENDBRANCH   4   5
ENDBRANCH   3   4
ENDBRANCH   2   3
ENDBRANCH   1   2
BRANCH   1  12
ATOM     12  C   UNL     1      23.526   7.180  13.262  1.00  0.00     0.000 C 
BRANCH  12  13
ATOM     13  C   UNL     1      22.194   7.815  12.832  1.00  0.00    -0.000 C 
BRANCH  13  14
ATOM     14  C   UNL     1      21.653   7.148  11.562  1.00  0.00    -0.000 C 
BRANCH  14  15
ATOM     15  C   UNL     1      20.152   7.426  11.392  1.00  0.00    -0.000 C 
BRANCH  15  16
ATOM     16  C   UNL     1      19.342   6.150  11.116  1.00  0.00    -0.000 C 
BRANCH  16  17
ATOM     17  C   UNL     1      19.259   5.814   9.617  1.00  0.00    -0.000 C 
BRANCH  17  18
ATOM     18  C   UNL     1      19.976   6.851   8.739  1.00  0.00    -0.000 C 
BRANCH  18  19
ATOM     19  C   UNL     1      19.171   7.220   7.484  1.00  0.00    -0.003 C 
ATOM     20  C   UNL     1      19.734   8.472   6.818  1.00  0.00     0.004 C 
ENDBRANCH  18  19
ENDBRANCH  17  18
ENDBRANCH  16  17
ENDBRANCH  15  16
ENDBRANCH  14  15
ENDBRANCH  13  14
ENDBRANCH  12  13
ENDBRANCH   1  12
TORSDOF 16
ENDMDL
