MODEL 1
REMARK VINA RESULT:    -4.157      0.000      0.000
REMARK INTER + INTRA:         -12.409
REMARK INTER:                 -10.476
REMARK INTRA:                  -1.933
REMARK UNBOUND:                -1.933
REMARK SMILES CCCCCCCCCCCCCCCCCCCCCCCCCCCC(=O)[O-]
REMARK SMILES IDX 15 1 16 2 17 3 18 4 19 5 20 6 21 7 22 8 23 9 24 10 25 11
REMARK SMILES IDX 26 12 27 13 28 14 29 15 30 16 14 17 13 18 12 19 11 20 10 21
REMARK SMILES IDX 9 22 8 23 7 24 6 25 5 26 4 27 3 28 2 29 1 30
REMARK H PARENT
REMARK Flexibility Score: inf
ROOT
ATOM      1  C   UNL     1      24.375  -9.371  35.722  1.00  0.00     0.000 C 
ENDROOT
BRANCH   1   2
ATOM      2  C   UNL     1      23.235  -8.394  36.048  1.00  0.00     0.000 C 
BRANCH   2   3
ATOM      3  C   UNL     1      23.587  -7.444  37.207  1.00  0.00     0.000 C 
BRANCH   3   4
ATOM      4  C   UNL     1      25.104  -7.262  37.378  1.00  0.00     0.000 C 
BRANCH   4   5
ATOM      5  C   UNL     1      25.449  -6.163  38.399  1.00  0.00     0.000 C 
BRANCH   5   6
ATOM      6  C   UNL     1      24.422  -5.016  38.418  1.00  0.00     0.000 C 
BRANCH   6   7
ATOM      7  C   UNL     1      24.995  -3.636  38.791  1.00  0.00     0.000 C 
BRANCH   7   8
ATOM      8  C   UNL     1      23.987  -2.491  38.583  1.00  0.00     0.000 C 
BRANCH   8   9
ATOM      9  C   UNL     1      22.932  -2.422  39.698  1.00  0.00     0.000 C 
BRANCH   9  10
ATOM     10  C   UNL     1      22.496  -0.978  40.004  1.00  0.00     0.000 C 
BRANCH  10  11
ATOM     11  C   UNL     1      21.300  -0.911  40.964  1.00  0.00     0.000 C 
BRANCH  11  12
ATOM     12  C   UNL     1      21.146  -2.189  41.810  1.00  0.00     0.006 C 
BRANCH  12  13
ATOM     13  C   UNL     1      21.412  -1.932  43.299  1.00  0.00     0.053 C 
BRANCH  13  14
ATOM     14  C   UNL     1      22.578  -2.727  43.806  1.00  0.00     0.041 C 
ATOM     15  O   UNL     1      22.912  -2.660  45.019  1.00  0.00    -0.550 OA
ATOM     16  O   UNL     1      23.276  -3.564  42.944  1.00  0.00    -0.550 OA
ENDBRANCH  13  14
ENDBRANCH  12  13
ENDBRANCH  11  12
ENDBRANCH  10  11
ENDBRANCH   9  10
ENDBRANCH   8   9
ENDBRANCH   7   8
ENDBRANCH   6   7
ENDBRANCH   5   6
ENDBRANCH   4   5
ENDBRANCH   3   4
ENDBRANCH   2   3
ENDBRANCH   1   2
BRANCH   1  17
ATOM     17  C   UNL     1      24.346  -9.848  34.257  1.00  0.00     0.000 C 
BRANCH  17  18
ATOM     18  C   UNL     1      24.895  -8.786  33.281  1.00  0.00     0.000 C 
BRANCH  18  19
ATOM     19  C   UNL     1      24.576  -9.071  31.799  1.00  0.00     0.000 C 
BRANCH  19  20
ATOM     20  C   UNL     1      24.830 -10.517  31.344  1.00  0.00     0.000 C 
BRANCH  20  21
ATOM     21  C   UNL     1      26.319 -10.818  31.115  1.00  0.00     0.000 C 
BRANCH  21  22
ATOM     22  C   UNL     1      26.975  -9.734  30.251  1.00  0.00    -0.000 C 
BRANCH  22  23
ATOM     23  C   UNL     1      28.447 -10.037  29.923  1.00  0.00    -0.000 C 
BRANCH  23  24
ATOM     24  C   UNL     1      29.000 -11.291  30.634  1.00  0.00    -0.000 C 
BRANCH  24  25
ATOM     25  C   UNL     1      30.171 -10.959  31.577  1.00  0.00    -0.000 C 
BRANCH  25  26
ATOM     26  C   UNL     1      31.366 -10.338  30.838  1.00  0.00    -0.000 C 
BRANCH  26  27
ATOM     27  C   UNL     1      31.885  -9.062  31.522  1.00  0.00    -0.000 C 
BRANCH  27  28
ATOM     28  C   UNL     1      30.775  -8.027  31.774  1.00  0.00    -0.000 C 
BRANCH  28  29
ATOM     29  C   UNL     1      30.927  -7.269  33.110  1.00  0.00    -0.003 C 
ATOM     30  C   UNL     1      31.900  -7.960  34.066  1.00  0.00     0.004 C 
ENDBRANCH  28  29
ENDBRANCH  27  28
ENDBRANCH  26  27
ENDBRANCH  25  26
ENDBRANCH  24  25
ENDBRANCH  23  24
ENDBRANCH  22  23
ENDBRANCH  21  22
ENDBRANCH  20  21
ENDBRANCH  19  20
ENDBRANCH  18  19
ENDBRANCH  17  18
ENDBRANCH   1  17
TORSDOF 26
ENDMDL
MODEL 2
REMARK VINA RESULT:    -3.970      3.681     12.013
REMARK INTER + INTRA:         -11.937
REMARK INTER:                  -9.868
REMARK INTRA:                  -2.069
REMARK UNBOUND:                -1.933
REMARK SMILES CCCCCCCCCCCCCCCCCCCCCCCCCCCC(=O)[O-]
REMARK SMILES IDX 15 1 16 2 17 3 18 4 19 5 20 6 21 7 22 8 23 9 24 10 25 11
REMARK SMILES IDX 26 12 27 13 28 14 29 15 30 16 14 17 13 18 12 19 11 20 10 21
REMARK SMILES IDX 9 22 8 23 7 24 6 25 5 26 4 27 3 28 2 29 1 30
REMARK H PARENT
REMARK Flexibility Score: inf
ROOT
ATOM      1  C   UNL     1      25.001 -10.375  33.695  1.00  0.00     0.000 C 
ENDROOT
BRANCH   1   2
ATOM      2  C   UNL     1      24.918  -9.111  32.824  1.00  0.00     0.000 C 
BRANCH   2   3
ATOM      3  C   UNL     1      24.109  -9.336  31.536  1.00  0.00     0.000 C 
BRANCH   3   4
ATOM      4  C   UNL     1      24.290  -8.196  30.520  1.00  0.00     0.000 C 
BRANCH   4   5
ATOM      5  C   UNL     1      24.186  -8.687  29.066  1.00  0.00     0.000 C 
BRANCH   5   6
ATOM      6  C   UNL     1      25.140  -9.855  28.755  1.00  0.00     0.000 C 
BRANCH   6   7
ATOM      7  C   UNL     1      26.623  -9.465  28.613  1.00  0.00     0.000 C 
BRANCH   7   8
ATOM      8  C   UNL     1      27.581 -10.642  28.869  1.00  0.00     0.000 C 
BRANCH   8   9
ATOM      9  C   UNL     1      27.248 -11.406  30.159  1.00  0.00     0.000 C 
BRANCH   9  10
ATOM     10  C   UNL     1      28.281 -11.158  31.272  1.00  0.00     0.000 C 
BRANCH  10  11
ATOM     11  C   UNL     1      29.660 -10.765  30.723  1.00  0.00     0.000 C 
BRANCH  11  12
ATOM     12  C   UNL     1      30.539 -10.063  31.775  1.00  0.00     0.006 C 
BRANCH  12  13
ATOM     13  C   UNL     1      30.687  -8.561  31.496  1.00  0.00     0.053 C 
BRANCH  13  14
ATOM     14  C   UNL     1      30.780  -7.763  32.761  1.00  0.00     0.041 C 
ATOM     15  O   UNL     1      31.422  -8.211  33.748  1.00  0.00    -0.550 OA
ATOM     16  O   UNL     1      30.182  -6.511  32.839  1.00  0.00    -0.550 OA
ENDBRANCH  13  14
ENDBRANCH  12  13
ENDBRANCH  11  12
ENDBRANCH  10  11
ENDBRANCH   9  10
ENDBRANCH   8   9
ENDBRANCH   7   8
ENDBRANCH   6   7
ENDBRANCH   5   6
ENDBRANCH   4   5
ENDBRANCH   3   4
ENDBRANCH   2   3
ENDBRANCH   1   2
BRANCH   1  17
ATOM     17  C   UNL     1      24.078 -10.307  34.926  1.00  0.00     0.000 C 
BRANCH  17  18
ATOM     18  C   UNL     1      23.785  -8.857  35.364  1.00  0.00     0.000 C 
BRANCH  18  19
ATOM     19  C   UNL     1      24.667  -8.362  36.528  1.00  0.00     0.000 C 
BRANCH  19  20
ATOM     20  C   UNL     1      24.135  -7.126  37.270  1.00  0.00     0.000 C 
BRANCH  20  21
ATOM     21  C   UNL     1      25.229  -6.379  38.048  1.00  0.00     0.000 C 
BRANCH  21  22
ATOM     22  C   UNL     1      24.636  -5.226  38.868  1.00  0.00    -0.000 C 
BRANCH  22  23
ATOM     23  C   UNL     1      25.213  -3.854  38.480  1.00  0.00    -0.000 C 
BRANCH  23  24
ATOM     24  C   UNL     1      24.176  -2.712  38.495  1.00  0.00    -0.000 C 
BRANCH  24  25
ATOM     25  C   UNL     1      23.411  -2.635  39.830  1.00  0.00    -0.000 C 
BRANCH  25  26
ATOM     26  C   UNL     1      22.071  -1.896  39.700  1.00  0.00    -0.000 C 
BRANCH  26  27
ATOM     27  C   UNL     1      22.150  -0.439  40.187  1.00  0.00    -0.000 C 
BRANCH  27  28
ATOM     28  C   UNL     1      22.185  -0.324  41.721  1.00  0.00    -0.000 C 
BRANCH  28  29
ATOM     29  C   UNL     1      20.857  -0.718  42.401  1.00  0.00    -0.003 C 
ATOM     30  C   UNL     1      21.065  -1.650  43.595  1.00  0.00     0.004 C 
ENDBRANCH  28  29
ENDBRANCH  27  28
ENDBRANCH  26  27
ENDBRANCH  25  26
ENDBRANCH  24  25
ENDBRANCH  23  24
ENDBRANCH  22  23
ENDBRANCH  21  22
ENDBRANCH  20  21
ENDBRANCH  19  20
ENDBRANCH  18  19
ENDBRANCH  17  18
ENDBRANCH   1  17
TORSDOF 26
ENDMDL
MODEL 3
REMARK VINA RESULT:    -3.841      1.260      2.198
REMARK INTER + INTRA:         -11.612
REMARK INTER:                  -9.789
REMARK INTRA:                  -1.824
REMARK UNBOUND:                -1.933
REMARK SMILES CCCCCCCCCCCCCCCCCCCCCCCCCCCC(=O)[O-]
REMARK SMILES IDX 15 1 16 2 17 3 18 4 19 5 20 6 21 7 22 8 23 9 24 10 25 11
REMARK SMILES IDX 26 12 27 13 28 14 29 15 30 16 14 17 13 18 12 19 11 20 10 21
REMARK SMILES IDX 9 22 8 23 7 24 6 25 5 26 4 27 3 28 2 29 1 30
REMARK H PARENT
REMARK Flexibility Score: inf
ROOT
ATOM      1  C   UNL     1      23.565 -10.637  33.750  1.00  0.00     0.000 C 
ENDROOT
BRANCH   1   2
ATOM      2  C   UNL     1      22.834 -11.206  34.976  1.00  0.00     0.000 C 
BRANCH   2   3
ATOM      3  C   UNL     1      23.080 -10.374  36.246  1.00  0.00     0.000 C 
BRANCH   3   4
ATOM      4  C   UNL     1      24.263  -9.404  36.094  1.00  0.00     0.000 C 
BRANCH   4   5
ATOM      5  C   UNL     1      23.899  -7.969  36.515  1.00  0.00     0.000 C 
BRANCH   5   6
ATOM      6  C   UNL     1      25.053  -7.239  37.227  1.00  0.00     0.000 C 
BRANCH   6   7
ATOM      7  C   UNL     1      24.624  -6.310  38.377  1.00  0.00     0.000 C 
BRANCH   7   8
ATOM      8  C   UNL     1      25.346  -4.951  38.353  1.00  0.00     0.000 C 
BRANCH   8   9
ATOM      9  C   UNL     1      24.719  -3.930  39.315  1.00  0.00     0.000 C 
BRANCH   9  10
ATOM     10  C   UNL     1      23.851  -2.890  38.584  1.00  0.00     0.000 C 
BRANCH  10  11
ATOM     11  C   UNL     1      23.011  -2.038  39.546  1.00  0.00     0.000 C 
BRANCH  11  12
ATOM     12  C   UNL     1      23.379  -2.274  41.022  1.00  0.00     0.006 C 
BRANCH  12  13
ATOM     13  C   UNL     1      22.501  -1.451  41.975  1.00  0.00     0.053 C 
BRANCH  13  14
ATOM     14  C   UNL     1      22.094  -2.239  43.183  1.00  0.00     0.041 C 
ATOM     15  O   UNL     1      22.652  -3.338  43.441  1.00  0.00    -0.550 OA
ATOM     16  O   UNL     1      21.118  -1.744  44.040  1.00  0.00    -0.550 OA
ENDBRANCH  13  14
ENDBRANCH  12  13
ENDBRANCH  11  12
ENDBRANCH  10  11
ENDBRANCH   9  10
ENDBRANCH   8   9
ENDBRANCH   7   8
ENDBRANCH   6   7
ENDBRANCH   5   6
ENDBRANCH   4   5
ENDBRANCH   3   4
ENDBRANCH   2   3
ENDBRANCH   1   2
BRANCH   1  17
ATOM     17  C   UNL     1      24.570 -11.635  33.143  1.00  0.00     0.000 C 
BRANCH  17  18
ATOM     18  C   UNL     1      25.694 -10.933  32.353  1.00  0.00     0.000 C 
BRANCH  18  19
ATOM     19  C   UNL     1      25.237  -9.665  31.603  1.00  0.00     0.000 C 
BRANCH  19  20
ATOM     20  C   UNL     1      24.779  -9.894  30.154  1.00  0.00     0.000 C 
BRANCH  20  21
ATOM     21  C   UNL     1      25.576  -9.063  29.137  1.00  0.00     0.000 C 
BRANCH  21  22
ATOM     22  C   UNL     1      26.440  -9.962  28.244  1.00  0.00    -0.000 C 
BRANCH  22  23
ATOM     23  C   UNL     1      27.946  -9.803  28.511  1.00  0.00    -0.000 C 
BRANCH  23  24
ATOM     24  C   UNL     1      28.440 -10.548  29.769  1.00  0.00    -0.000 C 
BRANCH  24  25
ATOM     25  C   UNL     1      28.806  -9.584  30.913  1.00  0.00    -0.000 C 
BRANCH  25  26
ATOM     26  C   UNL     1      30.267  -9.732  31.363  1.00  0.00    -0.000 C 
BRANCH  26  27
ATOM     27  C   UNL     1      31.027  -8.395  31.353  1.00  0.00    -0.000 C 
BRANCH  27  28
ATOM     28  C   UNL     1      30.890  -7.621  32.675  1.00  0.00    -0.000 C 
BRANCH  28  29
ATOM     29  C   UNL     1      31.539  -8.334  33.879  1.00  0.00    -0.003 C 
ATOM     30  C   UNL     1      32.651  -7.504  34.521  1.00  0.00     0.004 C 
ENDBRANCH  28  29
ENDBRANCH  27  28
ENDBRANCH  26  27
ENDBRANCH  25  26
ENDBRANCH  24  25
ENDBRANCH  23  24
ENDBRANCH  22  23
ENDBRANCH  21  22
ENDBRANCH  20  21
ENDBRANCH  19  20
ENDBRANCH  18  19
ENDBRANCH  17  18
ENDBRANCH   1  17
TORSDOF 26
ENDMDL
MODEL 4
REMARK VINA RESULT:    -3.812      3.804     11.327
REMARK INTER + INTRA:         -11.539
REMARK INTER:                  -9.023
REMARK INTRA:                  -2.516
REMARK UNBOUND:                -1.933
REMARK SMILES CCCCCCCCCCCCCCCCCCCCCCCCCCCC(=O)[O-]
REMARK SMILES IDX 15 1 16 2 17 3 18 4 19 5 20 6 21 7 22 8 23 9 24 10 25 11
REMARK SMILES IDX 26 12 27 13 28 14 29 15 30 16 14 17 13 18 12 19 11 20 10 21
REMARK SMILES IDX 9 22 8 23 7 24 6 25 5 26 4 27 3 28 2 29 1 30
REMARK H PARENT
REMARK Flexibility Score: inf
ROOT
ATOM      1  C   UNL     1      24.759 -11.998  32.541  1.00  0.00     0.000 C 
ENDROOT
BRANCH   1   2
ATOM      2  C   UNL     1      23.243 -11.843  32.346  1.00  0.00     0.000 C 
BRANCH   2   3
ATOM      3  C   UNL     1      22.892 -10.966  31.132  1.00  0.00     0.000 C 
BRANCH   3   4
ATOM      4  C   UNL     1      22.661  -9.495  31.515  1.00  0.00     0.000 C 
BRANCH   4   5
ATOM      5  C   UNL     1      23.403  -8.524  30.579  1.00  0.00     0.000 C 
BRANCH   5   6
ATOM      6  C   UNL     1      24.923  -8.763  30.546  1.00  0.00     0.000 C 
BRANCH   6   7
ATOM      7  C   UNL     1      25.493  -9.143  29.167  1.00  0.00     0.000 C 
BRANCH   7   8
ATOM      8  C   UNL     1      26.982  -9.531  29.219  1.00  0.00     0.000 C 
BRANCH   8   9
ATOM      9  C   UNL     1      27.194 -11.025  29.511  1.00  0.00     0.000 C 
BRANCH   9  10
ATOM     10  C   UNL     1      28.370 -11.274  30.471  1.00  0.00     0.000 C 
BRANCH  10  11
ATOM     11  C   UNL     1      28.791 -10.009  31.233  1.00  0.00     0.000 C 
BRANCH  11  12
ATOM     12  C   UNL     1      30.239  -9.585  30.923  1.00  0.00     0.006 C 
BRANCH  12  13
ATOM     13  C   UNL     1      31.105  -9.515  32.188  1.00  0.00     0.053 C 
BRANCH  13  14
ATOM     14  C   UNL     1      31.253  -8.110  32.689  1.00  0.00     0.041 C 
ATOM     15  O   UNL     1      31.136  -7.138  31.895  1.00  0.00    -0.550 OA
ATOM     16  O   UNL     1      31.492  -7.873  34.037  1.00  0.00    -0.550 OA
ENDBRANCH  13  14
ENDBRANCH  12  13
ENDBRANCH  11  12
ENDBRANCH  10  11
ENDBRANCH   9  10
ENDBRANCH   8   9
ENDBRANCH   7   8
ENDBRANCH   6   7
ENDBRANCH   5   6
ENDBRANCH   4   5
ENDBRANCH   3   4
ENDBRANCH   2   3
ENDBRANCH   1   2
BRANCH   1  17
ATOM     17  C   UNL     1      25.337 -10.975  33.537  1.00  0.00     0.000 C 
BRANCH  17  18
ATOM     18  C   UNL     1      24.350 -10.639  34.675  1.00  0.00     0.000 C 
BRANCH  18  19
ATOM     19  C   UNL     1      24.369  -9.158  35.105  1.00  0.00     0.000 C 
BRANCH  19  20
ATOM     20  C   UNL     1      23.209  -8.728  36.017  1.00  0.00     0.000 C 
BRANCH  20  21
ATOM     21  C   UNL     1      23.551  -7.507  36.884  1.00  0.00     0.000 C 
BRANCH  21  22
ATOM     22  C   UNL     1      25.047  -7.470  37.220  1.00  0.00    -0.000 C 
BRANCH  22  23
ATOM     23  C   UNL     1      25.403  -6.388  38.255  1.00  0.00    -0.000 C 
BRANCH  23  24
ATOM     24  C   UNL     1      24.371  -5.244  38.342  1.00  0.00    -0.000 C 
BRANCH  24  25
ATOM     25  C   UNL     1      25.022  -3.897  38.710  1.00  0.00    -0.000 C 
BRANCH  25  26
ATOM     26  C   UNL     1      24.036  -2.723  38.623  1.00  0.00    -0.000 C 
BRANCH  26  27
ATOM     27  C   UNL     1      23.362  -2.417  39.971  1.00  0.00    -0.000 C 
BRANCH  27  28
ATOM     28  C   UNL     1      22.194  -1.424  39.842  1.00  0.00    -0.000 C 
BRANCH  28  29
ATOM     29  C   UNL     1      21.697  -0.874  41.196  1.00  0.00    -0.003 C 
ATOM     30  C   UNL     1      22.131   0.573  41.434  1.00  0.00     0.004 C 
ENDBRANCH  28  29
ENDBRANCH  27  28
ENDBRANCH  26  27
ENDBRANCH  25  26
ENDBRANCH  24  25
ENDBRANCH  23  24
ENDBRANCH  22  23
ENDBRANCH  21  22
ENDBRANCH  20  21
ENDBRANCH  19  20
ENDBRANCH  18  19
ENDBRANCH  17  18
ENDBRANCH   1  17
TORSDOF 26
ENDMDL
MODEL 5
REMARK VINA RESULT:    -3.577      1.173      2.303
REMARK INTER + INTRA:         -10.947
REMARK INTER:                  -9.102
REMARK INTRA:                  -1.845
REMARK UNBOUND:                -1.933
REMARK SMILES CCCCCCCCCCCCCCCCCCCCCCCCCCCC(=O)[O-]
REMARK SMILES IDX 15 1 16 2 17 3 18 4 19 5 20 6 21 7 22 8 23 9 24 10 25 11
REMARK SMILES IDX 26 12 27 13 28 14 29 15 30 16 14 17 13 18 12 19 11 20 10 21
REMARK SMILES IDX 9 22 8 23 7 24 6 25 5 26 4 27 3 28 2 29 1 30
REMARK H PARENT
REMARK Flexibility Score: inf
ROOT
ATOM      1  C   UNL     1      24.393  -9.451  35.769  1.00  0.00     0.000 C 
ENDROOT
BRANCH   1   2
ATOM      2  C   UNL     1      23.214  -8.493  36.002  1.00  0.00     0.000 C 
BRANCH   2   3
ATOM      3  C   UNL     1      23.558  -7.365  36.991  1.00  0.00     0.000 C 
BRANCH   3   4
ATOM      4  C   UNL     1      25.060  -7.305  37.315  1.00  0.00     0.000 C 
BRANCH   4   5
ATOM      5  C   UNL     1      25.385  -6.248  38.385  1.00  0.00     0.000 C 
BRANCH   5   6
ATOM      6  C   UNL     1      24.390  -5.072  38.391  1.00  0.00     0.000 C 
BRANCH   6   7
ATOM      7  C   UNL     1      25.001  -3.705  38.748  1.00  0.00     0.000 C 
BRANCH   7   8
ATOM      8  C   UNL     1      23.963  -2.569  38.765  1.00  0.00     0.000 C 
BRANCH   8   9
ATOM      9  C   UNL     1      23.215  -2.469  40.104  1.00  0.00     0.000 C 
BRANCH   9  10
ATOM     10  C   UNL     1      21.798  -1.891  39.944  1.00  0.00     0.000 C 
BRANCH  10  11
ATOM     11  C   UNL     1      20.988  -1.939  41.248  1.00  0.00     0.000 C 
BRANCH  11  12
ATOM     12  C   UNL     1      21.716  -1.261  42.423  1.00  0.00     0.006 C 
BRANCH  12  13
ATOM     13  C   UNL     1      21.094  -1.630  43.778  1.00  0.00     0.053 C 
BRANCH  13  14
ATOM     14  C   UNL     1      22.050  -2.395  44.642  1.00  0.00     0.041 C 
ATOM     15  O   UNL     1      22.999  -3.040  44.122  1.00  0.00    -0.550 OA
ATOM     16  O   UNL     1      21.909  -2.373  46.025  1.00  0.00    -0.550 OA
ENDBRANCH  13  14
ENDBRANCH  12  13
ENDBRANCH  11  12
ENDBRANCH  10  11
ENDBRANCH   9  10
ENDBRANCH   8   9
ENDBRANCH   7   8
ENDBRANCH   6   7
ENDBRANCH   5   6
ENDBRANCH   4   5
ENDBRANCH   3   4
ENDBRANCH   2   3
ENDBRANCH   1   2
BRANCH   1  17
ATOM     17  C   UNL     1      24.531  -9.873  34.294  1.00  0.00     0.000 C 
BRANCH  17  18
ATOM     18  C   UNL     1      23.219 -10.450  33.721  1.00  0.00     0.000 C 
BRANCH  18  19
ATOM     19  C   UNL     1      22.805  -9.842  32.366  1.00  0.00     0.000 C 
BRANCH  19  20
ATOM     20  C   UNL     1      23.895  -9.862  31.282  1.00  0.00     0.000 C 
BRANCH  20  21
ATOM     21  C   UNL     1      24.373  -8.455  30.891  1.00  0.00     0.000 C 
BRANCH  21  22
ATOM     22  C   UNL     1      24.588  -8.346  29.376  1.00  0.00    -0.000 C 
BRANCH  22  23
ATOM     23  C   UNL     1      25.257  -9.594  28.773  1.00  0.00    -0.000 C 
BRANCH  23  24
ATOM     24  C   UNL     1      26.792  -9.485  28.659  1.00  0.00    -0.000 C 
BRANCH  24  25
ATOM     25  C   UNL     1      27.489 -10.845  28.847  1.00  0.00    -0.000 C 
BRANCH  25  26
ATOM     26  C   UNL     1      26.978 -11.604  30.081  1.00  0.00    -0.000 C 
BRANCH  26  27
ATOM     27  C   UNL     1      27.910 -11.451  31.296  1.00  0.00    -0.000 C 
BRANCH  27  28
ATOM     28  C   UNL     1      29.308 -10.937  30.914  1.00  0.00    -0.000 C 
BRANCH  28  29
ATOM     29  C   UNL     1      29.537  -9.450  31.259  1.00  0.00    -0.003 C 
ATOM     30  C   UNL     1      30.944  -9.184  31.795  1.00  0.00     0.004 C 
ENDBRANCH  28  29
ENDBRANCH  27  28
ENDBRANCH  26  27
ENDBRANCH  25  26
ENDBRANCH  24  25
ENDBRANCH  23  24
ENDBRANCH  22  23
ENDBRANCH  21  22
ENDBRANCH  20  21
ENDBRANCH  19  20
ENDBRANCH  18  19
ENDBRANCH  17  18
ENDBRANCH   1  17
TORSDOF 26
ENDMDL
MODEL 6
REMARK VINA RESULT:    -3.567      7.884     12.108
REMARK INTER + INTRA:         -10.922
REMARK INTER:                  -6.844
REMARK INTRA:                  -4.078
REMARK UNBOUND:                -1.933
REMARK SMILES CCCCCCCCCCCCCCCCCCCCCCCCCCCC(=O)[O-]
REMARK SMILES IDX 15 1 16 2 17 3 18 4 19 5 20 6 21 7 22 8 23 9 24 10 25 11
REMARK SMILES IDX 26 12 27 13 28 14 29 15 30 16 14 17 13 18 12 19 11 20 10 21
REMARK SMILES IDX 9 22 8 23 7 24 6 25 5 26 4 27 3 28 2 29 1 30
REMARK H PARENT
REMARK Flexibility Score: inf
ROOT
ATOM      1  C   UNL     1      26.636 -12.054  29.503  1.00  0.00     0.000 C 
ENDROOT
BRANCH   1   2
ATOM      2  C   UNL     1      27.835 -11.550  28.685  1.00  0.00     0.000 C 
BRANCH   2   3
ATOM      3  C   UNL     1      29.158 -11.634  29.466  1.00  0.00     0.000 C 
BRANCH   3   4
ATOM      4  C   UNL     1      29.067 -10.970  30.850  1.00  0.00     0.000 C 
BRANCH   4   5
ATOM      5  C   UNL     1      28.931  -9.440  30.756  1.00  0.00     0.000 C 
BRANCH   5   6
ATOM      6  C   UNL     1      29.366  -8.716  32.043  1.00  0.00     0.000 C 
BRANCH   6   7
ATOM      7  C   UNL     1      30.422  -7.613  31.844  1.00  0.00     0.000 C 
BRANCH   7   8
ATOM      8  C   UNL     1      31.796  -7.985  32.429  1.00  0.00     0.000 C 
BRANCH   8   9
ATOM      9  C   UNL     1      32.179  -9.448  32.158  1.00  0.00     0.000 C 
BRANCH   9  10
ATOM     10  C   UNL     1      32.637  -9.676  30.706  1.00  0.00     0.000 C 
BRANCH  10  11
ATOM     11  C   UNL     1      32.951 -11.150  30.409  1.00  0.00     0.000 C 
BRANCH  11  12
ATOM     12  C   UNL     1      33.692 -11.339  29.072  1.00  0.00     0.006 C 
BRANCH  12  13
ATOM     13  C   UNL     1      35.213 -11.425  29.261  1.00  0.00     0.053 C 
BRANCH  13  14
ATOM     14  C   UNL     1      35.918 -10.241  28.671  1.00  0.00     0.041 C 
ATOM     15  O   UNL     1      37.165 -10.270  28.492  1.00  0.00    -0.550 OA
ATOM     16  O   UNL     1      35.194  -9.117  28.292  1.00  0.00    -0.550 OA
ENDBRANCH  13  14
ENDBRANCH  12  13
ENDBRANCH  11  12
ENDBRANCH  10  11
ENDBRANCH   9  10
ENDBRANCH   8   9
ENDBRANCH   7   8
ENDBRANCH   6   7
ENDBRANCH   5   6
ENDBRANCH   4   5
ENDBRANCH   3   4
ENDBRANCH   2   3
ENDBRANCH   1   2
BRANCH   1  17
ATOM     17  C   UNL     1      25.477 -11.040  29.543  1.00  0.00     0.000 C 
BRANCH  17  18
ATOM     18  C   UNL     1      25.817  -9.727  28.806  1.00  0.00     0.000 C 
BRANCH  18  19
ATOM     19  C   UNL     1      24.588  -8.854  28.480  1.00  0.00     0.000 C 
BRANCH  19  20
ATOM     20  C   UNL     1      24.262  -7.772  29.522  1.00  0.00     0.000 C 
BRANCH  20  21
ATOM     21  C   UNL     1      22.897  -7.982  30.194  1.00  0.00     0.000 C 
BRANCH  21  22
ATOM     22  C   UNL     1      21.837  -8.409  29.171  1.00  0.00    -0.000 C 
BRANCH  22  23
ATOM     23  C   UNL     1      21.024  -9.633  29.625  1.00  0.00    -0.000 C 
BRANCH  23  24
ATOM     24  C   UNL     1      21.699 -10.984  29.306  1.00  0.00    -0.000 C 
BRANCH  24  25
ATOM     25  C   UNL     1      21.856 -11.869  30.557  1.00  0.00    -0.000 C 
BRANCH  25  26
ATOM     26  C   UNL     1      21.885 -11.052  31.857  1.00  0.00    -0.000 C 
BRANCH  26  27
ATOM     27  C   UNL     1      23.291 -10.980  32.478  1.00  0.00    -0.000 C 
BRANCH  27  28
ATOM     28  C   UNL     1      23.345 -10.091  33.732  1.00  0.00    -0.000 C 
BRANCH  28  29
ATOM     29  C   UNL     1      24.523  -9.095  33.734  1.00  0.00    -0.003 C 
ATOM     30  C   UNL     1      25.499  -9.342  32.583  1.00  0.00     0.004 C 
ENDBRANCH  28  29
ENDBRANCH  27  28
ENDBRANCH  26  27
ENDBRANCH  25  26
ENDBRANCH  24  25
ENDBRANCH  23  24
ENDBRANCH  22  23
ENDBRANCH  21  22
ENDBRANCH  20  21
ENDBRANCH  19  20
ENDBRANCH  18  19
ENDBRANCH  17  18
ENDBRANCH   1  17
TORSDOF 26
ENDMDL
MODEL 7
REMARK VINA RESULT:    -3.469      6.005      9.823
REMARK INTER + INTRA:         -10.674
REMARK INTER:                  -7.375
REMARK INTRA:                  -3.300
REMARK UNBOUND:                -1.933
REMARK SMILES CCCCCCCCCCCCCCCCCCCCCCCCCCCC(=O)[O-]
REMARK SMILES IDX 15 1 16 2 17 3 18 4 19 5 20 6 21 7 22 8 23 9 24 10 25 11
REMARK SMILES IDX 26 12 27 13 28 14 29 15 30 16 14 17 13 18 12 19 11 20 10 21
REMARK SMILES IDX 9 22 8 23 7 24 6 25 5 26 4 27 3 28 2 29 1 30
REMARK H PARENT
REMARK Flexibility Score: inf
ROOT
ATOM      1  C   UNL     1      22.656  -9.869  36.495  1.00  0.00     0.000 C 
ENDROOT
BRANCH   1   2
ATOM      2  C   UNL     1      23.514  -8.879  35.693  1.00  0.00     0.000 C 
BRANCH   2   3
ATOM      3  C   UNL     1      24.649  -9.575  34.921  1.00  0.00     0.000 C 
BRANCH   3   4
ATOM      4  C   UNL     1      24.769  -9.075  33.472  1.00  0.00     0.000 C 
BRANCH   4   5
ATOM      5  C   UNL     1      24.437 -10.173  32.446  1.00  0.00     0.000 C 
BRANCH   5   6
ATOM      6  C   UNL     1      25.059 -11.536  32.800  1.00  0.00     0.000 C 
BRANCH   6   7
ATOM      7  C   UNL     1      26.487 -11.757  32.269  1.00  0.00     0.000 C 
BRANCH   7   8
ATOM      8  C   UNL     1      26.771 -10.982  30.970  1.00  0.00     0.000 C 
BRANCH   8   9
ATOM      9  C   UNL     1      27.983 -10.046  31.092  1.00  0.00     0.000 C 
BRANCH   9  10
ATOM     10  C   UNL     1      29.224 -10.594  30.366  1.00  0.00     0.000 C 
BRANCH  10  11
ATOM     11  C   UNL     1      30.471 -10.623  31.263  1.00  0.00     0.000 C 
BRANCH  11  12
ATOM     12  C   UNL     1      31.034  -9.218  31.540  1.00  0.00     0.006 C 
BRANCH  12  13
ATOM     13  C   UNL     1      31.341  -9.001  33.028  1.00  0.00     0.053 C 
BRANCH  13  14
ATOM     14  C   UNL     1      31.456  -7.546  33.371  1.00  0.00     0.041 C 
ATOM     15  O   UNL     1      32.393  -7.141  34.110  1.00  0.00    -0.550 OA
ATOM     16  O   UNL     1      30.547  -6.634  32.849  1.00  0.00    -0.550 OA
ENDBRANCH  13  14
ENDBRANCH  12  13
ENDBRANCH  11  12
ENDBRANCH  10  11
ENDBRANCH   9  10
ENDBRANCH   8   9
ENDBRANCH   7   8
ENDBRANCH   6   7
ENDBRANCH   5   6
ENDBRANCH   4   5
ENDBRANCH   3   4
ENDBRANCH   2   3
ENDBRANCH   1   2
BRANCH   1  17
ATOM     17  C   UNL     1      21.159  -9.780  36.140  1.00  0.00     0.000 C 
BRANCH  17  18
ATOM     18  C   UNL     1      20.924  -9.561  34.630  1.00  0.00     0.000 C 
BRANCH  18  19
ATOM     19  C   UNL     1      21.324 -10.764  33.752  1.00  0.00     0.000 C 
BRANCH  19  20
ATOM     20  C   UNL     1      20.177 -11.392  32.945  1.00  0.00     0.000 C 
BRANCH  20  21
ATOM     21  C   UNL     1      19.877 -10.635  31.643  1.00  0.00     0.000 C 
BRANCH  21  22
ATOM     22  C   UNL     1      20.955  -9.581  31.356  1.00  0.00    -0.000 C 
BRANCH  22  23
ATOM     23  C   UNL     1      20.542  -8.584  30.260  1.00  0.00    -0.000 C 
BRANCH  23  24
ATOM     24  C   UNL     1      21.050  -8.958  28.852  1.00  0.00    -0.000 C 
BRANCH  24  25
ATOM     25  C   UNL     1      21.446 -10.442  28.748  1.00  0.00    -0.000 C 
BRANCH  25  26
ATOM     26  C   UNL     1      22.692 -10.661  27.877  1.00  0.00    -0.000 C 
BRANCH  26  27
ATOM     27  C   UNL     1      24.001 -10.495  28.667  1.00  0.00    -0.000 C 
BRANCH  27  28
ATOM     28  C   UNL     1      24.683  -9.139  28.413  1.00  0.00    -0.000 C 
BRANCH  28  29
ATOM     29  C   UNL     1      24.827  -8.273  29.682  1.00  0.00    -0.003 C 
ATOM     30  C   UNL     1      23.996  -6.991  29.613  1.00  0.00     0.004 C 
ENDBRANCH  28  29
ENDBRANCH  27  28
ENDBRANCH  26  27
ENDBRANCH  25  26
ENDBRANCH  24  25
ENDBRANCH  23  24
ENDBRANCH  22  23
ENDBRANCH  21  22
ENDBRANCH  20  21
ENDBRANCH  19  20
ENDBRANCH  18  19
ENDBRANCH  17  18
ENDBRANCH   1  17
TORSDOF 26
ENDMDL
MODEL 8
REMARK VINA RESULT:    -3.370      6.601     10.643
REMARK INTER + INTRA:         -10.426
REMARK INTER:                  -7.026
REMARK INTRA:                  -3.399
REMARK UNBOUND:                -1.933
REMARK SMILES CCCCCCCCCCCCCCCCCCCCCCCCCCCC(=O)[O-]
REMARK SMILES IDX 15 1 16 2 17 3 18 4 19 5 20 6 21 7 22 8 23 9 24 10 25 11
REMARK SMILES IDX 26 12 27 13 28 14 29 15 30 16 14 17 13 18 12 19 11 20 10 21
REMARK SMILES IDX 9 22 8 23 7 24 6 25 5 26 4 27 3 28 2 29 1 30
REMARK H PARENT
REMARK Flexibility Score: inf
ROOT
ATOM      1  C   UNL     1      24.565  -8.790  30.529  1.00  0.00     0.000 C 
ENDROOT
BRANCH   1   2
ATOM      2  C   UNL     1      25.974  -9.129  30.019  1.00  0.00     0.000 C 
BRANCH   2   3
ATOM      3  C   UNL     1      25.993  -9.460  28.517  1.00  0.00     0.000 C 
BRANCH   3   4
ATOM      4  C   UNL     1      25.246 -10.765  28.193  1.00  0.00     0.000 C 
BRANCH   4   5
ATOM      5  C   UNL     1      26.085 -12.014  28.514  1.00  0.00     0.000 C 
BRANCH   5   6
ATOM      6  C   UNL     1      27.504 -11.956  27.918  1.00  0.00     0.000 C 
BRANCH   6   7
ATOM      7  C   UNL     1      28.638 -11.821  28.951  1.00  0.00     0.000 C 
BRANCH   7   8
ATOM      8  C   UNL     1      28.176 -12.104  30.391  1.00  0.00     0.000 C 
BRANCH   8   9
ATOM      9  C   UNL     1      28.776 -11.122  31.410  1.00  0.00     0.000 C 
BRANCH   9  10
ATOM     10  C   UNL     1      29.705 -10.088  30.750  1.00  0.00     0.000 C 
BRANCH  10  11
ATOM     11  C   UNL     1      29.753  -8.760  31.519  1.00  0.00     0.000 C 
BRANCH  11  12
ATOM     12  C   UNL     1      31.150  -8.113  31.498  1.00  0.00     0.006 C 
BRANCH  12  13
ATOM     13  C   UNL     1      31.323  -7.073  32.614  1.00  0.00     0.053 C 
BRANCH  13  14
ATOM     14  C   UNL     1      31.884  -7.680  33.864  1.00  0.00     0.041 C 
ATOM     15  O   UNL     1      31.527  -8.834  34.224  1.00  0.00    -0.550 OA
ATOM     16  O   UNL     1      32.823  -6.984  34.615  1.00  0.00    -0.550 OA
ENDBRANCH  13  14
ENDBRANCH  12  13
ENDBRANCH  11  12
ENDBRANCH  10  11
ENDBRANCH   9  10
ENDBRANCH   8   9
ENDBRANCH   7   8
ENDBRANCH   6   7
ENDBRANCH   5   6
ENDBRANCH   4   5
ENDBRANCH   3   4
ENDBRANCH   2   3
ENDBRANCH   1   2
BRANCH   1  17
ATOM     17  C   UNL     1      23.998  -7.506  29.895  1.00  0.00     0.000 C 
BRANCH  17  18
ATOM     18  C   UNL     1      22.886  -7.799  28.865  1.00  0.00     0.000 C 
BRANCH  18  19
ATOM     19  C   UNL     1      21.462  -7.774  29.454  1.00  0.00     0.000 C 
BRANCH  19  20
ATOM     20  C   UNL     1      21.211  -8.769  30.598  1.00  0.00     0.000 C 
BRANCH  20  21
ATOM     21  C   UNL     1      20.472 -10.034  30.138  1.00  0.00     0.000 C 
BRANCH  21  22
ATOM     22  C   UNL     1      21.350 -10.878  29.204  1.00  0.00    -0.000 C 
BRANCH  22  23
ATOM     23  C   UNL     1      21.954 -12.110  29.900  1.00  0.00    -0.000 C 
BRANCH  23  24
ATOM     24  C   UNL     1      23.109 -11.777  30.868  1.00  0.00    -0.000 C 
BRANCH  24  25
ATOM     25  C   UNL     1      22.686 -11.892  32.345  1.00  0.00    -0.000 C 
BRANCH  25  26
ATOM     26  C   UNL     1      23.472 -10.941  33.259  1.00  0.00    -0.000 C 
BRANCH  26  27
ATOM     27  C   UNL     1      22.594  -9.816  33.834  1.00  0.00    -0.000 C 
BRANCH  27  28
ATOM     28  C   UNL     1      21.390 -10.346  34.630  1.00  0.00    -0.000 C 
BRANCH  28  29
ATOM     29  C   UNL     1      21.562 -10.236  36.160  1.00  0.00    -0.003 C 
ATOM     30  C   UNL     1      22.036 -11.546  36.790  1.00  0.00     0.004 C 
ENDBRANCH  28  29
ENDBRANCH  27  28
ENDBRANCH  26  27
ENDBRANCH  25  26
ENDBRANCH  24  25
ENDBRANCH  23  24
ENDBRANCH  22  23
ENDBRANCH  21  22
ENDBRANCH  20  21
ENDBRANCH  19  20
ENDBRANCH  18  19
ENDBRANCH  17  18
ENDBRANCH   1  17
TORSDOF 26
ENDMDL
MODEL 9
REMARK VINA RESULT:    -3.358      6.156      8.837
REMARK INTER + INTRA:         -10.396
REMARK INTER:                  -7.898
REMARK INTRA:                  -2.498
REMARK UNBOUND:                -1.933
REMARK SMILES CCCCCCCCCCCCCCCCCCCCCCCCCCCC(=O)[O-]
REMARK SMILES IDX 15 1 16 2 17 3 18 4 19 5 20 6 21 7 22 8 23 9 24 10 25 11
REMARK SMILES IDX 26 12 27 13 28 14 29 15 30 16 14 17 13 18 12 19 11 20 10 21
REMARK SMILES IDX 9 22 8 23 7 24 6 25 5 26 4 27 3 28 2 29 1 30
REMARK H PARENT
REMARK Flexibility Score: inf
ROOT
ATOM      1  C   UNL     1      26.372 -11.238  30.971  1.00  0.00     0.000 C 
ENDROOT
BRANCH   1   2
ATOM      2  C   UNL     1      25.765  -9.843  30.756  1.00  0.00     0.000 C 
BRANCH   2   3
ATOM      3  C   UNL     1      25.040  -9.719  29.404  1.00  0.00     0.000 C 
BRANCH   3   4
ATOM      4  C   UNL     1      24.385  -8.341  29.212  1.00  0.00     0.000 C 
BRANCH   4   5
ATOM      5  C   UNL     1      23.384  -8.009  30.332  1.00  0.00     0.000 C 
BRANCH   5   6
ATOM      6  C   UNL     1      22.050  -8.767  30.192  1.00  0.00     0.000 C 
BRANCH   6   7
ATOM      7  C   UNL     1      21.393  -9.178  31.522  1.00  0.00     0.000 C 
BRANCH   7   8
ATOM      8  C   UNL     1      21.184 -10.698  31.644  1.00  0.00     0.000 C 
BRANCH   8   9
ATOM      9  C   UNL     1      22.398 -11.504  31.155  1.00  0.00     0.000 C 
BRANCH   9  10
ATOM     10  C   UNL     1      23.224 -12.085  32.316  1.00  0.00     0.000 C 
BRANCH  10  11
ATOM     11  C   UNL     1      22.499 -11.986  33.666  1.00  0.00     0.000 C 
BRANCH  11  12
ATOM     12  C   UNL     1      23.469 -11.802  34.847  1.00  0.00     0.006 C 
BRANCH  12  13
ATOM     13  C   UNL     1      24.678 -10.934  34.472  1.00  0.00     0.053 C 
BRANCH  13  14
ATOM     14  C   UNL     1      24.387  -9.472  34.623  1.00  0.00     0.041 C 
ATOM     15  O   UNL     1      23.914  -9.028  35.703  1.00  0.00    -0.550 OA
ATOM     16  O   UNL     1      24.666  -8.595  33.581  1.00  0.00    -0.550 OA
ENDBRANCH  13  14
ENDBRANCH  12  13
ENDBRANCH  11  12
ENDBRANCH  10  11
ENDBRANCH   9  10
ENDBRANCH   8   9
ENDBRANCH   7   8
ENDBRANCH   6   7
ENDBRANCH   5   6
ENDBRANCH   4   5
ENDBRANCH   3   4
ENDBRANCH   2   3
ENDBRANCH   1   2
BRANCH   1  17
ATOM     17  C   UNL     1      27.898 -11.195  31.177  1.00  0.00     0.000 C 
BRANCH  17  18
ATOM     18  C   UNL     1      28.502  -9.818  30.825  1.00  0.00     0.000 C 
BRANCH  18  19
ATOM     19  C   UNL     1      29.985  -9.664  31.218  1.00  0.00     0.000 C 
BRANCH  19  20
ATOM     20  C   UNL     1      30.355  -8.313  31.849  1.00  0.00     0.000 C 
BRANCH  20  21
ATOM     21  C   UNL     1      31.864  -8.162  32.096  1.00  0.00     0.000 C 
BRANCH  21  22
ATOM     22  C   UNL     1      32.620  -7.944  30.780  1.00  0.00    -0.000 C 
BRANCH  22  23
ATOM     23  C   UNL     1      33.368  -9.200  30.301  1.00  0.00    -0.000 C 
BRANCH  23  24
ATOM     24  C   UNL     1      34.529  -8.904  29.329  1.00  0.00    -0.000 C 
BRANCH  24  25
ATOM     25  C   UNL     1      34.916 -10.135  28.488  1.00  0.00    -0.000 C 
BRANCH  25  26
ATOM     26  C   UNL     1      36.433 -10.256  28.282  1.00  0.00    -0.000 C 
BRANCH  26  27
ATOM     27  C   UNL     1      36.917 -11.716  28.295  1.00  0.00    -0.000 C 
BRANCH  27  28
ATOM     28  C   UNL     1      37.911 -12.005  29.433  1.00  0.00    -0.000 C 
BRANCH  28  29
ATOM     29  C   UNL     1      37.679 -11.142  30.691  1.00  0.00    -0.003 C 
ATOM     30  C   UNL     1      38.105 -11.854  31.975  1.00  0.00     0.004 C 
ENDBRANCH  28  29
ENDBRANCH  27  28
ENDBRANCH  26  27
ENDBRANCH  25  26
ENDBRANCH  24  25
ENDBRANCH  23  24
ENDBRANCH  22  23
ENDBRANCH  21  22
ENDBRANCH  20  21
ENDBRANCH  19  20
ENDBRANCH  18  19
ENDBRANCH  17  18
ENDBRANCH   1  17
TORSDOF 26
ENDMDL
