MODEL 1
REMARK VINA RESULT:    -4.429      0.000      0.000
REMARK INTER + INTRA:          -4.701
REMARK INTER:                  -4.688
REMARK INTRA:                  -0.013
REMARK UNBOUND:                -0.013
REMARK SMILES O=Cc1ccccc1
REMARK SMILES IDX 6 1 5 2 4 3 3 4 8 5 7 6 2 7 1 8
REMARK H PARENT
REMARK Flexibility Score: inf
ROOT
ATOM      1  C   UNL     1      -8.972   9.259 -33.788  1.00  0.00     0.000 A 
ATOM      2  C   UNL     1      -9.644   8.500 -34.748  1.00  0.00     0.001 A 
ATOM      3  C   UNL     1     -10.402   7.390 -34.360  1.00  0.00     0.011 A 
ATOM      4  C   UNL     1     -10.492   7.034 -33.002  1.00  0.00     0.014 A 
ATOM      5  C   UNL     1      -9.811   7.804 -32.043  1.00  0.00     0.011 A 
ATOM      6  C   UNL     1      -9.055   8.912 -32.437  1.00  0.00     0.001 A 
ENDROOT
BRANCH   4   7
ATOM      7  C   UNL     1     -11.286   5.868 -32.570  1.00  0.00     0.260 C 
ATOM      8  O   UNL     1     -10.996   5.236 -31.520  1.00  0.00    -0.298 OA
ENDBRANCH   4   7
TORSDOF 1
ENDMDL
MODEL 2
REMARK VINA RESULT:    -4.412     11.873     12.600
REMARK INTER + INTRA:          -4.683
REMARK INTER:                  -4.671
REMARK INTRA:                  -0.012
REMARK UNBOUND:                -0.013
REMARK SMILES O=Cc1ccccc1
REMARK SMILES IDX 6 1 5 2 4 3 3 4 8 5 7 6 2 7 1 8
REMARK H PARENT
REMARK Flexibility Score: inf
ROOT
ATOM      1  C   UNL     1     -15.093  13.271 -24.314  1.00  0.00     0.000 A 
ATOM      2  C   UNL     1     -16.214  13.297 -23.482  1.00  0.00     0.001 A 
ATOM      3  C   UNL     1     -17.442  13.748 -23.974  1.00  0.00     0.011 A 
ATOM      4  C   UNL     1     -17.557  14.175 -25.310  1.00  0.00     0.014 A 
ATOM      5  C   UNL     1     -16.424  14.145 -26.139  1.00  0.00     0.011 A 
ATOM      6  C   UNL     1     -15.197  13.693 -25.642  1.00  0.00     0.001 A 
ENDROOT
BRANCH   4   7
ATOM      7  C   UNL     1     -18.843  14.653 -25.850  1.00  0.00     0.260 C 
ATOM      8  O   UNL     1     -19.228  14.323 -27.002  1.00  0.00    -0.298 OA
ENDBRANCH   4   7
TORSDOF 1
ENDMDL
MODEL 3
REMARK VINA RESULT:    -4.409     11.976     12.729
REMARK INTER + INTRA:          -4.679
REMARK INTER:                  -4.668
REMARK INTRA:                  -0.012
REMARK UNBOUND:                -0.013
REMARK SMILES O=Cc1ccccc1
REMARK SMILES IDX 6 1 5 2 4 3 3 4 8 5 7 6 2 7 1 8
REMARK H PARENT
REMARK Flexibility Score: inf
ROOT
ATOM      1  C   UNL     1     -14.281  13.365 -24.954  1.00  0.00     0.000 A 
ATOM      2  C   UNL     1     -14.416  13.096 -23.591  1.00  0.00     0.001 A 
ATOM      3  C   UNL     1     -15.664  13.217 -22.972  1.00  0.00     0.011 A 
ATOM      4  C   UNL     1     -16.791  13.608 -23.719  1.00  0.00     0.014 A 
ATOM      5  C   UNL     1     -16.645  13.878 -25.090  1.00  0.00     0.011 A 
ATOM      6  C   UNL     1     -15.395  13.755 -25.704  1.00  0.00     0.001 A 
ENDROOT
BRANCH   4   7
ATOM      7  C   UNL     1     -18.116  13.742 -23.086  1.00  0.00     0.260 C 
ATOM      8  O   UNL     1     -18.445  13.023 -22.106  1.00  0.00    -0.298 OA
ENDBRANCH   4   7
TORSDOF 1
ENDMDL
MODEL 4
REMARK VINA RESULT:    -4.382     12.156     12.856
REMARK INTER + INTRA:          -4.651
REMARK INTER:                  -4.638
REMARK INTRA:                  -0.013
REMARK UNBOUND:                -0.013
REMARK SMILES O=Cc1ccccc1
REMARK SMILES IDX 6 1 5 2 4 3 3 4 8 5 7 6 2 7 1 8
REMARK H PARENT
REMARK Flexibility Score: inf
ROOT
ATOM      1  C   UNL     1     -19.096  14.291 -24.396  1.00  0.00     0.000 A 
ATOM      2  C   UNL     1     -18.577  14.536 -25.669  1.00  0.00     0.001 A 
ATOM      3  C   UNL     1     -17.233  14.263 -25.944  1.00  0.00     0.011 A 
ATOM      4  C   UNL     1     -16.397  13.740 -24.940  1.00  0.00     0.014 A 
ATOM      5  C   UNL     1     -16.928  13.497 -23.662  1.00  0.00     0.011 A 
ATOM      6  C   UNL     1     -18.273  13.772 -23.393  1.00  0.00     0.001 A 
ENDROOT
BRANCH   4   7
ATOM      7  C   UNL     1     -14.978  13.444 -25.208  1.00  0.00     0.260 C 
ATOM      8  O   UNL     1     -14.135  13.398 -24.273  1.00  0.00    -0.298 OA
ENDBRANCH   4   7
TORSDOF 1
ENDMDL
MODEL 5
REMARK VINA RESULT:    -4.370     12.076     12.883
REMARK INTER + INTRA:          -4.638
REMARK INTER:                  -4.626
REMARK INTRA:                  -0.012
REMARK UNBOUND:                -0.013
REMARK SMILES O=Cc1ccccc1
REMARK SMILES IDX 6 1 5 2 4 3 3 4 8 5 7 6 2 7 1 8
REMARK H PARENT
REMARK Flexibility Score: inf
ROOT
ATOM      1  C   UNL     1     -18.993  14.237 -24.348  1.00  0.00     0.000 A 
ATOM      2  C   UNL     1     -18.130  13.735 -23.371  1.00  0.00     0.001 A 
ATOM      3  C   UNL     1     -16.790  13.485 -23.680  1.00  0.00     0.011 A 
ATOM      4  C   UNL     1     -16.302  13.738 -24.975  1.00  0.00     0.014 A 
ATOM      5  C   UNL     1     -17.177  14.242 -25.952  1.00  0.00     0.011 A 
ATOM      6  C   UNL     1     -18.517  14.491 -25.637  1.00  0.00     0.001 A 
ENDROOT
BRANCH   4   7
ATOM      7  C   UNL     1     -14.892  13.482 -25.323  1.00  0.00     0.260 C 
ATOM      8  O   UNL     1     -14.002  13.425 -24.433  1.00  0.00    -0.298 OA
ENDBRANCH   4   7
TORSDOF 1
ENDMDL
MODEL 6
REMARK VINA RESULT:    -4.365     13.949     14.156
REMARK INTER + INTRA:          -4.633
REMARK INTER:                  -4.621
REMARK INTRA:                  -0.012
REMARK UNBOUND:                -0.013
REMARK SMILES O=Cc1ccccc1
REMARK SMILES IDX 6 1 5 2 4 3 3 4 8 5 7 6 2 7 1 8
REMARK H PARENT
REMARK Flexibility Score: inf
ROOT
ATOM      1  C   UNL     1     -22.269  13.767 -34.112  1.00  0.00     0.000 A 
ATOM      2  C   UNL     1     -22.642  12.829 -35.078  1.00  0.00     0.001 A 
ATOM      3  C   UNL     1     -23.382  11.702 -34.711  1.00  0.00     0.011 A 
ATOM      4  C   UNL     1     -23.758  11.505 -33.369  1.00  0.00     0.014 A 
ATOM      5  C   UNL     1     -23.378  12.454 -32.405  1.00  0.00     0.011 A 
ATOM      6  C   UNL     1     -22.637  13.580 -32.777  1.00  0.00     0.001 A 
ENDROOT
BRANCH   4   7
ATOM      7  C   UNL     1     -24.539  10.324 -32.961  1.00  0.00     0.260 C 
ATOM      8  O   UNL     1     -25.212   9.667 -33.798  1.00  0.00    -0.298 OA
ENDBRANCH   4   7
TORSDOF 1
ENDMDL
MODEL 7
REMARK VINA RESULT:    -4.359     13.882     14.666
REMARK INTER + INTRA:          -4.627
REMARK INTER:                  -4.614
REMARK INTRA:                  -0.013
REMARK UNBOUND:                -0.013
REMARK SMILES O=Cc1ccccc1
REMARK SMILES IDX 6 1 5 2 4 3 3 4 8 5 7 6 2 7 1 8
REMARK H PARENT
REMARK Flexibility Score: inf
ROOT
ATOM      1  C   UNL     1     -24.883   9.812 -33.222  1.00  0.00     0.000 A 
ATOM      2  C   UNL     1     -24.477  10.809 -32.333  1.00  0.00     0.001 A 
ATOM      3  C   UNL     1     -23.701  11.880 -32.786  1.00  0.00     0.011 A 
ATOM      4  C   UNL     1     -23.324  11.959 -34.140  1.00  0.00     0.014 A 
ATOM      5  C   UNL     1     -23.737  10.951 -35.027  1.00  0.00     0.011 A 
ATOM      6  C   UNL     1     -24.514   9.882 -34.568  1.00  0.00     0.001 A 
ENDROOT
BRANCH   4   7
ATOM      7  C   UNL     1     -22.506  13.080 -34.639  1.00  0.00     0.260 C 
ATOM      8  O   UNL     1     -22.140  14.010 -33.874  1.00  0.00    -0.298 OA
ENDBRANCH   4   7
TORSDOF 1
ENDMDL
MODEL 8
REMARK VINA RESULT:    -4.341     12.153     12.733
REMARK INTER + INTRA:          -4.607
REMARK INTER:                  -4.594
REMARK INTRA:                  -0.013
REMARK UNBOUND:                -0.013
REMARK SMILES O=Cc1ccccc1
REMARK SMILES IDX 6 1 5 2 4 3 3 4 8 5 7 6 2 7 1 8
REMARK H PARENT
REMARK Flexibility Score: inf
ROOT
ATOM      1  C   UNL     1     -15.062  13.642 -25.612  1.00  0.00     0.000 A 
ATOM      2  C   UNL     1     -16.160  14.144 -26.315  1.00  0.00     0.001 A 
ATOM      3  C   UNL     1     -17.409  14.236 -25.693  1.00  0.00     0.011 A 
ATOM      4  C   UNL     1     -17.567  13.827 -24.356  1.00  0.00     0.014 A 
ATOM      5  C   UNL     1     -16.456  13.324 -23.657  1.00  0.00     0.011 A 
ATOM      6  C   UNL     1     -15.210  13.233 -24.284  1.00  0.00     0.001 A 
ENDROOT
BRANCH   4   7
ATOM      7  C   UNL     1     -18.874  13.917 -23.680  1.00  0.00     0.260 C 
ATOM      8  O   UNL     1     -19.856  14.477 -24.234  1.00  0.00    -0.298 OA
ENDBRANCH   4   7
TORSDOF 1
ENDMDL
MODEL 9
REMARK VINA RESULT:    -4.303      2.018      3.371
REMARK INTER + INTRA:          -4.568
REMARK INTER:                  -4.555
REMARK INTRA:                  -0.013
REMARK UNBOUND:                -0.013
REMARK SMILES O=Cc1ccccc1
REMARK SMILES IDX 6 1 5 2 4 3 3 4 8 5 7 6 2 7 1 8
REMARK H PARENT
REMARK Flexibility Score: inf
ROOT
ATOM      1  C   UNL     1     -11.704   5.106 -33.452  1.00  0.00     0.000 A 
ATOM      2  C   UNL     1     -11.304   5.883 -34.541  1.00  0.00     0.001 A 
ATOM      3  C   UNL     1     -10.555   7.046 -34.336  1.00  0.00     0.011 A 
ATOM      4  C   UNL     1     -10.200   7.439 -33.033  1.00  0.00     0.014 A 
ATOM      5  C   UNL     1     -10.608   6.652 -31.943  1.00  0.00     0.011 A 
ATOM      6  C   UNL     1     -11.357   5.489 -32.154  1.00  0.00     0.001 A 
ENDROOT
BRANCH   4   7
ATOM      7  C   UNL     1      -9.410   8.661 -32.793  1.00  0.00     0.260 C 
ATOM      8  O   UNL     1      -8.753   9.203 -33.720  1.00  0.00    -0.298 OA
ENDBRANCH   4   7
TORSDOF 1
ENDMDL
