MODEL 1
REMARK VINA RESULT:    -2.454      0.000      0.000
REMARK INTER + INTRA:          -2.454
REMARK INTER:                  -2.454
REMARK INTRA:                   0.000
REMARK UNBOUND:                 0.000
REMARK SMILES CC(=O)[O-]
REMARK SMILES IDX 1 1 2 2 3 3 4 4
REMARK H PARENT
REMARK Flexibility Score: inf
ROOT
ATOM      1  C   UNL     1     -25.903 -11.538  16.998  1.00  0.00     0.063 C 
ATOM      2  C   UNL     1     -27.364 -11.244  16.966  1.00  0.00     0.038 C 
ATOM      3  O   UNL     1     -28.180 -12.135  16.611  1.00  0.00    -0.550 OA
ATOM      4  O   UNL     1     -27.835 -10.006  17.381  1.00  0.00    -0.550 OA
ENDROOT
TORSDOF 0
ENDMDL
MODEL 2
REMARK VINA RESULT:    -2.451      0.152      1.626
REMARK INTER + INTRA:          -2.451
REMARK INTER:                  -2.451
REMARK INTRA:                   0.000
REMARK UNBOUND:                 0.000
REMARK SMILES CC(=O)[O-]
REMARK SMILES IDX 1 1 2 2 3 3 4 4
REMARK H PARENT
REMARK Flexibility Score: inf
ROOT
ATOM      1  C   UNL     1     -25.983 -11.366  17.016  1.00  0.00     0.063 C 
ATOM      2  C   UNL     1     -27.453 -11.119  17.034  1.00  0.00     0.038 C 
ATOM      3  O   UNL     1     -27.901  -9.998  17.393  1.00  0.00    -0.550 OA
ATOM      4  O   UNL     1     -28.331 -12.106  16.605  1.00  0.00    -0.550 OA
ENDROOT
TORSDOF 0
ENDMDL
MODEL 3
REMARK VINA RESULT:    -2.301      1.475      1.977
REMARK INTER + INTRA:          -2.301
REMARK INTER:                  -2.301
REMARK INTRA:                   0.000
REMARK UNBOUND:                 0.000
REMARK SMILES CC(=O)[O-]
REMARK SMILES IDX 1 1 2 2 3 3 4 4
REMARK H PARENT
REMARK Flexibility Score: inf
ROOT
ATOM      1  C   UNL     1     -28.164 -12.237  17.059  1.00  0.00     0.063 C 
ATOM      2  C   UNL     1     -27.429 -10.950  17.223  1.00  0.00     0.038 C 
ATOM      3  O   UNL     1     -28.064  -9.882  17.424  1.00  0.00    -0.550 OA
ATOM      4  O   UNL     1     -26.041 -10.934  17.208  1.00  0.00    -0.550 OA
ENDROOT
TORSDOF 0
ENDMDL
MODEL 4
REMARK VINA RESULT:    -2.272      1.775      2.078
REMARK INTER + INTRA:          -2.272
REMARK INTER:                  -2.272
REMARK INTRA:                   0.000
REMARK UNBOUND:                 0.000
REMARK SMILES CC(=O)[O-]
REMARK SMILES IDX 1 1 2 2 3 3 4 4
REMARK H PARENT
REMARK Flexibility Score: inf
ROOT
ATOM      1  C   UNL     1     -28.992 -10.620  17.594  1.00  0.00     0.063 C 
ATOM      2  C   UNL     1     -28.351 -11.730  16.831  1.00  0.00     0.038 C 
ATOM      3  O   UNL     1     -29.042 -12.705  16.435  1.00  0.00    -0.550 OA
ATOM      4  O   UNL     1     -27.003 -11.665  16.508  1.00  0.00    -0.550 OA
ENDROOT
TORSDOF 0
ENDMDL
MODEL 5
REMARK VINA RESULT:    -2.250      1.424      1.603
REMARK INTER + INTRA:          -2.250
REMARK INTER:                  -2.250
REMARK INTRA:                   0.000
REMARK UNBOUND:                 0.000
REMARK SMILES CC(=O)[O-]
REMARK SMILES IDX 1 1 2 2 3 3 4 4
REMARK H PARENT
REMARK Flexibility Score: inf
ROOT
ATOM      1  C   UNL     1     -27.644 -12.643  17.687  1.00  0.00     0.063 C 
ATOM      2  C   UNL     1     -27.080 -11.366  17.162  1.00  0.00     0.038 C 
ATOM      3  O   UNL     1     -25.992 -11.370  16.529  1.00  0.00    -0.550 OA
ATOM      4  O   UNL     1     -27.780 -10.178  17.323  1.00  0.00    -0.550 OA
ENDROOT
TORSDOF 0
ENDMDL
MODEL 6
REMARK VINA RESULT:    -2.220      1.638      1.638
REMARK INTER + INTRA:          -2.220
REMARK INTER:                  -2.220
REMARK INTRA:                   0.000
REMARK UNBOUND:                 0.000
REMARK SMILES CC(=O)[O-]
REMARK SMILES IDX 1 1 2 2 3 3 4 4
REMARK H PARENT
REMARK Flexibility Score: inf
ROOT
ATOM      1  C   UNL     1     -26.560 -13.236  17.789  1.00  0.00     0.063 C 
ATOM      2  C   UNL     1     -26.787 -11.988  17.006  1.00  0.00     0.038 C 
ATOM      3  O   UNL     1     -27.921 -11.748  16.514  1.00  0.00    -0.550 OA
ATOM      4  O   UNL     1     -25.763 -11.060  16.862  1.00  0.00    -0.550 OA
ENDROOT
TORSDOF 0
ENDMDL
MODEL 7
REMARK VINA RESULT:    -2.218      1.611      2.233
REMARK INTER + INTRA:          -2.218
REMARK INTER:                  -2.218
REMARK INTRA:                   0.000
REMARK UNBOUND:                 0.000
REMARK SMILES CC(=O)[O-]
REMARK SMILES IDX 1 1 2 2 3 3 4 4
REMARK H PARENT
REMARK Flexibility Score: inf
ROOT
ATOM      1  C   UNL     1     -28.005 -10.616  17.389  1.00  0.00     0.063 C 
ATOM      2  C   UNL     1     -27.197 -11.800  16.978  1.00  0.00     0.038 C 
ATOM      3  O   UNL     1     -26.087 -11.640  16.407  1.00  0.00    -0.550 OA
ATOM      4  O   UNL     1     -27.641 -13.083  17.272  1.00  0.00    -0.550 OA
ENDROOT
TORSDOF 0
ENDMDL
MODEL 8
REMARK VINA RESULT:    -2.031      2.021      2.356
REMARK INTER + INTRA:          -2.031
REMARK INTER:                  -2.031
REMARK INTRA:                   0.000
REMARK UNBOUND:                 0.000
REMARK SMILES CC(=O)[O-]
REMARK SMILES IDX 1 1 2 2 3 3 4 4
REMARK H PARENT
REMARK Flexibility Score: inf
ROOT
ATOM      1  C   UNL     1     -28.606 -13.748  17.482  1.00  0.00     0.063 C 
ATOM      2  C   UNL     1     -28.726 -12.459  16.741  1.00  0.00     0.038 C 
ATOM      3  O   UNL     1     -29.852 -12.064  16.339  1.00  0.00    -0.550 OA
ATOM      4  O   UNL     1     -27.605 -11.665  16.539  1.00  0.00    -0.550 OA
ENDROOT
TORSDOF 0
ENDMDL
MODEL 9
REMARK VINA RESULT:    -1.826      8.208      8.360
REMARK INTER + INTRA:          -1.826
REMARK INTER:                  -1.826
REMARK INTRA:                   0.000
REMARK UNBOUND:                 0.000
REMARK SMILES CC(=O)[O-]
REMARK SMILES IDX 1 1 2 2 3 3 4 4
REMARK H PARENT
REMARK Flexibility Score: inf
ROOT
ATOM      1  C   UNL     1     -29.521 -17.387  12.918  1.00  0.00     0.063 C 
ATOM      2  C   UNL     1     -28.393 -17.513  11.950  1.00  0.00     0.038 C 
ATOM      3  O   UNL     1     -27.333 -18.103  12.289  1.00  0.00    -0.550 OA
ATOM      4  O   UNL     1     -28.529 -17.030  10.656  1.00  0.00    -0.550 OA
ENDROOT
TORSDOF 0
ENDMDL
